#------------------------------------------------------------------------------
#$Date: 2020-04-04 07:17:19 +0300 (Sat, 04 Apr 2020) $
#$Revision: 250081 $
#$URL: file:///home/coder/svn-repositories/cod/cif/4/13/43/4134377.cif $
#------------------------------------------------------------------------------
#
# This file is available in the Crystallography Open Database (COD),
# http://www.crystallography.net/
#
# All data on this site have been placed in the public domain by the
# contributors.
#
data_4134377
loop_
_publ_author_name
'Lanke, Veeranjaneyulu'
'Marek, Ilan'
_publ_section_title
;
 Nucleophilic Substitution at Quaternary Carbon Stereocenters.
;
_journal_issue                   12
_journal_name_full               'Journal of the American Chemical Society'
_journal_page_first              5543
_journal_page_last               5548
_journal_paper_doi               10.1021/jacs.0c01133
_journal_volume                  142
_journal_year                    2020
_chemical_absolute_configuration unk
_chemical_formula_moiety         'C30 H44 F2 O4'
_chemical_formula_sum            'C30 H44 F2 O4'
_chemical_formula_weight         506.65
_chemical_name_common            'Marek155b (Veeru)'
_space_group_crystal_system      triclinic
_space_group_IT_number           2
_space_group_name_Hall           '-P 1'
_space_group_name_H-M_alt        'P -1'
_atom_sites_solution_hydrogens   geom
_audit_creation_method           SHELXL-2018/3
_cell_angle_alpha                108.412(2)
_cell_angle_beta                 94.7640(10)
_cell_angle_gamma                104.611(3)
_cell_formula_units_Z            1
_cell_length_a                   5.893(4)
_cell_length_b                   9.976(7)
_cell_length_c                   13.552(6)
_cell_measurement_reflns_used    2572
_cell_measurement_temperature    200(2)
_cell_measurement_theta_max      25.280
_cell_measurement_theta_min      1.609
_cell_volume                     719.9(8)
_computing_cell_refinement       'APEX2 v2010.7-0 (Bruker AXS)'
_computing_data_collection       'Bruker Instrument Service v2010.7.0.0'
_computing_data_reduction        'SAINT V7.68A (Bruker AXS, 2009)'
_computing_molecular_graphics    'Olex2 (Dolomanov et al., 2009)'
_computing_publication_material  'Olex2 (Dolomanov et al., 2009)'
_computing_structure_refinement  'SHELXL-2018/3 (Sheldrick, 2018)'
_computing_structure_solution    'SHELXT 2014/4 (Sheldrick, 2014)'
_diffrn_ambient_temperature      200(2)
_diffrn_detector_area_resol_mean 95
_diffrn_measured_fraction_theta_full 0.990
_diffrn_measured_fraction_theta_max 0.988
_diffrn_measurement_device_type  'APEX2 (Bruker AXS)'
_diffrn_measurement_method       '\f and \w scans'
_diffrn_radiation_type           MoK\a
_diffrn_radiation_wavelength     0.71073
_diffrn_reflns_av_R_equivalents  0.1118
_diffrn_reflns_av_unetI/netI     0.1264
_diffrn_reflns_Laue_measured_fraction_full 0.990
_diffrn_reflns_Laue_measured_fraction_max 0.988
_diffrn_reflns_limit_h_max       6
_diffrn_reflns_limit_h_min       -7
_diffrn_reflns_limit_k_max       11
_diffrn_reflns_limit_k_min       -11
_diffrn_reflns_limit_l_max       16
_diffrn_reflns_limit_l_min       -16
_diffrn_reflns_number            5957
_diffrn_reflns_point_group_measured_fraction_full 0.990
_diffrn_reflns_point_group_measured_fraction_max 0.988
_diffrn_reflns_theta_full        25.242
_diffrn_reflns_theta_max         25.280
_diffrn_reflns_theta_min         1.609
_exptl_absorpt_coefficient_mu    0.084
_exptl_absorpt_correction_T_max  0.967
_exptl_absorpt_correction_T_min  0.960
_exptl_absorpt_correction_type   multi-scan
_exptl_absorpt_process_details   'SADABS V2008/1 (Bruker AXS)'
_exptl_crystal_colour            colorless
_exptl_crystal_density_diffrn    1.169
_exptl_crystal_description       block
_exptl_crystal_F_000             274
_exptl_crystal_size_max          0.240
_exptl_crystal_size_mid          0.180
_exptl_crystal_size_min          0.150
_refine_diff_density_max         0.204
_refine_diff_density_min         -0.186
_refine_diff_density_rms         0.044
_refine_ls_extinction_method     none
_refine_ls_goodness_of_fit_ref   1.017
_refine_ls_hydrogen_treatment    constr
_refine_ls_matrix_type           full
_refine_ls_number_parameters     166
_refine_ls_number_reflns         2572
_refine_ls_number_restraints     0
_refine_ls_restrained_S_all      1.017
_refine_ls_R_factor_all          0.0822
_refine_ls_R_factor_gt           0.0510
_refine_ls_shift/su_max          0.000
_refine_ls_shift/su_mean         0.000
_refine_ls_structure_factor_coef Fsqd
_refine_ls_weighting_details
'w=1/[\s^2^(Fo^2^)+(0.0227P)^2^] where P=(Fo^2^+2Fc^2^)/3'
_refine_ls_weighting_scheme      calc
_refine_ls_wR_factor_gt          0.1196
_refine_ls_wR_factor_ref         0.1332
_reflns_Friedel_coverage         0.000
_reflns_number_gt                1726
_reflns_number_total             2572
_reflns_threshold_expression     'I > 2\s(I)'
_cod_data_source_file            ja0c01133_si_003.cif
_cod_data_source_block           Marek155b
_cod_depositor_comments
'Adding full bibliography for 4134376--4134377.cif.'
_cod_original_cell_volume        720.0(8)
_cod_database_code               4134377
_shelx_shelxl_version_number     2018/3
_shelx_space_group_comment
;
The symmetry employed for this shelxl refinement is uniquely defined
by the following loop, which should always be used as a source of
symmetry information in preference to the above space-group names.
They are only intended as comments.
;
_shelx_estimated_absorpt_t_min   0.980
_shelx_estimated_absorpt_t_max   0.987
_shelx_res_file
;
TITL mo_Marek155b_0ma_a.res in P-1
    marek155b.res
    created by SHELXL-2018/3 at 14:04:18 on 22-Aug-2019
REM Old TITL mo_Marek155b_0ma in P-1
REM SHELXT solution in P-1
REM R1 0.179, Rweak 0.012, Alpha 0.033, Orientation as input
REM Formula found by SHELXT: C15 O2 F
CELL 0.71073 5.8932 9.9761 13.5525 108.412 94.764 104.611
ZERR 1 0.004 0.007 0.006 0.002 0.001 0.003
LATT 1
SFAC C H F O
UNIT 30 44 2 4

L.S. 10
PLAN  20
SIZE 0.15 0.18 0.24
TEMP -73
BOND $H
LIST 6
fmap 2
acta
OMIT -3 2 2
OMIT -3 2 1
REM <olex2.extras>
REM <HklSrc "%.\\Marek155b.hkl">
REM </olex2.extras>

WGHT    0.022700
FVAR       1.12541
F1    3    0.494563    0.540459    0.859986    11.00000    0.05068    0.04924 =
         0.04197    0.00711    0.02055    0.02842
O1    4    0.749043    0.605755    0.650400    11.00000    0.03852    0.04715 =
         0.07172    0.02769    0.02745    0.01541
O2    4    0.354144    0.522152    0.641975    11.00000    0.03122    0.03530 =
         0.05040    0.01779    0.01288    0.01353
C1    1    0.360937    0.779973    0.705693    11.00000    0.05485    0.04483 =
         0.06524    0.02015    0.03194    0.02432
AFIX 137
H1A   2    0.323604    0.857216    0.683027    11.00000   -1.50000
H1B   2    0.527703    0.814345    0.740969    11.00000   -1.50000
H1C   2    0.257024    0.757878    0.754876    11.00000   -1.50000
AFIX   0
C2    1    0.321887    0.643003    0.611147    11.00000    0.04279    0.03700 =
         0.05515    0.02165    0.00787    0.01362
AFIX  23
H2A   2    0.158445    0.614637    0.571192    11.00000   -1.20000
H2B   2    0.435471    0.663485    0.564121    11.00000   -1.20000
AFIX   0
C3    1    0.578237    0.519066    0.662120    11.00000    0.03398    0.03080 =
         0.03676    0.00593    0.01630    0.01286
C4    1    0.587250    0.393554    0.701196    11.00000    0.03033    0.03257 =
         0.03545    0.00721    0.01433    0.01291
AFIX  13
H4    2    0.424850    0.320469    0.679916    11.00000   -1.20000
AFIX   0
C5    1    0.758740    0.316068    0.649981    11.00000    0.03248    0.03512 =
         0.03576    0.00825    0.01448    0.01522
AFIX  43
H5    2    0.907180    0.374953    0.643677    11.00000   -1.20000
AFIX   0
C6    1    0.714446    0.171512    0.613525    11.00000    0.03152    0.03407 =
         0.03700    0.01150    0.01278    0.01348
AFIX  43
H6    2    0.569587    0.115710    0.625243    11.00000   -1.20000
AFIX   0
C7    1    0.863653    0.086494    0.556705    11.00000    0.02982    0.02694 =
         0.02880    0.00488    0.00608    0.01198
C8    1    0.833986   -0.058649    0.552114    11.00000    0.03602    0.03297 =
         0.03677    0.01404    0.01635    0.00964
AFIX  43
H8    2    0.719221   -0.100650    0.587593    11.00000   -1.20000
AFIX   0
C9    1    0.966541   -0.142691    0.497549    11.00000    0.03868    0.02428 =
         0.03856    0.01130    0.01279    0.01269
AFIX  43
H9    2    0.942175   -0.240899    0.496729    11.00000   -1.20000
AFIX   0
C10   1    0.650567    0.454334    0.824949    11.00000    0.03792    0.04352 =
         0.03335    0.00644    0.01406    0.02200
C11   1    0.900806    0.557185    0.867796    11.00000    0.04370    0.05337 =
         0.04701    0.00624    0.00583    0.01365
AFIX 137
H11A  2    0.922967    0.639915    0.841734    11.00000   -1.50000
H11B  2    1.015581    0.503203    0.844256    11.00000   -1.50000
H11C  2    0.926181    0.595150    0.945191    11.00000   -1.50000
AFIX   0
C12   1    0.594533    0.330663    0.870203    11.00000    0.04762    0.05621 =
         0.03875    0.01761    0.01520    0.02417
AFIX  23
H12A  2    0.638494    0.375619    0.948120    11.00000   -1.20000
H12B  2    0.698244    0.267218    0.845790    11.00000   -1.20000
AFIX   0
C13   1    0.337050    0.231609    0.842772    11.00000    0.04979    0.06428 =
         0.04842    0.02640    0.02008    0.01902
AFIX  23
H13A  2    0.230258    0.294848    0.859927    11.00000   -1.20000
H13B  2    0.297754    0.176342    0.765706    11.00000   -1.20000
AFIX   0
C14   1    0.288197    0.122601    0.899910    11.00000    0.08038    0.04840 =
         0.04557    0.01655    0.02467    0.02018
AFIX  23
H14A  2    0.321183    0.177501    0.976989    11.00000   -1.20000
H14B  2    0.397863    0.061017    0.884682    11.00000   -1.20000
AFIX   0
C15   1    0.034150    0.022946    0.868267    11.00000    0.08079    0.06721 =
         0.07023    0.03070    0.03499    0.01417
AFIX 137
H15A  2    0.000145   -0.031478    0.791960    11.00000   -1.50000
H15B  2   -0.075102    0.082929    0.886276    11.00000   -1.50000
H15C  2    0.012773   -0.047193    0.906057    11.00000   -1.50000
AFIX   0
HKLF 4




REM  mo_Marek155b_0ma_a.res in P-1
REM wR2 = 0.1332, GooF = S = 1.017, Restrained GooF = 1.017 for all data
REM R1 = 0.0510 for 1726 Fo > 4sig(Fo) and 0.0822 for all 2572 data
REM 166 parameters refined using 0 restraints

END

WGHT      0.0227      0.0000

REM Highest difference peak  0.204,  deepest hole -0.186,  1-sigma level  0.044
Q1    1   0.9170  0.0331  0.5780  11.00000  0.05    0.20
Q2    1   0.8494  0.0192  0.5303  11.00000  0.05    0.20
Q3    1   0.8123  0.1344  0.5847  11.00000  0.05    0.19
Q4    1   0.4952  0.2359  0.8346  11.00000  0.05    0.18
Q5    1   0.5782  0.3541  0.7599  11.00000  0.05    0.17
Q6    1   0.6268  0.4304  0.7731  11.00000  0.05    0.15
Q7    1   0.6982  0.2334  0.8891  11.00000  0.05    0.15
Q8    1   0.6881  0.3556  0.6735  11.00000  0.05    0.15
Q9    1   0.7465  0.1234  0.6516  11.00000  0.05    0.15
Q10   1   0.7422  0.2487  0.6816  11.00000  0.05    0.15
Q11   1   0.4213  0.3611  0.8785  11.00000  0.05    0.14
Q12   1   0.8527 -0.0735  0.5879  11.00000  0.05    0.14
Q13   1   0.7604  0.2969  0.8688  11.00000  0.05    0.14
Q14   1   0.3548  0.7092  0.6565  11.00000  0.05    0.14
Q15   1   0.8865  0.3965  0.6312  11.00000  0.05    0.13
Q16   1   0.7258  0.2516  0.5979  11.00000  0.05    0.13
Q17   1   1.0166  0.3974  0.7974  11.00000  0.05    0.13
Q18   1   0.8843  0.2552  0.6369  11.00000  0.05    0.13
Q19   1   1.0050  0.1089  0.5529  11.00000  0.05    0.13
Q20   1   0.8198  0.7335  0.7179  11.00000  0.05    0.13
;
_shelx_res_checksum              32550
_shelx_hkl_file
;
   0   0  -1 1318.42    7.71
   0   0  -1 1030.53    8.73
   0   0   1 1135.73    7.12
   0   0   1 1092.64    7.22
   0   0  -2  475.13    4.00
   0   0  -2  385.34    4.60
   0   0   2  471.54    3.98
   0   0   2  337.52    4.27
   0   0   2  386.35    4.66
   0   0  -3  229.95    3.96
   0   0  -3  180.05    4.52
   0   0   3  234.26    4.06
   0   0   3  194.49    4.60
   0   0  -4 9999.00   60.93
   0   0  -4 7067.37   52.91
   0   0   4 9944.19   48.49
   0   0   4 8117.46   53.05
   0   0  -5  428.34    7.90
   0   0   5  650.13    7.69
   0   0   5  531.21    8.99
   0   0  -6 1167.43   14.03
   0   0   6 1601.28   12.81
   0   0   6 1316.09   15.14
   0   0  -7  115.49    5.65
   0   0   7  182.14    5.80
   0   0   7  137.83    6.11
   0   0  -8  203.86    7.74
   0   0   8  367.16    8.07
   0   0   8  292.74    9.12
   0   0  -9    4.70    3.42
   0   0   9   14.77    3.75
   0   0   9   12.89    3.47
   0   0 -10  122.36    7.90
   0   0  10  219.33    8.15
   0   0  10  182.67    8.91
   0   0 -11    1.67    3.63
   0   0  11   -2.48    3.32
   0   0 -12   21.29    4.99
   0   0  12   25.43    4.97
   0   0 -13   -0.37    3.71
   0   0  13    1.01    3.49
   0   0 -14   20.81    5.67
   0   0  14   28.30    5.92
   0   0 -15    7.61    5.36
   0   0  15    4.70    4.37
   0  -1  15   12.36    4.99
   0   1 -15   12.25    5.22
   0  -1  14   27.97    5.51
   0   1 -14   18.59    5.22
   0  -1  13    0.68    3.53
   0   1 -13    0.76    3.98
   0  -1  12   -1.63    3.07
   0   1 -12   -0.37    3.53
   0  -1  11   21.04    4.72
   0  -1  11   12.58    4.06
   0   1 -11    7.92    4.29
   0  -1  10  201.92    8.09
   0  -1  10  163.66    8.27
   0   1 -10  138.43    8.00
   0  -1   9    3.16    3.30
   0  -1   9    5.05    2.97
   0   1  -9    5.45    3.49
   0  -1   8  108.54    5.55
   0  -1   8   95.50    5.65
   0   1  -8   75.62    5.55
   0  -1   7   27.04    3.22
   0  -1   6 1599.28   12.97
   0  -1   6 1341.38   14.65
   0   1  -6 1234.93   14.15
   0  -1   5   98.66    4.08
   0  -1   5   79.41    3.92
   0   1  -5   68.65    3.77
   0  -1   4 4116.04   20.63
   0  -1   4 3459.73   25.06
   0   1  -4 3155.70   18.05
   0  -1   3 3591.68   23.51
   0  -1   3 3144.09   22.01
   0   1  -3 3550.57   20.57
   0   1  -3 2790.00   21.60
   0  -1   2  563.41    5.18
   0  -1   2  511.61    4.74
   0   1  -2  579.37    5.22
   0   1  -2  431.46    5.01
   0   1  -2  516.40    4.74
   0  -1   1  822.80    5.55
   0  -1   1  546.04    4.52
   0  -1   1  734.76    3.47
   0   1  -1  554.91    4.58
   0   1  -1  770.09    3.90
   0  -1   0 2681.42   18.09
   0  -1   0 1915.21   12.64
   0   1   0 2611.17   16.67
   0   1   0 1853.00   12.50
   0  -1  -1   72.15    2.15
   0   1   1   69.37    2.02
   0   1   1   49.75    1.86
   0   1   1   55.34    1.71
   0  -1  -2 7074.94   39.71
   0  -1  -2 4935.68   33.93
   0   1   2 6936.53   38.30
   0   1   2 5849.79   39.05
   0  -1  -3  221.25    4.52
   0  -1  -3  157.51    4.46
   0   1   3  263.20    4.76
   0   1   3  212.13    4.56
   0   1   3  217.55    5.09
   0  -1  -4 1398.35   13.16
   0   1   4 1886.60   12.34
   0   1   4 1577.95   14.09
   0  -1  -5  146.51    5.30
   0   1   5  195.55    4.91
   0   1   5  165.35    5.61
   0  -1  -6 1164.38   14.58
   0   1   6 1676.63   13.80
   0   1   6 1398.09   16.25
   0  -1  -7   10.40    2.93
   0   1   7   18.15    2.89
   0   1   7   15.14    3.01
   0  -1  -8   45.46    5.01
   0   1   8   74.65    5.40
   0   1   8   66.69    5.96
   0  -1  -9   18.71    4.25
   0   1   9   25.12    3.98
   0   1   9   19.82    4.13
   0  -1 -10   60.60    6.83
   0   1  10  121.47    7.26
   0   1  10   96.37    7.84
   0  -1 -11   15.47    4.54
   0   1  11   14.13    4.13
   0  -1 -12   -2.99    3.67
   0   1  12    1.77    3.55
   0  -1 -13    3.53    4.41
   0   1  13    8.02    4.29
   0  -1 -14    4.29    4.81
   0   1  14    4.70    4.29
   0  -2  15    4.97    4.21
   0   2 -15    3.55    4.50
   0  -2  14   -0.50    3.63
   0   2 -14    2.87    4.33
   0  -2  13   16.75    4.48
   0   2 -13   15.74    4.81
   0  -2  12    4.72    4.50
   0  -2  12    5.24    3.57
   0   2 -12    3.11    3.92
   0  -2  11   12.13    4.58
   0  -2  11    4.02    3.65
   0   2 -11    1.05    3.96
   0  -2  10  224.59    8.73
   0  -2  10  200.62    8.62
   0   2 -10  158.02    8.40
   0  -2   9   19.91    4.02
   0  -2   9   13.53    3.34
   0   2  -9   11.55    3.69
   0  -2   8   30.86    3.90
   0  -2   8   28.47    3.65
   0   2  -8   15.59    3.61
   0  -2   7  522.24    9.03
   0  -2   7  469.27    9.55
   0   2  -7  408.13    9.39
   0  -2   6   -1.69    2.25
   0  -2   6    1.24    1.59
   0   2  -6    0.31    2.27
   0  -2   5  255.36    6.09
   0  -2   5  230.05    5.61
   0   2  -5  201.75    6.02
   0  -2   4  590.04    8.13
   0  -2   4  541.79    7.12
   0   2  -4  430.72    7.45
   0  -2   3 4408.55   31.58
   0  -2   3 4233.04   26.26
   0   2  -3 3308.74   25.74
   0   2  -3 4175.28   24.63
   0  -2   2   90.97    2.23
   0   2  -2   76.22    3.98
   0   2  -2   98.02    2.17
   0  -2   1  271.76    5.16
   0  -2   1  155.86    4.89
   0   2  -1  176.88    4.15
   0  -2   0 1555.59   10.93
   0   2   0 1106.25    8.97
   0  -2  -1  636.64    7.74
   0  -2  -1  413.97    6.37
   0   2   1  490.12    6.83
   0   2   1  603.76    5.94
   0  -2  -2    7.98    2.17
   0  -2  -2    3.63    1.84
   0   2   2    1.11    1.82
   0   2   2    5.12    1.49
   0  -2  -3  777.40    8.91
   0  -2  -3  501.34    8.07
   0   2   3  738.72    9.18
   0  -2  -4 1327.07   12.13
   0  -2  -4  868.86   11.45
   0   2   4 1346.60   12.05
   0   2   4 1200.40   13.04
   0  -2  -5  171.87    5.53
   0  -2  -5  111.88    5.28
   0   2   5  226.14    5.94
   0   2   5  192.08    6.27
   0  -2  -6  211.94    7.36
   0   2   6  319.04    7.22
   0   2   6  268.38    8.00
   0  -2  -7   47.05    5.12
   0   2   7   81.33    5.12
   0   2   7   69.14    5.38
   0  -2  -8   13.80    3.90
   0   2   8   19.22    3.67
   0   2   8   12.81    3.61
   0  -2  -9  185.95    8.93
   0   2   9  390.12    9.76
   0   2   9  314.15   10.99
   0  -2 -10   69.41    6.89
   0   2  10  115.99    8.15
   0  -2 -11    4.68    3.80
   0   2  11   -2.21    3.09
   0  -2 -12    5.96    4.43
   0   2  12    8.58    4.21
   0  -2 -13    1.20    4.17
   0   2  13    0.37    3.84
   0  -3  16   28.34    6.27
   0   3 -16   16.36    5.69
   0  -3  15   47.19    6.93
   0   3 -15   30.61    5.90
   0   3 -14    9.32    4.87
   0  -3  13    8.27    3.96
   0   3 -13    8.68    4.54
   0  -3  12   93.09    7.78
   0  -3  12   92.57    7.43
   0   3 -12   78.67    7.47
   0  -3  11  111.14    8.17
   0  -3  11  117.84    7.69
   0   3 -11   69.45    7.51
   0  -3  10    2.39    4.06
   0  -3  10    2.66    2.99
   0   3 -10    2.29    3.80
   0  -3   9 1103.41   14.91
   0  -3   9 1054.66   15.80
   0   3  -9  851.03   15.33
   0  -3   8   95.19    6.00
   0  -3   8   90.39    5.36
   0   3  -8   77.78    5.90
   0  -3   7   78.98    5.47
   0  -3   7   74.46    4.52
   0   3  -7   66.81    5.22
   0  -3   6   11.20    3.07
   0  -3   6   19.06    2.43
   0   3  -6   12.09    3.18
   0  -3   5 1085.98   12.23
   0  -3   5 1009.24   10.35
   0   3  -5  850.39   11.72
   0  -3   4  150.68    3.84
   0   3  -4  115.57    5.01
   0  -3   3 1003.55   11.20
   0  -3   3  889.17    6.75
   0   3  -3  728.36    9.84
   0   3  -3  983.17    6.97
   0  -3   2    2.23    2.35
   0  -3   2    4.37    1.03
   0   3  -2    4.70    2.72
   0   3  -2    3.09    0.68
   0  -3   1  362.58    7.16
   0   3  -1  266.98    6.13
   0  -3   0  614.40    8.87
   0   3   0  418.75    7.20
   0   3   0  500.39    4.85
   0  -3  -1  160.36    5.26
   0   3   1  127.25    4.60
   0   3   1  158.23    3.61
   0  -3  -2   44.04    3.73
   0  -3  -2   32.61    3.63
   0   3   2   31.62    3.22
   0   3   2   43.44    2.76
   0  -3  -3  129.85    5.42
   0  -3  -3   77.43    4.52
   0   3   3  110.42    4.93
   0   3   3  139.17    4.70
   0  -3  -4  103.53    5.18
   0  -3  -4   61.43    4.60
   0   3   4   60.40    4.46
   0   3   4   74.13    4.27
   0  -3  -5  653.03   10.54
   0  -3  -5  405.14    9.57
   0   3   5  700.21   10.75
   0   3   5  620.55   11.06
   0  -3  -6  263.31    7.94
   0  -3  -6  161.51    7.32
   0   3   6  272.90    7.65
   0   3   6  245.71    8.13
   0  -3  -7   30.03    4.25
   0  -3  -7   23.18    4.33
   0   3   7   34.14    4.19
   0   3   7   28.92    4.17
   0  -3  -8   11.01    4.23
   0   3   8   11.22    3.67
   0   3   8    8.44    3.49
   0  -3  -9   41.01    5.75
   0   3   9   68.87    6.29
   0   3   9   58.00    6.66
   0  -3 -10   12.93    4.50
   0   3  10   26.11    4.74
   0  -3 -11   19.20    5.01
   0   3  11   31.58    5.38
   0  -3 -12    1.11    4.06
   0   3  12   -0.29    3.59
   0  -3 -13   -3.69    4.35
   0   3  13    1.30    4.10
   0  -4  16   12.05    5.32
   0   4 -16   16.63    5.55
   0  -4  15    8.42    4.83
   0   4 -15    5.69    4.62
   0  -4  14  128.34    9.39
   0   4 -14   78.32    8.19
   0  -4  13  119.37    8.54
   0  -4  13  117.35    8.44
   0   4 -13   96.31    8.37
   0  -4  12    0.52    4.35
   0  -4  12    1.71    3.47
   0   4 -12   -0.17    4.00
   0  -4  11   34.86    5.82
   0  -4  11   25.27    4.58
   0   4 -11   22.98    5.53
   0  -4  10  820.98   14.75
   0  -4  10  871.68   15.31
   0   4 -10  705.47   15.35
   0  -4   9  364.17   10.46
   0  -4   9  368.13    9.72
   0   4  -9  277.76   10.07
   0  -4   8   71.04    6.48
   0  -4   8   73.21    4.93
   0   4  -8   53.57    5.47
   0  -4   7  187.15    7.28
   0  -4   7  203.09    6.23
   0   4  -7  169.45    7.47
   0  -4   6 1347.74   15.59
   0  -4   6 1352.42   12.93
   0   4  -6 1053.67   14.65
   0  -4   5 1242.50   14.75
   0  -4   5 1147.28   10.44
   0   4  -5  927.52   13.20
   0  -4   4  806.69   11.74
   0  -4   4  735.81    7.10
   0   4  -4  608.60   10.42
   0   4  -4  807.76    7.26
   0  -4   3  654.75   10.52
   0  -4   3  533.77    4.81
   0   4  -3  511.22    9.36
   0   4  -3  699.88    5.24
   0  -4   2 1039.83   12.83
   0   4  -2  767.47   10.81
   0  -4   1   26.94    3.44
   0   4  -1   12.42    2.72
   0   4  -1   16.36    1.69
   0  -4   0   50.27    4.72
   0   4   0   37.56    4.02
   0   4   0   53.51    2.12
   0   4   0   41.42    2.41
   0  -4  -1 1861.33   17.20
   0   4   1 1384.33   14.81
   0   4   1 1856.73   12.19
   0  -4  -2   88.51    5.49
   0   4   2   56.70    4.43
   0   4   2   75.23    3.51
   0  -4  -3    0.78    2.70
   0  -4  -3    1.34    2.78
   0   4   3    2.54    2.45
   0   4   3    0.58    1.53
   0  -4  -4   26.61    3.98
   0  -4  -4   22.48    3.86
   0   4   4   36.74    4.27
   0   4   4   39.77    3.98
   0  -4  -5  251.82    8.37
   0  -4  -5  163.37    7.61
   0   4   5  292.10    8.58
   0   4   5  198.52    7.92
   0   4   5  269.20    8.17
   0  -4  -6    3.36    3.61
   0  -4  -6    2.02    3.59
   0   4   6    4.46    3.20
   0   4   6    3.51    3.38
   0   4   6    3.90    2.74
   0  -4  -7   10.42    4.17
   0  -4  -7    3.80    4.21
   0   4   7   11.30    3.82
   0   4   7    6.81    3.96
   0   4   7   12.79    3.59
   0  -4  -8   17.76    4.72
   0   4   8   37.56    4.70
   0   4   8   35.21    5.36
   0   4   8   25.89    4.41
   0  -4  -9   93.71    8.17
   0   4   9  139.60    8.42
   0  -4 -10   -2.08    3.92
   0   4  10   -1.90    3.26
   0  -4 -11   10.79    4.99
   0   4  11   14.48    4.46
   0  -4 -12   -3.09    4.29
   0   4  12   12.73    4.76
   0  -5  16    3.61    4.81
   0   5 -16    5.49    4.76
   0  -5  15    0.17    4.29
   0   5 -15    3.30    4.19
   0  -5  14   12.19    4.66
   0   5 -14   17.53    5.47
   0  -5  13    5.47    4.68
   0  -5  13    2.56    3.75
   0   5 -13    3.53    4.31
   0  -5  12    4.93    4.66
   0  -5  12    9.90    3.75
   0   5 -12   13.92    4.85
   0  -5  11    8.48    5.09
   0  -5  11   10.66    3.80
   0   5 -11    2.04    4.68
   0  -5  10  285.50   10.87
   0  -5  10  278.51    9.34
   0   5 -10  232.86   10.46
   0  -5   9    6.85    4.64
   0  -5   9    3.51    2.72
   0   5  -9   -1.28    3.92
   0  -5   8  105.07    7.82
   0  -5   8  113.04    5.67
   0   5  -8   92.29    7.55
   0  -5   7    3.53    3.88
   0  -5   7    4.39    2.04
   0   5  -7    2.56    3.73
   0  -5   6  152.93    7.74
   0  -5   6  128.07    4.48
   0   5  -6  115.20    7.16
   0  -5   5   63.45    6.23
   0  -5   5   56.72    3.14
   0   5  -5   50.74    5.71
   0  -5   4  577.25   11.45
   0  -5   4  453.47    5.22
   0   5  -4  447.24   10.17
   0   5  -4  592.18    5.59
   0  -5   3  474.30   10.35
   0   5  -3  342.68    8.89
   0  -5   2  293.40    8.64
   0   5  -2  202.93    7.32
   0  -5   1  493.61   10.46
   0   5  -1  362.60    8.93
   0  -5   0   29.27    3.86
   0   5   0   18.30    3.47
   0   5   0   27.60    2.02
   0   5   0   24.92    2.60
   0  -5  -1  165.26    7.16
   0   5   1  115.33    6.23
   0   5   1  157.08    4.21
   0  -5  -2   50.31    5.03
   0   5   2   47.34    4.93
   0   5   2   60.77    3.55
   0  -5  -3   10.97    3.96
   0   5   3   10.29    3.49
   0   5   3   12.50    2.43
   0  -5  -4   -1.05    3.80
   0  -5  -4    1.79    3.86
   0   5   4    2.54    3.26
   0   5   4    3.94    2.25
   0  -5  -5   51.40    5.75
   0  -5  -5   33.29    5.53
   0   5   5   32.03    4.83
   0   5   5   46.53    5.05
   0  -5  -6   29.99    5.14
   0  -5  -6   12.77    4.91
   0   5   6   43.98    5.30
   0   5   6   31.52    5.12
   0   5   6   39.05    4.60
   0  -5  -7   47.07    5.69
   0  -5  -7   25.74    5.32
   0   5   7   69.37    6.31
   0   5   7   43.42    5.61
   0   5   7   64.79    6.25
   0  -5  -8    7.92    5.24
   0  -5  -8    1.24    4.13
   0   5   8   10.42    4.06
   0   5   8   18.30    4.00
   0  -5  -9  151.01    9.69
   0   5   9  208.64   10.23
   0   5   9  257.82   10.77
   0  -5 -10   -1.77    4.29
   0   5  10   10.46    4.19
   0   5  10    2.08    3.51
   0  -5 -11   10.75    5.59
   0   5  11   14.83    4.60
   0   5  11   19.29    5.07
   0  -6  15   -1.75    4.06
   0   6 -15    9.78    4.72
   0  -6  14    7.12    5.26
   0  -6  14    0.66    3.92
   0   6 -14   11.86    4.93
   0  -6  13    5.40    5.05
   0  -6  13    3.07    3.57
   0   6 -13    5.71    4.70
   0  -6  12   73.54    8.77
   0  -6  12   75.27    6.89
   0   6 -12   69.58    7.92
   0  -6  11   14.38    5.47
   0  -6  11   12.85    3.69
   0   6 -11   10.71    4.66
   0  -6  10   16.56    5.84
   0  -6  10   17.29    3.71
   0   6 -10   14.07    5.22
   0  -6   9  198.35   10.46
   0  -6   9  211.37    7.45
   0   6  -9  162.15    9.80
   0  -6   8   93.81    8.31
   0  -6   8  104.85    5.47
   0   6  -8   89.29    8.25
   0  -6   7  172.32    9.49
   0  -6   7  147.13    5.47
   0   6  -7  128.22    8.44
   0  -6   6  131.66    8.15
   0  -6   6  125.14    4.54
   0   6  -6  108.21    8.00
   0  -6   5  355.18   10.71
   0  -6   5  296.68    4.97
   0   6  -5  274.46    9.78
   0  -6   4  256.23    9.30
   0   6  -4  190.33    8.60
   0  -6   3  102.29    7.16
   0   6  -3   65.57    6.35
   0  -6   2  138.35    7.71
   0   6  -2  118.92    7.14
   0  -6   1   23.97    4.76
   0   6  -1   21.43    4.37
   0  -6   0   25.62    4.52
   0   6   0   21.91    4.41
   0   6   0   25.14    2.23
   0  -6  -1    0.45    3.73
   0   6   1    1.67    3.59
   0   6   1    0.95    1.46
   0  -6  -2   62.95    7.63
   0   6   2   59.06    6.27
   0   6   2   74.69    4.21
   0  -6  -3   39.34    5.82
   0   6   3   31.70    5.12
   0   6   3   45.34    4.31
   0  -6  -4   32.74    5.63
   0   6   4   30.90    5.20
   0   6   4   40.72    4.81
   0  -6  -5   47.32    5.94
   0  -6  -5   31.97    5.90
   0   6   5   38.22    5.55
   0   6   5   51.24    5.36
   0  -6  -6    2.72    3.96
   0  -6  -6   -6.15    3.88
   0   6   6    6.56    3.75
   0   6   6    3.42    3.69
   0   6   6    0.00    2.50
   0  -6  -7  126.44    8.81
   0  -6  -7   64.93    7.80
   0   6   7  135.56    8.23
   0   6   7   93.28    7.80
   0   6   7  125.39    7.51
   0  -6  -8   83.31    9.12
   0   6   8  151.09    9.28
   0   6   8  184.90    9.16
   0  -6  -9   -0.47    4.87
   0   6   9    3.40    4.00
   0   6   9    7.03    3.88
   0  -6 -10   11.14    5.57
   0   6  10   27.78    5.98
   0   6  10   29.08    5.47
   0   7 -15    6.27    4.93
   0  -7  14   30.61    6.42
   0   7 -14   29.41    6.27
   0  -7  13   43.98    6.95
   0   7 -13   41.11    6.66
   0  -7  12   10.95    5.28
   0  -7  12    4.58    4.79
   0   7 -12   17.51    5.47
   0  -7  11   69.82    7.71
   0  -7  11   65.04    7.14
   0   7 -11   50.19    6.89
   0  -7  10   76.32    7.88
   0  -7  10   75.45    6.58
   0   7 -10   70.15    8.40
   0  -7   9   27.50    6.33
   0  -7   9   16.13    3.94
   0   7  -9   20.90    6.23
   0  -7   8   70.03    7.88
   0   7  -8   60.09    7.47
   0  -7   7    0.78    4.76
   0   7  -7    1.65    5.38
   0  -7   6   74.05    8.95
   0   7  -6   53.09    6.39
   0  -7   5   13.72    5.45
   0   7  -5   13.55    5.24
   0  -7   4    4.29    4.31
   0   7  -4    8.33    5.24
   0  -7   3   54.48    6.60
   0   7  -3   40.64    6.15
   0  -7   2   36.94    5.84
   0   7  -2   23.16    5.57
   0  -7   1  157.63    9.18
   0   7  -1  154.93    8.81
   0  -7   0   40.70    5.84
   0   7   0   40.66    5.86
   0  -7  -1   33.91    5.92
   0   7   1   23.47    5.34
   0  -7  -2    0.31    4.68
   0   7   2    2.76    4.31
   0  -7  -3   80.76    8.62
   0   7   3   85.62    7.94
   0  -7  -4    2.70    4.31
   0   7   4   -0.72    3.65
   0  -7  -5   30.22    5.80
   0   7   5   28.90    5.38
   0  -7  -6  105.57    9.28
   0   7   6  121.41    8.42
   0   7   6   88.14    8.09
   0   7   7   16.34    5.18
   0  -7  -8    3.82    5.67
   0   7   8   28.44    5.96
   0  -8  14    5.84    5.55
   0   8 -14    4.19    4.81
   0  -8  13    3.09    5.18
   0   8 -13    3.22    4.99
   0  -8  12  115.88   10.00
   0   8 -12  109.82    9.72
   0  -8  11   60.77    7.84
   0   8 -11   54.91    7.43
   0  -8  10   35.19    6.33
   0   8 -10   45.07    6.95
   0  -8   9   27.60    6.23
   0   8  -9   27.08    5.75
   0  -8   8    9.34    5.42
   0   8  -8   10.77    5.73
   0  -8   7    6.48    5.47
   0   8  -7    4.81    5.71
   0  -8   6   14.56    6.02
   0   8  -6    9.67    5.69
   0  -8   5    4.48    5.22
   0   8  -5    7.69    5.59
   0  -8   4   37.67    6.62
   0   8  -4   40.24    7.10
   0  -8   3   35.58    6.17
   0   8  -3   35.64    6.75
   0  -8   2   16.91    5.86
   0   8  -2   17.95    5.80
   0  -8   1  108.00    9.32
   0   8  -1   88.84    9.10
   0  -8   0    3.26    4.41
   0   8   0   -1.38    4.37
   0  -8  -1   31.48    5.98
   0   8   1   26.98    5.71
   0  -8  -2   31.52    5.92
   0   8   2   28.98    5.69
   0  -8  -3   33.09    6.31
   0   8   3   23.62    5.55
   0  -8  -4   59.18    7.30
   0   8   4   52.68    6.91
   0  -8  -5   72.28    7.92
   0   8   5   48.29    6.83
   0   8   6   -3.59    4.23
   0   8   7   43.01    7.05
   0  -9  13   24.13    6.52
   0   9 -13   23.45    6.29
   0  -9  12    5.14    5.96
   0   9 -12    3.24    5.12
   0  -9  11   15.45    6.33
   0   9 -11   18.81    6.27
   0  -9  10    2.31    5.30
   0   9 -10    2.23    4.83
   0  -9   9    9.41    5.61
   0   9  -9    5.01    5.61
   0  -9   8    8.60    5.57
   0   9  -8    4.39    5.38
   0  -9   7   56.62    7.57
   0   9  -7   45.71    6.75
   0  -9   6   30.65    6.54
   0   9  -6   17.24    5.94
   0  -9   5   51.20    7.16
   0   9  -5   58.48    7.59
   0  -9   4    3.51    4.91
   0   9  -4    5.82    5.65
   0  -9   3   27.97    5.80
   0   9  -3   24.28    6.04
   0  -9   2  171.66   10.56
   0   9  -2  161.88   10.19
   0  -9   1  266.07   12.58
   0   9  -1  236.20   11.72
   0  -9   0    4.99    4.95
   0   9   0   -1.90    4.87
   0  -9  -1    5.94    5.28
   0   9   1   11.30    5.32
   0  -9  -2   38.10    6.75
   0   9   2   32.92    6.54
   0  -9  -3  118.40   10.29
   0   9   3   98.80    9.65
   0  -9  -4   15.97    5.96
   0   9   4   10.40    5.71
   0  -9  -5    4.99    5.45
   0   9   5   -7.10    4.58
   0 -10  12   18.23    6.77
   0  10 -12   24.15    6.72
   0 -10  11   76.75    9.34
   0  10 -11   76.63    9.08
   0 -10  10   21.20    6.50
   0  10 -10   25.47    6.87
   0 -10   9    8.23    5.69
   0  10  -9    6.00    5.45
   0 -10   8    9.67    6.09
   0  10  -8   11.43    6.11
   0 -10   7    9.80    5.88
   0  10  -7    1.42    5.49
   0 -10   6    3.24    5.03
   0  10  -6    1.49    5.63
   0 -10   5   59.59    7.88
   0  10  -5   48.23    7.59
   0 -10   4    0.99    5.16
   0  10  -4   -0.60    5.88
   0 -10   3   37.97    7.18
   0  10  -3   18.28    6.54
   0 -10   2   24.07    6.39
   0  10  -2   21.49    6.91
   0 -10   1   41.48    6.87
   0  10  -1   41.23    7.36
   0 -10   0   12.58    5.94
   0  10   0    2.25    5.51
   0 -10  -1    5.94    5.47
   0  10   1    5.94    5.82
   0 -10  -2   12.42    5.75
   0  10   2   -1.90    5.49
   0 -11  10    2.31    5.80
   0  11 -10    5.57    5.86
   0 -11   9    4.91    5.92
   0  11  -9    6.33    6.13
   0 -11   8    5.20    5.42
   0  11  -8    3.09    6.11
   0 -11   7   23.29    6.58
   0  11  -7   18.05    6.64
   0 -11   6    1.94    5.61
   0  11  -6   -0.87    5.86
   0 -11   5    2.23    5.36
   0  11  -5   -5.98    5.61
   0 -11   4    2.33    5.69
   0  11  -4   -5.80    6.15
   0 -11   3   10.42    5.96
   0  11  -3   -8.62    5.86
   0 -11   2   14.38    6.29
   0  11  -2    1.16    6.52
   0 -11   1   20.81    6.58
   0  11  -1   10.35    6.95
   1 -11   0    3.28    5.73
  -1  11  -1   -3.11    5.84
   1 -11   1    5.14    5.40
  -1  11  -2   24.03    7.10
   1 -11   2   29.56    6.81
  -1  11  -3   -2.99    5.84
   1 -11   3    5.38    5.80
  -1  11  -4   -7.86    5.34
   1 -11   4    3.71    5.30
  -1  11  -5   10.00    5.86
   1 -11   5    9.26    5.59
  -1  11  -6   -5.94    4.97
   1 -11   6    8.60    5.88
  -1  11  -7    4.35    5.34
   1 -11   7    8.42    5.84
  -1  11  -8   13.16    5.86
   1 -11   8    6.83    6.02
  -1  11  -9    7.51    5.59
   1 -11   9    3.98    5.59
  -1  11 -10    8.04    5.42
   1 -11  10    3.16    5.86
   1 -10  -3   40.45    7.47
  -1  10   2    8.17    5.47
   1 -10  -2   14.42    6.06
  -1  10   1   -6.56    4.79
   1 -10  -1    7.65    5.69
  -1  10   0   -2.50    5.01
   1 -10   0    8.11    5.88
  -1  10  -1   29.06    6.58
   1 -10   1   17.47    6.13
  -1  10  -2   36.41    6.75
   1 -10   2   46.23    7.69
  -1  10  -3    5.03    5.57
   1 -10   3   10.38    5.80
  -1  10  -4  126.03   10.00
   1 -10   4  159.41   11.12
  -1  10  -5   31.23    6.29
   1 -10   5   40.16    7.45
  -1  10  -6   36.16    6.46
   1 -10   6   31.93    6.75
  -1  10  -7   10.60    5.55
   1 -10   7    8.44    5.75
  -1  10  -8   -0.72    5.16
   1 -10   8   -1.11    5.34
  -1  10  -9   10.27    5.45
   1 -10   9   -0.56    4.89
  -1  10 -10    3.03    5.05
   1 -10  10    4.97    5.51
  -1  10 -11    9.80    5.24
   1 -10  11    1.11    5.05
  -1  10 -12    6.81    5.03
   1 -10  12   -3.01    5.14
  -1   9   6    1.77    4.43
  -1   9   5  107.96    9.57
  -1   9   5   85.17   10.93
   1  -9  -5  104.74   10.58
  -1   9   4   -2.41    4.72
   1  -9  -4    3.49    5.32
  -1   9   3   18.63    5.49
   1  -9  -3   21.10    5.92
  -1   9   2   18.36    5.42
   1  -9  -2   16.13    5.59
  -1   9   1   -1.34    4.23
   1  -9  -1    2.02    5.09
  -1   9   0   -1.07    4.48
   1  -9   0    2.29    4.74
  -1   9  -1    2.25    4.56
   1  -9   1    6.04    5.03
  -1   9  -2   22.07    5.69
   1  -9   2   18.54    5.40
  -1   9  -3   10.11    5.18
   1  -9   3    7.61    5.16
  -1   9  -4   10.68    5.47
   1  -9   4    9.10    5.38
  -1   9  -5   10.66    5.36
   1  -9   5   11.20    5.22
  -1   9  -6    4.17    4.99
   1  -9   6   12.11    5.18
  -1   9  -7    3.92    4.91
   1  -9   7    0.70    4.83
  -1   9  -8    8.37    5.16
   1  -9   8   11.51    5.24
  -1   9  -9   14.93    5.53
   1  -9   9    8.15    5.26
  -1   9 -10   14.09    5.24
   1  -9  10    9.34    5.20
  -1   9 -11    6.44    4.85
   1  -9  11    6.50    5.47
  -1   9 -12   13.10    5.28
   1  -9  12    3.24    5.24
  -1   9 -13   11.55    5.05
   1  -9  13   -1.77    5.07
  -1   8   7    0.12    4.13
  -1   8   7   -2.56    4.58
   1  -8  -7    2.78    5.18
  -1   8   6   29.35    5.80
  -1   8   6   20.46    5.28
   1  -8  -6   24.92    6.19
  -1   8   5    8.29    4.76
  -1   8   5    7.20    4.52
   1  -8  -5   16.21    5.59
  -1   8   4   -7.01    3.67
   1  -8  -4    0.93    4.87
  -1   8   3  143.17    8.85
   1  -8  -3  199.09   11.14
  -1   8   2   64.40    7.34
   1  -8  -2  111.65    9.67
  -1   8   1  215.43    9.57
   1  -8  -1  255.30   11.59
  -1   8   0   61.61    6.75
   1  -8   0   71.80    8.81
  -1   8  -1  139.36    9.32
   1  -8   1  195.71   11.28
  -1   8  -2   71.18    7.84
   1  -8   2   79.81    8.93
  -1   8  -3   55.38    6.66
   1  -8   3   60.23    7.05
  -1   8  -4   14.93    5.51
   1  -8   4   13.61    5.51
  -1   8  -5   11.98    5.07
   1  -8   5   17.82    5.78
  -1   8  -6    8.54    5.18
   1  -8   6   10.97    5.45
  -1   8  -7   22.71    5.92
   1  -8   7   20.42    5.86
  -1   8  -8   18.01    5.82
   1  -8   8   21.00    5.73
  -1   8  -9    4.06    4.54
   1  -8   9    6.60    4.74
  -1   8 -10   24.26    5.73
   1  -8  10   15.02    5.36
  -1   8 -11    3.53    4.64
   1  -8  11    2.06    4.72
  -1   8 -12   14.75    5.40
   1  -8  12    4.95    4.87
  -1   8 -13   78.30    8.64
   1  -8  13   67.53    7.61
  -1   8 -14   53.22    7.51
  -1   7   9    5.61    6.19
   1  -7  -9   -8.31    6.35
  -1   7   8   25.00    5.45
  -1   7   8   17.18    4.97
  -1   7   8   17.10    4.25
   1  -7  -8   18.61    5.82
   1  -7  -8    1.96    5.14
  -1   7   7    8.04    4.56
  -1   7   7    1.69    3.94
  -1   7   7    3.22    3.07
   1  -7  -7   -0.56    4.74
  -1   7   6    5.36    4.21
  -1   7   6    8.29    4.08
  -1   7   6   10.62    3.40
   1  -7  -6   20.71    5.57
  -1   7   5  480.43   13.57
  -1   7   5  389.05   11.86
  -1   7   5  451.07   11.39
   1  -7  -5  460.89   14.11
  -1   7   4  253.38    9.92
  -1   7   4  293.96    8.95
   1  -7  -4  317.53   12.40
  -1   7   3   20.52    4.72
  -1   7   3   24.59    3.55
   1  -7  -3   25.62    5.94
  -1   7   2   -0.47    3.84
   1  -7  -2    0.76    4.85
  -1   7   1  131.27    7.92
   1  -7  -1  151.98    9.92
  -1   7   0   10.89    4.33
   1  -7   0   12.91    4.93
  -1   7  -1  217.78    8.66
   1  -7   1  268.36   10.50
  -1   7  -2   35.58    5.40
   1  -7   2   44.02    5.59
  -1   7  -3   10.64    4.76
   1  -7   3    6.33    4.46
   1  -7   3    6.35    2.23
  -1   7  -4   38.41    5.55
   1  -7   4   38.51    5.40
   1  -7   4   44.91    4.13
  -1   7  -5   66.44    7.24
   1  -7   5   72.46    7.76
   1  -7   5   68.52    4.99
  -1   7  -6   40.84    5.82
   1  -7   6   63.66    7.76
   1  -7   6   42.22    5.16
  -1   7  -7  113.45    8.27
   1  -7   7  119.60    9.22
   1  -7   7  118.44    6.58
  -1   7  -8   81.81    8.40
   1  -7   8   87.01    8.37
   1  -7   8   81.31    6.64
  -1   7  -9   56.44    6.95
   1  -7   9   62.17    7.01
   1  -7   9   55.16    6.46
  -1   7 -10  101.11    8.44
   1  -7  10  114.42    9.20
   1  -7  10  101.61    7.30
  -1   7 -11  111.80    8.64
   1  -7  11  117.16    8.68
   1  -7  11  134.24    8.31
  -1   7 -12   21.62    5.49
   1  -7  12   13.82    5.03
   1  -7  12   14.93    4.62
  -1   7 -13    5.94    4.62
   1  -7  13   -7.98    3.82
  -1   7 -14    6.93    4.79
   1  -7  14    3.38    4.56
  -1   7 -15   17.26    5.61
   1  -7  15    4.87    5.18
  -1   6  10   17.97    4.81
  -1   6  10   24.38    5.03
   1  -6 -10    2.43    4.66
  -1   6   9   46.04    6.35
  -1   6   9   29.46    5.38
  -1   6   9   35.73    5.45
   1  -6  -9   16.60    5.40
  -1   6   8   -2.39    3.75
  -1   6   8    2.43    3.47
  -1   6   8    0.10    3.03
   1  -6  -8    2.37    4.60
   1  -6  -8    0.95    4.17
  -1   6   7   89.07    7.78
  -1   6   7   70.65    6.85
  -1   6   7   89.69    7.01
   1  -6  -7   89.89    8.56
   1  -6  -7   50.17    6.33
  -1   6   6  214.89    9.69
  -1   6   6  160.73    8.25
  -1   6   6  203.12    8.60
   1  -6  -6  192.97   10.17
  -1   6   5    6.13    4.37
  -1   6   5    2.15    3.57
  -1   6   5    1.53    2.89
   1  -6  -5    4.72    4.56
   1  -6  -5    2.25    4.29
  -1   6   4   31.27    4.64
  -1   6   4   32.74    3.96
   1  -6  -4   43.63    6.09
  -1   6   3   85.29    6.48
   1  -6  -3  102.27    8.58
  -1   6   2   22.15    4.02
   1  -6  -2   32.43    5.42
  -1   6   1   44.45    4.66
   1  -6  -1   54.08    6.70
  -1   6   0   28.90    4.06
   1  -6   0   12.87    3.88
  -1   6  -1   52.91    5.55
   1  -6   1   73.80    6.52
  -1   6  -2  260.79    8.04
   1  -6   2  328.22    9.80
   1  -6   2  262.87    5.69
  -1   6  -3   13.96    3.96
   1  -6   3   12.36    3.75
   1  -6   3   13.82    2.29
  -1   6  -4    5.20    3.63
   1  -6   4    8.77    3.84
   1  -6   4    5.18    2.33
  -1   6  -5   21.41    4.35
   1  -6   5   22.50    4.56
   1  -6   5   18.28    2.97
  -1   6  -6  155.40    7.88
   1  -6   6  150.80    7.96
   1  -6   6  153.05    6.25
  -1   6  -7   17.26    4.85
   1  -6   7   20.07    4.79
   1  -6   7   18.09    3.51
  -1   6  -8   74.24    7.45
   1  -6   8   94.37    7.96
   1  -6   8   86.02    6.35
  -1   6  -9    2.19    4.39
   1  -6   9   -1.73    4.37
   1  -6   9    1.38    3.34
  -1   6 -10   16.85    5.40
   1  -6  10   20.61    5.24
   1  -6  10   24.96    4.56
  -1   6 -11    1.96    4.15
   1  -6  11    7.86    4.37
   1  -6  11    0.08    3.57
  -1   6 -12   60.44    7.51
   1  -6  12   72.81    7.26
   1  -6  12   72.73    7.49
  -1   6 -13   55.59    7.18
   1  -6  13   49.38    6.50
  -1   6 -14   28.32    5.80
   1  -6  14   40.22    6.52
  -1   6 -15   13.35    4.97
   1  -6  15    1.42    4.83
  -1   5  11    5.80    3.59
  -1   5  11    2.91    3.53
   1  -5 -11   -3.26    4.10
  -1   5  10   11.16    4.10
  -1   5  10   14.62    4.33
   1  -5 -10   12.34    4.83
  -1   5   9   66.13    7.47
  -1   5   9   43.63    5.57
  -1   5   9   48.12    5.84
   1  -5  -9   17.99    4.83
  -1   5   8   86.82    7.36
  -1   5   8   63.22    6.39
  -1   5   8   73.76    6.62
   1  -5  -8   51.98    5.96
  -1   5   7   69.14    7.12
  -1   5   7   56.77    6.23
  -1   5   7   94.72    7.03
   1  -5  -7   71.10    7.94
   1  -5  -7   38.45    5.16
  -1   5   6    8.85    4.06
  -1   5   6    8.91    3.75
  -1   5   6    9.24    3.34
   1  -5  -6   11.59    4.91
   1  -5  -6    7.67    4.00
  -1   5   5   89.05    7.18
  -1   5   5   68.38    5.55
  -1   5   5   78.05    5.92
   1  -5  -5   72.61    7.76
   1  -5  -5   51.92    5.90
  -1   5   4   29.60    4.04
   1  -5  -4   46.51    5.51
   1  -5  -4   30.07    4.35
  -1   5   3   14.69    3.18
   1  -5  -3   30.03    4.79
  -1   5   2    6.21    2.60
   1  -5  -2   10.00    3.61
  -1   5   1  141.98    5.71
   1  -5  -1  198.45    7.69
  -1   5   0  121.56    5.42
   1  -5   0  175.83    7.22
  -1   5  -1  140.68    5.69
   1  -5   1  215.39    7.80
   1  -5   1  162.73    4.72
  -1   5  -2   36.96    4.52
   1  -5   2   45.61    5.12
   1  -5   2   41.67    3.38
  -1   5  -3   70.26    5.28
   1  -5   3   53.61    5.26
   1  -5   3   57.38    3.86
  -1   5  -4 2545.72   20.54
   1  -5   4 3244.79   24.22
   1  -5   4 2406.61   16.36
  -1   5  -5  764.57   12.31
   1  -5   5  938.20   13.51
   1  -5   5  747.49   10.23
  -1   5  -6    2.43    3.09
   1  -5   6    2.19    3.28
   1  -5   6   -0.12    2.17
  -1   5  -7   87.93    6.50
   1  -5   7  101.16    6.62
   1  -5   7  100.89    5.84
  -1   5  -8  364.94   10.97
   1  -5   8  412.67   10.56
   1  -5   8  420.13   10.31
  -1   5  -9    8.23    4.00
   1  -5   9   11.22    4.25
   1  -5   9   13.96    3.84
  -1   5 -10  113.92    8.31
   1  -5  10  125.37    8.15
   1  -5  10  126.69    7.88
  -1   5 -11   99.81    8.27
   1  -5  11  122.71    8.04
   1  -5  11  136.04    8.64
  -1   5 -12    6.11    4.21
   1  -5  12    2.93    3.80
  -1   5 -13   18.17    5.22
   1  -5  13    9.86    4.68
  -1   5 -14    5.86    4.56
   1  -5  14    1.88    4.46
  -1   5 -15   28.40    6.25
   1  -5  15   42.41    6.79
  -1   4  12   20.69    5.03
   1  -4 -12    8.15    4.64
  -1   4  11   28.59    5.30
   1  -4 -11    7.16    4.27
  -1   4  10   72.73    7.59
  -1   4  10   56.58    6.89
   1  -4 -10   31.89    5.40
  -1   4   9  272.40   10.09
  -1   4   9  215.02    9.78
   1  -4  -9  129.08    8.02
  -1   4   8   17.00    4.54
  -1   4   8   16.40    4.13
   1  -4  -8   11.28    3.90
  -1   4   7   13.14    4.19
  -1   4   7   13.39    3.69
   1  -4  -7   16.58    4.68
   1  -4  -7    7.22    3.71
  -1   4   6  144.78    7.69
  -1   4   6   96.23    6.13
  -1   4   6  114.56    6.72
   1  -4  -6  124.11    7.86
   1  -4  -6   75.10    5.88
  -1   4   5  341.54    9.49
  -1   4   5  243.67    7.57
   1  -4  -5  324.13    9.80
  -1   4   4    7.90    3.05
  -1   4   4    8.50    2.54
   1  -4  -4    5.45    3.22
   1  -4  -4    5.94    2.60
  -1   4   3    6.56    2.29
   1  -4  -3    7.80    3.24
   1  -4  -3    2.19    2.33
  -1   4   2   86.45    4.31
   1  -4  -2  142.14    6.37
  -1   4   1  255.03    5.80
   1  -4  -1  335.19    8.23
  -1   4   0  163.78    4.93
   1  -4   0  269.29    7.43
   1  -4   0  200.35    4.95
  -1   4  -1  845.65    9.69
   1  -4   1 1152.71   13.33
   1  -4   1  855.10    8.83
  -1   4  -2  374.40    7.05
   1  -4   2  478.12    8.77
   1  -4   2  373.80    6.19
  -1   4  -3    1.79    2.39
   1  -4   3    0.14    2.29
   1  -4   3    0.89    1.79
  -1   4  -4  397.53    8.07
   1  -4   4  504.83    8.95
   1  -4   4  369.39    6.93
  -1   4  -5  238.78    7.14
   1  -4   5  253.57    7.05
   1  -4   5  250.15    6.58
  -1   4  -6  587.21   10.95
   1  -4   6  683.07   10.66
   1  -4   6  589.59   10.13
  -1   4  -7  262.58    8.37
   1  -4   7  297.30    7.74
   1  -4   7  289.52    8.11
  -1   4  -8   84.86    6.70
   1  -4   8  103.45    6.17
   1  -4   8   94.08    6.06
  -1   4  -9   65.51    6.46
   1  -4   9   84.24    6.35
   1  -4   9   90.10    6.46
  -1   4 -10  241.17   10.44
   1  -4  10  263.45    8.87
   1  -4  10  268.28   10.07
  -1   4 -11    4.10    4.39
   1  -4  11    5.59    4.02
   1  -4  11    5.84    4.10
  -1   4 -12   59.36    7.10
   1  -4  12   72.55    7.69
  -1   4 -13    3.36    4.29
   1  -4  13    4.21    4.23
  -1   4 -14   41.32    6.46
   1  -4  14   73.00    8.79
  -1   4 -15   10.25    4.89
   1  -4  15   10.62    5.30
  -1   3  13   33.27    6.06
   1  -3 -13   14.67    5.01
  -1   3  12   15.90    4.70
   1  -3 -12    8.48    4.33
  -1   3  11   21.64    5.57
  -1   3  11   22.96    4.95
   1  -3 -11   12.97    4.46
  -1   3  10   10.58    4.35
  -1   3  10    4.83    3.51
   1  -3 -10    5.61    3.63
  -1   3   9  639.83   13.90
  -1   3   9  467.60   13.08
   1  -3  -9  317.51   10.58
  -1   3   8   62.89    6.89
  -1   3   8   41.65    5.09
   1  -3  -8   29.85    4.46
  -1   3   7   -2.35    3.26
  -1   3   7    0.66    2.70
   1  -3  -7   -1.01    2.64
  -1   3   6    1.65    2.87
  -1   3   6    2.54    2.54
   1  -3  -6    2.33    3.36
   1  -3  -6    0.95    2.39
  -1   3   5  492.68   10.09
   1  -3  -5  414.87    9.57
   1  -3  -5  254.44    6.93
  -1   3   4  323.87    8.02
   1  -3  -4  350.93    8.58
   1  -3  -4  206.33    5.73
  -1   3   3  908.25   11.92
  -1   3   3  615.82    8.31
   1  -3  -3  947.01   12.38
   1  -3  -3  568.09    8.04
  -1   3   2  162.17    4.29
   1  -3  -2  204.44    6.23
  -1   3   1  297.38    5.03
  -1   3   1  202.27    6.72
   1  -3  -1  354.68    7.38
   1  -3  -1  287.85    5.82
  -1   3   0  867.82    7.86
   1  -3   0 1271.97   12.48
   1  -3   0  880.45    7.80
   1  -3   0  905.86    8.91
  -1   3  -1   55.90    3.63
   1  -3   1   72.50    4.31
   1  -3   1   55.45    3.55
  -1   3  -2  260.93    5.51
   1  -3   2  338.57    6.64
   1  -3   2  256.13    5.51
  -1   3  -3   82.65    4.15
   1  -3   3  105.03    4.46
   1  -3   3   83.93    4.02
  -1   3  -4 1250.50   12.64
   1  -3   4 1374.26   11.96
   1  -3   4 1208.56   12.03
  -1   3  -5  114.34    5.05
   1  -3   5  129.46    4.76
   1  -3   5  121.76    4.97
  -1   3  -6   96.43    5.34
   1  -3   6   97.55    4.64
   1  -3   6   74.79    4.58
  -1   3  -7  101.07    5.78
   1  -3   7  114.05    5.03
   1  -3   7   97.65    5.36
  -1   3  -8  285.75    9.06
   1  -3   8  332.76    7.55
   1  -3   8  342.53    9.57
  -1   3 -10  202.58    9.43
   1  -3  10  253.24    7.92
   1  -3  10  249.40    9.82
  -1   3 -11  176.94    9.47
   1  -3  11  247.71   10.50
  -1   3 -12   22.26    4.72
   1  -3  12   47.19    6.04
  -1   3 -13    8.23    4.15
   1  -3  13    7.45    4.31
  -1   3 -14    2.37    4.23
   1  -3  14    3.05    4.70
  -1   3 -15    2.68    4.70
   1  -3  15    6.58    4.76
  -1   2  14   -1.84    3.75
   1  -2 -14    3.59    4.37
  -1   2  13    3.61    3.96
   1  -2 -13    0.76    3.94
  -1   2  12   20.26    4.89
   1  -2 -12    9.96    4.25
  -1   2  11    2.15    4.02
  -1   2  11    2.29    3.38
   1  -2 -11    1.07    3.51
  -1   2  10   71.06    7.63
  -1   2  10   55.55    6.91
   1  -2 -10   37.07    5.26
  -1   2   9   73.78    7.34
  -1   2   9   57.98    6.77
   1  -2  -9   32.22    4.81
  -1   2   8   72.65    6.70
  -1   2   8   52.76    5.73
   1  -2  -8   40.33    4.62
  -1   2   7  995.69   14.23
  -1   2   7  785.81   13.96
   1  -2  -7  624.42   11.45
  -1   2   6 2097.70   19.08
   1  -2  -6 1324.22   14.79
  -1   2   5   95.30    5.20
   1  -2  -5   54.89    3.65
  -1   2   4   47.05    3.96
   1  -2  -4   42.76    3.96
   1  -2  -4   26.03    2.70
  -1   2   3 1769.99   14.81
   1  -2  -3 1810.73   15.00
   1  -2  -3 1132.08    9.57
  -1   2   2 1081.52   11.04
  -1   2   2  736.90    6.54
   1  -2  -2 1063.89   11.04
  -1   2   1 1722.04    8.04
  -1   2   1 1545.07    7.55
   1  -2  -1 2570.88   15.72
   1  -2  -1 1843.01   12.56
  -1   2   0  523.95    4.50
   1  -2   0  800.35    8.64
   1  -2   0  535.77    4.43
   1  -2   0  523.70    6.91
  -1   2  -1   19.43    1.98
   1  -2   1   23.74    2.54
   1  -2   1   17.43    2.06
   1  -2   1   15.45    2.48
  -1   2  -2  250.78    5.12
  -1   2  -2  223.52    4.76
   1  -2   2  260.52    5.05
   1  -2   2  216.98    5.14
   1  -2   2  197.03    5.24
  -1   2  -3  152.21    3.98
  -1   2  -3  141.34    4.43
   1  -2   3  153.32    4.04
   1  -2   3  142.00    4.81
  -1   2  -4  114.44    3.57
  -1   2  -4  106.85    4.33
   1  -2   4  115.68    3.67
   1  -2   4   94.49    4.41
  -1   2  -5  449.88    8.48
   1  -2   5  487.63    6.21
   1  -2   5  465.22    8.64
  -1   2  -6  163.00    6.19
   1  -2   6  173.68    4.58
   1  -2   6  166.30    6.23
  -1   2  -7   17.43    3.28
   1  -2   7   25.17    2.70
   1  -2   7   19.22    3.24
  -1   2  -8  128.73    6.72
   1  -2   8  166.63    5.36
   1  -2   8  165.31    7.47
  -1   2  -9   76.65    6.37
   1  -2   9   96.99    5.32
   1  -2   9   93.85    7.01
  -1   2 -10    4.99    3.98
   1  -2  10    9.94    4.66
   1  -2  10   11.67    3.90
  -1   2 -11    1.67    3.98
   1  -2  11    5.22    4.04
  -1   2 -12    4.04    3.82
   1  -2  12    6.42    4.10
  -1   2 -13    3.75    4.25
   1  -2  13    2.45    3.98
  -1   2 -14   14.29    5.24
   1  -2  14   21.53    5.61
  -1   2 -15    0.52    4.52
   1  -2  15   -1.38    4.25
  -1   1  14   58.02    7.28
   1  -1 -14   22.40    5.61
  -1   1  13   32.76    5.73
   1  -1 -13   22.36    5.24
  -1   1  12   22.57    5.09
  -1   1  12   21.64    4.74
   1  -1 -12   15.72    4.29
  -1   1  11   10.44    4.50
  -1   1  11    6.95    3.77
   1  -1 -11    3.96    3.65
  -1   1  10  218.69    9.36
  -1   1  10  169.53    8.87
   1  -1 -10  119.08    7.84
  -1   1   9  104.97    7.53
  -1   1   9   79.79    6.56
   1  -1  -9   58.48    5.67
  -1   1   8    2.81    3.36
  -1   1   8    0.31    2.58
   1  -1  -8   -0.21    2.62
  -1   1   7    2.83    2.76
  -1   1   7    0.64    2.31
   1  -1  -7   -0.39    2.00
  -1   1   6  985.65   12.62
   1  -1  -6  662.48   10.13
  -1   1   5  143.15    5.28
   1  -1  -5  111.86    4.25
  -1   1   4 1482.53   13.43
   1  -1  -4  996.56    9.65
  -1   1   3  928.82   10.13
  -1   1   3  709.47    6.99
   1  -1  -3  687.54    6.79
  -1   1   2 3108.88   23.91
  -1   1   2 2439.51   14.40
   1  -1  -2 2456.59   16.67
  -1   1   1  432.96    5.73
  -1   1   1  497.42    6.93
  -1   1   1    0.37    0.68
   1  -1  -1  549.51    6.50
   1  -1  -1  311.94    5.20
  -1   1   0 3318.12   24.79
  -1   1   0 3177.24   17.95
  -1   1   0 2361.17   11.55
   1  -1   0 3315.98   23.27
   1  -1   0 2671.65   12.46
   1  -1   0 2028.41   14.03
  -1   1  -1 2251.35   16.58
  -1   1  -1 2160.67   10.05
  -1   1  -1 1759.08   10.99
   1  -1   1 2264.36   15.33
   1  -1   1 1783.19   13.18
   1  -1   1 1412.57    9.94
  -1   1  -2 4892.57   22.52
  -1   1  -2 4305.67   30.16
   1  -1   2 5337.91   24.44
   1  -1   2 4458.64   33.25
   1  -1   2 3717.96   27.78
  -1   1  -3 2399.88    8.70
  -1   1  -3 1911.04   13.59
   1  -1   3 2284.29   10.93
   1  -1   3 2086.60   14.87
  -1   1  -4  145.85    2.43
  -1   1  -4  120.57    4.54
   1  -1   4  126.59    2.50
   1  -1   4  115.00    4.72
  -1   1  -5 2478.16    9.74
  -1   1  -5 1884.93   16.96
   1  -1   5 2177.28    9.28
   1  -1   5 1974.06   17.45
  -1   1  -6  190.35    3.55
  -1   1  -6  141.15    5.92
   1  -1   6  174.55    3.80
  -1   1  -7  107.71    3.86
  -1   1  -7   74.20    5.22
   1  -1   7   96.84    3.69
   1  -1   7   91.63    5.53
  -1   1  -8    8.62    3.24
   1  -1   8    8.70    2.45
   1  -1   8    3.75    2.87
  -1   1  -9   30.78    4.81
   1  -1   9   55.24    4.60
   1  -1   9   61.37    6.60
  -1   1 -10   23.14    5.01
   1  -1  10   37.42    5.34
  -1   1 -11    1.13    3.67
   1  -1  11    4.39    3.88
  -1   1 -12    0.87    3.59
   1  -1  12    7.94    4.13
  -1   1 -13    2.37    4.35
   1  -1  13    0.08    3.86
  -1   1 -14   -0.35    4.19
   1  -1  14   -3.05    3.67
  -1   1 -15    0.87    4.60
   1  -1  15   -5.01    4.21
  -1   0  15   15.20    5.16
   1   0 -15   17.68    5.32
  -1   0  14    0.74    3.82
   1   0 -14    2.00    4.10
  -1   0  13   66.42    7.80
   1   0 -13   56.70    6.81
  -1   0  12   40.82    5.75
  -1   0  12   28.22    4.97
   1   0 -12   14.46    4.46
  -1   0  11   38.92    5.75
  -1   0  11   27.62    4.89
   1   0 -11   11.01    4.33
  -1   0  10   42.22    5.49
  -1   0  10   34.88    4.91
   1   0 -10   26.94    4.70
  -1   0   9  125.21    7.45
  -1   0   9   94.62    6.85
   1   0  -9   80.36    6.06
  -1   0   8   71.27    5.90
  -1   0   8   55.01    5.14
   1   0  -8   46.37    4.64
  -1   0   7   47.44    5.03
  -1   0   7   34.28    4.17
   1   0  -7   31.75    3.59
  -1   0   6  217.37    6.54
   1   0  -6  172.75    5.65
  -1   0   5   86.16    4.76
   1   0  -5   59.69    3.49
  -1   0   4  556.83    8.37
   1   0  -4  411.74    6.50
  -1   0   3  422.84    7.10
  -1   0   3  295.94    5.40
   1   0  -3  299.94    5.12
  -1   0   2  292.08    4.19
   1   0  -2  313.33    4.35
   1   0  -2  321.60    5.40
  -1   0   1   83.35    2.81
  -1   0   1   48.04    1.82
  -1   0   1   50.39    2.43
   1   0  -1   82.30    2.68
   1   0  -1   46.02    1.86
   1   0  -1   55.57    2.66
  -1   0   0 2201.66   14.75
  -1   0   0 1483.59    7.98
  -1   0   0 1473.62    8.00
  -1   0   0 1386.37    8.87
   1   0   0 2168.16   14.23
   1   0   0 1402.38    7.80
   1   0   0 1507.74    8.04
   1   0   0 1362.42    8.83
  -1   0  -1 1144.81    5.65
  -1   0  -1  907.63    7.63
  -1   0  -1  875.39    8.27
   1   0   1 1178.55    5.69
   1   0   1  916.46    7.59
   1   0   1  823.74    7.71
  -1   0  -2 4463.57   37.21
   1   0   2 4897.17   36.24
  -1   0  -3 1791.03   14.17
   1   0   3 2017.52   14.91
  -1   0  -4 1288.49   13.45
   1   0   4 1372.18   13.76
  -1   0  -5   26.55    3.24
   1   0   5   38.90    1.94
   1   0   5   34.16    1.84
   1   0   5   31.66    3.51
  -1   0  -6   87.03    5.22
   1   0   6  129.54    3.28
   1   0   6  123.89    3.09
   1   0   6  104.08    5.49
  -1   0  -7  295.22    8.85
   1   0   7  443.32    5.86
   1   0   7  366.30    5.24
   1   0   7  375.39    9.76
  -1   0  -8    6.75    3.26
   1   0   8   23.02    2.74
   1   0   8   14.91    3.63
  -1   0  -9   -2.31    3.42
   1   0   9   -1.28    3.09
  -1   0 -10   -0.68    3.84
   1   0  10    1.59    3.71
  -1   0 -11   24.75    5.28
   1   0  11   28.40    5.22
  -1   0 -12   -0.95    3.92
   1   0  12    4.46    3.94
  -1   0 -13   -5.40    3.90
   1   0  13   -4.35    3.71
  -1   0 -14   -1.63    4.25
   1   0  14    7.16    4.89
  -1  -1  15    5.22    4.21
   1   1 -15    8.68    4.54
  -1  -1  14   83.40    8.29
   1   1 -14   58.93    7.24
  -1  -1  13   13.33    5.09
   1   1 -13    9.36    4.46
  -1  -1  12   92.78    8.02
  -1  -1  12   80.12    7.30
   1   1 -12   57.26    6.60
  -1  -1  11    0.43    4.68
  -1  -1  11    0.85    3.40
   1   1 -11    0.99    3.94
  -1  -1  10   54.25    6.00
  -1  -1  10   39.21    4.95
   1   1 -10   37.89    5.20
  -1  -1   9    1.75    3.73
  -1  -1   9    2.56    2.91
   1   1  -9   -0.76    3.16
  -1  -1   8  112.52    6.62
  -1  -1   8   81.13    5.38
   1   1  -8   72.55    5.26
  -1  -1   7   22.32    3.67
  -1  -1   7   14.69    2.87
   1   1  -7   12.11    3.03
  -1  -1   6  353.34    8.19
   1   1  -6  262.77    6.89
  -1  -1   5  217.22    6.46
   1   1  -5  157.03    5.32
  -1  -1   4 3494.09   22.71
   1   1  -4 2341.30   15.59
  -1  -1   3 1143.59   11.12
   1   1  -3  747.40    8.66
  -1  -1   2  851.49    9.01
  -1  -1   2  607.08    6.54
   1   1  -2  544.60    7.03
   1   1  -2  656.09    6.75
  -1  -1   1 3925.61   26.32
  -1  -1   1 2444.56   11.04
   1   1  -1 2409.35   16.01
   1   1  -1 2694.01   12.44
  -1  -1   0 8274.98   46.70
  -1  -1   0 6043.40   35.09
   1   1   0 8582.91   45.07
   1   1   0 5413.51   40.26
   1   1   0 5548.20   33.29
  -1  -1  -1  613.22    6.06
  -1  -1  -1  445.75    6.99
   1   1   1  656.73    6.29
   1   1   1  442.02    6.97
   1   1   1  518.52    6.56
  -1  -1  -2   12.52    1.63
  -1  -1  -2    5.24    2.00
   1   1   2   15.66    1.84
   1   1   2   10.42    1.86
  -1  -1  -3   29.56    2.17
  -1  -1  -3   18.13    2.58
   1   1   3   38.66    2.33
   1   1   3   45.98    3.36
  -1  -1  -4    3.98    1.32
  -1  -1  -4    2.52    2.00
   1   1   4    1.90    1.18
   1   1   4    1.16    1.32
   1   1   4    0.58    1.61
  -1  -1  -5  142.43    5.92
   1   1   5  207.53    3.96
   1   1   5  169.14    3.82
   1   1   5  183.48    6.42
  -1  -1  -6   65.78    5.12
   1   1   6   82.69    3.30
   1   1   6   67.90    4.37
   1   1   6   65.70    5.05
  -1  -1  -7   58.52    5.45
   1   1   7  106.33    4.10
   1   1   7   92.84    6.11
  -1  -1  -8   -0.25    3.40
   1   1   8   -0.19    2.37
   1   1   8    0.17    2.99
  -1  -1  -9    2.00    3.55
   1   1   9    3.63    3.59
  -1  -1 -10    1.69    3.61
   1   1  10   -0.87    3.47
  -1  -1 -11    4.87    4.15
   1   1  11    7.18    3.75
  -1  -1 -12    0.52    3.96
   1   1  12   10.42    4.37
  -1  -1 -13    8.60    4.79
   1   1  13   15.31    5.09
  -1  -1 -14   -3.55    4.39
  -1  -2  16   25.93    5.84
   1   2 -16   21.86    5.96
  -1  -2  15    6.64    4.23
   1   2 -15    1.46    4.27
  -1  -2  14   11.70    4.35
   1   2 -14    8.48    4.48
  -1  -2  13   56.17    6.70
  -1  -2  13   44.25    5.80
   1   2 -13   41.17    5.96
  -1  -2  12   54.54    6.62
  -1  -2  12   42.18    5.47
   1   2 -12   33.85    5.59
  -1  -2  11   77.83    8.27
  -1  -2  11   64.03    6.99
   1   2 -11   44.39    5.71
  -1  -2  10   17.90    4.99
  -1  -2  10    9.20    3.40
   1   2 -10    5.71    3.73
  -1  -2   9    0.76    3.94
  -1  -2   9    0.76    2.58
   1   2  -9    0.14    3.09
  -1  -2   8    3.01    3.40
  -1  -2   8    0.14    2.08
   1   2  -8   -0.54    2.72
  -1  -2   7  554.79   10.71
  -1  -2   7  456.93    9.28
   1   2  -7  407.20    9.39
  -1  -2   6  189.56    6.77
  -1  -2   6  152.04    5.34
   1   2  -6  136.63    5.98
  -1  -2   5   48.74    4.50
   1   2  -5   26.36    3.24
  -1  -2   4  158.25    5.78
   1   2  -4  105.20    4.97
  -1  -2   3    3.32    2.58
  -1  -2   3    2.35    1.55
   1   2  -3    2.23    2.45
  -1  -2   2    0.31    2.54
  -1  -2   2   -0.95    1.44
   1   2  -2    2.83    2.31
   1   2  -2   -1.38    1.28
  -1  -2   1   43.87    4.17
  -1  -2   1   35.99    2.27
   1   2  -1   30.18    3.14
   1   2  -1   28.73    2.56
  -1  -2   0  184.43    5.05
  -1  -2   0  171.00    3.42
   1   2   0  119.84    4.50
   1   2   0  136.39    3.42
  -1  -2  -1   30.82    3.07
  -1  -2  -1   25.14    2.99
   1   2   1   20.44    2.64
   1   2   1   27.68    2.48
  -1  -2  -2    4.76    1.79
  -1  -2  -2    0.43    2.08
   1   2   2    3.69    1.94
   1   2   2    2.95    1.40
  -1  -2  -3   10.83    2.02
  -1  -2  -3   10.77    2.70
   1   2   3    3.03    2.19
   1   2   3    6.11    1.75
  -1  -2  -4  325.15    5.98
  -1  -2  -4  230.16    7.36
   1   2   4  338.31    7.71
  -1  -2  -5    1.30    1.92
  -1  -2  -5   -0.41    2.48
   1   2   5    0.80    1.75
   1   2   5    1.77    2.06
  -1  -2  -6   99.59    4.52
  -1  -2  -6   65.24    5.73
   1   2   6   79.27    4.10
   1   2   6   74.96    5.34
  -1  -2  -7   10.77    3.94
   1   2   7   14.79    2.70
   1   2   7   14.01    3.55
  -1  -2  -8    5.47    3.75
   1   2   8   13.47    3.88
  -1  -2  -9    5.65    4.17
   1   2   9   13.80    4.25
  -1  -2 -10   -2.08    3.59
   1   2  10    2.31    3.42
  -1  -2 -11    0.08    4.21
   1   2  11    6.19    3.94
  -1  -2 -12   12.48    5.16
   1   2  12   16.17    4.83
  -1  -2 -13   -0.52    4.50
   1   2  13   -1.16    4.04
  -1  -3  16   88.20    9.24
   1   3 -16   58.42    7.57
  -1  -3  15   11.88    4.58
   1   3 -15    8.66    4.66
  -1  -3  14   -4.27    4.83
  -1  -3  14    0.31    3.57
   1   3 -14    1.86    3.86
  -1  -3  13   -1.88    4.68
  -1  -3  13    1.30    3.30
   1   3 -13    4.33    4.02
  -1  -3  12  118.13    9.24
  -1  -3  12  119.55    7.74
   1   3 -12   84.63    7.74
  -1  -3  11   22.30    5.92
  -1  -3  11   21.74    4.27
   1   3 -11   20.73    4.89
  -1  -3  10  145.01    9.10
  -1  -3  10  116.94    7.08
   1   3 -10   95.83    7.49
  -1  -3   9   87.17    7.92
  -1  -3   9   76.13    5.63
   1   3  -9   56.31    6.39
  -1  -3   8  448.62   11.20
  -1  -3   8  349.16    8.60
   1   3  -8  300.19    9.45
  -1  -3   7  431.09   10.27
  -1  -3   7  345.67    7.78
   1   3  -7  295.40    8.89
  -1  -3   6   -0.06    3.20
  -1  -3   6    1.22    1.59
   1   3  -6    1.44    3.07
  -1  -3   5  806.03   12.38
  -1  -3   5  670.94    8.25
   1   3  -5  536.47   10.21
  -1  -3   4  209.08    6.93
   1   3  -4  140.82    6.04
  -1  -3   3  354.99    8.04
   1   3  -3  230.24    6.83
  -1  -3   2  451.59    8.50
  -1  -3   2  325.29    3.49
   1   3  -2  322.28    7.45
  -1  -3   1  554.99    9.08
  -1  -3   1  557.63    4.52
   1   3  -1  403.86    8.15
   1   3  -1  409.20    4.21
  -1  -3   0  125.45    5.16
  -1  -3   0  125.87    2.95
   1   3   0   90.14    4.74
   1   3   0   98.43    2.97
  -1  -3  -1   13.00    2.60
   1   3   1    7.69    2.48
   1   3   1   14.60    1.77
  -1  -3  -2   80.32    4.56
  -1  -3  -2   54.99    4.85
   1   3   2   67.49    4.79
   1   3   2   89.46    3.88
  -1  -3  -3   50.39    4.15
  -1  -3  -3   37.50    4.29
   1   3   3   26.30    3.55
   1   3   3   38.51    3.44
  -1  -3  -4  747.77   10.25
  -1  -3  -4  485.11   11.08
   1   3   4  627.33   12.27
   1   3   4  830.59   12.09
  -1  -3  -5   80.86    5.22
  -1  -3  -5   54.29    5.90
   1   3   5   62.89    5.71
   1   3   5   92.06    5.55
  -1  -3  -6  110.79    5.69
  -1  -3  -6   68.42    6.68
   1   3   6  133.58    5.61
   1   3   6   94.74    6.89
   1   3   6  137.50    6.97
  -1  -3  -7    1.67    3.07
  -1  -3  -7   -1.75    3.94
   1   3   7    0.76    2.74
   1   3   7    2.93    2.99
  -1  -3  -8    2.54    4.02
   1   3   8    3.55    3.24
  -1  -3  -9    2.39    4.00
   1   3   9    0.39    3.07
  -1  -3 -10   17.47    5.42
   1   3  10   39.29    5.61
  -1  -3 -11    3.57    4.52
   1   3  11    3.96    3.90
  -1  -3 -12    1.16    4.79
   1   3  12    3.57    4.15
  -1  -4  16    3.36    4.25
   1   4 -16   10.29    5.14
  -1  -4  15   12.83    4.60
   1   4 -15   11.26    5.09
  -1  -4  14   16.19    5.73
  -1  -4  14    9.98    4.15
   1   4 -14    7.45    4.81
  -1  -4  13    8.02    5.28
  -1  -4  13   10.66    3.92
   1   4 -13   11.59    4.74
  -1  -4  12   25.95    5.86
  -1  -4  12   26.61    4.43
   1   4 -12   27.19    5.53
  -1  -4  11    9.63    5.65
  -1  -4  11    6.27    3.30
   1   4 -11   -4.43    4.33
  -1  -4  10   11.22    5.38
  -1  -4  10   13.70    3.38
   1   4 -10    8.97    4.54
  -1  -4   9   42.82    6.27
  -1  -4   9   31.60    3.80
   1   4  -9   29.93    5.53
  -1  -4   8    3.16    4.17
  -1  -4   8    2.85    2.15
   1   4  -8   -0.04    4.08
  -1  -4   7   25.89    4.95
  -1  -4   7   29.29    3.26
   1   4  -7   25.04    4.54
  -1  -4   6  240.47    8.95
  -1  -4   6  215.68    5.32
   1   4  -6  166.71    7.36
  -1  -4   5   10.05    3.80
  -1  -4   5   11.18    1.59
   1   4  -5    6.42    3.90
  -1  -4   4   48.80    5.20
  -1  -4   4   47.59    2.06
  -1  -4   4   44.00    2.41
   1   4  -4   28.40    4.02
  -1  -4   3   30.16    4.10
   1   4  -3   15.92    3.63
  -1  -4   2  225.99    7.38
   1   4  -2  180.53    6.93
  -1  -4   1    6.62    3.11
   1   4  -1    5.57    2.99
  -1  -4   0   91.75    5.84
  -1  -4   0   90.66    2.76
   1   4   0   72.52    5.20
   1   4   0   74.13    2.85
  -1  -4  -1  383.46    8.81
   1   4   1  302.43    8.56
   1   4   1  366.48    6.04
  -1  -4  -2  142.93    6.50
   1   4   2  121.56    6.42
   1   4   2  162.13    4.97
  -1  -4  -3   10.66    3.34
  -1  -4  -3    8.19    3.86
   1   4   3    2.02    2.78
   1   4   3    6.42    2.15
  -1  -4  -4   15.57    3.77
  -1  -4  -4   11.74    4.10
   1   4   4   21.29    4.21
   1   4   4   19.70    3.14
  -1  -4  -5   10.54    3.61
  -1  -4  -5    5.30    4.15
   1   4   5    8.35    3.73
   1   4   5   15.92    3.26
  -1  -4  -6   16.42    4.00
  -1  -4  -6   11.34    4.70
   1   4   6   12.62    3.53
   1   4   6   11.20    4.35
   1   4   6   10.52    3.42
  -1  -4  -7   16.01    4.95
   1   4   7   32.90    5.38
   1   4   7   47.98    5.94
  -1  -4  -8   11.84    4.76
   1   4   8   25.45    4.93
   1   4   8   25.10    4.60
  -1  -4  -9    7.82    4.89
   1   4   9   24.81    5.28
   1   4   9   23.29    4.62
  -1  -4 -10    0.62    4.43
   1   4  10   11.63    4.41
   1   4  10    4.46    3.94
  -1  -4 -11    4.97    5.12
   1   4  11   15.20    4.66
   1   4  11    4.93    4.29
  -1  -5  16   14.54    4.95
   1   5 -16   17.47    5.71
  -1  -5  15   -1.13    5.26
  -1  -5  15    1.82    3.77
   1   5 -15    8.29    5.07
  -1  -5  14   17.06    6.09
  -1  -5  14   12.93    4.19
   1   5 -14   18.07    5.24
  -1  -5  13    5.75    5.38
  -1  -5  13    8.23    3.61
   1   5 -13   10.09    4.66
  -1  -5  12   69.22    7.71
  -1  -5  12   74.44    6.54
   1   5 -12   59.36    7.14
  -1  -5  11   25.80    6.06
  -1  -5  11   28.03    4.15
   1   5 -11   28.84    5.98
  -1  -5  10  170.22   10.85
  -1  -5  10  181.66    7.47
   1   5 -10  144.80    9.78
  -1  -5   9    5.09    5.40
  -1  -5   9    3.88    2.43
   1   5  -9    0.62    4.91
  -1  -5   8    9.01    5.24
  -1  -5   8    1.90    2.06
   1   5  -8   -0.72    4.06
  -1  -5   7  244.39   10.17
  -1  -5   7  243.63    5.98
   1   5  -7  184.06    9.43
  -1  -5   6  627.06   13.37
  -1  -5   6  610.95    7.61
   1   5  -6  432.04   11.22
  -1  -5   5    5.34    3.92
  -1  -5   5    6.02    1.22
  -1  -5   5    7.10    1.51
   1   5  -5    2.66    4.08
  -1  -5   4    9.30    3.71
   1   5  -4    6.60    3.67
  -1  -5   3    1.75    3.18
   1   5  -3   -0.78    3.11
  -1  -5   2  164.89    7.45
   1   5  -2  122.38    6.95
  -1  -5   1   42.99    5.03
   1   5  -1   30.98    4.58
  -1  -5   0   13.55    3.80
   1   5   0    3.40    3.20
   1   5   0    6.29    1.55
  -1  -5  -1  266.73    9.03
   1   5   1  201.69    8.37
   1   5   1  260.91    5.55
  -1  -5  -2    0.00    3.57
   1   5   2    2.12    3.16
   1   5   2   -1.09    1.84
  -1  -5  -3    2.95    3.77
   1   5   3    1.63    3.57
   1   5   3   -0.91    2.12
  -1  -5  -4   18.09    4.41
  -1  -5  -4    1.86    4.79
   1   5   4   23.93    4.93
   1   5   4   26.30    3.63
  -1  -5  -5   15.45    4.29
  -1  -5  -5    7.43    4.79
   1   5   5   12.25    4.46
   1   5   5   20.13    3.71
  -1  -5  -6    4.33    3.59
  -1  -5  -6    0.31    4.10
   1   5   6    3.40    3.77
   1   5   6    3.96    2.93
  -1  -5  -7    7.55    4.81
   1   5   7   10.46    4.33
   1   5   7    7.74    3.47
  -1  -5  -8   -1.38    4.54
   1   5   8    3.71    3.92
   1   5   8    6.09    3.65
  -1  -5  -9    3.03    4.91
   1   5   9   20.28    5.20
   1   5   9   24.69    5.01
  -1  -5 -10    2.54    5.01
   1   5  10   10.52    4.43
   1   5  10    7.26    4.37
  -1  -6  15   -0.43    5.49
  -1  -6  15   -2.43    3.71
   1   6 -15   10.46    5.12
  -1  -6  14    9.03    5.71
  -1  -6  14    2.54    3.63
   1   6 -14   17.59    5.40
  -1  -6  13   26.07    6.54
  -1  -6  13   27.23    4.66
   1   6 -13   24.34    5.98
  -1  -6  12   20.61    5.71
  -1  -6  12   30.94    4.41
   1   6 -12   22.11    5.59
  -1  -6  11  134.32   10.19
  -1  -6  11  148.19    7.24
   1   6 -11  105.34    9.03
  -1  -6  10  483.09   14.56
  -1  -6  10  493.11   10.64
   1   6 -10  361.80   13.04
  -1  -6   9   74.48    8.23
  -1  -6   9   65.26    5.03
   1   6  -9   61.65    7.55
  -1  -6   8   17.37    5.84
  -1  -6   8   12.17    2.50
   1   6  -8    4.97    5.71
  -1  -6   7   73.00    8.27
  -1  -6   7   80.22    3.86
   1   6  -7   56.39    7.05
  -1  -6   6   89.95    8.87
  -1  -6   6   71.14    3.01
   1   6  -6   66.83    7.41
  -1  -6   5  394.21   12.27
   1   6  -5  327.64   11.51
  -1  -6   4  250.52   10.19
   1   6  -4  206.17    9.53
  -1  -6   3   42.29    5.67
   1   6  -3   24.44    5.36
  -1  -6   2    3.63    4.33
   1   6  -2    2.89    3.88
  -1  -6   1  117.86    8.04
   1   6  -1   95.30    7.76
  -1  -6   0   92.82    7.88
   1   6   0   79.11    7.47
  -1  -6  -1   26.90    5.16
   1   6   1   16.87    4.74
  -1  -6  -2    5.69    4.58
   1   6   2    5.96    4.13
  -1  -6  -3    1.11    4.29
   1   6   3   -1.03    3.86
  -1  -6  -4   22.94    4.83
   1   6   4   20.48    4.91
  -1  -6  -5    2.48    3.77
   1   6   5    2.87    3.94
  -1  -6  -6    7.65    5.09
   1   6   6   14.01    4.91
  -1  -6  -7    0.58    4.87
   1   6   7   -0.76    3.94
  -1  -6  -8    1.55    5.30
   1   6   8    1.13    4.17
  -1  -6  -9   26.38    6.66
   1   6   9   48.93    7.24
  -1  -7  15   12.11    6.25
   1   7 -15   15.92    5.88
  -1  -7  14   11.16    6.11
   1   7 -14   15.16    5.57
  -1  -7  13    7.65    5.59
   1   7 -13   19.02    5.88
  -1  -7  12    6.27    5.57
   1   7 -12    7.86    5.12
  -1  -7  11   11.51    5.92
   1   7 -11   14.38    5.53
  -1  -7  10   54.85    7.61
   1   7 -10   48.93    7.12
  -1  -7   9   73.43    7.98
   1   7  -9   57.88    7.82
  -1  -7   8  442.37   14.44
   1   7  -8  361.90   13.99
  -1  -7   7  353.47   13.10
   1   7  -7  274.88   12.31
  -1  -7   6  528.61   14.77
   1   7  -6  403.78   13.80
  -1  -7   5   -2.00    4.50
   1   7  -5    1.84    5.18
  -1  -7   4  425.21   13.30
   1   7  -4  361.33   12.67
  -1  -7   3   29.17    6.21
   1   7  -3   16.58    5.34
  -1  -7   2   47.55    6.72
   1   7  -2   33.40    6.46
  -1  -7   1   25.21    5.80
   1   7  -1   18.28    5.67
  -1  -7   0  256.25   11.28
   1   7   0  251.82   11.24
  -1  -7  -1    4.87    4.41
   1   7   1    6.04    4.76
  -1  -7  -2    9.94    4.50
   1   7   2    3.05    4.17
  -1  -7  -3   36.61    5.75
   1   7   3   26.90    5.57
  -1  -7  -4   47.26    6.19
   1   7   4   40.22    6.13
   1   7   5   -5.59    3.88
   1   7   6    1.46    4.35
   1   7   7   11.30    5.14
  -1  -8  14    8.04    5.98
   1   8 -14   15.10    5.38
  -1  -8  13    7.05    5.96
   1   8 -13    6.50    5.03
  -1  -8  12    6.02    5.86
   1   8 -12   11.26    5.96
  -1  -8  11   65.10    8.44
   1   8 -11   58.09    7.65
  -1  -8  10   58.48    7.63
   1   8 -10   46.33    7.18
  -1  -8   9   84.63    9.41
   1   8  -9   74.92    8.52
  -1  -8   8    6.89    5.38
   1   8  -8    9.65    5.49
  -1  -8   7   44.00    6.85
   1   8  -7   33.29    6.37
  -1  -8   6    1.96    4.68
   1   8  -6    0.87    5.16
  -1  -8   5   -0.68    4.95
   1   8  -5   -0.95    5.07
  -1  -8   4  204.56   11.04
   1   8  -4  143.73   10.46
  -1  -8   3  225.04   11.24
   1   8  -3  189.73   10.91
  -1  -8   2   52.25    6.89
   1   8  -2   47.77    7.08
  -1  -8   1   41.11    6.29
   1   8  -1   31.91    5.92
  -1  -8   0   88.59    8.44
   1   8   0   77.08    8.91
  -1  -8  -1   39.83    6.29
   1   8   1   30.09    5.90
  -1  -8  -2   38.61    6.33
   1   8   2   51.63    7.36
  -1  -8  -3   -2.48    4.52
   1   8   3   -1.59    4.52
   1   8   4    4.85    5.12
   1   8   5    3.80    4.83
  -1  -9  13    5.75    5.90
   1   9 -13    9.72    5.71
  -1  -9  12    5.75    6.02
   1   9 -12    4.89    5.59
  -1  -9  11    3.71    5.86
   1   9 -11    6.68    5.98
  -1  -9  10    1.03    5.67
   1   9 -10    0.60    5.61
  -1  -9   9   29.91    6.83
   1   9  -9   20.83    6.31
  -1  -9   8    6.50    5.69
   1   9  -8    8.87    6.17
  -1  -9   7   14.38    5.94
   1   9  -7    5.12    6.00
  -1  -9   6    4.21    5.40
   1   9  -6   -1.24    5.78
  -1  -9   5   86.90    9.51
   1   9  -5   87.97    9.26
  -1  -9   4   31.99    6.37
   1   9  -4   33.58    7.05
  -1  -9   3   14.93    5.69
   1   9  -3    0.25    5.61
  -1  -9   2   24.22    6.02
   1   9  -2   14.21    6.21
  -1  -9   1   93.46    9.82
   1   9  -1   76.69    9.20
   1   9   0    2.60    5.40
  -1  -9  -1   27.48    6.39
   1   9   1   22.01    6.54
  -1  -9  -2   63.33    7.94
   1   9   2   39.58    7.20
  -1  -9  -3   50.78    7.47
   1   9   3   49.36    7.90
  -1 -10  11   25.95    7.53
   1  10 -11   15.24    6.75
  -1 -10  10   22.11    6.50
   1  10 -10   10.58    6.64
  -1 -10   9   53.63    8.00
   1  10  -9   52.99    8.00
  -1 -10   8   48.49    8.02
   1  10  -8   31.33    7.08
  -1 -10   7   15.31    6.13
   1  10  -7    0.78    6.02
  -1 -10   6   19.74    6.44
   1  10  -6   18.50    7.22
  -1 -10   5   17.31    6.21
   1  10  -5    9.55    6.70
  -1 -10   4    5.36    5.65
   1  10  -4   -2.00    5.65
  -1 -10   3   14.44    5.92
   1  10  -3   11.28    6.79
  -1 -10   2   52.43    8.07
   1  10  -2   52.64    8.40
  -1 -10   1   51.88    7.67
   1  10  -1   27.15    7.12
  -1 -10   0   16.32    6.17
   1  10   0    6.29    6.19
   1  11  -7   17.72    7.47
  -1 -11   6   14.36    6.25
   1  11  -6   -7.74    6.25
  -1 -11   5   11.32    6.04
   1  11  -5    4.02    7.14
   2 -11  -1    7.76    5.98
   2 -11   0   -1.05    5.18
   2 -11   1    9.41    5.88
   2 -11   2    4.76    5.47
   2 -11   3    4.95    5.65
   2 -11   4   13.10    6.00
  -2  11  -5    0.85    4.79
   2 -11   5    4.19    5.61
  -2  11  -6    8.68    5.32
   2 -11   6    5.34    5.53
  -2  11  -7   20.50    5.71
   2 -11   7    7.22    6.02
  -2  11  -8    9.82    5.14
   2 -11   8    3.11    5.28
  -2  11  -9    6.83    4.68
   2 -11   9    7.01    5.73
  -2  11 -10   77.66    8.83
   2 -11  10   50.37    7.88
  -2  10   4   -4.13    4.25
   2 -10  -4    6.02    5.82
   2 -10  -3    2.23    5.16
   2 -10  -2   11.14    6.09
   2 -10  -1    2.54    5.47
   2 -10   0   15.10    6.17
   2 -10   1    7.08    5.61
  -2  10  -2   19.64    5.53
   2 -10   2   28.75    6.62
  -2  10  -3   -0.68    4.41
   2 -10   3    3.84    5.32
  -2  10  -4   71.33    8.00
   2 -10   4   79.74    9.90
  -2  10  -5    3.14    4.68
   2 -10   5   -0.50    4.89
  -2  10  -6   29.79    5.80
   2 -10   6   32.78    6.66
  -2  10  -7   44.93    6.33
   2 -10   7   52.02    7.65
  -2  10  -8   68.13    8.23
   2 -10   8   59.86    7.80
  -2  10  -9    6.56    4.79
   2 -10   9    0.14    4.91
  -2  10 -10   10.91    4.89
   2 -10  10    8.15    5.53
  -2  10 -11    8.21    4.46
   2 -10  11    2.33    5.09
  -2  10 -12   14.95    5.01
   2 -10  12    2.31    4.99
  -2   9   6    0.31    4.58
   2  -9  -6    1.77    5.38
  -2   9   5   34.72    6.46
   2  -9  -5   21.60    6.60
  -2   9   4   -3.63    4.39
   2  -9  -4   -1.20    5.09
   2  -9  -3   18.96    6.23
   2  -9  -2   17.45    5.82
   2  -9  -1   12.40    5.69
  -2   9   0   55.16    6.27
   2  -9   0   80.53    8.99
  -2   9  -1   63.84    6.52
   2  -9   1   81.02    8.95
  -2   9  -2  137.62    8.52
   2  -9   2  161.04   10.40
  -2   9  -3    1.30    4.21
   2  -9   3    2.50    4.91
  -2   9  -4  158.40    8.93
   2  -9   4  165.00   10.62
  -2   9  -5   43.42    5.96
   2  -9   5   40.82    6.72
  -2   9  -6    6.52    4.52
   2  -9   6   -2.35    4.39
  -2   9  -7    6.09    4.29
   2  -9   7    4.15    4.93
  -2   9  -8   10.68    4.62
   2  -9   8    5.53    4.76
  -2   9  -9    5.67    4.58
   2  -9   9    6.09    4.79
  -2   9 -10   11.43    4.58
   2  -9  10    7.03    5.14
  -2   9 -11   12.54    4.93
   2  -9  11   14.95    5.38
  -2   9 -12    7.88    4.35
  -2   9 -13   11.84    4.81
  -2   8   8    5.86    5.20
  -2   8   7    1.46    4.41
   2  -8  -7    7.96    5.71
  -2   8   6    6.48    4.72
   2  -8  -6    4.66    5.42
  -2   8   5  102.35    9.20
   2  -8  -5   91.15   10.11
  -2   8   4   56.99    6.91
   2  -8  -4   46.43    7.10
   2  -8  -3    3.63    5.03
  -2   8   2  118.48    7.65
   2  -8  -2  149.75   10.64
  -2   8   1    1.22    4.21
   2  -8  -1   12.75    5.26
  -2   8   0    0.37    4.35
   2  -8   0   -0.14    4.70
  -2   8  -1  275.08   10.15
   2  -8   1  378.86   13.76
  -2   8  -2    3.82    4.56
   2  -8   2    5.45    5.18
   2  -8   2    2.21    3.01
  -2   8  -3    1.05    4.43
   2  -8   3    1.32    5.05
   2  -8   3    5.05    3.24
  -2   8  -4   96.86    8.13
   2  -8   4  108.54    9.18
   2  -8   4   85.44    6.39
  -2   8  -5  130.78    8.68
   2  -8   5  134.39    9.94
   2  -8   5  123.33    7.30
  -2   8  -6    7.05    4.72
   2  -8   6    1.73    4.89
   2  -8   6   -1.34    3.80
  -2   8  -7    8.66    4.68
   2  -8   7    5.12    4.91
   2  -8   7    0.62    3.92
  -2   8  -8   56.21    6.72
   2  -8   8   57.53    6.79
   2  -8   8   42.95    5.45
  -2   8  -9   15.00    4.52
   2  -8   9   11.12    4.70
   2  -8   9    1.34    4.04
  -2   8 -10    5.61    4.08
   2  -8  10    0.89    4.37
   2  -8  10   -6.99    4.02
  -2   8 -11   11.18    4.66
   2  -8  11    6.99    4.66
   2  -8  11    4.91    4.76
  -2   8 -12   16.01    5.09
   2  -8  12   -4.33    4.72
  -2   8 -13    2.27    4.27
   2  -8  13   -6.75    4.72
  -2   8 -14    7.61    4.58
   2  -8  14   -9.49    4.87
  -2   7   9   15.39    5.32
  -2   7   9   12.52    4.27
  -2   7   8    2.66    4.58
  -2   7   8    1.96    3.38
   2  -7  -8    1.49    4.95
  -2   7   7    0.17    4.33
  -2   7   7   -0.64    3.09
   2  -7  -7    0.35    4.81
  -2   7   6    1.55    4.35
   2  -7  -6    3.63    5.03
  -2   7   5  115.12    8.44
  -2   7   5   67.35    8.27
   2  -7  -5   80.40    9.14
  -2   7   4   14.83    4.93
  -2   7   4    6.95    3.71
   2  -7  -4    2.39    4.79
  -2   7   3  310.69    9.45
   2  -7  -3  421.31   13.66
  -2   7   2  424.30   10.27
   2  -7  -2  572.88   15.51
  -2   7   1  434.49   10.13
   2  -7  -1  570.48   14.77
  -2   7   0  273.76    8.73
   2  -7   0  287.67   11.53
  -2   7  -1  229.39    8.35
   2  -7   1  303.12   11.18
   2  -7   1  243.21    7.88
  -2   7  -2   90.47    6.83
   2  -7   2  120.48    8.95
   2  -7   2   92.20    6.19
  -2   7  -3  109.14    6.89
   2  -7   3  115.00    8.37
   2  -7   3   92.02    6.09
  -2   7  -4  179.83    8.31
   2  -7   4  167.70    9.41
   2  -7   4  168.85    7.55
  -2   7  -5   23.64    4.58
   2  -7   5   17.12    5.07
   2  -7   5   20.28    4.17
  -2   7  -6   62.42    6.23
   2  -7   6   55.38    6.19
   2  -7   6   50.56    5.32
  -2   7  -7   82.65    7.69
   2  -7   7   83.66    8.15
   2  -7   7   85.07    7.76
  -2   7  -8  108.02    7.92
   2  -7   8  104.15    8.42
   2  -7   8  110.17    8.44
  -2   7  -9    0.54    3.96
   2  -7   9    4.08    4.27
   2  -7   9    1.63    4.17
  -2   7 -10  133.75    8.46
   2  -7  10  145.63    8.52
   2  -7  10  115.20    8.58
  -2   7 -11    3.73    4.02
   2  -7  11   -0.31    4.31
  -2   7 -12    5.51    4.08
   2  -7  12   -3.38    4.54
  -2   7 -13   11.12    4.46
   2  -7  13    1.32    5.03
  -2   7 -14   32.28    6.19
   2  -7  14   27.21    6.58
  -2   6  10    2.87    4.58
  -2   6  10   -2.29    3.47
  -2   6   9   48.66    6.70
  -2   6   9   44.76    6.25
  -2   6   8   33.13    5.84
  -2   6   8   28.38    5.03
  -2   6   7   19.49    5.07
  -2   6   7    9.76    4.74
   2  -6  -7   16.63    5.42
   2  -6  -7    9.39    4.66
  -2   6   6    0.06    4.13
  -2   6   6    1.49    3.18
   2  -6  -6   -0.68    4.29
   2  -6  -6   -3.98    3.32
  -2   6   5  566.09   14.73
  -2   6   5  383.77    9.82
   2  -6  -5  523.64   14.56
  -2   6   4  263.18   10.89
  -2   6   4  189.73    7.26
   2  -6  -4  227.99   11.24
  -2   6   3   13.76    4.58
  -2   6   3    9.41    3.24
   2  -6  -3    7.78    4.70
  -2   6   2    1.26    2.95
   2  -6  -2   -5.01    4.21
  -2   6   1   66.96    5.24
   2  -6  -1   86.04    7.96
  -2   6   0   21.10    3.59
   2  -6   0   38.94    5.40
   2  -6   0   31.52    3.75
  -2   6  -1  291.61    7.57
   2  -6   1  401.26   11.08
   2  -6   1  307.69    8.17
  -2   6  -2   36.96    3.96
   2  -6   2   33.87    4.60
   2  -6   2   33.27    3.77
  -2   6  -3    7.74    3.11
   2  -6   3    6.39    3.73
   2  -6   3    6.72    3.03
  -2   6  -4    1.40    3.01
   2  -6   4    0.06    3.32
   2  -6   4    0.78    3.05
  -2   6  -5    3.90    3.38
   2  -6   5    6.66    3.96
   2  -6   5    4.37    3.49
  -2   6  -6   78.40    6.58
   2  -6   6  101.30    7.22
   2  -6   6   73.37    6.72
  -2   6  -7   95.81    7.18
   2  -6   7   98.54    7.28
   2  -6   7   99.48    7.45
  -2   6  -8   36.61    5.55
   2  -6   8   38.33    5.22
   2  -6   8   33.31    5.07
  -2   6  -9   32.67    5.57
   2  -6   9   29.27    4.99
   2  -6   9   23.12    5.12
  -2   6 -10    9.01    4.33
   2  -6  10   11.45    4.10
   2  -6  10    7.38    4.52
  -2   6 -11   17.41    4.83
   2  -6  11    8.99    4.62
  -2   6 -12    3.73    4.21
   2  -6  12   -4.95    4.19
  -2   6 -13    4.81    4.29
   2  -6  13   -6.29    4.43
  -2   6 -14   -1.09    3.96
   2  -6  14   -5.67    4.50
  -2   6 -15    2.12    4.62
  -2   5  11   68.96    7.94
  -2   5  11   51.44    6.83
  -2   5  10    5.24    4.85
  -2   5  10    7.88    4.02
  -2   5   9    0.19    4.10
  -2   5   9   11.49    4.99
  -2   5   9    3.18    3.61
  -2   5   8   64.93    7.28
  -2   5   8   50.50    5.26
  -2   5   8   59.94    6.81
   2  -5  -8   45.21    5.09
  -2   5   7   -1.69    3.98
  -2   5   7    0.66    3.03
   2  -5  -7    2.93    3.28
  -2   5   6   13.66    4.87
  -2   5   6    6.62    3.24
   2  -5  -6   19.84    5.49
   2  -5  -6    9.28    3.49
  -2   5   5   -3.51    3.77
  -2   5   5   -0.06    2.58
   2  -5  -5    1.38    4.29
   2  -5  -5    0.37    3.01
  -2   5   4   61.84    6.79
  -2   5   4   47.34    4.43
   2  -5  -4   90.45    7.71
  -2   5   3  135.05    7.49
  -2   5   3   93.89    4.70
   2  -5  -3  105.88    7.57
  -2   5   2   27.08    4.41
  -2   5   2   14.56    2.60
   2  -5  -2   39.46    5.09
  -2   5   1    1.55    2.17
   2  -5  -1    1.34    3.30
   2  -5  -1   -0.27    2.33
  -2   5   0   -0.27    2.27
   2  -5   0    8.42    3.49
   2  -5   0   -0.23    2.43
  -2   5  -1  304.93    6.33
   2  -5   1  404.60    9.90
   2  -5   1  294.45    7.71
  -2   5  -2    8.87    2.52
   2  -5   2   12.15    3.51
   2  -5   2    5.49    2.72
  -2   5  -3    9.24    2.62
   2  -5   3   10.50    3.30
   2  -5   3    7.78    3.01
  -2   5  -4    2.31    2.45
   2  -5   4   -0.56    2.68
   2  -5   4    1.77    2.89
  -2   5  -5  127.68    5.80
   2  -5   5  133.33    6.46
   2  -5   5  115.20    6.62
  -2   5  -6   70.98    5.69
   2  -5   6   80.88    5.73
   2  -5   6   77.10    6.39
  -2   5  -7   29.10    4.33
   2  -5   7   30.14    4.17
   2  -5   7   32.98    4.72
  -2   5  -8   22.71    4.35
   2  -5   8   25.41    4.19
   2  -5   8   20.03    4.50
  -2   5  -9   80.28    7.18
   2  -5   9   78.61    6.46
   2  -5   9   93.30    8.17
  -2   5 -10    0.27    3.96
   2  -5  10    3.92    4.39
  -2   5 -11   50.06    6.23
   2  -5  11   45.67    6.13
  -2   5 -12    8.00    4.17
   2  -5  12    7.63    4.87
  -2   5 -13   33.58    5.71
   2  -5  13   42.35    6.75
  -2   5 -14    7.30    4.52
   2  -5  14    1.20    5.20
  -2   5 -15   11.12    5.26
   2  -5  15    9.41    5.80
  -2   4  12   68.32    8.04
  -2   4  12   49.90    6.79
  -2   4  11   10.48    5.12
  -2   4  11    8.79    4.27
  -2   4  10   40.70    6.21
  -2   4  10   32.55    5.38
   2  -4 -10   20.90    4.33
  -2   4   9  282.26   11.16
  -2   4   9  182.47    9.57
   2  -4  -9  116.63    7.01
  -2   4   8  455.30   12.97
   2  -4  -8  238.76    8.52
  -2   4   7   24.94    5.09
   2  -4  -7    2.72    3.03
  -2   4   6  264.42    9.82
  -2   4   5   40.41    5.22
  -2   4   5   29.31    3.32
   2  -4  -5   40.06    5.30
  -2   4   4  743.75   13.53
  -2   4   4  513.88    7.94
   2  -4  -4  735.19   13.66
  -2   4   3   56.31    5.22
  -2   4   3   37.95    2.97
   2  -4  -3   44.68    5.51
  -2   4   2  410.50    9.63
  -2   4   2  278.88    4.93
  -2   4   2  255.14    6.62
   2  -4  -2  400.35    9.94
   2  -4  -2  295.52    7.94
  -2   4   1  699.98   11.74
  -2   4   1  461.06    5.69
  -2   4   1  384.28    4.95
   2  -4  -1  727.77   12.15
   2  -4  -1  525.46    9.74
  -2   4   0    5.45    1.73
   2  -4   0    5.40    2.81
   2  -4   0    5.69    1.42
   2  -4   0    4.41    2.56
  -2   4  -1  122.20    3.73
   2  -4   1  153.49    6.37
   2  -4   1  118.44    5.57
  -2   4  -2  101.94    3.92
   2  -4   2  123.54    5.80
   2  -4   2   89.60    5.32
  -2   4  -3    0.85    1.84
   2  -4   3    0.85    2.41
   2  -4   3    3.90    2.70
  -2   4  -4  221.70    6.25
   2  -4   4  247.48    6.79
   2  -4   4  175.02    6.95
  -2   4  -5  220.17    6.83
   2  -4   5  243.26    6.58
   2  -4   5  194.53    7.20
  -2   4  -6   26.69    3.77
   2  -4   6   25.80    3.26
   2  -4   6   16.21    3.53
  -2   4  -7   23.49    4.06
   2  -4   7   25.47    3.38
   2  -4   7   19.39    4.13
  -2   4  -8   58.11    5.90
   2  -4   8   70.59    5.18
   2  -4   8   85.66    7.08
  -2   4  -9    7.84    4.06
   2  -4   9   10.66    3.24
   2  -4   9   10.91    4.37
  -2   4 -10   25.89    4.93
   2  -4  10   28.57    5.36
  -2   4 -11   39.73    5.88
   2  -4  11   44.84    6.33
  -2   4 -12   47.81    6.37
   2  -4  12   74.13    8.75
  -2   4 -13   19.70    5.38
   2  -4  13   35.85    6.58
  -2   4 -14   12.87    4.93
   2  -4  14   18.32    6.11
  -2   4 -15   29.17    6.19
  -2   3  13   94.27    8.81
  -2   3  12    3.65    4.99
  -2   3  12    5.07    4.06
   2  -3 -12    1.55    3.42
  -2   3  11   -1.77    4.35
  -2   3  11    1.57    3.67
   2  -3 -11    0.10    3.18
  -2   3  10    1.40    4.27
  -2   3  10    2.52    3.47
   2  -3 -10    1.63    2.93
  -2   3   9  138.28    8.89
  -2   3   9   98.58    8.09
   2  -3  -9   85.99    6.25
  -2   3   8   39.15    5.59
   2  -3  -8   39.38    4.37
  -2   3   7  239.77    9.41
   2  -3  -7  115.88    5.67
  -2   3   6  236.51    8.81
   2  -3  -6  122.05    5.05
  -2   3   5  155.80    7.18
   2  -3  -5  111.35    4.29
  -2   3   4  215.84    7.51
   2  -3  -4  170.13    7.36
  -2   3   3   61.94    5.01
  -2   3   3   45.69    2.39
  -2   3   3   32.90    2.15
   2  -3  -3   38.14    4.29
  -2   3   2 3020.02   22.30
  -2   3   2 2009.93    8.44
  -2   3   2 2333.61   10.07
   2  -3  -2 3155.89   22.92
   2  -3  -2 2160.88   18.46
  -2   3   1  370.22    7.94
   2  -3  -1  314.65    7.61
   2  -3  -1  250.12    6.89
  -2   3   0   73.16    4.25
  -2   3   0   46.95    1.71
   2  -3   0   43.98    4.04
   2  -3   0   48.27    1.79
   2  -3   0   37.95    3.98
  -2   3  -1  483.54    5.26
   2  -3   1  538.24    8.64
   2  -3   1  436.30    5.20
   2  -3   1  428.59    8.48
  -2   3  -2 1083.15    9.36
   2  -3   2 1276.51   12.23
   2  -3   2  876.43   11.67
  -2   3  -3   89.77    3.77
   2  -3   3   99.63    4.25
   2  -3   3   93.65    5.24
  -2   3  -4    7.14    2.19
   2  -3   4    8.29    2.12
   2  -3   4    8.56    2.85
  -2   3  -5   12.95    2.70
   2  -3   5   20.36    2.48
   2  -3   5   14.67    3.01
  -2   3  -6  370.24    9.12
   2  -3   6  434.55    6.60
   2  -3   6  415.82   10.29
  -2   3  -7    1.26    2.56
   2  -3   7    0.58    1.96
   2  -3   7    2.10    3.16
  -2   3  -8    7.45    3.47
   2  -3   8   14.98    2.50
   2  -3   8   10.50    3.94
  -2   3  -9    7.67    3.98
   2  -3   9    9.32    4.35
  -2   3 -10   83.40    7.53
   2  -3  10  103.49    8.99
  -2   3 -11    9.39    3.96
   2  -3  11   16.27    4.99
  -2   3 -12   20.79    5.12
   2  -3  12   29.46    5.92
  -2   3 -13    2.50    4.37
   2  -3  13   -1.67    4.50
  -2   3 -14   13.72    5.38
   2  -3  14   14.93    5.75
  -2   2  14   -2.64    3.69
  -2   2  13   68.81    7.78
  -2   2  13   47.94    6.72
   2  -2 -13   30.43    5.42
  -2   2  12    9.84    4.91
  -2   2  12    8.48    4.21
   2  -2 -12    8.11    3.88
  -2   2  11  137.54    9.30
  -2   2  11   83.99    7.90
   2  -2 -11   67.10    6.29
  -2   2  10    0.39    4.52
  -2   2  10    5.09    3.82
   2  -2 -10    1.11    2.95
  -2   2   9  140.80    9.14
   2  -2  -9   91.01    6.35
  -2   2   8   21.45    4.85
   2  -2  -8   14.85    3.20
  -2   2   7    4.27    3.57
   2  -2  -7   -1.86    2.02
  -2   2   6    1.77    2.99
   2  -2  -6   -0.54    1.69
  -2   2   5   11.45    3.28
   2  -2  -5    8.42    1.77
  -2   2   4  819.43   12.40
   2  -2  -4  627.89    6.89
  -2   2   3  414.32    8.62
  -2   2   3  296.02    3.96
   2  -2  -3  296.12    3.77
   2  -2  -3  297.86    7.61
  -2   2   2    6.09    2.31
   2  -2  -2    6.44    2.39
  -2   2   1  341.21    7.08
   2  -2  -1  326.42    7.03
   2  -2  -1  213.26    6.42
  -2   2   0    1.22    1.75
  -2   2   0    0.19    0.70
   2  -2   0   -0.45    1.88
   2  -2   0    1.05    0.85
   2  -2   0    2.15    2.41
  -2   2  -1  482.55    7.10
  -2   2  -1  310.73    4.37
   2  -2   1  461.64    7.10
   2  -2   1  378.05    4.83
   2  -2   1  297.73    7.18
  -2   2  -2  468.38    6.46
  -2   2  -2  322.48    5.49
   2  -2   2  430.76    6.35
   2  -2   2  306.42    7.59
  -2   2  -3  219.41    4.23
  -2   2  -3  154.21    4.64
   2  -2   3  204.06    4.29
   2  -2   3  157.80    5.98
  -2   2  -4   58.46    2.81
  -2   2  -4   45.38    3.51
   2  -2   4   60.83    2.76
   2  -2   4   49.71    4.87
  -2   2  -5   51.96    2.52
  -2   2  -5   40.00    3.84
   2  -2   5   49.51    2.39
   2  -2   5   48.56    5.18
  -2   2  -6  218.38    7.26
   2  -2   6  272.53    8.83
  -2   2  -7    3.26    2.89
   2  -2   7    1.01    3.05
  -2   2  -8  121.87    7.14
   2  -2   8  133.87    8.31
  -2   2  -9  131.72    8.07
   2  -2   9  175.08    9.30
  -2   2 -10   41.79    5.65
   2  -2  10   67.35    7.82
  -2   2 -11    3.59    3.84
   2  -2  11    2.39    4.00
  -2   2 -12    2.93    4.19
   2  -2  12   -4.62    3.86
  -2   2 -13   55.49    7.53
   2  -2  13   64.85    7.96
  -2   2 -14    6.79    4.87
   2  -2  14   10.42    5.59
  -2   1  14   13.10    5.03
   2  -1 -14   11.51    4.58
  -2   1  13   14.25    5.67
  -2   1  13   11.14    4.41
   2  -1 -13   14.13    4.33
  -2   1  12   -0.43    4.46
  -2   1  12    1.57    3.67
   2  -1 -12    1.65    3.32
  -2   1  11    8.73    4.81
  -2   1  11    4.48    3.71
   2  -1 -11    2.15    3.14
  -2   1  10  139.11    9.49
  -2   1  10  101.84    7.86
   2  -1 -10   88.63    6.52
  -2   1   9  530.20   13.43
   2  -1  -9  334.88    9.41
  -2   1   8   40.31    5.32
   2  -1  -8   22.77    3.53
  -2   1   7   23.82    4.04
   2  -1  -7   17.10    2.87
  -2   1   6  118.77    6.44
   2  -1  -6  103.07    4.46
  -2   1   5  529.37   10.42
   2  -1  -5  396.87    6.68
  -2   1   4   -0.21    2.37
   2  -1  -4   -0.35    1.24
  -2   1   3   44.82    4.04
  -2   1   3   27.62    2.54
   2  -1  -3   43.81    2.21
   2  -1  -3   37.21    3.86
  -2   1   2  363.47    7.32
  -2   1   2  212.69    3.20
   2  -1  -2  231.33    3.44
   2  -1  -2  213.66    6.13
  -2   1   1  703.03    9.12
  -2   1   1  430.74    4.27
   2  -1  -1  395.88    4.23
   2  -1  -1  413.00    7.78
  -2   1   0  499.24    7.14
   2  -1   0  300.39    4.35
   2  -1   0  299.38    4.25
   2  -1   0  291.96    7.14
  -2   1  -1  766.96    7.80
  -2   1  -1  481.31    6.31
   2  -1   1  475.15    8.48
  -2   1  -2   31.33    2.25
  -2   1  -2   17.12    1.79
  -2   1  -2   11.86    1.86
   2  -1   2   17.66    2.85
  -2   1  -3 1048.72    6.42
  -2   1  -3  915.39    6.09
  -2   1  -3  685.91    9.59
   2  -1   3  702.97   10.81
  -2   1  -4   29.06    3.42
   2  -1   4   17.82    3.11
  -2   1  -5  353.94    8.58
   2  -1   5  403.40    9.61
  -2   1  -6  419.37    9.96
   2  -1   6  487.48   11.30
  -2   1  -7  664.13   13.28
   2  -1   7  852.27   15.49
  -2   1  -8   47.85    5.65
   2  -1   8   55.63    6.58
  -2   1  -9    2.48    3.94
   2  -1   9    8.15    4.04
  -2   1 -10   11.84    4.60
   2  -1  10   14.15    4.76
  -2   1 -11    1.42    3.98
   2  -1  11    0.60    3.82
  -2   1 -12    9.36    4.89
   2  -1  12   15.18    5.03
  -2   1 -13    1.57    4.23
   2  -1  13   -1.49    4.37
  -2   1 -14    5.53    4.91
   2  -1  14   -2.60    4.79
  -2   0  15   18.85    5.42
   2   0 -15   13.96    4.93
  -2   0  14  139.63   10.79
  -2   0  14  120.71    9.28
   2   0 -14   99.61    8.35
  -2   0  13   75.25    8.02
  -2   0  13   37.81    5.75
   2   0 -13   30.55    5.32
  -2   0  12    9.28    4.93
  -2   0  12    9.72    4.15
   2   0 -12   16.87    4.15
  -2   0  11  502.95   14.15
  -2   0  11  356.62   12.15
   2   0 -11  306.23   10.35
  -2   0  10   -1.40    4.72
  -2   0  10    0.89    3.44
   2   0 -10    1.77    3.34
  -2   0   9   13.66    4.62
   2   0  -9    8.58    3.47
  -2   0   8    6.42    3.98
   2   0  -8    0.87    2.60
  -2   0   7  443.81   10.77
   2   0  -7  325.33    7.88
  -2   0   6   11.51    3.55
   2   0  -6    8.21    2.39
  -2   0   5  495.26   10.02
   2   0  -5  317.88    6.60
  -2   0   4   65.66    4.70
   2   0  -4   42.33    3.26
  -2   0   3  390.53    8.02
   2   0  -3  244.47    5.03
   2   0  -3  255.43    6.56
  -2   0   2  224.03    6.15
   2   0  -2  128.32    3.92
   2   0  -2  139.34    5.28
  -2   0   1 2349.86   15.70
   2   0  -1 1408.98   10.48
   2   0  -1 1464.59   13.26
  -2   0   0  155.61    4.50
  -2   0   0   84.28    3.63
   2   0   0   97.65    3.61
   2   0   0   96.04    4.99
  -2   0  -1  150.52    3.88
  -2   0  -1  117.31    4.19
   2   0   1  106.85    4.08
   2   0   1  107.63    4.95
  -2   0  -2  304.70    4.41
  -2   0  -2  208.73    5.65
   2   0   2  309.88    4.33
   2   0   2  214.09    6.42
  -2   0  -3 2038.06   17.62
   2   0   3 3270.91   11.63
   2   0   3 2432.91   19.62
  -2   0  -4  297.67    7.84
   2   0   4  336.53    8.52
  -2   0  -5  370.71    9.34
   2   0   5  493.03   10.68
  -2   0  -6   80.67    5.84
   2   0   6  122.32    6.91
  -2   0  -7  133.54    7.30
   2   0   7  215.06    8.91
  -2   0  -8   37.91    5.49
   2   0   8   55.40    6.13
  -2   0  -9   32.98    5.61
   2   0   9   44.02    6.02
  -2   0 -10    1.42    3.73
   2   0  10    2.37    3.88
  -2   0 -11   40.02    6.39
   2   0  11   75.35    8.00
  -2   0 -12    9.98    4.93
   2   0  12   14.32    5.09
  -2   0 -13    8.09    4.87
   2   0  13   13.61    5.28
  -2  -1  15   16.89    8.97
  -2  -1  15   13.47    4.97
   2   1 -15   22.88    5.34
  -2  -1  14   30.24    6.46
  -2  -1  14   28.07    5.65
   2   1 -14   21.29    5.09
  -2  -1  13    9.88    5.51
  -2  -1  13    8.42    3.98
   2   1 -13   17.14    4.58
  -2  -1  12  283.64   11.92
  -2  -1  12  206.48    9.88
   2   1 -12  166.73    8.89
  -2  -1  11    1.26    5.28
  -2  -1  11    1.16    3.53
   2   1 -11    3.86    3.77
  -2  -1  10   34.76    6.00
  -2  -1  10   19.41    4.35
   2   1 -10   12.95    4.21
  -2  -1   9   41.85    6.09
   2   1  -9   27.39    4.37
  -2  -1   8    1.94    3.92
   2   1  -8    2.04    2.91
  -2  -1   7  100.72    6.85
   2   1  -7   69.82    4.95
  -2  -1   6  128.09    6.79
   2   1  -6   90.99    5.30
  -2  -1   5  849.22   12.85
   2   1  -5  535.01    8.99
  -2  -1   4   41.54    4.56
   2   1  -4   33.44    3.92
  -2  -1   3  122.55    5.36
   2   1  -3   75.80    4.25
   2   1  -3   75.95    4.17
  -2  -1   2  638.64    9.45
   2   1  -2  387.87    7.03
   2   1  -2  411.84    7.28
  -2  -1   1   75.85    4.21
   2   1  -1   54.56    3.71
   2   1  -1   54.91    4.00
  -2  -1   0  859.33    9.51
   2   1   0  588.97    8.79
   2   1   0  575.83    8.58
  -2  -1  -1  359.02    6.00
  -2  -1  -1  214.38    6.15
   2   1   1  250.81    6.46
   2   1   1  268.67    6.54
  -2  -1  -2   75.50    3.38
  -2  -1  -2   32.74    4.08
   2   1   2   60.83    4.21
   2   1   2   69.29    4.58
  -2  -1  -3   13.84    1.84
  -2  -1  -3   11.22    3.01
   2   1   3   14.05    1.88
   2   1   3    7.03    2.54
   2   1   3   10.02    2.68
  -2  -1  -4  263.51    3.88
  -2  -1  -4  196.02    7.22
   2   1   4  313.90    4.10
   2   1   4  248.35    7.82
  -2  -1  -5    0.14    2.91
   2   1   5    3.69    2.91
  -2  -1  -6   94.04    6.64
   2   1   6  179.37    8.23
  -2  -1  -7  401.14   11.90
   2   1   7  620.75   14.11
  -2  -1  -8    1.40    4.00
   2   1   8    2.74    3.75
  -2  -1  -9   32.88    5.40
   2   1   9   39.42    5.59
  -2  -1 -10    5.80    4.02
   2   1  10   15.04    4.64
  -2  -1 -11   51.63    7.24
   2   1  11   92.57    8.99
  -2  -1 -12    1.53    4.48
   2   1  12    6.64    4.95
  -2  -1 -13   13.41    5.49
  -2  -2  15   -3.26    5.47
  -2  -2  15    3.11    4.13
   2   2 -15    9.26    4.56
  -2  -2  14   22.36    6.46
  -2  -2  14   20.17    5.01
   2   2 -14   24.63    5.22
  -2  -2  13   -2.31    5.07
  -2  -2  13    2.23    3.51
   2   2 -13    4.62    4.04
  -2  -2  12   -1.09    4.79
  -2  -2  12    4.02    3.38
   2   2 -12    0.80    3.51
  -2  -2  11    0.54    5.20
  -2  -2  11   -0.35    3.28
   2   2 -11   -3.53    3.61
  -2  -2  10   48.23    6.64
  -2  -2  10   32.78    4.79
   2   2 -10   40.10    5.57
  -2  -2   9   38.24    5.86
   2   2  -9   31.02    4.91
  -2  -2   8   15.55    4.39
   2   2  -8   14.38    4.00
  -2  -2   7    4.19    3.73
   2   2  -7    4.33    3.30
  -2  -2   6  325.15    9.41
   2   2  -6  199.20    7.30
  -2  -2   5    5.38    3.28
   2   2  -5    2.29    3.05
  -2  -2   4 1371.93   15.80
   2   2  -4  883.36   12.15
  -2  -2   3   96.20    5.47
   2   2  -3   61.90    4.64
   2   2  -3   72.03    3.96
  -2  -2   2 1797.78   16.42
   2   2  -2 1086.70   12.81
   2   2  -2 1225.99   11.26
  -2  -2   1 1048.46   12.17
   2   2  -1  698.04   10.60
   2   2  -1  708.75    8.91
  -2  -2   0 2471.13   17.39
   2   2   0 1708.19   16.65
   2   2   0 1798.42   14.25
  -2  -2  -1  388.68    7.24
  -2  -2  -1  217.88    7.22
   2   2   1  298.14    7.88
   2   2   1  316.46    7.05
  -2  -2  -2   55.61    3.86
  -2  -2  -2   39.29    4.72
   2   2   2   33.66    4.19
   2   2   2   35.95    4.17
  -2  -2  -3  648.35    8.19
  -2  -2  -3  378.38    9.78
   2   2   3  576.30   11.57
   2   2   3  652.68   10.99
  -2  -2  -4  610.01    7.67
  -2  -2  -4  414.32   10.81
   2   2   4  567.18   12.19
   2   2   4  677.54   12.07
  -2  -2  -5   27.99    3.51
  -2  -2  -5   14.79    4.00
   2   2   5   19.62    4.02
   2   2   5   32.24    4.23
  -2  -2  -6   -0.19    3.57
   2   2   6    2.56    3.26
  -2  -2  -7  308.35   11.47
   2   2   7  541.69   13.63
  -2  -2  -8   32.38    5.67
   2   2   8   96.72    7.88
  -2  -2  -9    0.08    4.06
   2   2   9    2.19    3.61
  -2  -2 -10    3.71    4.27
   2   2  10    5.16    4.21
  -2  -2 -11   29.37    6.21
   2   2  11   61.68    7.53
  -2  -2 -12   10.60    5.38
   2   2  12   10.09    5.22
  -2  -3  15   11.12    6.11
  -2  -3  15   12.09    4.62
   2   3 -15   12.69    4.87
  -2  -3  14   37.79    7.43
  -2  -3  14   31.39    5.49
   2   3 -14   29.48    5.45
  -2  -3  13  113.51   10.29
  -2  -3  13   94.43    7.84
   2   3 -13   81.58    7.63
  -2  -3  12   50.52    7.03
  -2  -3  12   41.25    5.40
   2   3 -12   34.86    5.65
  -2  -3  11   11.51    5.78
  -2  -3  11    6.60    3.53
   2   3 -11    2.60    4.08
  -2  -3  10  111.26   10.25
  -2  -3  10   83.52    6.62
   2   3 -10   69.78    7.59
  -2  -3   9   15.53    5.59
  -2  -3   9   10.23    3.20
   2   3  -9    6.42    4.56
  -2  -3   8    8.44    4.87
   2   3  -8   -0.39    4.10
  -2  -3   7   22.90    5.05
   2   3  -7   16.30    4.60
  -2  -3   6  576.59   12.44
   2   3  -6  381.33   10.25
  -2  -3   5  182.14    7.80
   2   3  -5  127.64    7.24
  -2  -3   4   32.78    4.15
   2   3  -4   24.09    4.04
  -2  -3   3   14.71    3.65
   2   3  -3   11.72    3.34
   2   3  -3    8.77    2.04
  -2  -3   2  197.15    7.16
   2   3  -2  127.87    6.23
   2   3  -2  136.76    4.50
  -2  -3   1   58.54    5.05
   2   3  -1   28.61    3.65
   2   3  -1   37.46    3.75
  -2  -3   0  456.83    9.06
   2   3   0  305.32    8.60
   2   3   0  329.48    6.79
  -2  -3  -1  238.51    7.01
   2   3   1  199.71    7.43
   2   3   1  201.32    6.04
  -2  -3  -2   33.81    3.67
  -2  -3  -2   21.58    4.48
   2   3   2   18.77    3.42
   2   3   2   34.67    4.21
  -2  -3  -3   32.28    3.57
  -2  -3  -3   21.93    4.39
   2   3   3   25.41    4.41
   2   3   3   24.86    3.53
  -2  -3  -4  180.05    6.27
  -2  -3  -4  117.55    7.71
   2   3   4  147.63    7.86
   2   3   4  177.21    7.47
  -2  -3  -5    2.12    2.72
  -2  -3  -5    0.74    4.15
   2   3   5    6.52    3.90
   2   3   5   11.12    3.55
  -2  -3  -6  149.75    9.26
   2   3   6  206.11    9.88
   2   3   6  263.53    9.90
  -2  -3  -7    1.71    4.15
   2   3   7    4.06    3.71
   2   3   7   -1.55    3.20
  -2  -3  -8   13.39    4.99
   2   3   8   17.92    4.62
   2   3   8   22.19    4.70
  -2  -3  -9    7.96    4.62
   2   3   9   24.65    5.05
   2   3   9   30.28    5.47
  -2  -3 -10    9.26    5.16
   2   3  10   17.90    4.70
   2   3  10   17.70    5.18
  -2  -3 -11    1.77    5.07
   2   3  11   18.36    4.76
   2   3  11   14.69    5.38
  -2  -4  15   53.24    8.25
  -2  -4  15   41.98    6.13
   2   4 -15   38.28    6.70
  -2  -4  14   -2.27    5.45
  -2  -4  14    0.08    3.44
   2   4 -14    7.82    4.60
  -2  -4  13   23.08    6.64
  -2  -4  13   22.59    4.62
   2   4 -13   18.21    4.97
  -2  -4  12    4.39    5.61
  -2  -4  12    6.56    3.30
   2   4 -12    7.47    4.33
  -2  -4  11    9.28    5.84
  -2  -4  11    8.02    3.24
   2   4 -11   10.17    4.79
  -2  -4  10   38.04    7.03
  -2  -4  10   37.25    4.56
   2   4 -10   26.96    5.86
  -2  -4   9    5.16    5.16
  -2  -4   9    2.76    2.70
   2   4  -9    5.14    5.07
  -2  -4   8    9.45    4.99
  -2  -4   8    5.94    2.54
   2   4  -8    4.29    4.70
  -2  -4   7   29.46    5.40
   2   4  -7   27.08    5.65
  -2  -4   6   70.54    7.38
   2   4  -6   57.71    7.20
  -2  -4   5    5.45    4.15
   2   4  -5    4.23    4.29
  -2  -4   4   16.25    4.23
   2   4  -4    8.58    4.06
  -2  -4   3   20.24    4.04
   2   4  -3   11.47    3.75
   2   4  -3    9.28    1.88
  -2  -4   2  605.39   11.98
   2   4  -2  417.49   10.52
   2   4  -2  452.81    6.46
  -2  -4   1    6.54    3.34
   2   4  -1    8.56    3.59
   2   4  -1    6.85    2.21
  -2  -4   0  448.52   10.27
   2   4   0  353.40   10.25
   2   4   0  359.96    7.14
  -2  -4  -1   -1.44    3.16
   2   4   1    2.64    3.32
   2   4   1    2.50    2.41
  -2  -4  -2   28.77    4.25
   2   4   2   30.65    4.93
   2   4   2   32.78    3.73
  -2  -4  -3  240.22    8.17
  -2  -4  -3  133.07    8.70
   2   4   3  217.49    9.39
   2   4   3  250.08    8.09
  -2  -4  -4  544.39   10.73
  -2  -4  -4  343.61   12.05
   2   4   4  517.02   13.78
   2   4   4  634.76   12.50
  -2  -4  -5    3.71    4.41
   2   4   5    4.74    4.02
   2   4   5    0.35    3.18
  -2  -4  -6    3.09    4.10
   2   4   6   -2.25    3.26
   2   4   6    1.82    3.16
  -2  -4  -7    1.67    4.29
   2   4   7    5.88    3.96
   2   4   7    4.81    3.65
  -2  -4  -8    2.66    4.87
   2   4   8   14.34    4.79
   2   4   8   11.59    4.46
  -2  -4  -9   -2.50    4.70
   2   4   9   -0.37    3.55
   2   4   9   -1.32    3.82
  -2  -4 -10   -5.03    4.76
   2   4  10    4.41    4.04
   2   4  10   -3.47    4.04
  -2  -5  15    7.74    6.09
  -2  -5  15    5.94    4.02
   2   5 -15   14.42    5.26
  -2  -5  14   41.30    7.80
  -2  -5  14   33.07    5.12
   2   5 -14   35.38    6.48
  -2  -5  13   21.66    6.54
  -2  -5  13   19.37    4.21
   2   5 -13   20.61    5.69
  -2  -5  12   75.85    9.32
  -2  -5  12   67.93    6.31
   2   5 -12   68.17    8.13
  -2  -5  11   52.19    7.51
  -2  -5  11   41.48    5.18
   2   5 -11   37.52    6.17
  -2  -5  10   80.38    8.58
  -2  -5  10   65.72    5.42
   2   5 -10   57.84    7.38
  -2  -5   9    4.48    5.86
  -2  -5   9    2.35    2.52
   2   5  -9   -3.36    5.34
  -2  -5   8  129.70    9.96
  -2  -5   8  119.16    5.47
   2   5  -8   91.15    9.30
  -2  -5   7   56.79    7.01
  -2  -5   7   41.30    3.75
   2   5  -7   31.46    6.23
  -2  -5   6   92.90    8.40
  -2  -5   6   79.48    3.86
   2   5  -6   69.04    8.50
  -2  -5   5  213.76    9.92
   2   5  -5  170.85    9.57
  -2  -5   4   -0.64    4.15
   2   5  -4    3.38    4.54
  -2  -5   3   91.48    7.98
   2   5  -3   67.31    7.47
  -2  -5   2  369.37   10.87
   2   5  -2  296.62   10.56
   2   5  -2  298.14    4.83
  -2  -5   1    9.92    4.35
   2   5  -1   11.34    4.66
   2   5  -1    8.62    2.37
  -2  -5   0   26.30    4.87
   2   5   0   18.30    4.79
   2   5   0   21.33    3.07
  -2  -5  -1   -0.78    3.80
   2   5   1    1.44    3.73
   2   5   1    3.26    2.74
  -2  -5  -2   93.07    7.67
   2   5   2   79.68    7.43
   2   5   2   96.72    6.04
  -2  -5  -3   17.92    4.31
   2   5   3   14.13    4.70
   2   5   3   17.16    3.73
  -2  -5  -4    9.55    3.96
   2   5   4    6.60    4.21
   2   5   4    3.57    3.09
  -2  -5  -5   13.24    5.14
   2   5   5   36.39    5.71
   2   5   5   38.02    4.79
  -2  -5  -6   -2.91    4.58
   2   5   6    1.38    3.57
   2   5   6   -3.51    3.20
  -2  -5  -7    2.52    5.01
   2   5   7    4.72    4.15
  -2  -5  -8    4.35    5.32
   2   5   8   13.30    4.81
  -2  -5  -9   -3.03    5.07
   2   5   9    1.90    4.23
  -2  -6  15   -0.10    5.71
   2   6 -15    8.68    5.07
  -2  -6  14   16.23    6.77
   2   6 -14   24.55    6.06
  -2  -6  13   -5.53    5.36
   2   6 -13    8.09    4.89
  -2  -6  12   31.95    7.18
   2   6 -12   23.70    5.84
  -2  -6  11    7.59    5.84
   2   6 -11   10.93    5.53
  -2  -6  10  289.07   13.20
   2   6 -10  227.06   11.49
  -2  -6   9   55.49    7.65
   2   6  -9   38.37    6.85
  -2  -6   8   44.51    7.26
   2   6  -8   32.90    6.56
  -2  -6   7   24.77    6.46
   2   6  -7   14.81    6.42
  -2  -6   6  842.56   18.09
   2   6  -6  591.63   15.47
  -2  -6   5   58.95    6.79
   2   6  -5   60.40    7.55
  -2  -6   4   -0.78    4.89
   2   6  -4    0.70    5.28
  -2  -6   3  698.56   15.82
   2   6  -3  611.12   15.31
  -2  -6   2   23.39    5.51
   2   6  -2   24.79    5.92
  -2  -6   1   91.15    8.75
   2   6  -1   71.86    8.25
  -2  -6   0   -2.72    4.19
   2   6   0    2.27    4.70
  -2  -6  -1  287.85   10.73
   2   6   1  281.13   11.51
  -2  -6  -2   22.24    4.76
   2   6   2   22.17    5.18
  -2  -6  -3   -1.59    3.51
   2   6   3    1.26    3.88
   2   6   4    8.48    4.50
   2   6   5   24.86    5.63
   2   6   6    6.19    4.66
   2   6   7   -3.05    4.02
  -2  -7  14   11.28    6.81
   2   7 -14   30.96    6.70
  -2  -7  13   13.16    6.52
   2   7 -13    7.88    5.38
  -2  -7  12    2.93    5.94
   2   7 -12    6.13    5.40
  -2  -7  11   67.27    8.17
   2   7 -11   55.67    7.80
  -2  -7  10   86.63    9.78
   2   7 -10   77.74    8.75
  -2  -7   9   -4.21    5.07
   2   7  -9    2.21    5.55
  -2  -7   8   26.86    6.02
   2   7  -8   27.08    6.46
  -2  -7   7    1.01    4.87
   2   7  -7   -3.32    4.93
  -2  -7   6   55.61    6.89
   2   7  -6   41.69    7.14
  -2  -7   5  260.42   11.82
   2   7  -5  206.93   11.61
  -2  -7   4  385.21   13.66
   2   7  -4  268.30   12.29
  -2  -7   3    7.41    4.91
   2   7  -3    1.16    4.91
  -2  -7   2   -1.90    4.10
   2   7  -2    0.50    4.79
  -2  -7   1    2.56    4.23
   2   7  -1   -2.15    4.68
  -2  -7   0   18.75    5.03
   2   7   0    9.14    5.14
  -2  -7  -1   36.94    5.86
   2   7   1   30.51    6.37
  -2  -7  -2    0.41    4.15
   2   7   2    0.80    4.68
   2   7   3   10.77    5.16
   2   7   4    1.07    4.25
   2   7   5    6.70    4.83
   2   7   6   -3.30    4.46
  -2  -8  13   15.43    6.77
   2   8 -13    9.69    5.98
  -2  -8  12   17.72    6.62
   2   8 -12   17.22    6.46
  -2  -8  11   38.10    7.59
   2   8 -11   40.47    7.45
  -2  -8  10   28.82    6.72
   2   8 -10   29.79    7.03
  -2  -8   9   42.20    7.20
   2   8  -9   44.10    7.63
  -2  -8   8   43.50    7.51
   2   8  -8   29.89    7.22
  -2  -8   7  159.47   11.06
   2   8  -7   98.06    9.90
  -2  -8   6  158.64   10.87
   2   8  -6  137.11   10.62
  -2  -8   5   17.16    5.86
   2   8  -5    9.49    5.88
  -2  -8   4    3.65    5.07
   2   8  -4    3.69    5.20
  -2  -8   3   11.47    5.40
   2   8  -3    6.42    5.75
  -2  -8   2    4.87    4.91
   2   8  -2    3.07    5.49
  -2  -8   1   32.84    6.27
   2   8  -1   31.29    6.60
  -2  -8   0    5.07    4.76
   2   8   0   -2.91    5.16
  -2  -8  -1    0.25    4.52
   2   8   1   -0.91    4.93
   2   8   2   -1.38    5.09
   2   8   3   -0.83    5.22
   2   8   4   -4.58    4.54
  -2  -9  11   10.79    6.25
   2   9 -11    3.53    6.27
  -2  -9  10    2.43    6.04
   2   9 -10    2.23    5.82
  -2  -9   9    1.22    5.86
   2   9  -9    4.64    6.15
  -2  -9   8   11.53    5.80
   2   9  -8   22.17    6.54
  -2  -9   7   18.07    6.70
   2   9  -7   11.43    6.77
  -2  -9   6   17.02    6.23
   2   9  -6   11.55    6.66
  -2  -9   5    7.86    5.55
   2   9  -5    2.81    5.69
  -2  -9   4   12.29    5.78
   2   9  -4    9.12    6.52
  -2  -9   3    8.09    5.51
   2   9  -3    4.54    6.13
  -2  -9   2    0.56    4.85
   2   9  -2   -7.88    5.32
  -2  -9   1   27.35    6.35
   2   9  -1   22.28    6.70
  -2  -9   0    7.18    5.12
   2   9   0   -7.61    5.20
  -2  -9  -1   -1.86    4.91
   2   9   1   -3.80    5.45
  -2 -10   8   38.43    7.47
   2  10  -8   42.60    8.44
  -2 -10   7    4.15    5.86
   2  10  -7   -0.08    6.46
  -2 -10   6    6.46    5.55
   2  10  -6   -4.27    6.52
  -2 -10   5   36.74    7.47
   2  10  -5   25.68    7.43
  -2 -10   4    6.44    5.73
   2  10  -4   -8.40    5.65
  -2 -10   3   10.85    6.02
   2  10  -3   -7.84    6.27
   3 -11   0   36.14    7.51
   3 -11   1    1.26    5.40
   3 -11   2   -0.56    5.30
   3 -11   3    7.86    5.65
   3 -11   4   -1.16    5.36
   3 -11   5   51.63    8.04
   3 -11   6    4.54    5.61
   3 -11   7    9.10    5.45
   3 -11   8    4.72    5.45
   3 -11   9    7.32    5.45
  -3  10   4    3.42    5.07
  -3  10   3    3.11    4.89
   3 -10  -3    2.48    5.24
  -3  10   2    4.39    5.05
   3 -10  -2    2.93    5.61
   3 -10  -1   -0.83    5.16
   3 -10   0    3.71    5.61
   3 -10   1    7.53    5.34
   3 -10   2    3.32    4.85
   3 -10   3   -4.19    4.97
   3 -10   4   -2.72    4.62
   3 -10   5   26.77    6.09
   3 -10   6    9.41    5.63
   3 -10   7    9.01    5.28
  -3  10  -8    9.90    4.52
   3 -10   8    2.78    5.07
  -3  10  -9   43.11    5.84
   3 -10   9   31.04    6.35
  -3  10 -10   33.48    5.63
   3 -10  10   21.16    5.75
  -3  10 -11   12.69    4.66
  -3   9   6   12.07    5.73
   3  -9  -6   10.73    6.37
  -3   9   5   28.59    6.39
   3  -9  -5   23.76    6.70
  -3   9   4    5.71    5.18
   3  -9  -4    6.97    5.67
  -3   9   3   23.91    6.02
   3  -9  -3   14.75    6.06
  -3   9   2  142.93   10.23
   3  -9  -2  112.36   10.35
   3  -9  -1   -1.71    4.74
   3  -9   0   22.05    6.42
   3  -9   1   29.62    6.23
   3  -9   1   32.45    4.83
   3  -9   2  126.01    9.86
   3  -9   2  134.10    7.80
   3  -9   3  121.99    9.59
   3  -9   3  115.24    7.45
   3  -9   4  170.75   10.77
   3  -9   4  139.75    7.84
  -3   9  -5    4.58    4.60
   3  -9   5    1.57    4.72
   3  -9   5    5.57    3.69
  -3   9  -6   59.61    6.42
   3  -9   6   54.41    7.28
   3  -9   6   44.33    5.51
  -3   9  -7   42.62    5.47
   3  -9   7   22.83    5.67
   3  -9   7   30.96    5.47
  -3   9  -8   54.54    6.64
   3  -9   8   44.43    6.56
   3  -9   8   38.84    6.09
  -3   9  -9   14.87    4.43
   3  -9   9    6.46    4.64
   3  -9   9    2.35    5.12
  -3   9 -10   10.60    4.25
   3  -9  10   -9.59    5.14
  -3   9 -11   10.58    4.33
   3  -9  11  -12.93    7.18
  -3   9 -12    6.39    4.08
  -3   8   7   14.19    5.45
   3  -8  -7    2.29    5.57
  -3   8   6    2.10    4.91
   3  -8  -6    3.94    5.51
  -3   8   5    8.23    5.01
   3  -8  -5   -4.52    5.12
  -3   8   4   16.75    5.45
   3  -8  -4   26.94    6.56
  -3   8   3   68.71    8.52
   3  -8  -3   54.37    7.59
  -3   8   2  157.01   10.09
   3  -8  -2  124.51   10.33
   3  -8  -1   -0.93    4.70
   3  -8   0  155.98   10.17
   3  -8   0  116.71    7.67
   3  -8   1   48.89    6.60
   3  -8   1   31.35    4.87
   3  -8   2  950.91   19.00
   3  -8   2  761.53   14.73
  -3   8  -3  213.12    8.04
   3  -8   3  222.50   10.99
   3  -8   3  198.06    9.20
  -3   8  -4  104.89    6.68
   3  -8   4  109.32    8.95
   3  -8   4   97.57    7.90
  -3   8  -5   49.94    5.75
   3  -8   5   50.27    6.60
   3  -8   5   43.71    5.63
  -3   8  -6   76.20    6.25
   3  -8   6   83.23    8.07
   3  -8   6   67.72    7.84
  -3   8  -7   62.29    6.39
   3  -8   7   47.63    6.21
   3  -8   7   47.90    6.13
  -3   8  -8   97.01    7.22
   3  -8   8   94.80    7.88
   3  -8   8   82.90    8.70
  -3   8  -9   10.33    3.88
   3  -8   9    6.64    4.27
   3  -8   9   -1.59    4.79
  -3   8 -10    5.86    3.90
   3  -8  10   -0.62    5.07
  -3   8 -11   16.60    4.95
   3  -8  11    1.92    5.57
  -3   8 -12   27.31    5.55
   3  -8  12   15.28    6.42
  -3   8 -13    1.82    4.02
   3  -8  13  -11.55    5.63
  -3   7   9   39.77    7.32
  -3   7   9   25.21    5.65
  -3   7   8    2.29    4.66
  -3   7   7   14.05    5.34
  -3   7   6   31.11    6.25
   3  -7  -6   26.88    6.62
  -3   7   5   33.77    6.00
   3  -7  -5   18.23    5.61
  -3   7   4   53.38    6.91
   3  -7  -4   53.65    7.18
  -3   7   3   42.88    6.27
   3  -7  -3   35.71    6.58
  -3   7   2  241.85   11.26
   3  -7  -2  216.85   11.63
  -3   7   1   42.22    6.13
   3  -7  -1   43.75    6.81
   3  -7  -1   39.83    5.34
   3  -7   0  227.29   11.01
   3  -7   0  169.22    8.99
  -3   7  -1  274.49    7.32
   3  -7   1  326.82   12.07
   3  -7   1  276.32   10.11
  -3   7  -2   42.33    4.93
   3  -7   2   51.49    6.56
   3  -7   2   33.33    5.05
  -3   7  -3    9.24    3.32
   3  -7   3    7.12    4.66
   3  -7   3    9.98    4.37
  -3   7  -4   66.75    5.67
   3  -7   4   81.60    8.40
   3  -7   4   53.40    5.92
  -3   7  -5   41.63    4.85
   3  -7   5   38.63    5.73
   3  -7   5   32.74    5.59
  -3   7  -6  111.32    7.22
   3  -7   6  110.93    8.66
   3  -7   6  102.35    8.99
  -3   7  -7   18.40    4.37
   3  -7   7   18.59    4.79
   3  -7   7   16.91    5.30
  -3   7  -8  126.96    7.63
   3  -7   8  133.64    7.76
   3  -7   8  116.89    9.32
  -3   7  -9   53.24    6.48
   3  -7   9   47.88    6.52
  -3   7 -10    2.29    3.65
   3  -7  10    2.54    4.97
  -3   7 -11    3.42    3.96
   3  -7  11   -4.02    4.93
  -3   7 -12   13.86    4.85
   3  -7  12   10.31    5.92
  -3   7 -13    1.82    3.84
   3  -7  13   -9.63    5.14
  -3   6  10    5.18    5.40
  -3   6  10    7.53    4.56
  -3   6   9   -1.88    4.64
  -3   6   8   12.64    5.32
  -3   6   7    9.14    4.91
  -3   6   6   22.40    5.55
  -3   6   5  139.52    9.22
   3  -6  -5  141.67    9.86
  -3   6   4    1.98    4.62
   3  -6  -4   -2.35    4.66
  -3   6   3  138.28    8.85
   3  -6  -3  128.67    9.59
  -3   6   2   18.67    4.70
   3  -6  -2   22.96    5.55
   3  -6  -2   15.33    4.19
  -3   6   1  169.89    9.18
  -3   6   1  104.70    6.64
   3  -6  -1  166.42    9.72
   3  -6  -1  121.93    7.84
  -3   6   0   23.00    4.66
  -3   6   0   12.17    2.45
   3  -6   0    8.17    4.60
   3  -6   0   10.79    4.15
  -3   6  -1   21.16    2.70
   3  -6   1   18.94    4.95
   3  -6   1   13.78    4.21
  -3   6  -2  400.89    7.43
   3  -6   2  446.35   12.13
   3  -6   2  345.26   10.52
  -3   6  -3   41.83    4.29
   3  -6   3   52.21    5.63
   3  -6   3   38.06    5.26
  -3   6  -4   78.07    5.26
   3  -6   4   94.66    7.34
   3  -6   4   68.38    7.71
  -3   6  -5   51.49    5.05
   3  -6   5   60.79    6.68
   3  -6   5   47.65    5.80
  -3   6  -6  148.89    7.18
   3  -6   6  166.07    7.96
   3  -6   6  170.94    9.43
  -3   6  -7    9.32    3.71
   3  -6   7   13.26    4.15
   3  -6   7    7.63    5.20
  -3   6  -8  122.01    7.43
   3  -6   8  143.77    7.57
   3  -6   8  131.87    9.94
  -3   6  -9   11.57    3.92
   3  -6   9    8.68    4.99
  -3   6 -10   11.74    4.10
   3  -6  10    6.27    4.93
  -3   6 -11   58.13    7.26
   3  -6  11   63.47    7.78
  -3   6 -12   29.66    5.67
   3  -6  12   36.55    7.18
  -3   6 -13    3.22    3.98
   3  -6  13   -6.19    5.51
  -3   5  11   31.95    7.05
  -3   5  11   20.17    5.38
  -3   5  10   13.04    5.49
  -3   5   9   65.00    7.67
  -3   5   8   66.46    7.57
  -3   5   7  356.15   12.85
  -3   5   6   51.09    6.50
  -3   5   5  144.41    9.18
   3  -5  -5  123.52    9.55
  -3   5   4  309.08   11.12
   3  -5  -4  267.86   10.97
  -3   5   3   78.14    7.24
   3  -5  -3   89.85    7.90
   3  -5  -3   67.02    6.97
  -3   5   2  184.49    8.60
   3  -5  -2  157.72    8.77
   3  -5  -2  113.92    7.59
  -3   5   1  233.13    8.81
   3  -5  -1  226.18    9.16
   3  -5  -1  159.55    8.11
  -3   5   0  111.80    6.97
  -3   5   0   81.58    2.50
   3  -5   0   94.08    7.26
   3  -5   0   72.09    2.41
   3  -5   0   76.20    6.75
  -3   5  -1   26.61    4.00
  -3   5  -1   23.51    2.41
   3  -5   1   31.81    4.62
   3  -5   1   16.81    4.19
  -3   5  -2  277.81    5.63
   3  -5   2  331.50    9.61
   3  -5   2  250.02    8.95
  -3   5  -3   43.54    3.63
   3  -5   3   50.37    5.88
   3  -5   3   33.23    4.87
  -3   5  -4   44.27    4.17
   3  -5   4   44.88    5.49
   3  -5   4   41.89    5.45
  -3   5  -5    2.64    2.60
   3  -5   5    0.45    3.14
   3  -5   5   -0.43    4.23
  -3   5  -6    6.72    3.11
   3  -5   6    7.82    3.28
   3  -5   6    9.34    4.68
  -3   5  -7   85.25    6.50
   3  -5   7   96.00    6.13
   3  -5   7   90.16    8.91
  -3   5  -8  137.71    8.02
   3  -5   8  173.76   10.62
  -3   5  -9   13.84    4.25
   3  -5   9   19.82    5.40
  -3   5 -10    3.88    3.67
   3  -5  10    4.83    4.99
  -3   5 -11    3.92    3.75
   3  -5  11    4.17    4.89
  -3   5 -12   -1.65    3.71
   3  -5  12   -6.44    4.99
  -3   5 -13    5.07    4.39
   3  -5  13   -1.49    5.49
  -3   5 -14    5.78    4.56
  -3   4  12   21.56    6.52
  -3   4  12   13.45    4.95
  -3   4  11   27.81    6.39
  -3   4  11   19.31    5.14
  -3   4  10   18.03    5.49
  -3   4   9   -0.08    4.31
  -3   4   8  517.89   14.89
  -3   4   7    7.98    4.95
  -3   4   6  375.39   12.27
  -3   4   5   71.53    7.34
  -3   4   5   42.08    3.20
  -3   4   4  141.61    8.04
  -3   4   4   86.72    2.91
  -3   4   3   87.07    6.68
   3  -4  -3  156.37    8.17
   3  -4  -3   83.11    6.64
  -3   4   2 1836.80   20.67
   3  -4  -2 1583.11   19.41
   3  -4  -2 1192.27   16.81
  -3   4   1  361.24    9.69
   3  -4  -1  378.05   10.07
   3  -4  -1  248.62    8.81
  -3   4   0    2.41    2.64
   3  -4   0   -0.19    2.78
   3  -4   0    4.95    3.42
  -3   4  -1  139.89    6.21
  -3   4  -1   81.70    2.70
   3  -4   1  111.37    6.29
   3  -4   1   85.83    3.26
   3  -4   1   86.96    6.25
  -3   4  -2   18.03    3.14
  -3   4  -2    7.41    1.71
   3  -4   2    8.79    3.05
   3  -4   2   15.64    3.86
  -3   4  -3  662.34   10.66
  -3   4  -3  489.79    7.98
   3  -4   3  634.28   10.60
   3  -4   3  424.96   11.14
  -3   4  -4  121.99    5.34
  -3   4  -4   80.73    4.56
   3  -4   4   97.53    5.55
   3  -4   4   87.29    7.45
  -3   4  -5   -1.86    2.35
   3  -4   5   -1.79    2.50
   3  -4   5    0.23    4.02
  -3   4  -6    4.08    2.87
   3  -4   6    3.07    2.64
   3  -4   6    0.04    4.02
  -3   4  -7   54.68    5.73
   3  -4   7   62.62    4.58
   3  -4   7   42.41    5.90
  -3   4  -8    0.93    3.34
   3  -4   8   -0.66    4.46
  -3   4  -9    0.85    3.40
   3  -4   9   -1.49    4.54
  -3   4 -10   55.90    6.87
   3  -4  10   68.48    7.65
  -3   4 -11  121.02    8.83
   3  -4  11  171.68   11.28
  -3   4 -12    0.72    4.02
   3  -4  12   -0.78    5.22
  -3   4 -13    5.03    4.56
   3  -4  13   -5.36    5.12
  -3   4 -14   16.50    5.80
  -3   3  13    2.29    5.71
  -3   3  13    3.98    4.17
  -3   3  12   76.79    9.57
  -3   3  12   57.28    7.20
  -3   3  11   10.11    5.55
  -3   3  10    7.03    5.01
  -3   3   9    0.80    4.68
  -3   3   8  438.37   13.51
  -3   3   7   97.20    8.44
   3  -3  -7   71.74    4.35
  -3   3   6  372.57   11.63
   3  -3  -6  179.25    5.01
  -3   3   5    2.06    3.65
   3  -3  -5    0.31    1.36
  -3   3   4   59.78    6.06
   3  -3  -4   38.33    4.74
  -3   3   3  367.62    9.88
   3  -3  -3  250.74    8.87
  -3   3   2  373.39    9.61
   3  -3  -2  232.30    8.40
  -3   3   1 1033.44   14.15
   3  -3  -1  662.61   12.31
  -3   3   0  914.92   12.83
   3  -3   0  839.98   12.46
   3  -3   0  564.98    4.33
   3  -3   0  576.07    4.50
   3  -3   0  554.37   11.45
  -3   3  -1  621.39   10.25
  -3   3  -1  371.04    5.24
   3  -3   1  579.56   10.05
   3  -3   1  444.45    7.20
   3  -3   1  376.05    9.78
  -3   3  -2  241.30    6.52
  -3   3  -2  142.76    4.25
   3  -3   2  209.82    6.29
   3  -3   2  147.88    7.36
  -3   3  -3  360.29    7.18
  -3   3  -3  239.46    5.98
   3  -3   3  327.54    7.14
   3  -3   3  226.07    8.87
  -3   3  -4   20.96    2.58
  -3   3  -4   13.88    2.64
   3  -3   4   22.59    2.78
   3  -3   4   12.00    3.86
  -3   3  -5   30.71    3.16
  -3   3  -5   18.52    3.26
   3  -3   5   23.74    2.68
   3  -3   5   18.61    4.50
  -3   3  -6   17.53    2.12
  -3   3  -6    6.46    3.11
   3  -3   6   11.10    4.17
  -3   3  -7  200.27    8.27
   3  -3   7  256.77   11.06
  -3   3  -8    7.80    3.84
   3  -3   8   10.40    5.05
  -3   3  -9   -1.63    3.42
   3  -3   9    5.55    4.68
  -3   3 -10    2.62    3.75
   3  -3  10   -1.82    4.35
  -3   3 -11  209.32   10.56
   3  -3  11  359.80   14.38
  -3   3 -12    3.07    4.35
   3  -3  12   -3.94    4.87
  -3   3 -13    7.20    4.95
   3  -3  13   11.59    5.69
  -3   2  13    1.61    5.45
  -3   2  13   -3.49    3.75
  -3   2  12    2.81    5.45
  -3   2  12    2.31    4.02
  -3   2  11   16.65    5.69
  -3   2  10   -0.66    4.41
  -3   2   9   58.62    6.81
   3  -2  -9   40.02    4.54
  -3   2   8    2.85    4.70
   3  -2  -8    5.18    2.58
  -3   2   7  353.20   11.90
   3  -2  -7  227.25    6.23
  -3   2   6  366.75   11.37
   3  -2  -6  201.80    5.22
  -3   2   5    8.89    3.77
   3  -2  -5    4.35    1.55
  -3   2   4   63.57    5.69
  -3   2   4   34.49    2.60
   3  -2  -4   48.82    2.21
   3  -2  -4   46.99    5.24
  -3   2   3  660.89   12.09
   3  -2  -3  436.55   10.40
  -3   2   2 1378.59   16.21
  -3   2   1    5.63    2.72
   3  -2  -1    2.68    1.26
   3  -2  -1    5.03    0.99
   3  -2  -1    3.49    2.85
  -3   2   0   10.95    2.68
  -3   2   0    2.58    1.53
   3  -2   0    6.62    1.46
   3  -2   0    6.11    1.32
   3  -2   0    5.90    3.38
  -3   2  -1  313.35    7.03
  -3   2  -1  195.22    4.72
   3  -2   1  191.44    7.96
  -3   2  -2  175.21    5.18
  -3   2  -2   88.63    4.00
   3  -2   2  106.42    6.70
  -3   2  -3  115.66    4.19
  -3   2  -3   96.12    4.58
   3  -2   3   78.14    6.35
  -3   2  -4   58.97    3.14
  -3   2  -4   30.78    3.53
   3  -2   4   37.42    4.91
  -3   2  -5   34.59    2.41
  -3   2  -5   25.99    3.80
   3  -2   5   23.35    4.54
  -3   2  -6    0.78    2.95
   3  -2   6    0.08    3.67
  -3   2  -7   98.85    7.01
   3  -2   7  130.36    8.87
  -3   2  -8   25.29    4.99
   3  -2   8   42.97    6.06
  -3   2  -9   15.57    4.48
   3  -2   9   21.25    5.32
  -3   2 -10   48.62    6.35
   3  -2  10   34.51    5.92
  -3   2 -11    1.24    4.08
   3  -2  11   -3.03    4.43
  -3   2 -12    0.80    4.29
   3  -2  12   -5.55    4.68
  -3   2 -13   18.07    5.61
   3  -2  13   27.15    6.83
  -3   1  14   28.59    7.30
  -3   1  14   21.84    5.49
  -3   1  13   -6.62    4.87
  -3   1  13    0.58    4.06
  -3   1  12   71.68    8.54
  -3   1  12   49.96    6.58
  -3   1  11  508.11   15.31
   3  -1 -11  258.05    9.16
  -3   1  10   -0.78    4.83
   3  -1 -10    0.08    2.56
  -3   1   9    2.19    5.07
   3  -1  -9    1.01    2.78
  -3   1   8  161.84   10.13
   3  -1  -8  105.47    5.73
  -3   1   7   -0.54    3.98
   3  -1  -7    4.19    2.39
  -3   1   6  157.96    8.50
   3  -1  -6  111.49    4.62
  -3   1   5  150.08    7.45
   3  -1  -5   84.88    3.88
  -3   1   4  205.22    8.04
   3  -1  -4  141.11    4.19
   3  -1  -4  130.61    6.83
  -3   1   3   31.23    4.02
   3  -1  -3   30.12    3.16
   3  -1  -3   16.81    3.32
  -3   1   2  158.48    6.60
   3  -1  -2   84.57    3.57
   3  -1  -2   80.22    6.00
  -3   1   1  208.42    6.70
   3  -1  -1  120.42    3.98
   3  -1  -1  123.62    6.37
  -3   1   0   77.25    4.58
   3  -1   0   46.27    3.20
   3  -1   0   50.64    5.40
  -3   1  -1  316.94    6.72
  -3   1  -1  188.61    5.49
   3  -1   1  205.88    5.49
   3  -1   1  201.16    7.88
  -3   1  -2   16.03    2.41
  -3   1  -2    2.23    2.15
   3  -1   2    6.23    2.19
   3  -1   2   13.12    3.57
  -3   1  -3  415.74    6.09
  -3   1  -3  233.23    7.03
   3  -1   3  291.23    9.43
  -3   1  -4   31.95    2.48
  -3   1  -4   18.83    3.34
   3  -1   4   23.62    4.48
  -3   1  -5   16.75    3.59
   3  -1   5   34.61    5.09
  -3   1  -6   -0.31    3.07
   3  -1   6   -0.02    3.98
  -3   1  -7    4.52    3.75
   3  -1   7    4.97    4.29
  -3   1  -8  186.16    9.32
   3  -1   8  279.93   11.76
  -3   1  -9   50.17    6.29
   3  -1   9   68.46    8.11
  -3   1 -10   21.58    5.03
   3  -1  10   19.43    5.63
  -3   1 -11   17.80    5.30
   3  -1  11   17.02    5.71
  -3   1 -12   -2.78    3.67
   3  -1  12   -1.11    4.89
  -3   1 -13    2.06    4.81
  -3   0  14   -0.21    5.47
  -3   0  14    1.53    3.94
  -3   0  13   -7.18    4.85
  -3   0  13   -1.86    3.73
   3   0 -13    4.56    3.61
  -3   0  12    8.21    5.61
  -3   0  12    1.24    3.92
   3   0 -12    4.64    3.32
  -3   0  11   23.43    5.92
   3   0 -11   11.82    3.53
  -3   0  10  396.47   13.57
   3   0 -10  287.89    9.26
  -3   0   9  592.02   15.66
   3   0  -9  374.05    9.82
  -3   0   8  178.92    9.84
   3   0  -8  123.19    6.27
  -3   0   7  223.66   10.09
   3   0  -7  147.38    6.27
  -3   0   6   63.47    6.60
   3   0  -6   45.77    4.48
  -3   0   5  166.73    7.69
   3   0  -5  107.14    5.07
   3   0  -5  101.69    6.21
  -3   0   4  212.95    7.84
   3   0  -4  138.04    5.26
   3   0  -4  149.34    6.87
  -3   0   3   84.57    5.94
   3   0  -3   46.33    3.98
   3   0  -3   46.80    4.93
  -3   0   2  225.37    7.36
   3   0  -2  130.40    4.89
   3   0  -2  133.07    6.21
  -3   0   1    3.16    2.52
   3   0  -1   -0.08    2.00
   3   0  -1   -0.95    2.70
  -3   0   0  803.92   10.77
   3   0   0  494.84    8.58
   3   0   0  495.92   10.44
  -3   0  -1   14.32    2.54
  -3   0  -1    2.85    2.64
   3   0   1   10.50    2.54
   3   0   1   11.76    3.53
  -3   0  -2  994.12   10.09
  -3   0  -2  582.61   10.64
   3   0   2  697.44   11.32
   3   0   2  699.36   12.73
  -3   0  -3   74.59    3.59
  -3   0  -3   58.17    4.97
   3   0   3   54.33    4.70
   3   0   3   58.64    5.96
  -3   0  -4   19.20    3.94
   3   0   4   29.83    4.64
  -3   0  -5    1.73    3.24
   3   0   5   10.97    4.29
  -3   0  -6  286.68   10.11
   3   0   6  373.35   12.15
  -3   0  -7   93.59    7.65
   3   0   7  109.43    9.28
  -3   0  -8    2.37    3.55
   3   0   8   11.18    4.74
  -3   0  -9   33.54    5.88
   3   0   9   51.46    6.52
  -3   0 -10    0.70    4.29
   3   0  10    6.42    4.83
  -3   0 -11    0.02    4.35
   3   0  11   -3.55    4.66
  -3   0 -12    2.54    4.76
   3   0  12    5.88    5.38
  -3  -1  15   15.53    6.99
  -3  -1  15    9.20    4.70
  -3  -1  14   24.09    6.83
  -3  -1  14   28.36    5.65
   3   1 -14   25.87    5.07
  -3  -1  13    3.20    5.78
  -3  -1  13    2.87    3.94
   3   1 -13    2.87    3.49
  -3  -1  12   33.73    6.72
  -3  -1  12   25.74    5.18
   3   1 -12   33.91    5.12
  -3  -1  11  238.86   12.13
   3   1 -11  176.96    8.31
  -3  -1  10    5.26    5.51
   3   1 -10    1.05    3.36
  -3  -1   9    2.06    5.14
   3   1  -9    1.51    3.53
  -3  -1   8   25.04    5.71
   3   1  -8   20.69    4.17
  -3  -1   7  274.16   11.01
   3   1  -7  169.12    7.57
  -3  -1   6  194.27    9.01
   3   1  -6  127.93    6.58
  -3  -1   5  224.24    8.79
   3   1  -5  143.17    6.56
   3   1  -5  130.57    6.66
  -3  -1   4    0.91    3.07
   3   1  -4    2.00    2.89
   3   1  -4   -0.08    2.70
  -3  -1   3  197.69    7.38
   3   1  -3  120.05    5.65
   3   1  -3  113.90    6.04
  -3  -1   2 1608.59   17.10
   3   1  -2  996.48   12.60
   3   1  -2 1058.38   13.84
  -3  -1   1  242.10    7.34
   3   1  -1  160.95    6.09
   3   1  -1  144.88    6.50
  -3  -1   0    4.37    2.68
   3   1   0    0.68    2.29
   3   1   0    3.16    3.01
  -3  -1  -1 1051.39   11.88
  -3  -1  -1  564.21   10.95
   3   1   1  765.97   12.34
   3   1   1  745.90   12.71
  -3  -1  -2  288.35    6.56
  -3  -1  -2  183.64    7.41
   3   1   2  209.45    7.65
   3   1   2  224.82    8.42
  -3  -1  -3   50.60    3.94
  -3  -1  -3   19.64    4.15
   3   1   3   39.36    4.68
   3   1   3   40.68    4.95
  -3  -1  -4   25.99    3.18
  -3  -1  -4    8.15    3.71
   3   1   4   32.18    4.74
   3   1   4   29.17    4.76
  -3  -1  -5  239.98    9.82
   3   1   5  361.45   11.14
   3   1   5  413.24   12.17
  -3  -1  -6   48.78    6.27
   3   1   6   47.17    5.88
   3   1   6   49.96    6.29
  -3  -1  -7   41.67    6.04
   3   1   7   67.88    8.25
  -3  -1  -8   58.75    7.22
   3   1   8  107.69    8.56
  -3  -1  -9    2.85    4.35
   3   1   9    7.80    4.70
  -3  -1 -10    8.02    4.85
   3   1  10   21.66    5.80
  -3  -1 -11    9.16    5.05
   3   1  11   11.72    5.71
  -3  -2  15   -2.66    6.02
  -3  -2  15    4.79    4.31
   3   2 -15    6.39    4.10
  -3  -2  14   18.56    6.87
  -3  -2  14   21.33    5.38
   3   2 -14   14.48    4.64
  -3  -2  13   58.73    8.04
  -3  -2  13   47.44    6.56
   3   2 -13   45.98    5.98
  -3  -2  12   34.98    6.93
  -3  -2  12   18.71    4.56
   3   2 -12   28.24    5.03
  -3  -2  11   14.15    5.86
   3   2 -11   16.23    4.31
  -3  -2  10   12.09    5.55
   3   2 -10    9.30    4.33
  -3  -2   9    1.18    5.57
   3   2  -9    2.70    4.33
  -3  -2   8   -1.16    4.76
   3   2  -8   -1.73    4.00
  -3  -2   7    1.86    4.64
   3   2  -7   -1.53    4.15
  -3  -2   6  320.92   11.20
   3   2  -6  209.30    8.27
  -3  -2   5   58.77    6.62
   3   2  -5   28.59    4.62
   3   2  -5   37.13    4.04
  -3  -2   4    1.11    3.44
   3   2  -4    0.39    3.42
   3   2  -4    0.64    2.60
  -3  -2   3    0.76    3.26
   3   2  -3   -0.43    2.91
   3   2  -3    0.91    2.58
  -3  -2   2    2.15    3.11
   3   2  -2    3.30    2.99
   3   2  -2    3.42    2.83
  -3  -2   1  220.94    7.63
   3   2  -1  144.47    6.81
   3   2  -1  143.17    6.56
  -3  -2   0  366.07    8.83
   3   2   0  246.45    8.17
   3   2   0  261.61    8.27
  -3  -2  -1    1.03    2.78
   3   2   1    3.24    2.97
   3   2   1    1.20    3.24
  -3  -2  -2   12.15    3.09
  -3  -2  -2   14.36    4.15
   3   2   2    8.62    3.59
   3   2   2    5.59    3.65
  -3  -2  -3   72.83    4.97
  -3  -2  -3   50.64    5.88
   3   2   3   71.84    6.46
   3   2   3   74.13    7.26
  -3  -2  -4   -2.35    3.73
   3   2   4    1.90    3.63
   3   2   4    0.70    3.80
  -3  -2  -5   32.08    5.69
   3   2   5   36.28    5.69
   3   2   5   34.18    5.42
  -3  -2  -6   17.68    4.87
   3   2   6   23.41    5.09
   3   2   6   15.53    4.62
  -3  -2  -7  118.32    8.79
   3   2   7  207.18   10.07
   3   2   7  225.31   10.75
  -3  -2  -8    3.96    4.54
   3   2   8    4.27    3.92
   3   2   8    2.33    4.39
  -3  -2  -9    7.14    5.01
   3   2   9   23.41    5.09
   3   2   9   20.87    5.69
  -3  -2 -10    7.96    5.22
   3   2  10   22.94    5.12
   3   2  10   10.21    5.34
  -3  -3  15   -0.33    6.11
  -3  -3  15   -3.69    3.49
   3   3 -15    8.95    4.64
  -3  -3  14   25.58    7.08
  -3  -3  14   21.64    4.99
   3   3 -14   24.92    5.28
  -3  -3  13   -1.03    5.75
  -3  -3  13    2.02    3.71
   3   3 -13    3.42    4.17
  -3  -3  12   89.52    9.90
  -3  -3  12   72.94    7.16
   3   3 -12   72.88    7.84
  -3  -3  11   13.90    5.84
  -3  -3  11    7.86    3.65
   3   3 -11   14.77    4.62
  -3  -3  10  104.81    9.88
   3   3 -10   77.99    7.55
  -3  -3   9   20.42    6.58
   3   3  -9   10.91    5.14
  -3  -3   8   97.71    9.63
   3   3  -8   76.46    8.07
  -3  -3   7    8.27    5.18
   3   3  -7    6.50    4.66
  -3  -3   6   40.08    5.98
   3   3  -6   33.68    5.59
  -3  -3   5   28.88    5.18
   3   3  -5   24.90    5.24
  -3  -3   4  282.39   10.50
   3   3  -4  187.89    8.48
   3   3  -4  181.77    6.72
  -3  -3   3   32.76    4.99
   3   3  -3   18.30    4.43
   3   3  -3   27.68    3.61
  -3  -3   2  159.92    8.23
   3   3  -2  111.47    7.14
   3   3  -2  118.40    6.23
  -3  -3   1   20.79    4.39
   3   3  -1    9.98    4.00
   3   3  -1   15.26    3.63
  -3  -3   0    4.97    3.59
   3   3   0    8.54    3.75
   3   3   0    5.78    3.47
  -3  -3  -1   64.75    6.17
   3   3   1   62.60    6.35
   3   3   1   66.05    6.60
  -3  -3  -2    7.10    3.47
   3   3   2    7.84    3.67
   3   3   2    8.35    3.86
  -3  -3  -3    4.85    3.30
  -3  -3  -3    3.44    4.43
   3   3   3    6.52    4.21
   3   3   3    4.52    3.94
  -3  -3  -4    0.17    4.21
   3   3   4   -0.64    3.94
   3   3   4    0.33    3.90
  -3  -3  -5   11.12    4.41
   3   3   5   11.32    4.35
   3   3   5   14.95    4.50
  -3  -3  -6   23.25    5.55
   3   3   6   42.39    6.00
   3   3   6   47.67    6.02
  -3  -3  -7   44.04    6.77
   3   3   7   52.93    6.72
   3   3   7   66.60    8.13
  -3  -3  -8   14.58    5.24
   3   3   8   37.29    6.27
   3   3   8   35.87    6.29
  -3  -3  -9   -1.26    4.74
   3   3   9    6.52    4.13
   3   3   9    1.98    4.64
  -3  -4  15    0.43    3.86
  -3  -4  14   13.76    7.01
  -3  -4  14    8.99    4.04
   3   4 -14   19.80    5.18
  -3  -4  13   62.97    8.70
  -3  -4  13   50.83    6.15
   3   4 -13   66.83    7.84
  -3  -4  12   16.38    6.31
  -3  -4  12   15.20    4.06
   3   4 -12   14.17    5.16
  -3  -4  11   72.90    8.25
  -3  -4  11   57.67    6.21
   3   4 -11   52.29    6.75
  -3  -4  10   34.92    7.10
   3   4 -10   27.35    5.73
  -3  -4   9   43.36    7.34
   3   4  -9   32.28    6.29
  -3  -4   8   -4.46    5.38
   3   4  -8    7.59    5.69
  -3  -4   7  139.65   10.81
   3   4  -7   89.36    8.83
  -3  -4   6  119.18    9.53
   3   4  -6   85.27    9.26
  -3  -4   5   69.55    8.25
   3   4  -5   50.10    6.60
  -3  -4   4  100.97    8.77
   3   4  -4   75.60    7.94
   3   4  -4   64.75    4.93
  -3  -4   3   37.69    5.69
   3   4  -3   29.64    5.55
   3   4  -3   26.30    3.49
  -3  -4   2   -0.25    4.04
   3   4  -2    0.93    4.19
   3   4  -2   -0.33    2.83
  -3  -4   1   37.40    5.34
   3   4  -1   37.79    5.82
   3   4  -1   27.10    3.88
  -3  -4   0    5.63    4.02
   3   4   0    3.61    4.23
   3   4   0    3.49    3.49
  -3  -4  -1    3.03    3.92
   3   4   1    4.99    4.43
   3   4   1    0.62    3.57
  -3  -4  -2    1.84    3.61
   3   4   2   -2.52    3.84
   3   4   2   -1.49    3.67
   3   4   3   37.83    5.65
   3   4   3   42.47    5.20
   3   4   4    3.98    3.96
   3   4   4    4.85    3.82
  -3  -4  -5   29.68    6.35
   3   4   5   52.00    6.48
   3   4   5   53.24    6.09
  -3  -4  -6   12.64    5.45
   3   4   6   41.83    6.70
   3   4   6   33.52    5.63
  -3  -4  -7    3.44    4.81
   3   4   7    6.13    4.48
   3   4   7    4.58    4.64
  -3  -4  -8    1.73    5.18
   3   4   8   -1.30    4.02
   3   4   8  -11.26    5.09
  -3  -5  14    4.85    6.19
   3   5 -14   19.64    5.65
  -3  -5  13   20.03    6.97
   3   5 -13   22.26    5.80
  -3  -5  12   -5.61    5.38
   3   5 -12    2.10    4.87
  -3  -5  11   40.70    7.57
   3   5 -11   33.27    6.50
  -3  -5  10   14.23    6.29
   3   5 -10    7.63    5.47
  -3  -5   9  197.55   11.92
   3   5  -9  144.80   10.40
  -3  -5   8   51.77    7.41
   3   5  -8   44.08    6.64
  -3  -5   7    2.89    5.07
   3   5  -7    0.39    5.78
  -3  -5   6   36.94    6.77
   3   5  -6   31.37    6.85
  -3  -5   5  215.68   11.55
   3   5  -5  164.44   10.60
  -3  -5   4  226.09   11.06
   3   5  -4  180.73   10.33
  -3  -5   3  110.52    8.77
   3   5  -3   95.85    8.89
  -3  -5   2   25.27    5.65
   3   5  -2   28.63    6.13
  -3  -5   1  257.28   10.50
   3   5  -1  207.86   10.73
  -3  -5   0   29.31    5.14
   3   5   0   17.55    5.32
  -3  -5  -1    4.15    3.77
   3   5   1   -0.99    3.90
  -3  -5  -2   71.91    8.68
   3   5   2   40.66    5.98
   3   5   3   24.03    5.24
   3   5   4   15.45    4.87
   3   5   5   -2.72    3.92
   3   5   6    8.09    4.85
  -3  -5  -7   -1.63    5.20
   3   5   7    1.69    4.33
  -3  -6  13    0.97    6.17
   3   6 -13    9.39    5.47
  -3  -6  12   27.78    7.03
  -3  -6  11   -2.78    5.49
   3   6 -11   -3.53    5.47
  -3  -6  10   -3.07    5.38
   3   6 -10   -2.78    5.45
  -3  -6   9    4.87    5.14
   3   6  -9    4.37    5.86
  -3  -6   8   13.51    5.51
   3   6  -8   12.67    5.80
  -3  -6   7   28.14    6.27
   3   6  -7   13.18    5.94
  -3  -6   6   13.78    5.51
   3   6  -6    9.16    5.80
  -3  -6   5   51.75    7.05
   3   6  -5   28.22    6.62
  -3  -6   4   -2.70    4.23
   3   6  -4    3.05    4.74
  -3  -6   3    9.36    4.64
   3   6  -3    7.55    5.42
  -3  -6   2  116.11    8.93
   3   6  -2   80.69    8.31
  -3  -6   1  130.90    8.95
   3   6  -1   93.56    8.83
  -3  -6   0  156.56    9.08
   3   6   0  137.05    9.63
  -3  -6  -1  116.67    8.44
   3   6   1   84.30    8.87
   3   6   2   16.67    5.51
   3   6   3   27.99    6.02
   3   6   4    2.00    4.39
   3   6   5    0.04    4.33
   3   7 -13    6.46    5.59
  -3  -7  12   10.83    6.09
   3   7 -12   19.16    6.21
  -3  -7  11    3.71    6.09
   3   7 -11    2.95    5.84
  -3  -7  10   11.67    6.42
   3   7 -10    9.06    6.33
  -3  -7   9    3.75    5.40
   3   7  -9    1.96    5.47
  -3  -7   8   31.68    7.10
   3   7  -8   16.89    6.54
  -3  -7   7    9.20    5.73
   3   7  -7    2.00    5.78
  -3  -7   6    2.56    4.81
   3   7  -6   -2.54    5.75
  -3  -7   5    0.58    4.89
   3   7  -5   -1.59    5.63
  -3  -7   4  278.07   12.29
   3   7  -4  208.38   12.07
  -3  -7   3  281.31   12.00
   3   7  -3  240.99   12.36
  -3  -7   2   82.34    9.10
   3   7  -2   48.66    7.59
  -3  -7   1    5.38    4.62
   3   7  -1   -7.53    4.99
  -3  -7   0   57.38    6.91
   3   7   0   59.51    8.27
   3   7   1   16.77    6.04
   3   7   2   21.16    6.46
   3   7   3   26.96    6.37
  -3  -8  11    0.52    6.04
   3   8 -11   -2.43    5.90
  -3  -8  10   25.93    7.41
   3   8 -10   21.31    7.16
  -3  -8   9   -1.42    5.73
   3   8  -9    8.89    6.50
  -3  -8   8    0.70    5.32
   3   8  -8    1.22    6.13
  -3  -8   7    3.59    5.01
   3   8  -7   -7.26    5.61
  -3  -8   6   14.56    5.98
   3   8  -6    6.99    6.60
  -3  -8   5   24.05    6.29
   3   8  -5   12.40    6.85
  -3  -8   4    0.10    4.93
   3   8  -4   -5.42    5.98
  -3  -8   3    2.78    4.93
   3   8  -3   -1.61    5.78
  -3  -8   2   12.79    5.55
   3   8  -2    4.04    6.11
  -3  -8   1   13.33    5.40
   3   8  -1    2.64    5.82
   3   8   0   19.31    6.68
   3   8   1   -9.39    5.34
  -3  -9   8   28.94    7.36
   3   9  -8   24.57    7.49
  -3  -9   7   16.44    6.35
   3   9  -7    3.63    6.60
  -3  -9   6   33.81    7.24
   3   9  -6   14.54    7.49
  -3  -9   5    8.89    5.92
   3   9  -5   -7.96    5.98
  -3  -9   4    6.60    5.61
   3   9  -4   -5.01    6.00
   3   9  -3   -2.27    5.92
  -4  11  -1    5.30    5.26
   4 -11   2    9.03    6.27
   4 -11   3    8.64    5.71
   4 -11   4    4.37    5.45
   4 -11   5    8.04    5.57
   4 -11   6    4.27    5.38
  -4  10   2   -1.98    4.89
   4 -10  -2    3.42    5.86
  -4  10   1   -0.37    4.60
   4 -10  -1    1.69    5.30
  -4  10   0   66.79    8.17
   4 -10   0   49.03    7.78
  -4  10  -1    3.28    4.62
   4 -10   1   -0.43    4.97
   4 -10   2   -5.86    4.62
   4 -10   3    0.76    4.93
   4 -10   4   57.74    8.00
   4 -10   5    0.80    4.81
   4 -10   6   44.72    7.05
   4 -10   7   22.52    5.98
   4 -10   8   16.58    5.63
  -4   9   5    4.35    5.34
   4  -9  -5    0.39    5.69
  -4   9   4   15.33    5.38
   4  -9  -4    9.59    5.71
  -4   9   3   31.33    6.68
   4  -9  -3   24.28    6.56
  -4   9   2   12.95    5.32
   4  -9  -2    4.33    5.09
  -4   9   1   12.79    5.30
   4  -9  -1   12.48    5.96
  -4   9   0   44.02    6.99
   4  -9   0   29.93    6.66
   4  -9   0   31.44    5.24
  -4   9  -1    5.98    4.68
   4  -9   1    0.74    4.79
   4  -9   1   11.57    4.17
  -4   9  -2  165.16   10.44
   4  -9   2  139.40   10.60
   4  -9   2  120.63    8.48
   4  -9   3   27.68    5.32
   4  -9   4   15.49    5.65
   4  -9   4   14.46    4.81
   4  -9   5   82.24    9.14
   4  -9   5   78.71    8.52
   4  -9   6   -1.61    4.29
   4  -9   6    1.65    4.68
   4  -9   7   19.08    5.40
   4  -9   7    8.99    5.28
   4  -9   8   11.67    5.90
   4  -9   9   -4.37    5.53
  -4   8   7   -2.27    4.79
  -4   8   6   10.38    5.63
  -4   8   5    1.11    4.72
   4  -8  -5    4.70    5.28
  -4   8   4   85.31    9.20
   4  -8  -4   68.75    8.50
  -4   8   3    6.13    4.97
   4  -8  -3    5.03    5.28
  -4   8   2  154.68   10.09
   4  -8  -2  147.44   10.56
  -4   8   1   95.30    9.06
   4  -8  -1   67.39    8.00
   4  -8  -1   61.80    7.49
  -4   8   0   45.79    6.58
   4  -8   0   29.33    6.04
   4  -8   0   26.38    5.01
  -4   8  -1   21.70    5.22
   4  -8   1   19.20    5.51
   4  -8   1   11.92    4.39
  -4   8  -2  134.59    9.14
   4  -8   2  109.74    9.08
   4  -8   2   95.11    8.25
  -4   8  -3   33.17    5.38
   4  -8   3   33.04    5.86
   4  -8   3   27.41    5.38
   4  -8   4  321.35   11.90
   4  -8   4  268.38   11.24
   4  -8   5  135.97    9.49
   4  -8   5  129.00    9.53
   4  -8   6  113.51    8.58
   4  -8   6   81.91    8.91
   4  -8   7   15.99    4.68
   4  -8   7    9.43    5.34
   4  -8   8    9.86    5.90
   4  -8   9   -4.91    5.42
  -4   8 -10    4.76    3.57
   4  -8  10  -10.60    5.53
  -4   8 -11    8.66    4.19
   4  -8  11   -9.59    6.02
  -4   7   8   -0.89    5.07
  -4   7   7   29.70    6.64
  -4   7   6   29.23    6.60
  -4   7   5   82.59    9.36
  -4   7   4    3.65    4.46
   4  -7  -4    8.33    5.16
  -4   7   3    8.21    4.72
   4  -7  -3    9.78    5.20
  -4   7   2  402.11   13.43
   4  -7  -2  349.90   13.16
   4  -7  -2  277.25   11.26
  -4   7   1  148.35    9.30
   4  -7  -1  103.63    9.10
   4  -7  -1   99.28    8.46
  -4   7   0   13.90    4.64
   4  -7   0   20.92    5.47
   4  -7   0   14.09    4.91
  -4   7  -1  209.61   10.27
   4  -7   1  209.16   10.56
   4  -7   1  148.37    9.78
  -4   7  -2  913.37   17.51
   4  -7   2  779.83   16.69
   4  -7   2  613.31   15.33
  -4   7  -3  206.17    9.69
   4  -7   3  125.95    9.10
   4  -7   3  129.97    9.53
  -4   7  -4    9.10    3.98
   4  -7   4   10.54    4.54
   4  -7   4    7.10    4.83
   4  -7   5    6.31    4.04
   4  -7   5    2.58    4.85
   4  -7   6   33.58    5.18
   4  -7   6   32.80    6.15
  -4   7  -7    3.77    3.07
   4  -7   7   -0.83    4.91
  -4   7  -8   70.19    6.33
   4  -7   8   59.63    7.76
  -4   7  -9    2.85    3.53
   4  -7   9   -0.35    5.61
  -4   7 -10    2.81    3.71
   4  -7  10   -4.76    5.30
  -4   7 -11    3.40    3.84
   4  -7  11  -12.83    5.53
  -4   7 -12   17.12    5.01
   4  -7  12    8.68    6.54
  -4   6   9   39.95    7.61
  -4   6   8   29.27    6.54
  -4   6   7   33.35    6.42
  -4   6   6   11.74    5.20
  -4   6   5   82.86    8.52
  -4   6   4  100.02    8.60
  -4   6   3   18.48    5.16
   4  -6  -3    7.41    5.14
   4  -6  -3   10.25    4.35
  -4   6   2   17.20    5.03
   4  -6  -2   11.55    4.93
   4  -6  -2    9.76    4.66
  -4   6   1   18.81    5.16
   4  -6  -1   11.90    5.16
   4  -6  -1    5.38    4.76
  -4   6   0   33.87    5.53
   4  -6   0   37.05    6.17
   4  -6   0   17.45    5.49
  -4   6  -1   13.53    4.41
   4  -6   1    9.10    4.70
   4  -6   1    5.90    4.85
  -4   6  -2  213.55    9.43
   4  -6   2  173.74    9.47
   4  -6   2  125.56    9.28
  -4   6  -3    0.47    3.47
   4  -6   3   -2.35    3.75
   4  -6   3   -3.67    5.09
  -4   6  -4  287.89    9.82
   4  -6   4  253.28    9.86
   4  -6   4  197.61   11.26
  -4   6  -5  120.81    7.20
  -4   6  -5   82.38    5.40
   4  -6   5   97.36    7.26
   4  -6   5   76.22    7.92
  -4   6  -6  200.62    7.80
  -4   6  -6  111.88    6.37
   4  -6   6  136.78    7.53
   4  -6   6  137.03   10.07
  -4   6  -7    6.64    3.14
   4  -6   7   -3.09    4.83
  -4   6  -8  227.31    9.10
   4  -6   8  281.66   13.18
  -4   6  -9   18.61    4.39
   4  -6   9   12.91    6.27
  -4   6 -10    2.25    3.61
   4  -6  10   -8.70    5.14
  -4   6 -11   -1.05    3.36
   4  -6  11   -8.07    5.30
  -4   6 -12   10.11    4.70
   4  -6  12    8.81    6.62
  -4   5  10   -3.32    5.12
  -4   5   9    2.33    5.28
  -4   5   7   11.67    5.22
  -4   5   6    2.74    4.37
  -4   5   5  173.93   10.42
  -4   5   4   -4.46    4.17
   4  -5  -4    2.04    4.10
  -4   5   3   89.91    8.33
   4  -5  -3   52.93    6.46
  -4   5   2  126.03    8.64
   4  -5  -2   81.23    8.56
  -4   5   1   37.50    5.34
   4  -5  -1   33.73    5.49
   4  -5  -1   26.05    5.20
  -4   5   0    1.09    3.61
   4  -5   0    6.42    4.19
   4  -5   0   -3.42    4.29
  -4   5  -1   14.81    4.15
   4  -5   1   30.30    5.16
   4  -5   1   13.96    5.07
  -4   5  -2  241.54    9.10
   4  -5   2  202.58    9.01
   4  -5   2  149.32    9.57
  -4   5  -3    2.93    3.16
  -4   5  -3    4.52    2.23
   4  -5   3    4.31    3.69
   4  -5   3   -4.70    4.68
  -4   5  -4  396.49   10.02
  -4   5  -4  236.90    7.01
   4  -5   4  323.52    9.78
   4  -5   4  258.25   12.15
  -4   5  -5  190.31    7.47
  -4   5  -5  110.33    6.04
   4  -5   5  152.66    7.61
   4  -5   5  126.61   10.13
  -4   5  -6   28.26    4.17
   4  -5   6   26.40    6.29
  -4   5  -7    3.11    3.07
   4  -5   7    1.67    5.32
  -4   5  -8  123.49    7.51
   4  -5   8  169.08   11.49
  -4   5  -9   15.94    4.35
   4  -5   9   11.43    5.84
  -4   5 -10   38.30    5.88
   4  -5  10   42.93    7.55
  -4   5 -11    3.03    3.98
   4  -5  11   -5.42    5.69
  -4   5 -12   20.40    5.47
   4  -5  12   25.97    7.57
  -4   4  11    8.99    6.13
  -4   4  10   12.17    5.92
  -4   4   9    1.11    4.91
  -4   4   8    5.22    5.18
  -4   4   7   87.89    8.62
  -4   4   6   48.80    6.89
  -4   4   5    4.85    4.74
  -4   4   4   36.20    5.63
   4  -4  -4   27.19    5.49
  -4   4   3   40.84    5.88
   4  -4  -3   23.21    5.32
  -4   4   2   59.76    7.20
   4  -4  -2   30.55    5.22
  -4   4   1  170.52    8.56
   4  -4  -1  106.04    8.31
  -4   4   0   55.38    5.94
   4  -4   0   22.15    4.89
  -4   4  -1   29.85    4.35
   4  -4   1   21.74    2.50
   4  -4   1   19.95    5.49
  -4   4  -2  130.18    6.89
  -4   4  -2   63.47    3.73
   4  -4   2   81.48    8.87
  -4   4  -3   10.54    3.24
  -4   4  -3    7.08    2.41
   4  -4   3    4.27    4.95
  -4   4  -4   -0.64    2.58
  -4   4  -4   -0.31    2.45
   4  -4   4    0.68    5.05
  -4   4  -5   29.41    3.53
  -4   4  -5   20.05    3.71
   4  -4   5   18.23    5.94
  -4   4  -6   12.91    3.73
   4  -4   6    6.81    5.67
  -4   4  -7   28.22    4.50
   4  -4   7   28.63    5.92
  -4   4  -8   14.44    3.98
   4  -4   8    7.51    5.55
  -4   4  -9    7.36    3.90
   4  -4   9    6.54    5.63
  -4   4 -10    2.52    3.92
   4  -4  10   -2.35    5.30
  -4   4 -11    3.30    4.19
   4  -4  11    1.24    5.82
  -4   4 -12    6.23    4.54
   4  -4  12   -4.79    5.71
  -4   3  12    2.66    5.53
  -4   3  11   -6.81    4.95
  -4   3  10    2.08    5.16
  -4   3   9    4.70    4.99
  -4   3   8  144.37    9.94
  -4   3   7   29.31    5.84
  -4   3   6   78.05    8.60
  -4   3   5    3.26    4.58
   4  -3  -5   -0.04    3.86
  -4   3   4   28.67    5.42
   4  -3  -4   18.34    4.56
  -4   3   3  131.66    8.17
   4  -3  -3   85.52    7.94
  -4   3   2   57.92    6.50
   4  -3  -2   25.83    5.36
  -4   3   1  281.81    9.49
   4  -3  -1  178.59    9.18
  -4   3   0   14.25    3.67
   4  -3   0    8.77    1.82
   4  -3   0    4.43    4.25
  -4   3  -1  151.26    6.89
   4  -3   1   91.38    3.98
   4  -3   1   93.46    8.07
  -4   3  -2  167.31    6.83
  -4   3  -2   91.71    4.66
   4  -3   2  103.09    8.60
  -4   3  -3  397.65    8.70
  -4   3  -3  234.10    6.99
   4  -3   3  277.39   11.45
  -4   3  -4   81.17    4.95
  -4   3  -4   40.80    4.74
   4  -3   4   42.12    5.94
  -4   3  -5   26.09    4.08
   4  -3   5   36.84    6.66
  -4   3  -6   -3.73    2.99
   4  -3   6   -3.22    4.89
  -4   3  -7   10.15    3.86
   4  -3   7    7.96    5.38
  -4   3  -8   14.17    4.19
   4  -3   8   23.95    6.15
  -4   3  -9   -0.91    3.55
   4  -3   9    5.84    5.53
  -4   3 -10    4.95    3.98
   4  -3  10   -0.87    5.09
  -4   3 -11   17.59    5.22
   4  -3  11   16.73    6.79
  -4   3 -12    2.70    4.19
   4  -3  12   -0.10    6.19
  -4   2  13    3.09    6.13
  -4   2  12    0.58    5.26
  -4   2  11    2.29    5.09
  -4   2  10    4.06    5.40
  -4   2   9   36.26    6.46
  -4   2   8  253.01   11.76
  -4   2   7    9.14    5.24
  -4   2   6   13.47    4.81
  -4   2   5  213.55   10.07
   4  -2  -5  114.85    8.44
  -4   2   4    2.68    3.82
   4  -2  -4   -5.16    3.94
  -4   2   3  276.98    9.86
   4  -2  -3  187.36    3.94
   4  -2  -3  172.17    9.39
  -4   2   2  439.71   11.34
   4  -2  -2  239.58    4.85
   4  -2  -2  241.46    9.92
  -4   2   1  517.74   11.30
   4  -2  -1  289.25    5.65
   4  -2  -1  291.67   10.46
  -4   2   0   32.20    4.27
   4  -2   0   15.76    2.54
   4  -2   0   18.87    4.99
  -4   2  -1   12.79    3.40
  -4   2  -1    8.15    2.78
   4  -2   1    7.03    2.35
   4  -2   1    2.89    4.41
  -4   2  -2  315.04    8.07
  -4   2  -2  139.13    5.98
   4  -2   2  193.30    6.52
   4  -2   2  188.41    9.96
  -4   2  -3   54.17    4.79
  -4   2  -3   24.57    3.73
   4  -2   3   22.71    5.24
  -4   2  -4    0.45    3.69
  -4   2  -4    3.75    3.18
   4  -2   4    0.50    4.99
  -4   2  -5    6.39    3.49
   4  -2   5   16.17    6.00
  -4   2  -6   11.76    3.82
   4  -2   6   19.06    6.02
  -4   2  -7    5.28    3.61
   4  -2   7    9.76    5.20
  -4   2  -8    9.08    3.98
   4  -2   8    9.24    5.42
  -4   2  -9    1.59    3.55
   4  -2   9    4.10    5.34
  -4   2 -10    8.66    4.46
   4  -2  10   15.45    6.23
  -4   2 -11   22.71    5.71
   4  -2  11   31.70    7.08
  -4   1  13    4.74    6.06
  -4   1  12   -0.41    5.53
  -4   1  11    2.76    5.34
  -4   1  10   14.60    5.65
  -4   1   9   40.76    6.85
  -4   1   8    7.14    5.20
  -4   1   7   77.33    8.85
  -4   1   6  416.75   13.16
   4  -1  -6  251.73    6.70
  -4   1   5  253.40   10.56
   4  -1  -5  155.03    5.42
   4  -1  -5  142.82    8.60
  -4   1   4  329.58   11.30
   4  -1  -4  211.86    6.04
   4  -1  -4  203.38    9.41
  -4   1   3  147.17    8.21
   4  -1  -3   82.86    4.89
   4  -1  -3   66.13    7.61
  -4   1   2  823.66   14.50
   4  -1  -2  452.58    7.94
   4  -1  -2  465.74   12.13
  -4   1   1  140.76    7.30
   4  -1  -1   79.85    4.85
   4  -1  -1   71.70    7.69
  -4   1   0   97.32    6.46
   4  -1   0   56.27    4.60
   4  -1   0   45.79    5.80
  -4   1  -1   54.35    5.53
  -4   1  -1    8.62    3.26
   4  -1   1   34.82    3.84
   4  -1   1   31.62    5.40
  -4   1  -2  371.10    8.44
  -4   1  -2  156.56    6.85
   4  -1   2  234.45    7.74
   4  -1   2  230.14   10.40
  -4   1  -3   20.26    3.24
  -4   1  -3    4.43    3.30
   4  -1   3   12.34    3.49
   4  -1   3   17.68    5.38
  -4   1  -4   92.33    6.79
   4  -1   4  134.10    7.38
   4  -1   4  141.48   10.38
  -4   1  -5   -0.45    3.47
   4  -1   5   13.96    5.57
  -4   1  -6    5.78    3.77
   4  -1   6   13.82    5.38
  -4   1  -7    5.75    3.77
   4  -1   7    3.90    4.72
  -4   1  -8   30.43    5.42
   4  -1   8   41.83    7.16
  -4   1  -9   -0.02    3.84
   4  -1   9    0.17    5.09
  -4   1 -10   10.02    4.68
   4  -1  10   20.32    6.79
  -4   1 -11    4.64    4.50
   4  -1  11   21.39    7.14
  -4   0  13   -5.28    5.71
  -4   0  12    3.86    5.84
  -4   0  11   15.06    6.19
  -4   0  10   13.04    6.04
  -4   0   9   11.06    5.61
  -4   0   8  403.92   13.82
   4   0  -8  273.39    8.37
  -4   0   7  228.82   11.86
   4   0  -7  146.29    6.72
  -4   0   6  155.40    9.86
   4   0  -6   85.54    5.96
  -4   0   5    4.72    4.68
   4   0  -5    3.82    3.44
   4   0  -5    5.75    4.02
  -4   0   4  163.55    9.28
   4   0  -4   99.71    6.15
   4   0  -4   93.92    7.86
   4   0  -3   20.67    3.80
   4   0  -3   15.10    4.52
  -4   0   2  160.95    8.33
   4   0  -2   92.43    5.80
   4   0  -2   90.41    7.61
  -4   0   1  125.72    7.34
   4   0  -1   75.91    5.61
   4   0  -1   83.33    7.76
  -4   0   0   21.25    4.08
   4   0   0   12.07    3.24
   4   0   0   13.08    4.60
  -4   0  -1  253.71    8.04
   4   0   1  165.95    7.16
   4   0   1  160.62    9.14
  -4   0  -2   41.65    4.23
  -4   0  -2   29.25    4.74
   4   0   2   26.88    4.21
   4   0   2   32.49    5.84
  -4   0  -3   11.20    4.15
   4   0   3   14.19    3.94
   4   0   3   17.51    5.51
  -4   0  -4    1.09    3.90
   4   0   4   -1.05    3.28
   4   0   4   -3.69    4.83
  -4   0  -5   -1.34    3.51
   4   0   5    6.48    3.84
   4   0   5   -0.91    4.79
  -4   0  -6    6.27    3.94
   4   0   6    7.59    3.77
   4   0   6    3.82    4.76
  -4   0  -7   10.11    4.10
   4   0   7   21.37    4.54
   4   0   7   15.57    5.32
  -4   0  -8    4.48    4.13
   4   0   8    6.33    5.30
  -4   0  -9   -2.15    4.06
   4   0   9   -3.18    4.95
  -4   0 -10    1.16    4.31
   4   0  10   -4.56    5.26
  -4  -1  14   60.07    9.16
  -4  -1  14   35.97    6.42
  -4  -1  13    3.01    6.11
  -4  -1  12    8.17    6.21
  -4  -1  11    1.20    5.40
  -4  -1  10  112.05   10.05
   4   1 -10   89.21    6.46
  -4  -1   9   35.91    6.77
   4   1  -9   24.15    4.25
  -4  -1   8    9.24    5.16
   4   1  -8    7.86    3.84
  -4  -1   7   48.49    7.01
   4   1  -7   31.89    5.09
  -4  -1   6    5.96    4.70
   4   1  -6   11.18    4.46
  -4  -1   5   -1.75    4.33
   4   1  -5   -2.25    3.84
   4   1  -5   -1.07    3.57
  -4  -1   4    6.68    4.62
   4   1  -4    6.29    3.96
   4   1  -4    0.10    3.80
  -4  -1   3   61.28    7.49
   4   1  -3   34.92    4.70
   4   1  -3   32.92    4.93
  -4  -1   2  156.93    8.37
   4   1  -2  105.22    6.70
   4   1  -2   93.83    7.51
  -4  -1   1    0.21    3.65
   4   1  -1    3.63    3.34
   4   1  -1    1.44    4.10
  -4  -1   0   -0.93    3.53
   4   1   0    0.78    3.30
   4   1   0    2.25    4.31
  -4  -1  -1   31.06    4.37
   4   1   1   18.56    4.17
   4   1   1   23.99    5.28
  -4  -1  -2    5.98    3.32
   4   1   2    3.55    3.67
   4   1   2    4.23    4.87
  -4  -1  -3   63.70    7.53
   4   1   3   92.70    7.30
   4   1   3  104.04    9.49
  -4  -1  -4   51.73    6.25
   4   1   4   45.79    5.73
   4   1   4   45.42    6.31
  -4  -1  -5   37.93    5.78
   4   1   5   74.13    6.93
   4   1   5   76.51    8.89
  -4  -1  -6    0.41    3.92
   4   1   6   11.41    4.27
   4   1   6   16.56    5.55
  -4  -1  -7   13.14    4.52
   4   1   7   31.77    5.71
   4   1   7   26.07    6.21
  -4  -1  -8    4.06    4.64
   4   1   8    5.65    4.02
   4   1   8    1.53    5.07
  -4  -1  -9    6.54    4.83
   4   1   9   22.48    5.28
   4   1   9    9.20    5.88
  -4  -2  14   12.81    6.99
  -4  -2  14    8.99    4.58
  -4  -2  13   62.83    9.10
  -4  -2  12   82.01   10.23
  -4  -2  11  136.41   11.14
   4   2 -11  101.94    7.67
  -4  -2  10   -3.92    4.99
   4   2 -10    5.01    3.88
  -4  -2   9    6.39    5.01
   4   2  -9   10.85    4.25
  -4  -2   8   30.18    6.62
   4   2  -8   18.50    4.91
  -4  -2   7  345.73   13.22
   4   2  -7  215.22    9.67
  -4  -2   6   -1.61    5.07
   4   2  -6    3.77    4.72
  -4  -2   5   12.25    5.51
   4   2  -5    7.63    4.74
   4   2  -5    6.99    3.84
  -4  -2   4   73.78    8.68
   4   2  -4   44.82    5.78
   4   2  -4   35.44    4.93
  -4  -2   3   69.95    8.19
   4   2  -3   54.46    5.92
   4   2  -3   40.68    5.12
  -4  -2   2    9.57    4.43
   4   2  -2    8.99    4.19
   4   2  -2    6.64    4.15
  -4  -2   1   16.01    4.58
   4   2  -1   13.20    4.43
   4   2  -1   12.54    4.56
  -4  -2   0   29.46    4.83
   4   2   0   13.78    4.52
   4   2   0   20.28    4.99
  -4  -2  -1  312.19    9.45
   4   2   1  239.13   10.17
   4   2   1  227.91   10.56
   4   2   2  117.64    8.40
   4   2   2  130.43    9.24
  -4  -2  -3    0.87    4.19
   4   2   3    0.72    3.51
   4   2   3   -2.02    4.23
  -4  -2  -4   17.18    5.12
   4   2   4   24.96    5.01
   4   2   4   21.41    5.36
  -4  -2  -5   13.06    5.01
   4   2   5   33.83    5.59
   4   2   5   30.80    5.96
  -4  -2  -6    3.71    4.50
   4   2   6    3.67    4.00
   4   2   6   -1.30    4.79
  -4  -2  -7   30.34    6.37
   4   2   7   70.61    8.31
   4   2   7   69.62    7.92
  -4  -2  -8   -3.03    4.17
   4   2   8    6.72    4.41
   4   2   8   -9.72    4.66
  -4  -3  13    2.93    6.39
  -4  -3  13    4.50    4.02
   4   3 -13   16.77    4.91
  -4  -3  12  106.89   11.84
   4   3 -12   91.83    8.21
  -4  -3  11    2.52    5.92
   4   3 -11   12.87    4.68
  -4  -3  10  168.44   11.67
   4   3 -10  108.66    8.70
  -4  -3   9   -1.44    5.24
   4   3  -9    2.89    4.58
  -4  -3   8  122.55   10.17
   4   3  -8   87.64    8.00
  -4  -3   7    2.99    5.38
   4   3  -7    4.35    4.74
  -4  -3   6  105.78   10.02
   4   3  -6   72.46    8.02
  -4  -3   5   52.81    7.03
   4   3  -5   31.39    6.06
   4   3  -5   30.24    4.52
  -4  -3   4    4.17    4.91
   4   3  -4    5.51    5.09
   4   3  -4    4.48    3.67
  -4  -3   3   12.91    5.12
   4   3  -3    4.46    4.97
   4   3  -3    9.94    3.94
  -4  -3   2  160.95    9.18
   4   3  -2  114.11    8.35
   4   3  -2  114.32    7.65
  -4  -3   1    3.67    4.19
   4   3  -1   -4.00    4.21
   4   3  -1   -0.66    3.92
  -4  -3   0    3.63    3.90
   4   3   0    3.88    4.35
   4   3   0    3.30    4.21
  -4  -3  -1   56.58    6.35
   4   3   1   58.48    6.79
   4   3   1   53.47    5.88
   4   3   2    3.36    3.77
   4   3   2   -2.23    4.00
   4   3   3   91.17    7.98
   4   3   3   88.22    8.46
   4   3   4   65.72    7.49
   4   3   4   51.51    6.46
  -4  -3  -5   11.88    5.36
   4   3   5   34.59    6.15
   4   3   5   33.54    6.25
  -4  -3  -6   15.37    5.32
   4   3   6   25.91    5.90
   4   3   6   17.06    5.88
  -4  -3  -7   55.88    7.84
   4   3   7   89.67    8.91
   4   3   7   82.69   10.25
  -4  -4  13   29.52    7.53
   4   4 -13   27.56    5.75
  -4  -4  12   43.03    8.35
   4   4 -12   36.98    6.27
  -4  -4  11   15.57    6.72
   4   4 -11   15.02    5.36
  -4  -4  10   -1.01    5.88
   4   4 -10    3.65    5.16
  -4  -4   9   37.38    7.20
   4   4  -9   18.30    6.09
  -4  -4   8    0.29    5.20
   4   4  -8    8.73    5.26
  -4  -4   7   43.92    7.05
   4   4  -7   23.82    6.00
  -4  -4   6  121.60    9.74
   4   4  -6   75.17    8.93
  -4  -4   5   51.49    6.83
   4   4  -5   40.55    6.31
  -4  -4   4   66.98    8.31
   4   4  -4   39.77    6.44
  -4  -4   3   83.87    8.42
   4   4  -3   69.31    8.46
  -4  -4   2   12.42    4.64
   4   4  -2    0.91    4.62
  -4  -4   1    5.86    4.00
   4   4  -1    4.62    4.60
  -4  -4   0   27.68    4.87
   4   4   0   20.73    5.20
   4   4   1   25.17    5.57
   4   4   2   11.32    4.91
   4   4   3   69.18    8.15
   4   4   4   15.82    5.45
   4   4   5   40.39    6.93
   4   4   6   -0.14    4.39
  -4  -5  12   10.52    6.83
   4   5 -12   19.41    5.92
  -4  -5  11    9.61    6.56
   4   5 -11    7.01    5.22
  -4  -5  10   78.84    9.32
   4   5 -10   65.08    8.31
  -4  -5   9  133.83   11.63
   4   5  -9   89.81    9.45
  -4  -5   8   22.52    6.31
   4   5  -8   20.19    6.44
  -4  -5   7   64.17    7.88
   4   5  -7   50.70    7.65
  -4  -5   6   87.58    9.82
   4   5  -6   60.62    7.80
  -4  -5   5    8.62    5.12
   4   5  -5   -1.13    5.12
   4   5  -4   11.20    5.63
  -4  -5   3   42.78    6.21
   4   5  -3   25.39    5.92
  -4  -5   2    6.19    4.50
   4   5  -2    5.96    5.05
  -4  -5   1   22.61    5.12
   4   5  -1   19.12    5.75
   4   5   0   21.86    6.09
   4   5   1   31.79    6.54
   4   5   2    4.39    5.09
   4   5   3   18.26    5.94
   4   5   4    8.77    5.03
  -4  -6  11    2.78    6.15
   4   6 -11    6.85    6.15
  -4  -6  10    0.50    5.90
   4   6 -10    4.76    5.78
  -4  -6   9   -0.89    5.53
   4   6  -9    9.86    6.31
  -4  -6   8   17.76    6.48
   4   6  -8   12.69    6.44
  -4  -6   7   37.13    7.41
   4   6  -7   25.45    7.16
  -4  -6   6    8.25    5.53
   4   6  -6   -1.38    5.75
  -4  -6   5    2.15    4.76
   4   6  -5   -4.06    5.71
  -4  -6   4   33.91    6.39
   4   6  -4   29.17    7.14
  -4  -6   3   38.33    6.35
   4   6  -3   31.31    6.95
  -4  -6   2    3.90    4.56
   4   6  -2   -2.37    5.20
  -4  -6   1   13.90    5.32
   4   6  -1    7.78    5.86
   4   6   0   22.57    6.66
   4   6   1   14.01    6.06
   4   6   2   77.62    9.03
  -4  -7  10   -2.99    5.45
   4   7 -10   -2.85    5.90
  -4  -7   9    7.30    6.11
   4   7  -9   17.66    6.77
  -4  -7   8    5.92    5.86
   4   7  -8    9.24    6.54
  -4  -7   7    2.08    5.49
   4   7  -7   -2.72    5.98
  -4  -7   6    1.09    5.24
   4   7  -6   -3.84    6.21
  -4  -7   5    3.80    5.14
   4   7  -5   -8.58    5.57
  -4  -7   4   51.05    7.47
   4   7  -4   38.24    7.88
  -4  -7   3   10.52    5.22
   4   7  -3    5.96    6.48
  -4  -7   2   40.08    6.56
   4   7  -2   26.71    7.49
   4   7  -1   47.85    8.19
   4   7   0   93.65   10.73
  -5  10   0    1.96    4.68
  -5  10  -1    2.35    4.76
   5 -10   1   -0.95    5.18
   5 -10   1   16.44    4.70
  -5  10  -2    7.45    4.89
   5 -10   2    2.52    5.24
   5 -10   2   18.32    4.91
  -5  10  -3    8.52    4.97
   5 -10   3    6.23    5.24
   5 -10   3   19.33    5.09
  -5  10  -4    3.59    4.27
   5 -10   4    3.09    4.91
   5 -10   4    8.93    4.91
  -5  10  -5    4.52    4.56
   5 -10   5   -0.14    4.74
   5 -10   5    8.37    5.07
  -5  10  -6   15.68    6.60
  -5   9   3   64.89    8.60
   5  -9  -3   36.86    7.65
  -5   9   2    0.37    4.64
   5  -9  -2   -0.50    5.14
   5  -9  -2   12.52    4.50
  -5   9   1   29.72    6.39
   5  -9  -1   23.68    6.56
   5  -9  -1   31.60    5.71
  -5   9   0    9.08    5.05
   5  -9   0    3.14    5.16
   5  -9   0   15.61    4.79
  -5   9  -1    4.56    4.58
   5  -9   1    2.93    4.85
   5  -9   1   11.94    4.66
  -5   9  -2    5.86    4.48
   5  -9   2    0.35    4.72
   5  -9   2   11.45    4.89
  -5   9  -3   10.60    4.72
   5  -9   3    5.96    5.03
   5  -9   3   15.84    5.28
  -5   9  -4    4.74    4.15
   5  -9   4    0.21    4.43
   5  -9   4    7.55    4.83
  -5   9  -5    1.07    3.77
   5  -9   5    2.95    4.54
   5  -9   5    9.01    5.12
   5  -9   6   29.39    6.58
   5  -9   7   38.84    7.43
  -5   8   5    0.74    5.12
  -5   8   4   -0.85    4.81
  -5   8   3   60.66    8.15
  -5   8   2   28.18    6.13
   5  -8  -2   22.30    6.02
   5  -8  -2   27.99    5.71
  -5   8   1   41.15    6.77
   5  -8  -1   29.02    6.54
   5  -8  -1   35.54    5.90
  -5   8   0    7.10    4.70
   5  -8   0   10.23    5.36
   5  -8   0    9.69    4.70
  -5   8  -1   -1.55    4.00
   5  -8   1   -2.17    4.33
   5  -8   1    6.64    4.50
  -5   8  -2   61.24    7.16
   5  -8   2   38.70    6.46
   5  -8   2   43.61    6.37
  -5   8  -3   -1.01    3.86
   5  -8   3   -0.52    4.21
   5  -8   3    2.93    4.79
  -5   8  -4    2.06    3.84
   5  -8   4    1.96    4.19
   5  -8   4    5.34    5.03
  -5   8  -5   40.02    5.80
   5  -8   5   38.14    5.94
   5  -8   5   36.88    6.58
   5  -8   6   26.79    6.64
   5  -8   7   61.39    8.33
   5  -8   8   19.88    6.97
   5  -8   9  -11.22    6.21
  -5   7   7   12.64    5.69
  -5   7   6   15.47    6.04
  -5   7   5   22.88    6.31
  -5   7   4    6.27    5.18
  -5   7   3    6.17    4.72
   5  -7  -3    8.40    4.64
  -5   7   2   73.37    8.37
   5  -7  -2   56.31    6.83
  -5   7   1    8.13    4.72
   5  -7  -1    2.23    4.33
  -5   7   0   25.85    5.42
   5  -7   0   14.62    5.24
   5  -7   0   17.78    5.12
  -5   7  -1   23.78    5.12
   5  -7   1   22.55    5.40
   5  -7   1   21.39    5.47
  -5   7  -2  181.02    9.63
   5  -7   2  123.76    9.22
   5  -7   2  118.21    9.51
  -5   7  -3   75.37    7.36
   5  -7   3   56.87    6.62
   5  -7   3   45.75    6.89
  -5   7  -4  131.91    8.40
   5  -7   4   99.94    8.17
   5  -7   4   89.05    9.80
   5  -7   5   -0.31    5.24
   5  -7   6   78.42    8.75
   5  -7   7   -5.67    5.38
   5  -7   8   -7.41    5.86
   5  -7   9   76.42    9.32
  -5   6   8    9.26    5.88
  -5   6   7    1.01    5.12
  -5   6   6   69.91    8.64
  -5   6   5    0.33    4.87
  -5   6   4    2.27    4.66
   5  -6  -4    4.27    4.46
  -5   6   3   22.34    5.34
   5  -6  -3   21.51    5.40
  -5   6   2  223.91   10.87
   5  -6  -2  155.18   10.31
  -5   6   1   31.89    5.61
   5  -6  -1   15.61    5.32
  -5   6   0   -0.43    3.51
   5  -6   0    0.12    4.46
  -5   6  -1   10.13    4.06
   5  -6   1   11.18    5.01
  -5   6  -2  169.35    8.83
   5  -6   2  133.46    9.72
  -5   6  -3   10.97    3.88
   5  -6   3    9.06    5.20
  -5   6  -4   40.16    5.05
   5  -6   4   25.93    6.09
   5  -6   5   39.48    6.91
   5  -6   6   13.16    6.29
   5  -6   7   -0.04    5.80
   5  -6   8   48.76    7.88
   5  -6   9   31.70    7.65
   5  -6  10   -7.41    6.29
  -5   5   9   -2.15    5.05
  -5   5   8    0.29    5.16
  -5   5   7    0.74    5.18
  -5   5   6   47.48    7.22
  -5   5   5    4.46    4.83
   5  -5  -5    1.55    4.17
  -5   5   4   15.94    5.26
   5  -5  -4    9.82    4.74
  -5   5   3   40.78    6.31
   5  -5  -3   26.69    5.73
  -5   5   2    1.09    4.00
   5  -5  -2    1.65    4.35
  -5   5   1   43.92    5.94
   5  -5  -1   23.89    5.82
  -5   5   0    1.94    3.63
   5  -5   0    0.58    4.68
  -5   5  -1   -0.39    3.38
   5  -5   1    1.22    4.72
  -5   5  -2  239.27    9.36
   5  -5   2  138.76   10.13
  -5   5  -3    6.17    3.34
   5  -5   3   -4.25    4.74
   5  -5   4    9.24    5.42
   5  -5   5   -0.10    5.36
   5  -5   6   23.31    6.44
   5  -5   7    4.72    5.92
   5  -5   8   65.53    8.89
  -5   5  -9    6.95    4.15
   5  -5   9    2.72    6.37
  -5   5 -10    2.52    3.80
   5  -5  10   -2.97    6.39
  -5   4  10   -5.14    4.89
  -5   4   9    1.55    5.55
  -5   4   8    3.49    5.26
  -5   4   7   -2.37    4.74
  -5   4   6   26.05    6.11
  -5   4   5   25.72    5.57
   5  -4  -5   16.63    5.05
  -5   4   4   11.08    4.83
   5  -4  -4    3.55    4.23
  -5   4   3    4.62    4.23
   5  -4  -3    2.72    4.50
  -5   4   2    8.93    4.41
   5  -4  -2    3.80    4.46
  -5   4   1   -0.41    3.86
   5  -4  -1   -3.32    4.56
  -5   4   0   71.45    7.28
   5  -4   0   46.72    6.87
  -5   4  -1    1.05    3.47
   5  -4   1    1.38    5.24
  -5   4  -2  141.87    7.51
   5  -4   2   80.34    9.34
  -5   4  -3    2.93    3.22
   5  -4   3   -3.88    4.91
   5  -4   4   12.69    5.49
   5  -4   5   35.85    6.99
  -5   4  -6   97.53    6.89
   5  -4   6  170.61   11.70
  -5   4  -7    1.26    3.28
   5  -4   7   -4.35    5.34
  -5   4  -8    4.68    3.75
   5  -4   8    0.64    6.04
  -5   4  -9   -3.47    3.28
   5  -4   9  -11.34    5.59
  -5   4 -10    0.41    3.90
   5  -4  10   -3.16    6.19
  -5   3  11   -0.68    6.02
  -5   3  10   44.10    7.49
  -5   3   9    7.94    5.59
  -5   3   8  216.44   12.19
  -5   3   7   -4.85    4.41
  -5   3   6    3.20    4.64
  -5   3   5   25.50    5.47
   5  -3  -5    7.86    4.46
  -5   3   4  341.44   12.62
   5  -3  -4  185.44   10.44
  -5   3   3   99.79    8.77
   5  -3  -3   55.82    6.97
  -5   3   2   51.88    6.11
   5  -3  -2   25.52    5.67
  -5   3   1  123.72    8.58
   5  -3  -1   57.55    7.12
  -5   3   0  477.60   12.36
   5  -3   0  261.68   12.50
  -5   3  -1    7.59    3.88
   5  -3   1   -4.48    4.68
  -5   3  -2  107.94    7.10
   5  -3   2   74.09    8.23
   5  -3   3   17.62    6.11
  -5   3  -4   91.11    6.25
   5  -3   4  147.67    6.93
   5  -3   4  137.48   11.06
  -5   3  -5   21.16    4.10
   5  -3   5   42.68    6.93
  -5   3  -6   17.90    4.31
   5  -3   6   31.72    7.08
  -5   3  -7    6.95    3.92
   5  -3   7    4.21    5.80
  -5   3  -8    2.15    3.67
   5  -3   8   -2.00    5.90
  -5   3  -9   -2.93    3.51
   5  -3   9   -9.47    5.73
  -5   3 -10    3.11    4.41
  -5   2  11   17.76    6.60
  -5   2  10   15.51    6.15
  -5   2   9    0.76    5.61
  -5   2   8  200.48   12.11
  -5   2   7    3.77    5.18
  -5   2   6  150.43   10.02
   5  -2  -6   76.24    8.33
  -5   2   5    1.13    4.48
   5  -2  -5    5.16    4.37
  -5   2   4  420.09   13.61
   5  -2  -4  225.97   10.99
  -5   2   3   72.69    8.35
   5  -2  -3   23.16    5.59
  -5   2   2   35.60    5.67
   5  -2  -2   13.55    5.57
  -5   2   1  599.01   13.90
   5  -2  -1  347.86   13.37
  -5   2   0    0.95    4.00
   5  -2   0    5.90    5.22
  -5   2  -1  139.93    7.94
   5  -2   1   70.96    7.78
  -5   2  -2   89.32    7.28
  -5   2  -2   18.59    3.94
   5  -2   2   59.26    5.40
   5  -2   2   50.70    6.93
  -5   2  -3   62.97    6.11
   5  -2   3   90.47    6.15
   5  -2   3   82.08    9.94
  -5   2  -4    0.29    3.24
   5  -2   4    3.47    2.89
   5  -2   4   -1.44    5.07
  -5   2  -5    5.86    3.75
   5  -2   5   30.45    4.70
   5  -2   5   19.35    6.35
  -5   2  -6   36.53    5.32
   5  -2   6   95.11    7.18
   5  -2   6   61.86    8.02
  -5   2  -7    3.96    3.96
   5  -2   7    1.55    5.55
  -5   2  -8    2.41    3.86
   5  -2   8    4.39    6.31
  -5   2  -9    0.12    4.06
   5  -2   9  -10.11    5.47
  -5   1  12   59.65    9.06
  -5   1  11   -4.39    5.55
  -5   1  10   -1.86    5.32
  -5   1   9   35.54    6.79
  -5   1   8  307.12   13.43
  -5   1   7   -2.62    4.64
  -5   1   6   -3.22    4.41
   5  -1  -6    2.08    3.94
  -5   1   5    7.57    4.87
   5  -1  -5   12.85    4.54
  -5   1   4    5.03    4.87
   5  -1  -4    4.72    4.52
  -5   1   3  425.68   12.89
   5  -1  -3  245.30   11.16
  -5   1   2  566.90   14.13
   5  -1  -2  336.96   12.87
  -5   1   1   42.16    5.75
   5  -1  -1   20.17    5.65
  -5   1   0   31.56    5.03
   5  -1   0   19.47    3.86
   5  -1   0   15.70    5.69
  -5   1  -1   45.67    5.22
   5  -1   1   28.86    4.19
   5  -1   1   22.75    6.06
   5  -1   2   93.85    6.54
   5  -1   2   97.44    9.26
  -5   1  -3    1.65    3.36
   5  -1   3   -1.92    2.83
   5  -1   3    4.52    5.14
  -5   1  -4    2.02    3.55
   5  -1   4    2.27    3.24
   5  -1   4    3.24    5.07
  -5   1  -5   -4.68    3.30
   5  -1   5   -1.07    3.26
   5  -1   5   -4.19    4.87
  -5   1  -6    0.58    3.80
   5  -1   6    3.94    3.55
   5  -1   6    0.80    5.53
  -5   1  -7   -0.78    3.96
   5  -1   7    9.69    4.06
   5  -1   7    0.68    5.82
  -5   1  -8    2.45    4.33
   5  -1   8   13.82    4.25
   5  -1   8   -0.04    5.84
  -5   1  -9   -1.42    4.10
   5  -1   9   13.43    4.23
  -5   0  12   -4.23    5.57
  -5   0  11   -2.02    5.42
  -5   0  10    7.82    6.11
  -5   0   9   82.26    9.45
  -5   0   8   95.69    9.96
  -5   0   7   22.73    6.25
  -5   0   6  290.90   12.42
   5   0  -6  143.11    9.01
  -5   0   5  637.67   16.09
   5   0  -5  376.63   12.54
  -5   0   4  690.89   16.25
   5   0  -4  401.57   13.06
  -5   0   3   41.03    6.17
   5   0  -3   24.36    5.30
  -5   0   2  395.96   12.25
   5   0  -2  253.42    8.79
   5   0  -2  255.05   11.41
  -5   0   1   53.01    6.02
   5   0  -1   28.09    4.62
   5   0  -1   26.20    5.55
  -5   0   0    5.57    4.02
   5   0   0    3.28    3.42
   5   0   0    3.01    4.70
   5   0   1  147.22    7.90
   5   0   1  147.75   10.25
   5   0   2   84.76    6.89
   5   0   2   92.12    9.24
  -5   0  -3    9.03    4.04
   5   0   3   21.18    5.88
  -5   0  -4    5.36    4.31
   5   0   4   14.83    4.27
   5   0   4    6.23    5.26
  -5   0  -5   13.72    4.74
   5   0   5   19.80    4.95
   5   0   5   22.67    6.42
  -5   0  -6    0.54    4.29
   5   0   6   10.46    4.41
   5   0   6    7.12    5.71
  -5   0  -7   -1.22    4.13
   5   0   7   -0.02    3.65
   5   0   7  -14.01    5.16
  -5   0  -8   -2.95    4.33
   5   0   8    2.97    4.10
   5   0   8   -9.90    5.75
  -5  -1  12   22.88    7.14
  -5  -1  11   -0.52    5.92
  -5  -1  10  176.40   12.27
  -5  -1   9   91.65   10.99
  -5  -1   8  185.85   12.15
  -5  -1   7   25.83    6.21
  -5  -1   6   11.90    5.36
   5   1  -6   10.13    4.10
  -5  -1   5  117.62    9.86
   5   1  -5   82.12    7.80
  -5  -1   4  129.93    9.63
   5   1  -4   67.80    7.10
   5   1  -4   74.63    7.82
  -5  -1   3  345.63   12.23
   5   1  -3  225.33    9.24
   5   1  -3  205.12   10.00
  -5  -1   2  163.70    9.22
   5   1  -2  100.43    7.49
   5   1  -2  112.46    8.68
  -5  -1   1    5.98    4.21
   5   1  -1    0.39    3.71
   5   1  -1    2.27    4.29
  -5  -1   0    7.38    4.04
   5   1   0    4.54    3.84
   5   1   0    5.24    4.64
   5   1   1  170.42    8.60
   5   1   1  171.45   10.31
   5   1   2   55.67    6.62
   5   1   2   44.33    6.39
   5   1   3    2.68    3.84
   5   1   3   -0.21    4.85
  -5  -1  -4   -4.27    3.86
   5   1   4   -2.54    3.55
   5   1   4    2.64    5.34
  -5  -1  -5   -2.39    4.23
   5   1   5    2.43    4.00
   5   1   5   -1.77    5.34
  -5  -1  -6    0.08    4.60
   5   1   6    6.48    4.33
   5   1   6    0.91    5.61
  -5  -1  -7    3.84    4.68
   5   1   7   13.20    5.26
   5   1   7    0.02    6.15
  -5  -2  12    1.63    6.62
  -5  -2  11   89.95   10.05
  -5  -2  10   -8.17    5.65
  -5  -2   9   -2.04    5.57
  -5  -2   8   40.64    7.47
  -5  -2   7  185.93   11.49
  -5  -2   6    3.55    4.93
   5   2  -6    8.15    4.85
   5   2  -6    4.60    3.75
  -5  -2   5   33.21    6.09
   5   2  -5   16.13    5.09
   5   2  -5   19.86    4.52
  -5  -2   4   -2.08    4.19
   5   2  -4   -6.39    4.02
   5   2  -4    3.90    3.80
  -5  -2   3  204.31   10.64
   5   2  -3  140.90    8.70
   5   2  -3  147.42    8.66
  -5  -2   2   65.45    7.78
   5   2  -2   37.93    5.69
   5   2  -2   37.52    5.34
  -5  -2   1   -4.85    3.82
   5   2  -1    2.19    4.17
   5   2  -1    5.51    4.21
   5   2   0   -1.79    4.02
   5   2   0    5.24    4.43
   5   2   1   56.83    6.79
   5   2   1   60.93    6.75
   5   2   2   -5.82    3.92
   5   2   2    1.53    4.76
   5   2   3    5.61    4.43
   5   2   3    5.55    5.28
   5   2   4   50.33    6.97
   5   2   4   35.97    6.85
   5   2   5   79.62    8.87
   5   2   5   57.01    8.00
  -5  -2  -6   -3.96    4.60
   5   2   6   -7.20    3.59
  -5  -3  11   54.89    8.87
  -5  -3  10    2.37    5.67
  -5  -3   9    4.83    5.71
  -5  -3   8   41.07    7.74
   5   3  -8   24.17    6.23
  -5  -3   7  173.62   11.94
   5   3  -7  127.81    9.82
  -5  -3   6    9.03    5.71
   5   3  -6    5.05    5.28
   5   3  -6   11.82    3.92
  -5  -3   5    0.47    4.85
   5   3  -5   -4.15    4.76
   5   3  -5    9.16    3.73
  -5  -3   4   -1.67    4.35
   5   3  -4   -3.14    4.83
   5   3  -4    5.12    3.73
  -5  -3   3   13.06    5.03
   5   3  -3    4.72    4.85
   5   3  -3   13.86    4.76
  -5  -3   2    4.50    4.52
   5   3  -2    2.97    4.50
   5   3  -2   12.23    6.83
   5   3  -1   -3.67    4.39
   5   3   0    0.60    4.74
   5   3   1   74.48    8.73
   5   3   2   -1.84    4.39
   5   3   3   -0.39    4.54
   5   3   4    0.02    4.72
  -5  -4  10    6.64    6.33
  -5  -4   9    8.81    6.42
   5   4  -9    8.19    5.92
  -5  -4   8    2.64    5.92
   5   4  -8    7.67    5.65
  -5  -4   7   13.72    5.98
   5   4  -7   12.97    5.80
  -5  -4   6   23.80    6.42
   5   4  -6    3.77    5.73
  -5  -4   5   31.54    6.35
   5   4  -5   19.20    6.15
  -5  -4   4   42.06    6.75
   5   4  -4   29.89    6.79
  -5  -4   3   41.93    6.56
   5   4  -3   24.44    6.39
  -5  -4   2    4.19    4.62
   5   4  -2   -2.60    5.24
   5   4  -1   12.95    5.51
   5   4   0   21.53    6.29
   5   4   1    8.70    5.78
   5   4   2   -1.63    5.01
   5   4   3    7.26    5.49
  -5  -5   9   26.88    7.51
   5   5  -9   21.76    6.85
  -5  -5   8    0.37    5.59
   5   5  -8   -2.27    5.75
  -5  -5   7   70.30    8.58
   5   5  -7   56.54    8.15
  -5  -5   6   37.36    7.05
   5   5  -6   14.40    6.77
  -5  -5   5    0.19    4.99
   5   5  -5   -5.71    5.80
  -5  -5   4   22.50    6.00
   5   5  -4    6.66    6.33
  -5  -5   3   30.84    6.19
   5   5  -3   12.83    6.23
   5   5  -2   -0.85    5.49
   5   5  -1   -7.36    4.91
   5   5   0   -5.65    5.47
  -5  -6   5    2.00    5.32
   5   6  -5  -17.53    6.06
   5   6  -4    3.82    7.08
  -6   8   2   -3.63    4.43
  -6   8   1    0.58    4.52
   6  -8  -1   10.54    4.76
  -6   8   0   12.46    5.26
   6  -8   0   25.23    5.86
  -6   8  -1   -0.78    3.94
   6  -8   1   10.75    4.99
  -6   8  -2    1.01    4.06
   6  -8   2    5.69    5.01
   6  -8   3   15.66    5.84
   6  -8   4   21.00    6.46
  -6   7   4   14.29    5.94
   6  -7  -4   19.60    5.53
  -6   7   3   71.10    8.60
   6  -7  -3   36.82    6.66
  -6   7   2    4.89    5.05
   6  -7  -2   10.62    5.05
  -6   7   1    9.82    5.09
   6  -7  -1    9.69    4.95
  -6   7   0   32.47    6.00
   6  -7   0   31.44    6.35
  -6   7  -1   38.08    6.29
   6  -7   1   28.38    6.27
  -6   7  -2    0.10    3.88
   6  -7   2    8.46    5.61
   6  -7   3   24.48    6.79
   6  -7   4   -4.46    5.26
   6  -7   5   36.70    7.49
   6  -7   6   -2.06    5.92
  -6   6   6    6.91    5.98
  -6   6   5   -0.04    4.93
   6  -6  -5    6.21    4.43
  -6   6   4   20.96    6.19
   6  -6  -4   22.83    5.80
  -6   6   3   27.56    6.19
   6  -6  -3   36.16    6.66
  -6   6   2    2.78    4.83
   6  -6  -2    6.85    4.99
  -6   6   1    1.13    4.21
   6  -6  -1   13.16    5.22
  -6   6   0   -0.02    4.04
   6  -6   0    6.64    5.07
  -6   6  -1    2.83    3.94
   6  -6   1    0.31    5.03
  -6   6  -2   34.47    6.25
   6  -6   2   21.64    6.19
   6  -6   3    7.12    5.86
   6  -6   4   16.69    6.19
   6  -6   5   19.22    6.60
   6  -6   6   -4.29    5.82
  -6   5   7   27.72    7.20
  -6   5   6   -0.95    5.18
  -6   5   5    3.96    5.34
   6  -5  -5    7.36    4.66
  -6   5   4    8.58    5.18
   6  -5  -4    8.73    4.89
  -6   5   3    2.54    4.64
   6  -5  -3    7.41    4.95
  -6   5   2    0.17    4.35
   6  -5  -2   15.00    5.51
  -6   5   1   88.86    8.70
   6  -5  -1   51.49    7.22
  -6   5   0   55.34    6.81
   6  -5   0   38.82    6.95
  -6   5  -1   31.54    5.45
   6  -5   1   18.63    6.17
   6  -5   2    9.06    5.78
   6  -5   3    8.50    5.75
   6  -5   4    4.54    5.84
   6  -5   5    4.48    5.59
   6  -5   6   -5.32    5.78
   6  -5   7  -11.28    6.29
  -6   4   8    1.98    5.67
  -6   4   7   26.46    7.16
  -6   4   6   13.68    5.96
   6  -4  -6    8.13    4.83
  -6   4   5    6.70    5.05
   6  -4  -5    8.99    5.14
  -6   4   4   44.16    7.08
   6  -4  -4   23.70    5.90
  -6   4   3   18.19    5.34
   6  -4  -3   12.31    5.45
  -6   4   2   36.55    6.29
   6  -4  -2   26.88    6.35
  -6   4   1   18.83    5.01
   6  -4  -1   12.27    5.53
  -6   4   0  113.20    8.60
   6  -4   0   71.82    8.52
  -6   4  -1   92.10   10.50
   6  -4   1   56.95    7.61
   6  -4   2   36.30    7.01
   6  -4   3    7.78    5.90
   6  -4   4    2.15    5.61
   6  -4   5   52.83    8.37
   6  -4   6   10.77    6.70
   6  -4   7    6.04    6.93
  -6   3   8   82.41    9.69
  -6   3   7   -1.42    5.07
  -6   3   6   -2.54    5.01
   6  -3  -6    2.58    4.68
  -6   3   5   10.71    5.51
   6  -3  -5   10.50    5.30
  -6   3   4  135.05   10.48
   6  -3  -4   87.79    9.84
  -6   3   3    7.74    5.12
   6  -3  -3    7.47    4.89
  -6   3   2   16.07    5.20
   6  -3  -2   15.92    5.47
  -6   3   1    0.19    4.17
   6  -3  -1    6.21    5.28
  -6   3   0   38.14    5.96
   6  -3   0   39.54    6.99
   6  -3   1   45.21    6.97
   6  -3   2  130.98   10.97
   6  -3   3    3.32    5.75
   6  -3   4    7.43    6.04
   6  -3   5   16.73    6.89
   6  -3   6   61.32    9.01
  -6   2   9    7.59    6.25
  -6   2   8  128.34   11.94
  -6   2   7   -0.35    5.14
  -6   2   6   -6.27    4.87
   6  -2  -6    4.81    4.56
  -6   2   5   16.60    5.82
   6  -2  -5   13.53    5.18
  -6   2   4   10.15    5.09
   6  -2  -4   14.42    5.34
  -6   2   3   86.80    9.28
   6  -2  -3   55.71    7.03
  -6   2   2   36.84    6.15
   6  -2  -2   39.79    6.81
  -6   2   1   14.91    5.05
   6  -2  -1   16.21    5.63
   6  -2   0   70.71    8.19
   6  -2   1   33.73    6.62
   6  -2   2    6.09    5.57
   6  -2   3    4.29    5.45
   6  -2   4    9.47    5.92
   6  -2   5   -1.75    5.78
   6  -2   6   -8.15    6.25
  -6   1   9   21.97    7.22
  -6   1   8   24.13    6.99
  -6   1   7   -4.83    5.26
  -6   1   6   30.53    6.85
   6  -1  -6   16.79    5.28
  -6   1   5   10.62    5.88
   6  -1  -5   17.82    5.16
  -6   1   4   16.21    5.65
   6  -1  -4   15.33    5.20
  -6   1   3    0.64    4.64
   6  -1  -3    4.56    4.46
  -6   1   2   67.66    8.46
   6  -1  -2   45.13    6.79
  -6   1   1  221.87   10.46
   6  -1  -1  157.36   10.97
   6  -1   0   30.03    6.23
   6  -1   1    7.12    5.22
   6  -1   2   -1.51    5.16
   6  -1   3    5.40    5.67
   6  -1   4   -3.69    5.55
   6  -1   5  -14.89    5.28
  -6   0   9   50.95    8.54
  -6   0   8    1.96    5.45
  -6   0   7   43.79    7.98
  -6   0   6    0.80    5.34
   6   0  -6    8.40    4.62
  -6   0   5   31.91    6.56
   6   0  -5   18.69    5.22
  -6   0   4   -0.06    4.91
   6   0  -4   11.12    4.89
  -6   0   3  218.03   11.32
   6   0  -3  153.86   10.52
  -6   0   2  122.96    9.65
   6   0  -2   93.63    9.53
   6   0  -1    9.36    5.05
   6   0   0    1.86    4.87
   6   0   1    3.34    4.91
   6   0   2    2.70    5.34
   6   0   3   13.61    6.15
   6   0   4   -6.39    5.73
  -6  -1   9   94.10   10.33
  -6  -1   8   80.49    9.55
  -6  -1   7   -1.90    5.38
  -6  -1   6    1.77    5.42
   6   1  -6   12.27    4.72
  -6  -1   5  100.43   10.31
   6   1  -5   73.78    8.40
  -6  -1   4   54.46    7.59
   6   1  -4   35.97    5.73
  -6  -1   3   17.16    5.67
   6   1  -3   18.94    5.05
   6   1  -2   42.72    6.42
   6   1  -1    4.23    4.60
   6   1   0    6.66    4.85
   6   1   1    3.51    5.12
   6   1   2   -0.25    5.38
   6   1   3    4.46    4.74
   6   1   3   -1.71    5.69
  -6  -2   8   -2.70    5.65
  -6  -2   7    6.97    6.06
  -6  -2   6   -2.15    5.24
   6   2  -6    5.09    4.00
  -6  -2   5   16.60    5.96
   6   2  -5   24.65    4.93
  -6  -2   4    3.40    5.20
   6   2  -4   14.46    4.46
  -6  -2   3   14.62    5.61
   6   2  -3   14.40    4.66
   6   2  -2    5.53    4.54
   6   2  -1    3.36    6.50
   6   2   1   12.42    5.57
  -6  -3   7    8.64    6.31
  -6  -3   6   15.88    6.64
  -6  -3   5    7.32    5.69
  -6  -3   4   -2.06    4.89
   6   3  -1    2.39    5.84
  -7   4   2   -2.64    4.83
  -7   3   3   14.07    6.00
  -7   2   3    8.13    5.82

_computing_structure_solution     'SHELXT 2014/4 (Sheldrick, 2014)'
;
_shelx_hkl_checksum              30010
loop_
_space_group_symop_operation_xyz
'x, y, z'
'-x, -y, -z'
loop_
_atom_site_label
_atom_site_type_symbol
_atom_site_fract_x
_atom_site_fract_y
_atom_site_fract_z
_atom_site_U_iso_or_equiv
_atom_site_adp_type
_atom_site_occupancy
_atom_site_site_symmetry_order
_atom_site_calc_flag
_atom_site_refinement_flags_posn
_atom_site_refinement_flags_adp
_atom_site_refinement_flags_occupancy
_atom_site_disorder_assembly
_atom_site_disorder_group
F1 F 0.4946(2) 0.54046(13) 0.85999(9) 0.0461(4) Uani 1 1 d . . . . .
O1 O 0.7490(3) 0.60576(17) 0.65040(13) 0.0491(4) Uani 1 1 d . . . . .
O2 O 0.3541(3) 0.52215(14) 0.64197(11) 0.0372(4) Uani 1 1 d . . . . .
C1 C 0.3609(5) 0.7800(2) 0.7057(2) 0.0515(6) Uani 1 1 d . . . . .
H1A H 0.323604 0.857216 0.683027 0.077 Uiso 1 1 calc R U . . .
H1B H 0.527703 0.814345 0.740969 0.077 Uiso 1 1 calc R U . . .
H1C H 0.257024 0.757878 0.754876 0.077 Uiso 1 1 calc R U . . .
C2 C 0.3219(4) 0.6430(2) 0.61115(18) 0.0433(6) Uani 1 1 d . . . . .
H2A H 0.158445 0.614637 0.571192 0.052 Uiso 1 1 calc R U . . .
H2B H 0.435471 0.663485 0.564121 0.052 Uiso 1 1 calc R U . . .
C3 C 0.5782(4) 0.5191(2) 0.66212(15) 0.0340(5) Uani 1 1 d . . . . .
C4 C 0.5872(4) 0.3936(2) 0.70120(15) 0.0327(5) Uani 1 1 d . . . . .
H4 H 0.424850 0.320469 0.679916 0.039 Uiso 1 1 calc R U . . .
C5 C 0.7587(4) 0.3161(2) 0.64998(15) 0.0339(5) Uani 1 1 d . . . . .
H5 H 0.907180 0.374953 0.643677 0.041 Uiso 1 1 calc R U . . .
C6 C 0.7144(4) 0.1715(2) 0.61353(15) 0.0333(5) Uani 1 1 d . . . . .
H6 H 0.569587 0.115710 0.625243 0.040 Uiso 1 1 calc R U . . .
C7 C 0.8637(4) 0.0865(2) 0.55670(14) 0.0290(5) Uani 1 1 d . . . . .
C8 C 0.8340(4) -0.0586(2) 0.55211(15) 0.0343(5) Uani 1 1 d . . . . .
H8 H 0.719221 -0.100650 0.587593 0.041 Uiso 1 1 calc R U . . .
C9 C 0.9665(4) -0.1427(2) 0.49755(15) 0.0327(5) Uani 1 1 d . . . . .
H9 H 0.942175 -0.240899 0.496729 0.039 Uiso 1 1 calc R U . . .
C10 C 0.6506(4) 0.4543(2) 0.82495(16) 0.0376(5) Uani 1 1 d . . . . .
C11 C 0.9008(4) 0.5572(3) 0.86780(19) 0.0511(6) Uani 1 1 d . . . . .
H11A H 0.922967 0.639915 0.841734 0.077 Uiso 1 1 calc R U . . .
H11B H 1.015581 0.503203 0.844256 0.077 Uiso 1 1 calc R U . . .
H11C H 0.926181 0.595150 0.945191 0.077 Uiso 1 1 calc R U . . .
C12 C 0.5945(4) 0.3307(2) 0.87020(17) 0.0451(6) Uani 1 1 d . . . . .
H12A H 0.638494 0.375619 0.948120 0.054 Uiso 1 1 calc R U . . .
H12B H 0.698244 0.267218 0.845790 0.054 Uiso 1 1 calc R U . . .
C13 C 0.3370(5) 0.2316(3) 0.84277(19) 0.0514(6) Uani 1 1 d . . . . .
H13A H 0.230258 0.294848 0.859927 0.062 Uiso 1 1 calc R U . . .
H13B H 0.297754 0.176342 0.765706 0.062 Uiso 1 1 calc R U . . .
C14 C 0.2882(5) 0.1226(3) 0.89991(19) 0.0570(7) Uani 1 1 d . . . . .
H14A H 0.321183 0.177501 0.976989 0.068 Uiso 1 1 calc R U . . .
H14B H 0.397863 0.061017 0.884682 0.068 Uiso 1 1 calc R U . . .
C15 C 0.0342(6) 0.0229(3) 0.8683(2) 0.0712(8) Uani 1 1 d . . . . .
H15A H 0.000145 -0.031478 0.791960 0.107 Uiso 1 1 calc R U . . .
H15B H -0.075102 0.082929 0.886276 0.107 Uiso 1 1 calc R U . . .
H15C H 0.012773 -0.047193 0.906057 0.107 Uiso 1 1 calc R U . . .
loop_
_atom_site_aniso_label
_atom_site_aniso_U_11
_atom_site_aniso_U_22
_atom_site_aniso_U_33
_atom_site_aniso_U_23
_atom_site_aniso_U_13
_atom_site_aniso_U_12
F1 0.0507(9) 0.0492(8) 0.0420(7) 0.0071(5) 0.0205(6) 0.0284(6)
O1 0.0385(10) 0.0472(9) 0.0717(11) 0.0277(8) 0.0275(8) 0.0154(8)
O2 0.0312(9) 0.0353(8) 0.0504(9) 0.0178(7) 0.0129(7) 0.0135(6)
C1 0.0549(17) 0.0448(14) 0.0652(16) 0.0201(12) 0.0319(13) 0.0243(12)
C2 0.0428(15) 0.0370(12) 0.0551(14) 0.0216(10) 0.0079(11) 0.0136(10)
C3 0.0340(13) 0.0308(11) 0.0368(11) 0.0059(9) 0.0163(10) 0.0129(10)
C4 0.0303(12) 0.0326(11) 0.0355(11) 0.0072(8) 0.0143(9) 0.0129(9)
C5 0.0325(12) 0.0351(11) 0.0358(11) 0.0082(9) 0.0145(9) 0.0152(9)
C6 0.0315(13) 0.0341(12) 0.0370(11) 0.0115(9) 0.0128(9) 0.0135(9)
C7 0.0298(12) 0.0269(10) 0.0288(10) 0.0049(8) 0.0061(9) 0.0120(8)
C8 0.0360(13) 0.0330(11) 0.0368(11) 0.0140(9) 0.0163(10) 0.0096(9)
C9 0.0387(13) 0.0243(10) 0.0386(11) 0.0113(8) 0.0128(10) 0.0127(9)
C10 0.0379(14) 0.0435(12) 0.0334(11) 0.0064(9) 0.0141(10) 0.0220(10)
C11 0.0437(15) 0.0534(15) 0.0470(14) 0.0062(11) 0.0058(11) 0.0136(12)
C12 0.0476(16) 0.0562(14) 0.0388(13) 0.0176(10) 0.0152(11) 0.0242(12)
C13 0.0498(16) 0.0643(16) 0.0484(14) 0.0264(12) 0.0201(12) 0.0190(12)
C14 0.080(2) 0.0484(15) 0.0456(14) 0.0166(11) 0.0247(14) 0.0202(14)
C15 0.081(2) 0.0672(18) 0.0702(18) 0.0307(15) 0.0350(17) 0.0142(16)
loop_
_atom_type_symbol
_atom_type_description
_atom_type_scat_dispersion_real
_atom_type_scat_dispersion_imag
_atom_type_scat_source
C C 0.0033 0.0016 'International Tables Vol C Tables 4.2.6.8 and 6.1.1.4'
H H 0.0000 0.0000 'International Tables Vol C Tables 4.2.6.8 and 6.1.1.4'
F F 0.0171 0.0103 'International Tables Vol C Tables 4.2.6.8 and 6.1.1.4'
O O 0.0106 0.0060 'International Tables Vol C Tables 4.2.6.8 and 6.1.1.4'
loop_
_geom_angle_atom_site_label_1
_geom_angle_atom_site_label_2
_geom_angle_atom_site_label_3
_geom_angle
_geom_angle_site_symmetry_1
_geom_angle_site_symmetry_3
_geom_angle_publ_flag
C3 O2 C2 116.58(16) . . ?
C2 C1 H1A 109.5 . . ?
C2 C1 H1B 109.5 . . ?
H1A C1 H1B 109.5 . . ?
C2 C1 H1C 109.5 . . ?
H1A C1 H1C 109.5 . . ?
H1B C1 H1C 109.5 . . ?
O2 C2 C1 111.24(18) . . ?
O2 C2 H2A 109.4 . . ?
C1 C2 H2A 109.4 . . ?
O2 C2 H2B 109.4 . . ?
C1 C2 H2B 109.4 . . ?
H2A C2 H2B 108.0 . . ?
O1 C3 O2 123.77(19) . . ?
O1 C3 C4 125.3(2) . . ?
O2 C3 C4 110.96(18) . . ?
C5 C4 C3 110.41(17) . . ?
C5 C4 C10 112.76(16) . . ?
C3 C4 C10 109.57(16) . . ?
C5 C4 H4 108.0 . . ?
C3 C4 H4 108.0 . . ?
C10 C4 H4 108.0 . . ?
C6 C5 C4 123.7(2) . . ?
C6 C5 H5 118.2 . . ?
C4 C5 H5 118.1 . . ?
C5 C6 C7 127.4(2) . . ?
C5 C6 H6 116.3 . . ?
C7 C6 H6 116.3 . . ?
C8 C7 C9 116.87(18) . 2_756 ?
C8 C7 C6 120.17(19) . . ?
C9 C7 C6 122.92(17) 2_756 . ?
C9 C8 C7 121.76(19) . . ?
C9 C8 H8 119.1 . . ?
C7 C8 H8 119.1 . . ?
C8 C9 C7 121.37(18) . 2_756 ?
C8 C9 H9 119.3 . . ?
C7 C9 H9 119.3 2_756 . ?
F1 C10 C11 106.37(18) . . ?
F1 C10 C12 106.14(18) . . ?
C11 C10 C12 112.62(18) . . ?
F1 C10 C4 105.64(15) . . ?
C11 C10 C4 113.53(19) . . ?
C12 C10 C4 111.83(17) . . ?
C10 C11 H11A 109.5 . . ?
C10 C11 H11B 109.5 . . ?
H11A C11 H11B 109.5 . . ?
C10 C11 H11C 109.5 . . ?
H11A C11 H11C 109.5 . . ?
H11B C11 H11C 109.5 . . ?
C10 C12 C13 116.89(18) . . ?
C10 C12 H12A 108.1 . . ?
C13 C12 H12A 108.1 . . ?
C10 C12 H12B 108.1 . . ?
C13 C12 H12B 108.1 . . ?
H12A C12 H12B 107.3 . . ?
C14 C13 C12 114.0(2) . . ?
C14 C13 H13A 108.7 . . ?
C12 C13 H13A 108.7 . . ?
C14 C13 H13B 108.7 . . ?
C12 C13 H13B 108.7 . . ?
H13A C13 H13B 107.6 . . ?
C13 C14 C15 112.7(2) . . ?
C13 C14 H14A 109.1 . . ?
C15 C14 H14A 109.1 . . ?
C13 C14 H14B 109.1 . . ?
C15 C14 H14B 109.1 . . ?
H14A C14 H14B 107.8 . . ?
C14 C15 H15A 109.5 . . ?
C14 C15 H15B 109.5 . . ?
H15A C15 H15B 109.5 . . ?
C14 C15 H15C 109.5 . . ?
H15A C15 H15C 109.5 . . ?
H15B C15 H15C 109.5 . . ?
loop_
_geom_bond_atom_site_label_1
_geom_bond_atom_site_label_2
_geom_bond_distance
_geom_bond_site_symmetry_2
_geom_bond_publ_flag
F1 C10 1.422(2) . ?
O1 C3 1.209(3) . ?
O2 C3 1.336(3) . ?
O2 C2 1.444(2) . ?
C1 C2 1.499(3) . ?
C1 H1A 0.9800 . ?
C1 H1B 0.9800 . ?
C1 H1C 0.9800 . ?
C2 H2A 0.9900 . ?
C2 H2B 0.9900 . ?
C3 C4 1.516(3) . ?
C4 C5 1.507(3) . ?
C4 C10 1.568(3) . ?
C4 H4 1.0000 . ?
C5 C6 1.315(3) . ?
C5 H5 0.9500 . ?
C6 C7 1.470(3) . ?
C6 H6 0.9500 . ?
C7 C8 1.394(3) . ?
C7 C9 1.399(3) 2_756 ?
C8 C9 1.376(3) . ?
C8 H8 0.9500 . ?
C9 H9 0.9500 . ?
C10 C11 1.511(3) . ?
C10 C12 1.521(3) . ?
C11 H11A 0.9800 . ?
C11 H11B 0.9800 . ?
C11 H11C 0.9800 . ?
C12 C13 1.528(4) . ?
C12 H12A 0.9900 . ?
C12 H12B 0.9900 . ?
C13 C14 1.509(3) . ?
C13 H13A 0.9900 . ?
C13 H13B 0.9900 . ?
C14 C15 1.512(4) . ?
C14 H14A 0.9900 . ?
C14 H14B 0.9900 . ?
C15 H15A 0.9800 . ?
C15 H15B 0.9800 . ?
C15 H15C 0.9800 . ?
