#------------------------------------------------------------------------------
#$Date: 2020-04-07 01:45:18 +0300 (Tue, 07 Apr 2020) $
#$Revision: 250406 $
#$URL: file:///home/coder/svn-repositories/cod/cif/4/13/46/4134615.cif $
#------------------------------------------------------------------------------
#
# This file is available in the Crystallography Open Database (COD),
# http://www.crystallography.net/
#
# All data on this site have been placed in the public domain by the
# contributors.
#
data_4134615
loop_
_publ_author_name
'Deng, Bin-Bin'
'Xu, Chu-Chu'
'Cheng, Ting-Ting'
'Yang, Yi-Ting'
'Hu, Yan-Ting'
'Wang, Pan'
'He, Wen-Hui'
'Yang, Meng-Juan'
'Liao, Wei-Qiang'
_publ_section_title
;
 Homochiral Nickel Nitrite ABX<sub>3</sub> (X =
 NO<sub>2</sub><sup>-</sup>) Perovskite Ferroelectrics.
;
_journal_name_full               'Journal of the American Chemical Society'
_journal_paper_doi               10.1021/jacs.0c02580
_journal_year                    2020
_chemical_absolute_configuration rm
_chemical_formula_moiety         'N3 Ni O6, C8 H16 N O'
_chemical_formula_sum            'C8 H16 N4 Ni O7'
_chemical_formula_weight         338.94
_space_group_crystal_system      monoclinic
_space_group_IT_number           4
_space_group_name_Hall           'P 2yb'
_space_group_name_H-M_alt        'P 1 21 1'
_atom_sites_solution_hydrogens   geom
_audit_creation_method           SHELXL-2014/7
_cell_angle_alpha                90
_cell_angle_beta                 112.707(2)
_cell_angle_gamma                90
_cell_formula_units_Z            2
_cell_length_a                   9.7772(2)
_cell_length_b                   7.00600(10)
_cell_length_c                   10.2094(2)
_cell_measurement_reflns_used    3661
_cell_measurement_temperature    293(2)
_cell_measurement_theta_max      75.2380
_cell_measurement_theta_min      4.6900
_cell_volume                     645.13(2)
_computing_cell_refinement       'CrysAlisPro 1.171.39.46 (Rigaku OD, 2018)'
_computing_data_collection       'CrysAlisPro 1.171.39.46 (Rigaku OD, 2018)'
_computing_data_reduction        'CrysAlisPro 1.171.39.46 (Rigaku OD, 2018)'
_computing_molecular_graphics    'DIAMOND (Brandenburg & Putz, 2005)'
_computing_publication_material  'SHELXL-2014/7 (Sheldrick, 2014)'
_computing_structure_refinement  'SHELXL-2014/7 (Sheldrick, 2014)'
_computing_structure_solution    'SHELXL-2014/7 (Sheldrick, 2014)'
_diffrn_ambient_temperature      293(2)
_diffrn_measured_fraction_theta_full 0.992
_diffrn_measured_fraction_theta_max 0.959
_diffrn_measurement_device_type  'XtaLAB Synergy R, DW system, HyPix'
_diffrn_measurement_method       'four-circle diffractometer'
_diffrn_radiation_type           CuK\a
_diffrn_radiation_wavelength     1.54178
_diffrn_reflns_av_R_equivalents  0.0265
_diffrn_reflns_av_unetI/netI     0.0290
_diffrn_reflns_Laue_measured_fraction_full 0.992
_diffrn_reflns_Laue_measured_fraction_max 0.959
_diffrn_reflns_limit_h_max       12
_diffrn_reflns_limit_h_min       -12
_diffrn_reflns_limit_k_max       5
_diffrn_reflns_limit_k_min       -8
_diffrn_reflns_limit_l_max       12
_diffrn_reflns_limit_l_min       -12
_diffrn_reflns_number            4295
_diffrn_reflns_point_group_measured_fraction_full 0.993
_diffrn_reflns_point_group_measured_fraction_max 0.957
_diffrn_reflns_theta_full        67.679
_diffrn_reflns_theta_max         75.396
_diffrn_reflns_theta_min         4.695
_diffrn_source                   'Rotating-anode X-ray tube'
_exptl_absorpt_coefficient_mu    2.576
_exptl_absorpt_correction_T_max  0.791
_exptl_absorpt_correction_T_min  0.773
_exptl_absorpt_correction_type   multi-scan
_exptl_absorpt_process_details   'CrysAlisPro 1.171.39.46 (Rigaku OD, 2018)'
_exptl_crystal_colour            Brown
_exptl_crystal_density_diffrn    1.745
_exptl_crystal_description       Prism
_exptl_crystal_F_000             352
_exptl_crystal_size_max          0.110
_exptl_crystal_size_mid          0.110
_exptl_crystal_size_min          0.100
_refine_diff_density_max         0.299
_refine_diff_density_min         -0.273
_refine_diff_density_rms         0.052
_refine_ls_abs_structure_details
;
 Refined as an inversion twin.
;
_refine_ls_abs_structure_Flack   0.01(5)
_refine_ls_extinction_method     none
_refine_ls_goodness_of_fit_ref   1.005
_refine_ls_hydrogen_treatment    constr
_refine_ls_matrix_type           full
_refine_ls_number_parameters     184
_refine_ls_number_reflns         2673
_refine_ls_number_restraints     1
_refine_ls_restrained_S_all      1.005
_refine_ls_R_factor_all          0.0270
_refine_ls_R_factor_gt           0.0245
_refine_ls_shift/su_max          0.009
_refine_ls_shift/su_mean         0.001
_refine_ls_structure_factor_coef Fsqd
_refine_ls_weighting_details
'w=1/[\s^2^(Fo^2^)+(0.0344P)^2^+0.2525P] where P=(Fo^2^+2Fc^2^)/3'
_refine_ls_weighting_scheme      calc
_refine_ls_wR_factor_gt          0.0610
_refine_ls_wR_factor_ref         0.0656
_reflns_Friedel_coverage         0.842
_reflns_Friedel_fraction_full    0.993
_reflns_Friedel_fraction_max     0.955
_reflns_number_gt                2673
_reflns_number_total             2673
_reflns_threshold_expression     'I > 2\s(I)'
_cod_data_source_file            ja0c02580_si_004.cif
_cod_data_source_block           P21
_cod_original_sg_symbol_H-M      'P 21'
_cod_database_code               4134615
_shelx_shelxl_version_number     2014/7
_shelx_space_group_comment
;
The symmetry employed for this shelxl refinement is uniquely defined
by the following loop, which should always be used as a source of
symmetry information in preference to the above space-group names.
They are only intended as comments.
;
_shelx_estimated_absorpt_t_min   0.765
_shelx_estimated_absorpt_t_max   0.783
_shelx_res_file
;

    P21.res created by SHELXL-2014/7


TITL P21 in P2(1)
CELL 1.54178   9.7772   7.0060  10.2094  90.000 112.707  90.000
ZERR    2.00   0.0002   0.0001   0.0002   0.000   0.002   0.000
LATT -1
SYMM -X, 0.5+Y, -Z
SFAC C  H  N  O  Ni
UNIT 16 32 8 14 2
omit -7 -4 10
OMIT 9 -3 4
OMIT -11 -3 4
OMIT -10 -3 2
OMIT -9 3 9
L.S. 4
ACTA
BOND
FMAP 2
PLAN 5
SIZE 0.10 0.11 0.11
CONF
EQIV $1 -x+1, y+1/2, -z+1
HTAB C3 O10_$1
EQIV $2 -x+2, y+1/2, -z+1
HTAB C9 O6_$2
EQIV $3 x+1, y, z
HTAB C9 O5_$3
EQIV $4 x, y+1, z-1
HTAB O11 O7_$4
TWIN
TEMP 20
WGHT    0.034400    0.252500
BASF  -0.00521
FVAR       0.69396
MOLE 1
NI1   5    0.491333    0.511811    0.491028    11.00000    0.02411    0.01476 =
         0.02789    0.00005    0.00851    0.00014
C1    1    0.748093    1.104694    0.096774    11.00000    0.03343    0.05272 =
         0.03635    0.01028    0.00365    0.00770
AFIX  13
H1    2    0.654563    1.154272    0.097257    11.00000   -1.20000
AFIX   0
C3    1    0.855760    1.064134    0.249651    11.00000    0.03849    0.03502 =
         0.03060   -0.00066    0.00774    0.00783
AFIX  23
H3A   2    0.934082    1.159015    0.278673    11.00000   -1.20000
H3B   2    0.803312    1.073022    0.312984    11.00000   -1.20000
AFIX   0
C6    1    0.862065    0.849872    0.002697    11.00000    0.07741    0.06712 =
         0.04337   -0.01217    0.03253   -0.00708
AFIX  23
H6A   2    0.887405    0.933616   -0.060208    11.00000   -1.20000
H6B   2    0.848412    0.722008   -0.036737    11.00000   -1.20000
AFIX   0
C7    1    0.986793    0.850088    0.149567    11.00000    0.04690    0.05268 =
         0.05351   -0.00021    0.03295    0.00645
AFIX  23
H7A   2    1.042684    0.732143    0.164055    11.00000   -1.20000
H7B   2    1.053776    0.955497    0.157215    11.00000   -1.20000
AFIX   0
C8    1    0.719631    0.917872    0.014491    11.00000    0.04375    0.06824 =
         0.02964   -0.00373    0.00434   -0.00857
AFIX  13
H8    2    0.641963    0.935236   -0.080283    11.00000   -1.20000
AFIX   0
C9    1    1.039918    0.845997    0.404832    11.00000    0.04177    0.04393 =
         0.04287    0.01035    0.00311    0.00428
AFIX 137
H9A   2    1.115887    0.939852    0.419155    11.00000   -1.50000
H9B   2    1.082087    0.720589    0.413508    11.00000   -1.50000
H9C   2    0.997836    0.862428    0.474906    11.00000   -1.50000
AFIX   0
C10   1    0.803830    0.720700    0.233772    11.00000    0.04836    0.04428 =
         0.05605    0.00256    0.01645   -0.01793
AFIX  23
H10A  2    0.772114    0.716959    0.312795    11.00000   -1.20000
H10B  2    0.843011    0.596140    0.225396    11.00000   -1.20000
AFIX   0
C11   1    0.672016    0.768295    0.097007    11.00000    0.04291    0.07103 =
         0.05968   -0.00945    0.01219   -0.02152
AFIX  23
H11A  2    0.638330    0.654035    0.039906    11.00000   -1.20000
H11B  2    0.590771    0.817146    0.119427    11.00000   -1.20000
AFIX   0
N4    3    0.302798    0.339919    0.425988    11.00000    0.02665    0.02176 =
         0.03339    0.00025    0.01012    0.00117
N5    3    0.591356    0.352787    0.678728    11.00000    0.03173    0.02202 =
         0.02553    0.00105    0.00638    0.00188
N6    3    0.586459    0.342798    0.380439    11.00000    0.02598    0.02266 =
         0.02988   -0.00220    0.00973   -0.00539
N7    3    0.921951    0.869454    0.260474    11.00000    0.02324    0.02569 =
         0.03628    0.00274    0.00950    0.00051
O5    4    0.176777    0.405171    0.378548    11.00000    0.02288    0.03341 =
         0.08263    0.00406    0.00884    0.00889
O6    4    0.687615    0.660723    0.560005    11.00000    0.02297    0.01939 =
         0.05286   -0.00155    0.00794    0.00130
O7    4    0.644986    0.440649    0.792115    11.00000    0.06569    0.03239 =
         0.02771   -0.00779    0.00210    0.00149
O8    4    0.395914    0.674380    0.312056    11.00000    0.04169    0.02175 =
         0.02996    0.00059    0.00553   -0.00109
O9    4    0.635008    0.414203    0.298067    11.00000    0.06383    0.03135 =
         0.05722    0.00743    0.04138   -0.00273
O10   4    0.394953    0.664369    0.601450    11.00000    0.04204    0.01820 =
         0.04456   -0.00163    0.02544   -0.00179
O11   4    0.817277    1.246953    0.043408    11.00000    0.06239    0.06086 =
         0.04955    0.02309    0.00086   -0.00433
AFIX 147
H11   2    0.761633    1.276741   -0.037300    11.00000   -1.50000
AFIX   0
HKLF 4

REM  P21 in P2(1)
REM R1 =  0.0245 for    1869 Fo > 4sig(Fo)  and  0.0270 for all    1942 data
REM    184 parameters refined using      1 restraints

END

WGHT      0.0335      0.1712

REM Highest difference peak  0.299,  deepest hole -0.273,  1-sigma level  0.052
Q1    1   0.5053  0.4104  0.5740  11.00000  0.05    0.30
Q2    1   0.4853  0.6085  0.3998  11.00000  0.05    0.27
Q3    1   0.5550  0.5144  0.3611  11.00000  0.05    0.25
Q4    1   0.4580  0.4891  0.3819  11.00000  0.05    0.24
Q5    1   0.5284  0.4085  0.3976  11.00000  0.05    0.22
;
_shelx_res_checksum              64377
_shelx_hkl_file
;
   0  -8   0   48.90    2.54
   0  -8   1   59.50    3.00
   0  -8   2   99.35    3.89
   0  -8  -2   80.05    2.60
   0  -8   3   52.72    2.69
   0  -7   0    0.24    1.12
   0  -7   1   11.39    1.90
   0  -7  -1   11.36    1.13
   0  -7   1   12.90    0.96
   0  -7  -1   13.75    1.80
   0  -7   2    8.02    0.90
   0  -7  -2    8.57    1.32
   0  -7  -2    9.28    1.05
   0  -7   2    9.13    1.80
   0  -7   3    4.26    0.80
   0  -7  -3    5.07    0.90
   0  -7   3    4.28    1.62
   0  -7   4   31.05    1.73
   0  -7   4   33.95    2.76
   0  -7  -4   31.61    1.81
   0  -7   5    7.88    0.88
   0  -7  -5    7.59    0.90
   0  -7   7   20.49    0.98
   0  -6   0  471.03   14.33
   0  -6   1  643.07   16.00
   0  -6  -1  621.89   17.93
   0  -6   1  641.34   18.47
   0  -6  -2  220.68    7.89
   0  -6   2  231.22    6.71
   0  -6   2  219.24    8.58
   0  -6   3   76.48    3.53
   0  -6   3   72.40    3.41
   0  -6  -3   78.89    3.43
   0  -6   3   79.35    3.22
   0  -6   3   81.65    3.21
   0  -6   4   52.53    2.58
   0  -6  -4   53.92    2.75
   0  -6   4   56.19    2.63
   0  -6   4   54.86    3.80
   0  -6   5   41.93    2.27
   0  -6   5   45.99    3.37
   0  -6  -5   43.09    2.71
   0  -6  -5   46.13    2.43
   0  -6   6   55.90    2.57
   0  -6   6   58.70    2.58
   0  -6   7    2.44    0.70
   0  -6   7    1.63    0.67
   0  -6   8   23.51    1.22
   0  -6   8   25.96    1.23
   0  -5   0    0.18    0.45
   0  -5   0   -0.06    0.52
   0  -5   0   -0.11    1.07
   0  -5   1   12.54    1.38
   0  -5  -1   14.52    1.75
   0  -5   1   12.97    1.06
   0  -5  -1   12.41    1.21
   0  -5   1   14.57    1.90
   0  -5   2   30.75    1.72
   0  -5   2   27.69    1.62
   0  -5   2   26.42    1.87
   0  -5   2   27.57    1.93
   0  -5  -2   26.14    2.16
   0  -5   2   28.41    2.59
   0  -5   3  120.34    4.27
   0  -5   3  117.30    5.54
   0  -5   3  123.61    4.17
   0  -5   3  116.64    4.50
   0  -5   3  125.52    4.61
   0  -5  -4  233.11    7.40
   0  -5  -4  246.38    8.41
   0  -5   4  239.01    7.63
   0  -5   4  231.02    7.44
   0  -5   4  244.19    7.32
   0  -5   4  246.21    8.88
   0  -5   5   34.11    2.20
   0  -5   5   33.51    2.21
   0  -5   5   38.73    2.51
   0  -5   5   31.83    2.91
   0  -5  -5   31.23    2.72
   0  -5   5   37.94    2.12
   0  -5   6   26.27    2.57
   0  -5  -6   26.03    1.84
   0  -5  -6   21.50    2.40
   0  -5   6   23.19    1.87
   0  -5   6   24.60    1.74
   0  -5  -7   18.62    2.13
   0  -5   7   18.15    1.62
   0  -5   7   19.97    1.50
   0  -5   8   34.73    1.74
   0  -5   8   32.47    1.94
   0  -5  -8   32.36    2.53
   0  -5   9    6.00    0.55
   0  -5   9    5.05    0.75
   0  -4   0  146.52    4.72
   0  -4   1    5.92    0.97
   0  -4   1    5.06    0.85
   0  -4   2  502.93   13.11
   0  -4   2  489.58   12.58
   0  -4   2  523.55   13.12
   0  -4   3  695.22   17.25
   0  -4   3  680.70   18.83
   0  -4   3  705.75   17.77
   0  -4   3  703.97   17.45
   0  -4   4  444.61   11.53
   0  -4   4  424.49   12.99
   0  -4  -4  451.83   13.02
   0  -4   4  434.15   11.74
   0  -4   5  283.21    7.94
   0  -4   5  272.31    8.19
   0  -4   5  267.95    9.34
   0  -4  -5  274.77    8.16
   0  -4  -5  282.20    9.53
   0  -4  -6  139.86    6.29
   0  -4   6  148.74    4.86
   0  -4   6  139.20    5.98
   0  -4  -6  137.78    4.92
   0  -4   6  141.36    5.17
   0  -4   7  261.97    7.68
   0  -4   7  254.75    8.17
   0  -4  -7  258.66    9.57
   0  -4  -7  272.57    7.76
   0  -4  -8   68.61    4.15
   0  -4   8   65.05    3.21
   0  -4   8   71.15    2.82
   0  -4  10    8.57    0.88
   0  -3   0    0.25    0.50
   0  -3   0    0.53    0.59
   0  -3   1  132.19    4.05
   0  -3   1  133.17    4.06
   0  -3   2   91.67    2.74
   0  -3  -4   70.30    2.85
   0  -3  -5   56.79    2.52
   0  -3   5   57.20    2.40
   0  -3  -5   57.90    3.35
   0  -3   5   53.50    3.09
   0  -3   6  100.72    4.61
   0  -3  -6  110.99    3.93
   0  -3  -6  108.80    5.22
   0  -3   6   99.52    4.87
   0  -3   6  105.75    3.77
   0  -3  -6  113.56    4.20
   0  -3  -6  102.66    4.31
   0  -3   7   73.67    3.01
   0  -3  -7   83.52    3.22
   0  -3   7   73.58    4.30
   0  -3  -7   70.43    3.70
   0  -3  -7   80.95    3.54
   0  -3   8    4.93    0.80
   0  -3  -8    2.62    1.40
   0  -3   8    4.45    1.10
   0  -3  -8    3.55    0.92
   0  -3  -9   23.39    2.40
   0  -3  -9   21.48    1.63
   0  -3   9   24.09    1.87
   0  -3 -10   10.73    1.57
   0  -3  10    9.82    1.11
   0  -3 -11    4.81    0.83
   0  -2   0  966.77   22.99
   0  -2   0  986.16   22.89
   0  -2  -2  172.23    4.82
   0  -2  -2  180.95    4.58
   0  -2  -3 1131.73   26.45
   0  -2  -3 1105.80   26.92
   0  -2  -4  732.81   18.73
   0  -2  -4  738.65   18.02
   0  -2  -5  415.28   11.10
   0  -2  -5  420.90   11.85
   0  -2   6  306.34    8.29
   0  -2  -6  302.06    9.66
   0  -2  -6  331.72    8.50
   0  -2  -6  303.36    9.76
   0  -2  -6  309.03   10.01
   0  -2  -7  232.65    8.36
   0  -2  -7  223.59    8.08
   0  -2  -7  215.40    8.42
   0  -2   8  128.29    6.45
   0  -2  -8  144.92    5.51
   0  -2  -8  138.46    5.91
   0  -2  -8  134.48    6.26
   0  -2  -9   40.93    2.57
   0  -2  -9   42.22    3.22
   0  -2   9   44.18    2.56
   0  -2 -10   35.74    2.71
   0  -2  10   41.16    2.21
   0  -2 -10   40.22    2.26
   0  -2 -11    3.84    0.91
   0  -2  11    5.46    0.68
   0  -1   0   -0.08    0.23
   0  -1  -1  407.38    9.46
   0  -1  -1  396.36    9.65
   0  -1  -2  888.71   20.95
   0  -1  -2  908.79   21.40
   0  -1  -3 1036.67   24.48
   0  -1  -4   95.29    3.16
   0  -1  -4   87.95    3.62
   0  -1  -5   76.11    3.66
   0  -1  -5   74.77    2.97
   0  -1  -6   83.16    4.06
   0  -1  -6   84.69    3.54
   0  -1  -6   83.05    4.22
   0  -1  -6   87.70    4.02
   0  -1  -7   74.10    4.00
   0  -1  -7   68.67    3.94
   0  -1  -7   72.13    4.10
   0  -1  -8   28.20    2.68
   0  -1  -8   34.28    2.64
   0  -1  -8   28.72    2.77
   0  -1  -9    9.53    1.48
   0  -1  -9    9.95    1.88
   0  -1  -9   12.53    1.88
   0  -1 -10   39.08    2.48
   0  -1 -10   39.26    2.81
   0  -1  10   46.54    2.34
   0  -1  11   13.21    0.97
   0  -1 -11   12.97    1.21
   0   0  -1 1549.28   35.48
   0   0  -1 1535.86   35.73
   0   0  -2  598.82   14.52
   0   0  -2  590.75   14.04
   0   0  -3   33.05    1.40
   0   0  -4  404.66   11.27
   0   0  -4  422.45   10.66
   0   0  -5   53.34    2.40
   0   0  -5   53.49    3.02
   0   0  -6   33.43    2.05
   0   0  -6   29.96    2.40
   0   0  -6   35.45    2.71
   0   0  -7   35.87    2.40
   0   0  -7   37.27    2.95
   0   0  -7   36.33    2.59
   0   0  -7   37.94    2.99
   0   0  -8   86.84    4.81
   0   0  -8   88.46    4.51
   0   0  -8   88.80    4.99
   0   0  -9   24.88    2.31
   0   0  -9   30.49    2.41
   0   0  -9   26.84    2.71
   0   0  10  110.85    3.92
   0   0 -10  106.91    4.48
   0   0 -10  108.36    4.49
   0   0 -11   38.72    2.11
   0   1  -1  408.32    9.57
   0   1  -2  879.64   20.60
   0   1  -3 1034.31   24.43
   0   1  -4   94.13    3.17
   0   1  -4   93.29    3.71
   0   1  -5   65.57    3.37
   0   1  -5   65.60    2.73
   0   1  -6   89.75    3.70
   0   1  -6   91.80    4.42
   0   1  -6   87.72    4.19
   0   1  -7   79.21    4.25
   0   1  -7   76.55    4.26
   0   1  -8   29.57    2.81
   0   1  -8   36.62    2.75
   0   1  -9    9.69    1.52
   0   1  -9    9.16    1.83
   0   1 -10   40.64    2.51
   0   2   1  701.87   16.41
   0   2  -2  188.29    5.18
   0   2  -2  192.22    4.89
   0   2  -3 1148.74   27.21
   0   2  -3 1120.13   26.68
   0   2  -4  729.29   18.55
   0   2  -4  727.92   17.86
   0   2  -5  445.07   12.30
   0   2  -5  426.87   11.50
   0   2  -6  301.36    9.49
   0   2  -6  288.05    9.29
   0   2  -7  222.35    8.28
   0   2  -7  230.87    8.48
   0   2  -8  131.84    5.81
   0   2  -8  131.83    5.29
   0   2   8  125.01    6.25
   0   2  -9   41.35    2.60
   0   2 -10   36.30    2.20
   0   3   3  196.45    5.78
   0   3  -4   74.98    3.05
   0   3   6   95.55    4.66
   0   3  -6   98.68    4.21
   0   3  -7   85.45    4.11
   0   3  -7   86.67    3.75
   0   3  -8    2.69    0.86
   0   3  -9   23.68    1.72
   1  -8  -4   50.71    1.82
   1  -8  -3   61.00    2.15
   1  -8  -2   84.58    2.71
   1  -8  -1   51.89    2.62
   1  -8   0   61.08    3.06
   1  -8   1   73.95    3.50
   1  -8   2   57.76    2.94
   1  -7  -6    8.70    0.86
  -1  -7   6    9.26    0.88
  -1  -7   5   11.65    1.05
   1  -7  -5   13.01    1.16
  -1  -7   4    9.86    1.73
   1  -7  -4    8.94    1.08
  -1  -7   4    7.69    0.94
   1  -7  -3   12.70    1.32
   1  -7  -3   13.12    1.48
  -1  -7   3   12.60    1.09
  -1  -7   3   12.16    1.96
   1  -7  -2    8.35    1.55
  -1  -7   2    6.93    0.79
  -1  -7   2    7.86    1.66
   1  -7  -2    8.57    1.10
   1  -7  -1    5.22    1.52
  -1  -7   1    6.62    1.47
  -1  -7   0    4.01    1.27
   1  -7   0    4.26    1.56
   1  -7   1   10.55    0.98
  -1  -7  -1    9.76    0.99
   1  -7   1    9.19    1.88
  -1  -7  -2   28.37    1.67
   1  -7   2   27.28    1.62
   1  -7   3   72.32    4.11
   1  -7   3   71.22    2.83
  -1  -7  -3   72.20    2.86
   1  -7   4   43.35    1.78
  -1  -7  -4   46.07    1.82
   1  -7   4   43.80    2.80
   1  -7   5    0.10    0.20
   1  -7   5    3.29    0.67
  -1  -6   8    0.06    0.27
  -1  -6   8   20.85    1.10
   1  -6  -7  137.44    3.11
  -1  -6   7  137.42    3.12
  -1  -6   6  182.50    5.59
  -1  -6   5  207.81    7.82
  -1  -6   5  194.84    6.10
  -1  -6   5  190.16    5.90
   1  -6  -5  197.26    6.38
   1  -6  -4   10.12    1.31
  -1  -6   4   11.71    1.22
   1  -6  -3  103.89    4.83
  -1  -6   3  102.63    5.33
  -1  -6   3  108.03    3.88
  -1  -6   2  218.45    6.41
  -1  -6   2  217.64    8.25
   1  -6  -2  217.60    8.05
   1  -6  -1  514.72   15.66
  -1  -6   1  525.41   13.37
   1  -6  -1  541.80   14.18
  -1  -6   1  530.95   15.62
  -1  -6   0  327.00   10.35
   1  -6   0  310.84    9.00
   1  -6   0  322.57    8.49
  -1  -6   0  299.03    8.62
   1  -6   0  311.88   10.75
   1  -6   1  251.06    7.24
  -1  -6  -1  248.96    8.46
   1  -6   1  245.59    9.27
   1  -6   1  273.64    7.59
  -1  -6  -1  241.01    7.39
   1  -6   2  138.97    5.44
   1  -6   2  156.33    5.19
   1  -6   2  154.23    4.98
  -1  -6  -2  153.08    5.16
   1  -6   3   31.47    2.16
   1  -6   3   33.49    2.07
   1  -6   3   32.27    1.94
  -1  -6  -3   31.49    2.02
   1  -6   3   29.83    2.17
   1  -6   3   32.40    2.97
   1  -6   4  101.40    3.88
   1  -6   4  103.99    4.04
   1  -6   4  103.49    5.26
  -1  -6  -4  103.39    3.99
   1  -6   5   77.39    3.32
  -1  -6  -5   77.74    3.22
   1  -6   5   84.01    4.37
   1  -6   6   11.37    1.18
   1  -6   6   13.31    1.18
   1  -6   7   13.00    1.11
   1  -6   7   13.61    1.04
  -1  -5   9   18.67    1.28
   1  -5  -9   18.45    1.81
  -1  -5   9   18.77    1.09
  -1  -5   8   48.33    2.43
   1  -5  -8   49.70    3.25
  -1  -5   8   51.06    2.28
  -1  -5   7   60.78    2.96
   1  -5  -7   61.84    3.92
   1  -5  -7   67.23    2.92
  -1  -5   7   66.89    2.89
   1  -5  -6    5.79    1.65
   1  -5  -6    4.11    0.97
  -1  -5   6    3.68    1.45
  -1  -5   6    4.19    0.99
  -1  -5   6    4.02    0.96
  -1  -5   5   78.44    3.37
  -1  -5   5   83.37    4.64
   1  -5  -5   84.56    4.51
  -1  -5   4   10.62    1.18
   1  -5  -4   10.11    1.66
  -1  -5   4    8.77    1.77
  -1  -5   4   10.83    1.18
  -1  -5   4   10.48    1.22
  -1  -5   3   28.10    1.70
  -1  -5   3   28.29    2.64
   1  -5  -3   28.07    1.95
  -1  -5   3   27.66    1.82
   1  -5  -3   28.32    2.34
  -1  -5   2   22.96    1.45
  -1  -5   2   22.86    2.33
   1  -5  -2   24.20    2.20
  -1  -5   2   23.60    1.69
   1  -5  -2   25.85    1.80
   1  -5  -1   56.87    3.43
  -1  -5   1   56.42    3.40
  -1  -5   1   54.64    2.22
   1  -5  -1   57.08    2.72
  -1  -5   0   28.28    2.34
   1  -5   0   30.41    1.56
   1  -5   0   29.86    1.84
   1  -5   0   30.67    1.74
   1  -5   0   26.79    1.99
   1  -5   0   29.04    2.54
   1  -5   1   41.60    2.11
   1  -5   1   40.32    2.30
   1  -5   1   42.82    1.99
   1  -5   1   40.29    2.44
   1  -5   1   41.66    2.14
  -1  -5  -1   40.79    2.66
   1  -5   2   20.60    1.68
   1  -5   2   20.37    1.80
   1  -5   2   23.01    1.51
   1  -5   2   20.49    2.32
   1  -5   2   21.13    1.60
  -1  -5  -2   19.75    1.53
   1  -5   3  160.53    6.71
   1  -5   3  157.95    5.09
   1  -5   3  159.29    5.35
  -1  -5  -3  154.00    5.29
   1  -5   3  149.31    5.35
   1  -5   3  152.56    5.62
   1  -5   4  252.86    8.17
   1  -5   4  265.75    9.48
   1  -5   4  255.29    8.30
   1  -5   4  276.87    8.15
  -1  -5  -4  271.37    8.04
  -1  -5  -4  271.99    9.02
  -1  -5  -5    9.17    1.70
   1  -5   5   10.01    1.34
   1  -5   5   12.57    1.99
  -1  -5  -5   10.26    1.29
   1  -5   5   11.50    1.28
   1  -5   5    9.41    1.39
   1  -5   5    9.16    1.33
   1  -5   6   53.09    2.61
   1  -5   6   58.92    3.59
   1  -5   6   56.61    2.90
  -1  -5  -6   57.07    3.61
  -1  -5  -6   58.03    2.73
   1  -5   7   53.33    2.36
   1  -5   7   48.60    2.57
  -1  -5  -7   44.49    3.11
   1  -5   8   13.90    1.01
   1  -5   8   14.76    1.27
  -1  -5  -8   12.21    1.51
  -1  -5  -9    9.13    0.99
   1  -5   9   10.13    0.82
  -1  -4  10   44.44    2.06
   1  -4 -10   41.08    2.63
  -1  -4   9   60.28    2.84
  -1  -4   9   58.25    2.33
  -1  -4   8  128.89    4.35
   1  -4  -8  121.57    5.90
  -1  -4   8  127.25    4.81
  -1  -4   7   65.32    2.89
  -1  -4   7   65.36    3.20
   1  -4  -7   62.76    2.90
   1  -4  -7   66.21    4.27
  -1  -4   6  143.88    6.17
   1  -4  -6  141.25    5.03
   1  -4  -6  142.95    6.39
  -1  -4   6  140.38    5.10
  -1  -4   6  148.79    4.89
  -1  -4   5  118.45    4.33
   1  -4  -5  125.86    5.58
  -1  -4   5  122.33    5.45
  -1  -4   4  285.65    7.95
  -1  -4   4  274.36    7.95
   1  -4  -4  300.65    9.38
  -1  -4   4  269.25    9.18
  -1  -4   3  314.16    8.58
   1  -4  -3  307.76    8.78
  -1  -4   2  334.79    9.04
  -1  -4   1  111.43    3.77
   1  -4   0  293.47    7.83
   1  -4   0  271.21    7.94
   1  -4   1  361.63    9.74
   1  -4   1  373.50   10.08
   1  -4   2  460.93   11.91
   1  -4   2  443.84   11.61
   1  -4   2  475.27   12.18
   1  -4   3  706.54   19.41
   1  -4   3  690.92   18.21
   1  -4   3  730.31   18.06
  -1  -4  -3  727.08   18.04
  -1  -4  -4  325.42    9.09
  -1  -4  -4  331.45   10.32
   1  -4   4  314.72    8.81
   1  -4   4  308.51   10.26
   1  -4   4  320.99    9.18
  -1  -4  -5  206.77    7.79
   1  -4   5  204.41    7.57
   1  -4   5  193.10    6.56
   1  -4   5  211.92    6.31
  -1  -4  -5  202.88    6.42
  -1  -4  -6   64.33    2.92
   1  -4   6   65.09    3.22
  -1  -4  -6   57.97    3.86
   1  -4   6   61.43    2.78
   1  -4   6   57.87    3.57
  -1  -4  -7  121.50    5.81
   1  -4   7  120.97    4.21
  -1  -4  -8  137.85    6.02
   1  -4   8  147.21    5.08
   1  -4   8  138.14    4.38
  -1  -4  -9   23.35    2.07
   1  -4   9   24.38    1.58
   1  -4  10    2.15    0.43
   1  -3 -11    3.95    0.96
  -1  -3  11    4.92    0.73
  -1  -3  10   34.27    2.04
   1  -3 -10   32.15    2.60
   1  -3  -9   18.51    2.33
   1  -3  -8   74.74    4.52
  -1  -3   8   77.59    2.99
  -1  -3   8   65.96    4.03
   1  -3  -8   75.54    3.82
   1  -3  -8   73.61    3.38
   1  -3  -7   13.10    1.24
   1  -3  -7   10.90    1.55
   1  -3  -7   12.70    1.33
  -1  -3   7   11.27    1.79
  -1  -3   7   12.52    1.19
   1  -3  -7   11.77    1.59
   1  -3  -6   14.62    1.26
   1  -3  -6   11.83    1.47
   1  -3  -6   12.28    1.48
   1  -3  -6   13.06    1.88
  -1  -3   6   12.86    1.75
  -1  -3   6   13.90    1.74
   1  -3  -5   76.31    3.40
  -1  -3   5   73.91    3.76
  -1  -3   5   76.08    3.63
   1  -3  -5   81.88    3.99
  -1  -3   4   40.52    2.21
   1  -3  -4   41.06    2.10
  -1  -3   3  157.16    4.66
   1  -3  -3  152.44    4.49
   1  -3  -2  346.24    8.89
  -1  -3   2  380.55    8.91
  -1  -3   1  156.76    4.56
   1  -3  -1  161.30    4.72
   1  -3   0   76.69    2.59
   1  -3   1    2.34    0.67
  -1  -3  -2  273.84    6.86
  -1  -3  -3  142.60    4.15
  -1  -3  -4   72.58    2.85
   1  -3   4   68.14    2.87
  -1  -3  -4   66.00    2.66
   1  -3   4   72.70    2.67
  -1  -3  -5   81.42    3.28
  -1  -3  -5   77.27    4.13
  -1  -3  -5   81.58    3.20
   1  -3   5   76.97    3.82
   1  -3   5   87.06    3.13
  -1  -3  -6   90.63    3.46
   1  -3   6   85.52    3.70
  -1  -3  -6   82.24    4.59
   1  -3   6   86.35    3.28
  -1  -3  -7   75.29    3.49
   1  -3   7   69.94    2.85
   1  -3   7   68.79    3.39
   1  -3   7   67.36    4.12
  -1  -3  -8   47.44    2.58
   1  -3   8   50.16    2.76
  -1  -3  -8   47.85    3.56
   1  -3   9   17.78    1.52
  -1  -3  -9   14.59    1.26
  -1  -3  -9   16.38    2.05
   1  -3  10    1.85    0.62
  -1  -3 -10    2.06    0.96
   1  -2 -11   38.45    2.38
  -1  -2  11   44.10    2.05
   1  -2 -10   45.95    2.60
   1  -2 -10   46.21    3.19
  -1  -2  10   50.06    2.61
   1  -2  -9  108.80    5.50
   1  -2  -9  124.28    5.42
   1  -2  -9  114.14    4.72
   1  -2  -8  123.48    5.81
   1  -2  -8  134.47    6.10
  -1  -2   8  126.38    6.28
   1  -2  -8  140.09    5.27
   1  -2  -8  137.72    5.93
  -1  -2   7  108.53    5.48
  -1  -2   7  117.97    3.85
   1  -2  -7  109.09    5.07
   1  -2  -7  105.68    5.19
   1  -2  -7  119.48    3.83
   1  -2  -7  113.70    5.36
   1  -2  -7  118.41    4.61
   1  -2  -6   78.17    3.89
   1  -2  -6   84.18    4.15
   1  -2  -6   86.17    4.18
  -1  -2   6   78.30    4.17
   1  -2  -5  239.49    7.64
   1  -2  -4  919.98   23.02
   1  -2  -3 1029.88   25.14
  -1  -2   3 1046.19   25.11
  -1  -2   2  372.90    9.16
   1  -2  -2  352.33    9.23
  -1  -2   1  496.74   11.72
  -1  -2   1  473.74   11.35
   1  -2  -1  508.21   11.80
   1  -2  -1  469.04   11.62
  -1  -2   1  480.79   11.64
  -1  -2   0  903.85   21.51
   1  -2   0  877.06   21.51
  -1  -2   0  933.49   21.12
  -1  -2  -1  361.27    8.64
  -1  -2  -2 1290.23   30.08
  -1  -2  -3  566.89   13.90
  -1  -2  -4  610.07   15.26
  -1  -2  -5  133.70    4.59
  -1  -2  -5  134.06    5.02
   1  -2   5  135.53    4.10
  -1  -2  -6  558.35   15.18
  -1  -2  -6  582.48   16.37
   1  -2   6  564.84   14.26
  -1  -2  -6  586.15   15.83
  -1  -2  -7  267.67    9.54
   1  -2   8   74.61    3.50
  -1  -2  -8   70.72    4.37
  -1  -2  -9   29.06    2.63
  -1  -2  -9   26.11    2.03
   1  -2   9   32.71    2.07
   1  -2  10   16.60    1.27
  -1  -2 -10   15.64    1.30
  -1  -2 -10   18.07    1.83
  -1  -1  11   19.06    1.38
   1  -1 -11   17.78    1.61
   1  -1 -10   47.75    2.82
   1  -1 -10   50.34    3.24
   1  -1 -10   56.00    3.51
   1  -1  -9   78.34    4.52
   1  -1  -9   73.38    4.23
   1  -1  -9   74.83    3.81
   1  -1  -9   85.95    4.79
  -1  -1   9   72.76    4.75
   1  -1  -8  120.92    5.60
   1  -1  -8  131.77    5.21
   1  -1  -8  125.89    5.85
   1  -1  -8  124.29    5.97
  -1  -1   8  116.09    6.11
   1  -1  -7   66.56    4.05
   1  -1  -7   57.12    3.63
   1  -1  -7   68.62    3.39
   1  -1  -7   60.23    3.54
   1  -1  -6  209.66    7.48
   1  -1  -6  215.00    7.55
   1  -1  -5  170.10    6.18
   1  -1  -4  204.10    6.54
   1  -1  -3   68.84    2.91
  -1  -1   2   87.09    2.88
   1  -1  -2   86.06    3.06
  -1  -1   1  566.03   13.78
   1  -1  -1  593.18   13.67
  -1  -1   0  339.72    8.03
  -1  -1  -1  157.70    4.07
  -1  -1  -2  870.47   20.31
  -1  -1  -2  846.43   20.61
  -1  -1  -3  486.88   12.02
  -1  -1  -3  483.29   12.50
  -1  -1  -4  462.60   11.17
  -1  -1  -4  386.34   11.56
  -1  -1  -5   55.54    2.59
  -1  -1  -5   63.03    3.22
  -1  -1  -6   99.07    4.06
  -1  -1  -6  101.47    4.61
  -1  -1  -6  102.73    4.57
  -1  -1  -7  153.99    6.28
  -1  -1  -7  146.60    6.21
  -1  -1  -7  148.37    5.67
  -1  -1  -8   45.73    3.36
   1  -1   9   40.25    2.27
  -1  -1  -9   41.88    2.77
  -1  -1  -9   35.00    2.93
  -1  -1 -10   23.08    2.02
   1  -1  10   24.50    1.49
  -1  -1 -10   22.79    1.79
  -1   0  11   28.43    1.60
   1   0 -10   98.52    4.88
   1   0 -10   96.11    4.22
   1   0 -10   84.10    4.05
   1   0  -9    1.14    1.38
   1   0  -9    0.68    0.99
   1   0  -9    0.31    0.90
  -1   0   9    0.18    1.40
   1   0  -9    0.16    1.28
  -1   0   8   28.10    2.99
   1   0  -8   28.01    2.40
   1   0  -8   31.93    2.95
   1   0  -8   28.93    2.82
   1   0  -8   35.09    2.52
   1   0  -7  621.04   18.28
   1   0  -7  571.97   17.76
   1   0  -7  619.32   17.28
   1   0  -6  511.17   14.30
   1   0  -6  478.39   14.07
   1   0  -5  349.91    9.52
   1   0  -5  361.71   10.65
   1   0  -4 1260.01   30.91
   1   0  -4 1265.09   29.96
   1   0  -3  464.89   11.27
   1   0  -3  445.00   12.02
   1   0  -2 3101.85   71.98
  -1   0   1 1762.53   40.74
  -1   0   0 1566.42   36.05
  -1   0  -1 4198.08   96.24
  -1   0  -2   11.94    0.96
  -1   0  -2   11.93    0.80
  -1   0  -3   60.78    2.59
  -1   0  -3   59.01    2.18
  -1   0  -4  102.50    3.49
  -1   0  -4  105.65    4.05
  -1   0  -5  835.22   21.02
  -1   0  -5  861.42   21.92
  -1   0  -6  222.74    7.47
  -1   0  -6  236.96    8.10
  -1   0  -6  221.10    7.14
  -1   0  -7   33.44    2.41
  -1   0  -7   39.52    3.04
  -1   0  -7   34.51    2.61
  -1   0  -8   -0.12    1.02
  -1   0  -8    1.21    1.40
   1   0   9   89.82    3.52
  -1   0  -9   93.30    4.52
  -1   0  -9   96.78    4.47
  -1   0 -10  156.43    5.53
  -1   0 -10  163.80    5.68
  -1   0 -11   38.80    1.88
   1   1 -10   45.43    2.78
   1   1 -10   53.02    3.41
   1   1  -9   76.59    4.54
   1   1  -9   73.77    4.44
  -1   1   9   66.53    4.56
   1   1  -9   77.54    3.84
   1   1  -8  134.88    6.12
  -1   1   8  123.91    6.37
   1   1  -8  133.09    6.27
   1   1  -8  144.81    5.54
   1   1  -7   64.75    4.01
   1   1  -7   59.62    3.70
  -1   1   7   57.71    3.89
   1   1  -7   69.83    3.43
   1   1  -6  210.14    7.49
   1   1  -6  219.42    7.60
   1   1  -5  173.25    6.26
   1   1  -4  202.43    5.64
   1   1  -4  195.72    6.41
   1   1  -3   67.15    2.86
   1   1  -2   86.07    3.07
  -1   1   2   89.33    2.88
  -1   1   1  584.18   13.86
  -1   1   0  331.64    7.87
  -1   1  -1  152.53    3.96
  -1   1  -2  864.57   20.55
  -1   1  -2  851.33   20.22
  -1   1  -3  481.34   11.86
  -1   1  -3  472.00   12.35
  -1   1  -4  476.98   12.76
  -1   1  -4  471.72   12.08
  -1   1  -5   59.20    2.67
  -1   1  -5   59.62    3.17
  -1   1  -6  101.28    4.13
  -1   1  -6  108.29    4.77
  -1   1  -6  102.15    4.21
  -1   1  -7  163.48    6.58
  -1   1  -7  160.84    5.99
  -1   1  -7  159.46    6.00
  -1   1  -9   38.88    2.68
  -1   1 -10   23.60    1.80
   1   2 -10   47.52    2.64
   1   2  -9  122.78    5.54
   1   2  -9  121.25    4.92
   1   2  -8  138.91    5.97
   1   2  -8  139.87    6.14
   1   2  -8  131.40    5.19
  -1   2   8  121.00    6.17
   1   2  -7  111.01    5.13
   1   2  -7  119.10    4.67
  -1   2   7  103.70    5.34
   1   2  -6   97.99    4.60
   1   2  -6  110.03    4.06
  -1   2   6   97.08    4.66
   1   2  -5  242.56    7.74
  -1   2   4  905.11   22.77
   1   2  -4  916.95   22.82
   1   2  -3 1004.62   24.94
  -1   2   3 1054.74   24.94
  -1   2   2  393.56    9.67
   1   2  -2  374.06    9.70
  -1   2   1  472.47   11.07
   1   2  -1  464.75   11.29
  -1   2   0  984.83   22.73
  -1   2  -1  390.20    9.32
  -1   2  -2 1274.60   29.77
  -1   2  -3  580.32   14.22
  -1   2  -4  612.66   15.36
  -1   2  -5  129.81    4.92
  -1   2  -5  126.65    4.48
  -1   2  -6  555.17   15.62
  -1   2  -6  561.09   15.00
   1   2   8   63.21    4.34
  -1   2  -8   85.45    4.07
  -1   2  -9   30.68    2.19
  -1   2 -10   16.74    1.39
   1   3  -8   83.24    4.05
   1   3  -8   74.84    3.48
  -1   3   7    8.99    1.65
   1   3  -7   10.12    1.54
   1   3  -7    9.60    1.51
   1   3  -7   11.40    1.26
  -1   3   6   13.34    1.73
   1   3  -6   12.44    1.54
   1   3  -5   76.37    3.40
  -1   3   5   67.55    3.39
   1   3  -4   48.02    2.35
  -1   3   4   49.57    2.44
  -1   3   3  158.42    4.64
   1   3  -3  150.61    4.54
  -1   3  -2  277.63    6.99
  -1   3  -3  140.99    4.15
  -1   3  -4   71.46    2.78
  -1   3  -5   83.06    3.35
  -1   3  -7   80.71    3.73
  -1   3  -8   50.98    2.75
  -1   3  -9   13.72    1.23
   2  -8  -5   29.67    1.19
   2  -8  -4   56.96    2.01
   2  -8  -3   87.17    2.82
   2  -8  -2   41.66    1.69
   2  -8  -2   44.30    2.24
   2  -8  -1   42.35    2.44
   2  -8   0   62.91    3.15
   2  -8   1  108.76    4.34
   2  -8   3   36.04    1.97
  -2  -7   7    2.64    0.52
  -2  -7   6    5.69    0.74
   2  -7  -5   11.10    1.10
  -2  -7   5   10.16    1.00
  -2  -7   4   18.57    1.28
   2  -7  -4   18.85    1.51
  -2  -7   3    4.89    0.73
  -2  -7   3    5.90    1.51
   2  -7  -3    5.97    1.42
   2  -7  -2    5.39    1.56
  -2  -7   2    7.38    1.49
  -2  -7   1   13.98    1.71
   2  -7  -1    9.98    1.88
   2  -7   0    4.49    0.66
   2  -7   0    5.62    1.66
  -2  -7  -1    2.30    0.61
   2  -7   1    0.92    0.59
   2  -7   2    4.20    1.54
   2  -7   2    3.78    0.79
   2  -7   3   10.52    1.05
   2  -7   3   11.80    1.78
   2  -7   4    6.79    0.82
   2  -7   4    9.79    1.50
   2  -7   5    0.06    0.30
  -2  -6   9   20.38    0.93
  -2  -6   8   80.87    2.82
  -2  -6   7  216.51    6.34
   2  -6  -7  219.11    6.39
   2  -6  -6  334.77    9.48
  -2  -6   5  115.77    4.16
  -2  -6   4    9.64    1.95
  -2  -6   4    8.72    1.08
   2  -6  -4    8.13    1.56
   2  -6  -3   37.50    2.95
  -2  -6   3   36.96    1.98
  -2  -6   3   37.47    3.10
   2  -6  -3   39.08    2.44
   2  -6  -2  182.70    6.21
  -2  -6   2  184.99    7.24
   2  -6  -2  170.24    7.21
  -2  -6   2  183.80    5.49
  -2  -6   1  169.79    6.74
   2  -6  -1  171.12    7.26
   2  -6  -1  171.79    5.94
   2  -6  -1  179.09    5.24
   2  -6  -1  179.59    5.85
  -2  -6   0  432.43   12.30
   2  -6   0  396.63   13.20
  -2  -6   0  391.04   10.72
   2  -6   0  441.37   11.48
   2  -6   0  410.11   10.85
   2  -6   0  401.44   11.36
  -2  -6  -1   30.04    1.81
   2  -6   1   33.87    2.14
   2  -6   1   29.37    2.29
   2  -6   1   32.96    1.96
   2  -6   1   33.70    1.90
   2  -6   2   36.86    2.24
   2  -6   2   33.18    1.97
   2  -6   2   29.71    2.94
  -2  -6  -2   34.37    1.97
   2  -6   2   32.03    2.33
   2  -6   3   90.03    3.56
   2  -6   3   96.17    5.05
   2  -6   3   92.57    3.83
  -2  -6  -3   88.46    3.54
   2  -6   4  134.66    5.93
   2  -6   4  130.07    4.80
   2  -6   5   68.87    2.91
   2  -6   5   74.31    3.82
   2  -6   5   69.19    3.07
   2  -6   6    0.26    0.62
   2  -6   6    0.67    0.54
   2  -6   7    9.92    0.78
   2  -6   7    9.50    0.87
  -2  -5   9   29.47    1.61
  -2  -5   9   26.85    1.43
  -2  -5   8   30.81    1.87
  -2  -5   8   32.28    1.79
   2  -5  -8   27.15    2.62
   2  -5  -8   30.03    1.70
   2  -5  -7   17.45    2.27
  -2  -5   7   17.80    1.50
   2  -5  -7   16.21    1.45
  -2  -5   7   15.18    1.42
  -2  -5   6   24.74    2.00
  -2  -5   6   25.45    1.79
   2  -5  -6   26.09    1.92
  -2  -5   6   22.44    1.66
   2  -5  -6   22.09    2.51
   2  -5  -5    2.65    1.43
   2  -5  -5    2.60    1.06
  -2  -5   5    1.45    1.38
  -2  -5   5    1.87    0.92
  -2  -5   5    2.15    0.73
   2  -5  -4   36.83    2.31
  -2  -5   4   35.85    2.95
  -2  -5   4   29.16    2.07
   2  -5  -4   33.37    2.57
   2  -5  -3  159.72    6.43
   2  -5  -3  169.95    5.86
  -2  -5   3  178.19    5.79
  -2  -5   3  163.21    6.69
  -2  -5   2  150.29    6.18
   2  -5  -2  164.17    5.58
   2  -5  -2  165.20    5.37
   2  -5  -2  154.57    5.51
   2  -5  -2  146.42    6.20
   2  -5  -1   79.43    2.88
   2  -5  -1   84.30    3.38
  -2  -5   1   77.79    3.97
   2  -5  -1   80.24    3.62
   2  -5  -1   83.91    4.36
   2  -5  -1   85.83    3.58
   2  -5   0  283.52    7.93
   2  -5   0  260.21    8.31
   2  -5   0  266.27    7.37
  -2  -5   0  263.89    8.50
   2  -5   0  268.32    7.98
  -2  -5   0  256.04    7.36
   2  -5   1   53.27    2.60
   2  -5   1   53.91    2.96
   2  -5   1   53.90    2.37
   2  -5   1   51.33    2.85
   2  -5   1   50.14    3.51
  -2  -5  -1   51.00    2.39
   2  -5   1   52.13    2.62
   2  -5   2    1.48    1.00
   2  -5   2    0.67    0.75
   2  -5   2    1.53    0.84
  -2  -5  -2    2.33    0.77
   2  -5   2    1.77    1.36
   2  -5   2    1.89    0.73
   2  -5   3   85.94    4.73
  -2  -5  -3   89.28    3.52
   2  -5   3   79.68    3.86
   2  -5   3   80.91    3.54
   2  -5   3   88.10    3.73
  -2  -5  -4    8.60    1.53
   2  -5   4   10.15    1.88
   2  -5   4   10.43    1.23
   2  -5   4   10.46    1.36
   2  -5   4   11.40    1.39
  -2  -5  -4   12.40    1.30
   2  -5   5   25.86    2.49
   2  -5   5   27.53    1.85
   2  -5   5   26.39    2.02
  -2  -5  -5   29.27    2.48
   2  -5   6   22.38    1.58
  -2  -5  -6   18.81    2.14
   2  -5   6   22.02    1.78
  -2  -5  -7   19.38    1.89
   2  -5   7   18.66    1.29
   2  -5   8    4.85    0.52
  -2  -5  -8    5.75    0.98
  -2  -4  11   22.56    1.12
  -2  -4  10   68.05    2.78
   2  -4 -10   68.36    3.56
  -2  -4   9   38.20    1.89
  -2  -4   9   38.05    2.23
  -2  -4   8   22.60    1.80
   2  -4  -8   20.53    1.48
   2  -4  -8   20.80    2.49
  -2  -4   8   24.53    1.64
  -2  -4   7   38.78    2.20
   2  -4  -7   37.76    2.18
  -2  -4   7   38.24    2.34
   2  -4  -7   37.12    3.21
  -2  -4   6   67.92    3.04
   2  -4  -6   64.26    4.04
   2  -4  -5  140.95    5.30
  -2  -4   5  146.56    6.07
   2  -4  -5  150.41    6.21
  -2  -4   5  137.67    4.71
   2  -4  -4  213.10    6.58
   2  -4  -4  203.04    6.88
  -2  -4   4  200.40    5.88
  -2  -4   4  211.35    6.55
   2  -4  -4  213.50    7.51
  -2  -4   4  207.58    6.03
  -2  -4   3  567.27   14.82
  -2  -4   3  611.91   15.37
  -2  -4   3  592.68   16.37
  -2  -4   2  861.14   21.20
   2  -4  -1  475.78   12.58
   2  -4   0  322.51    8.51
   2  -4   0  302.18    8.87
   2  -4   1  462.98   11.72
   2  -4   1  442.28   11.33
   2  -4   1  433.64   12.86
   2  -4   1  447.41   12.13
   2  -4   1  433.53   11.55
   2  -4   2  375.46    9.92
   2  -4   2  354.63   10.13
   2  -4   2  337.69    9.42
  -2  -4  -2  361.00    9.64
   2  -4   2  362.17    9.84
   2  -4   2  362.64   11.09
   2  -4   3  129.83    4.69
   2  -4   3  134.70    4.41
  -2  -4  -3  135.41    4.54
   2  -4   3  130.28    5.65
   2  -4   3  131.39    4.71
   2  -4   3  129.65    4.82
  -2  -4  -3  142.72    5.41
  -2  -4  -4  151.67    5.15
   2  -4   4  150.71    6.23
   2  -4   4  158.63    5.05
   2  -4   4  149.70    5.33
  -2  -4  -4  158.68    6.29
   2  -4   5  127.87    4.40
  -2  -4  -5  129.15    5.81
   2  -4   6  255.42    7.37
   2  -4   6  244.48    7.86
  -2  -4  -6  241.60    9.06
   2  -4   7   79.52    3.56
  -2  -4  -7   79.75    4.48
   2  -4   7   80.66    3.09
   2  -4   8   85.39    3.39
  -2  -4  -8   80.87    4.13
  -2  -4  -9    2.25    0.85
   2  -4   9    0.74    0.56
   2  -3 -11   18.44    1.72
   2  -3 -10   17.45    2.08
   2  -3  -9   11.88    2.05
   2  -3  -9   13.42    1.63
  -2  -3   9   13.24    1.13
   2  -3  -8   40.71    2.81
   2  -3  -8   36.91    3.21
   2  -3  -8   40.28    1.97
  -2  -3   8   40.45    2.10
   2  -3  -8   34.14    2.65
  -2  -3   8   32.39    2.79
   2  -3  -7   50.85    2.42
  -2  -3   7   46.62    3.21
   2  -3  -7   48.66    3.03
   2  -3  -7   51.50    3.64
   2  -3  -7   53.43    3.25
   2  -3  -6   16.01    1.71
  -2  -3   6   16.95    1.83
  -2  -3   5    8.20    1.25
   2  -3  -5    9.00    1.54
  -2  -3   5   10.18    1.55
  -2  -3   4   13.78    1.27
   2  -3  -4   12.60    1.29
  -2  -3   3   72.85    2.41
  -2  -3   3   67.00    2.47
   2  -3  -3   70.17    2.77
   2  -3  -2   57.08    2.33
  -2  -3   2   57.48    2.02
   2  -3  -2   52.37    2.12
  -2  -3   2   54.24    1.79
  -2  -3   2   60.35    2.29
   2  -3  -1  266.55    6.98
  -2  -3   1  270.20    6.75
  -2  -3   0  389.49    9.25
   2  -3   0  385.36    9.78
  -2  -3  -1  149.37    4.03
   2  -3   1  156.21    4.53
  -2  -3  -2  105.32    3.17
   2  -3   3    7.35    0.81
  -2  -3  -3    8.48    0.79
  -2  -3  -4  106.61    4.63
   2  -3   4  107.65    3.61
  -2  -3  -4  100.28    3.65
   2  -3   4  101.17    4.38
   2  -3   4  100.86    3.87
   2  -3   5   31.30    2.12
   2  -3   5   38.59    1.97
  -2  -3  -5   34.75    2.06
  -2  -3  -5   35.02    2.81
   2  -3   6   92.37    3.45
  -2  -3  -6   92.65    4.92
  -2  -3  -6   89.56    3.85
   2  -3   6   94.83    3.98
  -2  -3  -7    8.01    1.30
   2  -3   7    7.90    0.94
   2  -3   7    7.52    1.29
   2  -3   8   21.18    1.73
  -2  -3  -8   20.87    1.62
   2  -3   9    9.57    1.02
  -2  -3  -9    8.76    1.46
  -2  -3 -10    7.84    0.96
  -2  -2  12    8.98    0.73
   2  -2 -11   38.64    2.60
  -2  -2  11   45.46    2.23
   2  -2 -10   65.39    3.69
   2  -2 -10   64.41    3.83
  -2  -2   9   58.36    4.00
   2  -2  -9   66.52    4.01
   2  -2  -9   66.19    4.04
   2  -2  -9   71.07    4.24
   2  -2  -9   62.24    3.30
   2  -2  -8  136.11    6.16
   2  -2  -8  123.78    5.76
  -2  -2   8  122.12    6.03
   2  -2  -8  138.88    6.13
   2  -2  -8  125.63    4.98
  -2  -2   7   30.06    2.71
   2  -2  -7   33.79    2.74
   2  -2  -7   27.64    2.55
   2  -2  -7   31.80    2.72
   2  -2  -7   31.31    2.10
   2  -2  -6  117.85    5.04
  -2  -2   6  115.79    5.18
   2  -2  -6  122.86    5.20
   2  -2  -5  350.85   10.38
  -2  -2   5  326.93   10.05
  -2  -2   4 1278.54   31.45
   2  -2  -4 1312.60   31.86
  -2  -2   3  743.01   18.49
   2  -2  -3  754.96   18.97
  -2  -2   2  929.35   22.46
  -2  -2   2  931.48   22.07
   2  -2  -2  988.60   22.48
  -2  -2   1  554.32   12.95
  -2  -2   1  515.51   12.86
   2  -2  -1  548.14   12.85
  -2  -2   0  772.03   17.90
   2  -2   0  747.37   17.99
  -2  -2  -1  518.98   12.60
  -2  -2  -2 1118.41   26.46
  -2  -2  -3  511.37   12.88
  -2  -2  -4  237.88    6.90
   2  -2   4  239.06    6.88
   2  -2   5  259.98    7.22
   2  -2   5  268.65    7.77
  -2  -2  -5  268.25    7.93
  -2  -2  -6  152.59    6.45
   2  -2   6  153.87    5.38
  -2  -2  -6  156.34    5.62
   2  -2   7  252.58    7.71
  -2  -2  -7  229.28    7.94
  -2  -2  -7  249.77    9.14
  -2  -2  -8   17.87    1.91
  -2  -2  -8   15.01    2.17
   2  -2   8   13.16    1.43
   2  -2   9   24.11    1.61
  -2  -2  -9   27.75    1.91
  -2  -2  -9   26.43    2.39
  -2  -2 -10    1.22    0.84
  -2  -2 -10    1.44    0.49
  -2  -2 -10    0.48    0.40
   2  -2  10    0.71    0.38
  -2  -1  12    0.54    0.46
   2  -1 -11   25.49    2.19
   2  -1 -11   20.91    1.80
   2  -1 -10   42.80    2.75
   2  -1 -10   44.14    3.10
   2  -1 -10   52.08    3.50
  -2  -1   9   15.35    2.34
   2  -1  -9   19.76    2.26
   2  -1  -9   16.66    2.28
   2  -1  -9   14.30    2.21
   2  -1  -9   17.21    1.81
   2  -1  -8  115.21    5.88
   2  -1  -8  116.81    5.30
   2  -1  -8  108.22    5.49
  -2  -1   8  105.36    5.72
   2  -1  -8  120.79    4.84
   2  -1  -7   60.64    3.76
   2  -1  -7   66.83    3.62
  -2  -1   7   56.50    3.79
   2  -1  -7   62.12    3.08
   2  -1  -6   16.91    1.95
  -2  -1   6   17.31    1.96
   2  -1  -6   17.28    2.11
  -2  -1   5   57.75    3.12
   2  -1  -5   58.18    3.35
   2  -1  -4  102.06    4.25
  -2  -1   4   97.72    3.89
  -2  -1   3 1404.79   33.52
  -2  -1   2 2095.04   49.51
   2  -1  -2 2126.22   48.92
  -2  -1   2 2125.29   48.54
  -2  -1   1   27.45    1.24
  -2  -1   1   30.39    0.99
  -2  -1   0 1170.78   27.32
  -2  -1  -1  753.56   17.96
  -2  -1  -2  510.13   12.62
  -2  -1  -3  131.50    4.10
  -2  -1  -4   18.48    1.35
  -2  -1  -5  117.11    4.78
  -2  -1  -5  116.96    4.27
  -2  -1  -5  104.87    4.60
  -2  -1  -6  115.05    4.68
  -2  -1  -6  120.78    5.27
   2  -1   7   29.77    1.99
  -2  -1  -7   27.73    2.65
  -2  -1  -7   31.83    2.38
  -2  -1  -8   29.46    2.70
   2  -1   8   29.32    1.94
  -2  -1  -9   27.89    2.16
  -2  -1  -9   28.94    2.50
   2  -1   9   26.93    1.66
  -2  -1 -10   19.29    1.63
  -2  -1 -10   18.94    1.43
  -2   0  12    8.41    0.71
   2   0 -11    9.84    1.66
   2   0 -10    0.95    1.40
   2   0 -10   -0.19    0.90
   2   0  -9  248.46    8.42
   2   0  -9  240.63    8.17
  -2   0   9  221.11    9.33
   2   0  -9  255.51    9.77
   2   0  -9  256.66    9.38
   2   0  -8  373.68   12.63
   2   0  -8  375.59   11.47
  -2   0   8  364.94   12.63
   2   0  -8  389.38   11.24
  -2   0   7  544.20   16.67
   2   0  -7  594.32   15.49
   2   0  -7  581.65   15.73
   2   0  -7  560.14   16.52
  -2   0   6  874.86   23.26
   2   0  -6  894.20   23.72
   2   0  -5 1728.38   41.95
  -2   0   5 1687.92   41.48
  -2   0   4  201.46    6.37
   2   0  -4  202.62    6.78
  -2   0   3    4.64    1.06
  -2   0   2   18.23    1.20
  -2   0   1 3842.33   88.39
  -2   0   0   41.22    1.50
  -2   0  -1  689.90   16.48
  -2   0  -2  288.18    7.55
  -2   0  -3 2416.91   56.36
  -2   0  -4  135.03    4.45
  -2   0  -5   30.10    2.14
  -2   0  -5   28.13    1.87
  -2   0  -6  163.24    6.15
  -2   0  -6  154.44    5.72
   2   0   7    0.60    0.71
  -2   0  -7    0.10    0.82
  -2   0  -7    0.48    1.07
  -2   0  -8   26.87    2.50
  -2   0  -9  132.16    5.27
  -2   0  -9  121.46    5.20
  -2   0 -10   80.78    3.30
   2   1 -11   21.91    2.10
   2   1 -10   41.79    3.26
   2   1 -10   35.23    2.48
   2   1  -9   13.34    2.19
   2   1  -9   15.25    2.23
  -2   1   9   12.16    2.17
   2   1  -9   12.28    1.60
   2   1  -8  113.34    5.58
  -2   1   8   97.40    5.48
   2   1  -8  112.18    5.77
   2   1  -8  117.36    4.75
   2   1  -7   64.89    3.89
  -2   1   7   62.77    3.99
   2   1  -7   65.58    3.15
  -2   1   6   16.66    1.91
   2   1  -6   13.80    1.78
   2   1  -6   18.84    2.16
   2   1  -5   63.16    3.44
  -2   1   5   55.09    3.04
   2   1  -4   98.15    4.17
  -2   1   4   99.18    3.86
   2   1  -3 1412.95   33.92
  -2   1   3 1386.15   33.36
  -2   1   2 2094.57   48.87
  -2   1   1   27.45    1.24
  -2   1   0 1175.71   27.45
  -2   1  -1  777.59   18.52
  -2   1  -2  488.16   12.15
  -2   1  -3  122.78    3.90
  -2   1  -4   17.80    1.33
  -2   1  -5  119.78    4.79
  -2   1  -5  109.06    4.19
  -2   1  -6  126.88    5.16
  -2   1  -6  136.58    5.15
  -2   1  -7   30.61    2.40
  -2   1  -7   29.82    2.32
  -2   1  -8   30.07    2.36
  -2   1  -9   27.03    2.14
  -2   1 -10   20.26    1.50
   2   2 -10   70.16    3.86
  -2   2   9   56.81    3.97
   2   2  -9   71.52    4.17
   2   2  -9   69.50    4.15
   2   2  -9   65.48    3.37
  -2   2   8  116.36    5.82
   2   2  -8  128.62    5.78
   2   2  -8  115.32    4.80
   2   2  -7   34.34    2.87
  -2   2   7   32.39    2.79
   2   2  -7   35.08    2.86
   2   2  -7   35.06    2.21
   2   2  -6  128.85    5.32
  -2   2   6  129.78    5.46
   2   2  -5  337.59   10.05
  -2   2   5  309.44    9.69
   2   2  -4 1308.71   32.08
  -2   2   4 1302.93   31.72
  -2   2   3  709.76   17.83
   2   2  -3  729.82   18.26
  -2   2   2  969.45   23.03
  -2   2   1  536.23   12.85
  -2   2   0  743.40   17.52
  -2   2  -1  485.88   11.89
  -2   2  -2 1121.79   26.56
  -2   2  -3  511.97   12.91
  -2   2  -4  247.52    7.17
  -2   2  -5  261.61    7.89
  -2   2  -6  153.73    5.61
  -2   2  -7  234.93    7.88
  -2   2  -8   18.60    1.97
  -2   2  -9   23.41    1.80
  -2   2 -10    1.88    0.55
   2   3  -9   13.04    1.70
   2   3  -8   43.89    3.00
   2   3  -7   49.24    3.06
   2   3  -7   51.15    3.23
  -2   3   7   43.37    3.05
   2   3  -7   45.38    2.50
  -2   3   6   17.75    1.87
   2   3  -6   18.64    1.87
  -2   3   5    7.57    1.21
   2   3  -4   13.03    1.31
  -2   3   4   13.14    1.26
  -2   3   3   68.84    2.50
   2   3  -3   71.43    2.78
   2   3  -2   56.99    2.11
  -2   3   2   55.08    1.82
  -2   3   0  394.38    9.44
  -2   3  -1  153.10    4.10
  -2   3  -2  101.93    3.14
  -2   3  -3    7.20    0.76
  -2   3  -4  101.76    3.70
  -2   3  -5   36.19    2.14
  -2   3  -6   88.20    3.86
  -2   3  -7    7.26    1.35
  -2   3  -8   21.81    1.68
  -2   3  -9    8.01    0.86
   3  -8  -5   16.19    0.81
   3  -8  -4   36.80    1.48
   3  -8  -3   60.72    1.65
   3  -8  -3   -0.04    0.36
   3  -8  -2   54.73    2.01
   3  -8  -2   63.06    2.81
   3  -8  -1   34.91    1.38
   3  -8  -1   51.33    2.57
   3  -8   0   79.09    3.49
   3  -8   2   50.93    2.40
  -3  -7   7   11.01    0.79
   3  -7  -7   11.18    0.79
  -3  -7   6   19.77    1.18
   3  -7  -5    6.60    0.97
  -3  -7   5    7.79    0.84
  -3  -7   4   28.00    1.50
   3  -7  -4   30.72    2.31
  -3  -7   3    0.04    0.30
   3  -7  -3   66.25    3.45
   3  -7  -2    6.92    1.67
   3  -7  -1   17.69    2.26
   3  -7  -1   16.25    1.41
   3  -7   0   50.71    2.16
   3  -7   0   48.41    2.30
   3  -7   1   16.48    1.24
   3  -7   1   15.91    2.17
   3  -7   1   15.67    1.39
   3  -7   2   18.74    1.32
   3  -7   2   17.65    2.16
   3  -7   2   15.84    1.37
   3  -7   3   29.49    2.30
   3  -7   3   29.01    1.58
   3  -7   3   25.78    1.60
   3  -7   4   16.51    1.10
   3  -7   4   16.43    1.52
   3  -7   4   14.46    1.09
   3  -7   5   10.84    0.77
  -3  -6   9    6.51    0.57
  -3  -6   8   76.88    2.72
   3  -6  -8   75.07    2.60
   3  -6  -7  239.05    6.91
  -3  -6   6  296.88    8.33
   3  -6  -6  294.32    8.58
  -3  -6   5   99.35    3.67
   3  -6  -5   93.40    4.52
  -3  -6   4   76.87    3.09
   3  -6  -4   72.79    4.15
   3  -6  -4   77.51    3.58
  -3  -6   3   35.79    1.93
  -3  -6   3   43.07    3.12
   3  -6  -3   35.93    3.03
   3  -6  -3   39.76    2.47
  -3  -6   2   91.24    3.25
  -3  -6   2   97.78    4.63
   3  -6  -2   84.49    4.88
   3  -6  -2   98.09    4.08
   3  -6  -1   20.63    1.79
   3  -6  -1   15.58    1.61
  -3  -6   1   23.28    2.07
   3  -6  -1   20.29    2.54
   3  -6  -1   17.59    1.33
   3  -6   0   76.56    3.44
   3  -6   0   67.21    3.26
   3  -6   0   69.73    2.94
   3  -6   1   31.72    2.03
   3  -6   1   30.71    2.27
   3  -6   1   33.83    1.98
   3  -6   1   33.85    3.13
   3  -6   1   34.74    2.30
   3  -6   2   36.85    2.09
   3  -6   2   36.54    3.28
   3  -6   2   35.28    2.31
   3  -6   3  223.97    6.84
   3  -6   3  226.05    8.35
   3  -6   3  223.79    7.12
   3  -6   4  248.35    7.57
   3  -6   4  249.17    7.30
   3  -6   4  251.77    8.51
   3  -6   5  121.87    4.62
   3  -6   5  125.87    4.10
   3  -6   5  118.77    4.27
   3  -6   6   29.12    1.62
   3  -6   6   29.50    1.46
  -3  -5  10   11.42    0.67
  -3  -5   9   16.51    1.09
  -3  -5   9    0.20    0.40
   3  -5  -8   39.42    1.97
  -3  -5   8   40.41    2.05
   3  -5  -7    3.12    0.87
  -3  -5   7    4.22    0.95
  -3  -5   7    3.31    0.76
   3  -5  -6   24.32    2.11
  -3  -5   6   22.48    1.78
  -3  -5   5   74.88    3.40
   3  -5  -5   76.79    3.56
   3  -5  -5   75.21    4.02
   3  -5  -4  174.63    7.05
  -3  -5   4  190.47    6.21
  -3  -5   4  191.95    7.41
   3  -5  -4  193.92    6.16
   3  -5  -3  134.73    5.03
  -3  -5   3  138.47    5.80
   3  -5  -3  137.94    5.17
   3  -5  -3  132.50    5.85
   3  -5  -2   13.18    1.44
   3  -5  -2   13.82    1.52
   3  -5  -2   14.61    1.10
  -3  -5   2   11.58    1.73
   3  -5  -2   13.28    1.96
   3  -5  -2   12.75    1.45
   3  -5  -1   38.58    2.50
  -3  -5   1   37.95    2.58
   3  -5  -1   40.65    1.98
   3  -5  -1   40.07    2.49
   3  -5  -1   40.27    2.39
  -3  -5   0  111.88    3.80
   3  -5   0  124.58    4.54
   3  -5   0  117.31    4.04
   3  -5   0  121.94    5.65
   3  -5   0  115.37    4.66
   3  -5   1  150.76    4.89
   3  -5   1  155.79    5.34
   3  -5   1  140.70    6.41
   3  -5   1  150.16    5.66
  -3  -5  -1  141.01    4.73
   3  -5   2   12.04    1.26
  -3  -5  -2   13.24    1.23
   3  -5   2   10.07    1.39
   3  -5   2    9.33    1.85
   3  -5   2   12.63    1.53
   3  -5   2   11.63    1.28
   3  -5   3    6.52    1.28
   3  -5   3    5.42    1.03
   3  -5   3    7.40    1.42
   3  -5   3    4.84    0.97
   3  -5   3    5.65    1.69
   3  -5   4   24.48    1.99
   3  -5   4   23.97    1.74
   3  -5   4   21.91    2.28
  -3  -5  -4   24.52    2.21
   3  -5   5   63.32    2.80
   3  -5   5   54.99    3.24
  -3  -5  -5   56.13    3.35
  -3  -5  -6   49.09    2.95
   3  -5   6   49.34    2.28
   3  -5   7    7.84    1.01
   3  -5   7    9.17    0.81
  -3  -5  -7    8.96    1.17
   3  -5   8   14.85    0.91
  -3  -4  11   36.00    1.51
  -3  -4  10   57.72    2.13
  -3  -4  10   61.33    2.54
  -3  -4   9  128.76    4.26
  -3  -4   9  130.63    4.61
   3  -4  -8    2.55    0.76
  -3  -4   8    2.37    0.96
   3  -4  -7    3.89    1.67
   3  -4  -7    2.18    0.83
  -3  -4   7    1.93    0.99
  -3  -4   6   80.59    3.64
   3  -4  -6   93.62    4.17
   3  -4  -6   91.76    4.93
   3  -4  -5  367.52   11.08
   3  -4  -5  375.11   10.54
   3  -4  -5  358.74   11.86
  -3  -4   5  375.34   10.48
   3  -4  -4  665.85   17.20
  -3  -4   4  661.92   18.19
   3  -4  -4  650.43   17.75
   3  -4  -4  657.16   18.39
  -3  -4   4  657.92   16.82
   3  -4  -3  370.17   10.23
  -3  -4   3  356.24   10.89
   3  -4  -3  351.35   10.77
  -3  -4   3  366.54    9.84
   3  -4  -2  490.61   13.38
   3  -4  -2  513.02   13.23
   3  -4  -2  501.35   14.07
   3  -4  -2  491.98   13.19
   3  -4  -1  669.37   17.64
   3  -4  -1  703.16   17.26
   3  -4  -1  668.84   16.68
   3  -4  -1  659.26   18.21
   3  -4  -1  691.92   17.38
   3  -4   0  791.81   20.82
   3  -4   0  814.87   19.91
   3  -4   0  813.67   21.63
   3  -4   0  831.45   20.42
   3  -4   0  818.40   20.68
   3  -4   0  825.05   19.98
   3  -4   1  220.52    6.49
   3  -4   1  208.63    6.82
  -3  -4  -1  204.24    5.98
   3  -4   1  204.44    6.04
   3  -4   1  203.92    6.06
   3  -4   1  210.64    7.55
   3  -4   2  161.44    5.67
  -3  -4  -2  161.07    5.08
   3  -4   2  158.67    5.18
   3  -4   2  164.84    6.51
   3  -4   2  158.55    5.39
  -3  -4  -3  186.04    5.58
   3  -4   3  172.11    5.45
   3  -4   3  158.64    5.53
   3  -4   3  170.98    6.74
   3  -4   3  170.29    5.92
  -3  -4  -3  168.04    6.39
   3  -4   4  155.95    5.47
  -3  -4  -4  154.47    6.25
   3  -4   4  152.76    6.15
   3  -4   4  147.26    5.01
   3  -4   4  141.01    5.17
   3  -4   5   37.33    2.11
  -3  -4  -5   33.61    2.90
   3  -4   5   36.71    2.39
   3  -4   5   32.77    2.17
   3  -4   6   63.81    3.17
   3  -4   6   62.48    2.78
  -3  -4  -6   71.36    4.09
   3  -4   7   50.85    2.62
   3  -4   7   52.37    2.20
  -3  -4  -7   54.99    3.36
   3  -4   8   18.21    1.31
  -3  -4  -8   19.68    1.79
  -3  -3  11   13.88    1.18
   3  -3 -10    1.47    0.72
   3  -3 -10    2.64    1.25
   3  -3  -9    7.54    1.83
  -3  -3   9    9.07    1.02
   3  -3  -9   10.11    1.58
   3  -3  -8   13.96    2.21
   3  -3  -8   14.07    1.83
  -3  -3   8   11.11    1.71
   3  -3  -8   14.45    1.15
   3  -3  -8   11.59    1.82
   3  -3  -7   35.76    2.70
   3  -3  -7   40.19    2.86
  -3  -3   7   34.90    2.69
   3  -3  -7   38.50    3.17
   3  -3  -6   10.11    1.11
   3  -3  -6    6.28    1.32
   3  -3  -6   10.81    1.61
  -3  -3   6    9.43    1.42
   3  -3  -5   44.97    2.24
  -3  -3   5   38.34    2.33
   3  -3  -5   41.25    2.69
   3  -3  -5   46.14    3.02
  -3  -3   4  138.30    4.63
   3  -3  -4  140.29    5.20
  -3  -3   3  202.85    5.68
   3  -3  -3  189.38    6.34
  -3  -3   3  188.99    5.52
  -3  -3   2   88.91    2.94
  -3  -3   2   84.25    2.73
   3  -3  -2   86.02    3.12
  -3  -3   1  177.27    4.74
   3  -3  -1  175.12    5.35
  -3  -3   0   48.16    1.76
   3  -3   0   39.87    1.71
   3  -3   1    8.45    0.86
  -3  -3  -1    9.44    0.77
   3  -3   2   46.09    2.22
   3  -3   2   45.58    2.00
  -3  -3  -2   45.27    1.95
   3  -3   3    4.43    0.89
   3  -3   3    4.29    0.80
   3  -3   3    4.32    0.86
  -3  -3  -3    4.05    1.06
  -3  -3  -3    4.28    0.70
   3  -3   4   34.35    1.89
  -3  -3  -4   37.11    2.06
  -3  -3  -4   37.62    2.71
   3  -3   4   33.18    2.09
  -3  -3  -5   14.95    2.00
   3  -3   5   15.18    1.31
  -3  -3  -5   13.87    1.38
   3  -3   5   16.56    1.63
  -3  -3  -6   84.48    4.67
   3  -3   6   82.36    3.66
   3  -3   6   76.56    3.11
   3  -3   7   70.72    3.32
  -3  -3  -7   72.99    4.32
   3  -3   8   21.72    1.46
  -3  -3  -8   21.37    1.34
   3  -3   9    4.63    0.63
  -3  -3  -9    5.39    1.07
  -3  -2  12   21.08    1.20
   3  -2 -11   40.80    2.51
   3  -2 -10   75.72    4.10
   3  -2 -10   67.63    4.06
   3  -2  -9  110.57    5.37
   3  -2  -9  114.25    5.71
  -3  -2   9   93.57    5.18
   3  -2  -9  107.93    5.39
  -3  -2   8  115.70    5.81
   3  -2  -8  129.09    6.03
   3  -2  -8  128.52    5.93
   3  -2  -8  129.74    5.93
   3  -2  -7   48.60    3.36
   3  -2  -7   52.72    3.68
  -3  -2   7   52.10    3.49
   3  -2  -7   50.27    3.36
  -3  -2   6   91.66    4.39
   3  -2  -6   97.12    4.81
   3  -2  -6   88.98    4.36
   3  -2  -6  100.51    4.58
   3  -2  -5  498.79   14.39
  -3  -2   5  493.24   13.75
   3  -2  -4  293.45    9.27
  -3  -2   4  290.20    8.52
  -3  -2   3 1263.88   30.29
   3  -2  -2  745.71   18.87
  -3  -2   2  778.29   19.06
  -3  -2   1 1222.35   28.82
  -3  -2   0  790.98   18.40
   3  -2   0  749.53   18.14
  -3  -2  -1 1731.16   40.68
  -3  -2  -2  544.44   13.74
  -3  -2  -3  262.35    7.38
   3  -2   3  254.80    7.27
   3  -2   4  125.21    4.34
   3  -2   4  124.70    3.98
  -3  -2  -4  129.64    5.20
  -3  -2  -4  119.40    4.38
   3  -2   5  189.63    5.62
  -3  -2  -5  187.90    6.35
   3  -2   5  191.06    6.12
  -3  -2  -6   78.71    4.48
  -3  -2  -6   86.12    3.93
   3  -2   6   86.85    3.66
  -3  -2  -7   57.53    3.85
   3  -2   7   58.61    2.91
   3  -2   8   47.31    2.41
  -3  -2  -8   54.69    3.54
  -3  -2  -8   59.02    3.18
   3  -2   9   19.35    1.14
  -3  -2  -9   18.34    1.34
  -3  -2  -9   20.92    1.43
  -3  -2  -9   19.49    1.87
  -3  -1  12    2.73    0.65
   3  -1 -11   42.95    2.91
   3  -1 -10   68.26    4.16
   3  -1 -10   54.44    3.45
   3  -1  -9    4.27    1.35
  -3  -1   9    5.53    1.70
   3  -1  -9    6.48    1.93
   3  -1  -9    6.13    1.90
   3  -1  -9    8.43    1.40
  -3  -1   8   32.37    3.01
   3  -1  -8   35.31    2.41
   3  -1  -8   33.38    3.09
   3  -1  -8   36.38    2.85
   3  -1  -7   17.37    2.21
  -3  -1   7   20.10    2.24
   3  -1  -7   18.14    1.64
   3  -1  -7   19.99    2.03
   3  -1  -7   22.85    2.66
   3  -1  -6   42.84    2.90
  -3  -1   6   40.11    2.85
   3  -1  -6   48.02    3.37
  -3  -1   5  180.41    6.32
   3  -1  -5  183.16    6.95
  -3  -1   4  600.70   15.71
  -3  -1   3  126.46    4.27
  -3  -1   2  495.49   13.02
  -3  -1   2  530.50   12.26
   3  -1  -2  515.69   12.41
  -3  -1   1 1305.30   30.77
  -3  -1   0  883.84   21.11
  -3  -1  -1  556.75   13.80
  -3  -1  -2   57.42    2.39
  -3  -1  -3  408.06   10.87
  -3  -1  -4  343.21    9.45
   3  -1   4  324.85    8.92
  -3  -1  -5   36.77    2.31
   3  -1   5   38.83    2.06
  -3  -1  -6   27.59    2.57
  -3  -1  -6   25.74    2.11
   3  -1   6   27.31    1.82
  -3  -1  -7   20.57    2.31
  -3  -1  -7   19.77    1.90
   3  -1   7   23.31    1.69
   3  -1   8   45.36    2.20
  -3  -1  -8   44.34    3.22
  -3  -1  -9   27.72    1.99
  -3  -1  -9   25.94    2.17
  -3  -1 -10    3.73    0.58
  -3  -1 -10    3.49    0.54
   3   0 -11   35.23    2.78
   3   0 -10    8.51    2.02
  -3   0   9   50.44    3.87
   3   0  -9   49.85    3.88
   3   0  -9   50.94    3.07
   3   0  -8  810.46   23.08
  -3   0   8  781.92   23.00
   3   0  -8  841.54   21.60
   3   0  -8  855.35   21.93
  -3   0   7 1222.19   32.89
   3   0  -7 1245.38   32.96
   3   0  -7 1328.36   33.85
   3   0  -7 1317.54   31.63
  -3   0   6  399.78   12.23
   3   0  -6  427.46   13.03
  -3   0   5   89.59    4.04
   3   0  -5   97.96    4.73
  -3   0   4  381.11   10.66
  -3   0   3   24.12    1.67
  -3   0   2  112.44    3.79
   3   0  -2  120.39    2.88
  -3   0   1  138.75    4.11
  -3   0   0    5.82    0.71
  -3   0  -1  155.27    4.55
  -3   0  -2 1299.95   31.12
  -3   0  -3  124.54    4.23
  -3   0  -4 1076.34   26.53
  -3   0  -5  224.08    7.48
  -3   0  -5  201.02    6.80
  -3   0  -6  122.96    5.41
  -3   0  -6  118.06    4.93
  -3   0  -7   32.47    2.72
  -3   0  -8   66.67    3.79
  -3   0  -9  136.33    4.99
  -3   0  -9  118.10    4.76
  -3   0 -10   15.46    1.11
   3   1 -11   37.60    2.78
   3   1 -10   60.37    3.97
   3   1  -9    6.53    1.91
   3   1  -9    6.86    1.79
  -3   1   9    3.89    1.65
   3   1  -9    7.48    1.34
   3   1  -8   32.86    3.09
  -3   1   8   33.47    3.08
   3   1  -8   37.52    2.49
   3   1  -7   20.92    2.31
  -3   1   7   15.75    2.16
   3   1  -7   22.37    2.61
   3   1  -7   21.84    1.75
  -3   1   6   42.90    2.96
   3   1  -6   49.78    3.52
   3   1  -6   47.75    3.08
   3   1  -5  192.51    7.11
  -3   1   5  179.52    6.45
   3   1  -4  636.75   17.02
  -3   1   4  609.18   16.14
  -3   1   3  137.10    4.54
  -3   1   2  490.12   12.42
  -3   1   1 1309.79   30.90
  -3   1   0  901.31   21.51
  -3   1  -1  573.47   14.18
  -3   1  -2   63.57    2.56
  -3   1  -3  395.40   10.59
  -3   1  -4  324.86    9.26
  -3   1  -5   40.31    2.42
  -3   1  -6   29.56    2.24
  -3   1  -6   32.10    2.49
  -3   1  -7   18.97    2.00
  -3   1  -7   19.46    1.88
  -3   1  -8   42.01    2.71
  -3   1  -9   29.12    2.03
  -3   1 -10    3.55    0.59
  -3   1 -10    5.60    0.65
   3   2 -11   37.91    2.46
   3   2 -10   75.32    4.17
   3   2  -9  108.75    5.42
   3   2  -9  116.88    5.78
  -3   2   9  103.89    5.45
   3   2  -8  122.17    5.89
   3   2  -8  127.84    5.92
  -3   2   8  115.07    5.68
   3   2  -7   43.57    3.16
   3   2  -7   43.59    3.44
  -3   2   7   42.52    3.17
   3   2  -7   42.09    2.46
   3   2  -6  102.62    5.01
  -3   2   6  100.77    4.63
   3   2  -6  101.73    4.64
   3   2  -5  497.57   14.36
  -3   2   5  493.83   13.75
  -3   2   4  293.60    8.57
   3   2  -4  291.21    9.28
  -3   2   3 1238.39   29.73
  -3   2   2  738.98   18.00
  -3   2   1 1224.91   28.93
  -3   2   0  792.91   19.01
  -3   2  -1 1690.31   39.79
  -3   2  -2  544.52   13.77
  -3   2  -3  282.84    7.96
  -3   2  -4  133.96    4.74
  -3   2  -5  182.72    6.24
  -3   2  -6   73.62    3.62
  -3   2  -8   57.13    3.22
  -3   2  -9   17.33    1.35
  -3   2  -9   17.14    1.35
   3   3 -10    3.51    1.06
   3   3  -9    5.94    1.41
   3   3  -8   14.04    1.86
   3   3  -7   40.57    2.90
  -3   3   7   37.91    2.76
   3   3  -7   38.22    2.84
  -3   3   6    8.50    1.37
   3   3  -6   10.89    1.72
  -3   3   5   42.54    2.45
   3   3  -5   41.42    2.70
  -3   3   4  134.91    4.59
   3   3  -4  142.18    5.14
   3   3  -3  179.83    5.94
  -3   3   3  183.57    5.31
  -3   3   2   83.74    2.73
  -3   3   1  179.06    4.82
  -3   3   0   49.99    1.91
  -3   3  -1    8.76    0.77
  -3   3  -2   45.23    1.98
  -3   3  -3    5.50    0.79
  -3   3  -4   31.32    1.93
  -3   3  -5   13.86    1.38
  -3   3  -7   84.22    3.86
  -3   3  -8   19.86    1.43
  -3   3  -8   20.88    1.46
   4  -8  -4   64.31    2.07
   4  -8  -3   36.30    1.43
   4  -8  -3   35.60    1.78
   4  -8  -2   36.34    1.43
   4  -8  -2   46.55    2.25
   4  -8  -1   82.30    3.33
   4  -8   1   13.22    1.16
   4  -7  -7    7.50    0.63
  -4  -7   7    7.07    0.61
  -4  -7   6   10.48    0.83
  -4  -7   5    2.32    0.57
   4  -7  -5    1.99    0.89
   4  -7  -4   30.35    2.24
  -4  -7   4    0.03    0.32
   4  -7  -3   20.87    2.17
   4  -7  -2    3.45    0.79
   4  -7  -2    2.51    1.36
   4  -7  -1   50.04    2.40
   4  -7   0   20.44    1.40
   4  -7   0   22.46    1.36
   4  -7   1   21.97    1.37
   4  -7   1   23.02    2.23
   4  -7   1   22.58    1.62
   4  -7   2   56.81    3.10
   4  -7   2   51.02    2.15
   4  -7   2   49.03    2.32
   4  -7   3   25.89    1.40
   4  -7   3   25.71    1.48
   4  -7   3   30.26    1.93
  -4  -6   9   45.56    1.64
   4  -6  -8   45.14    1.84
  -4  -6   8   49.73    2.00
   4  -6  -7  131.74    4.34
  -4  -6   6   81.19    3.17
   4  -6  -6   84.64    3.91
  -4  -6   5   77.79    3.07
   4  -6  -5   69.02    3.93
   4  -6  -4   28.62    2.76
   4  -6  -4   33.36    2.27
  -4  -6   4   32.13    1.84
   4  -6  -3   59.18    3.09
  -4  -6   3   58.12    2.46
   4  -6  -3   56.72    3.84
   4  -6  -2   35.94    2.37
   4  -6  -2   34.74    2.44
   4  -6  -2   36.42    3.21
   4  -6  -1   84.54    3.29
   4  -6  -1   85.67    4.06
   4  -6  -1   82.62    4.83
   4  -6  -1   87.03    3.93
   4  -6  -1   84.30    3.80
   4  -6   0   56.76    2.99
   4  -6   0   55.95    2.96
   4  -6   0   58.54    2.65
   4  -6   0   61.02    4.09
   4  -6   1  100.61    4.17
   4  -6   1   91.12    3.81
   4  -6   1   97.19    3.73
   4  -6   2  163.96    5.72
   4  -6   2  154.50    5.13
   4  -6   2  165.93    6.82
   4  -6   2  167.52    5.36
   4  -6   3  401.46   12.05
   4  -6   3  394.12   11.08
   4  -6   4  169.82    5.84
   4  -6   4  174.92    5.29
   4  -6   4  164.48    5.48
   4  -6   5   28.02    1.64
   4  -6   5   27.85    1.48
  -4  -5  10    4.15    0.49
   4  -5  -9    0.05    0.24
  -4  -5   9    2.50    0.64
   4  -5  -8    1.22    0.60
  -4  -5   8    1.55    0.72
   4  -5  -7   11.83    1.58
   4  -5  -6   13.74    1.81
  -4  -5   6   14.36    1.36
   4  -5  -5    0.34    0.82
   4  -5  -5    0.12    1.15
  -4  -5   5    0.27    0.69
   4  -5  -4  118.57    5.51
   4  -5  -4  120.11    4.63
   4  -5  -3   55.79    3.03
   4  -5  -3   51.86    2.92
   4  -5  -3   50.76    3.51
   4  -5  -2   18.40    1.82
   4  -5  -2   17.83    1.34
   4  -5  -2   19.37    1.80
   4  -5  -1  121.72    4.70
   4  -5  -1  111.86    4.79
   4  -5  -1  113.62    4.02
   4  -5  -1  113.33    5.56
   4  -5  -1  109.23    4.56
   4  -5   0   82.49    4.02
   4  -5   0   82.20    3.33
   4  -5   0   91.94    3.88
   4  -5   0   82.93    4.70
   4  -5   0   81.66    3.84
   4  -5   1   64.86    3.20
   4  -5   1   55.50    3.26
   4  -5   1   62.97    2.84
   4  -5   1   62.72    4.07
   4  -5   1   56.35    3.16
   4  -5   2   37.17    2.48
   4  -5   2   39.38    2.61
   4  -5   2   40.07    3.20
   4  -5   2   36.79    2.56
   4  -5   3   52.14    2.63
   4  -5   3   52.42    3.51
   4  -5   4   37.16    2.14
   4  -5   4   35.44    2.57
  -4  -5  -4   35.74    2.43
   4  -5   5   42.35    2.12
   4  -5   5   40.88    2.36
  -4  -5  -5   39.18    2.47
   4  -5   6   52.49    1.94
   4  -5   6   56.33    2.32
   4  -5   7   14.08    0.98
  -4  -4  11   31.69    1.33
  -4  -4  10   70.86    2.54
  -4  -4  10   75.79    2.82
  -4  -4   9   38.24    1.94
  -4  -4   9   31.58    1.92
   4  -4  -8   77.44    3.07
   4  -4  -7   57.97    3.28
  -4  -4   7   52.44    2.77
   4  -4  -6  226.97    7.00
   4  -4  -6  214.76    7.66
  -4  -4   6  204.99    6.65
  -4  -4   5  192.68    6.05
   4  -4  -5  194.32    7.12
   4  -4  -5  197.81    6.54
   4  -4  -4  672.86   17.61
   4  -4  -4  678.97   17.78
   4  -4  -4  690.53   18.53
  -4  -4   4  669.79   17.07
   4  -4  -3  297.67    9.11
   4  -4  -3  308.67    9.11
   4  -4  -3  309.64    9.77
   4  -4  -2  200.21    6.93
   4  -4  -2  215.07    6.76
   4  -4  -2  216.87    6.13
   4  -4  -2  207.57    7.43
   4  -4  -2  212.85    6.64
   4  -4  -1  286.46    8.38
   4  -4  -1  271.46    8.75
   4  -4  -1  275.66    8.35
   4  -4  -1  299.69    9.45
   4  -4  -1  284.81    7.83
   4  -4   0  559.84   14.26
   4  -4   0  553.61   15.27
   4  -4   0  572.29   15.99
   4  -4   0  573.28   14.78
   4  -4   0  534.41   14.82
   4  -4   1  602.01   15.67
   4  -4   1  551.88   14.31
   4  -4   1  573.44   16.46
   4  -4   2   71.72    3.27
   4  -4   2   74.62    3.03
   4  -4   2   67.80    3.40
   4  -4   2   68.74    3.94
   4  -4   2   62.14    2.70
   4  -4   3   31.68    2.19
   4  -4   3   31.76    2.19
   4  -4   3   31.54    2.65
  -4  -4  -3   31.18    2.50
   4  -4   3   31.79    1.97
   4  -4   4   20.26    1.83
   4  -4   4   22.80    1.67
  -4  -4  -4   19.34    2.22
   4  -4   5   64.33    3.19
   4  -4   5   66.35    2.89
  -4  -4  -5   65.11    3.86
   4  -4   6   39.56    2.30
   4  -4   6   40.52    1.98
  -4  -4  -6   38.65    2.84
   4  -4   7   53.05    2.34
  -4  -4  -7   48.07    2.84
  -4  -4  -8   27.62    1.57
  -4  -3  11    9.83    1.02
  -4  -3  10   27.15    1.47
   4  -3 -10   28.11    2.05
   4  -3  -9   13.76    1.82
   4  -3  -9   16.16    2.30
  -4  -3   8   39.01    2.78
   4  -3  -8   44.73    3.18
   4  -3  -8   44.77    3.12
   4  -3  -8   45.12    3.56
   4  -3  -7   13.78    1.87
  -4  -3   7   13.44    1.68
   4  -3  -7   16.70    2.10
   4  -3  -7   15.17    2.24
   4  -3  -6   40.61    2.79
  -4  -3   6   41.95    2.63
   4  -3  -6   51.48    3.34
   4  -3  -6   48.47    2.38
  -4  -3   5   12.72    1.37
   4  -3  -5   13.82    1.32
   4  -3  -5   11.16    1.85
   4  -3  -5   14.45    1.93
  -4  -3   5   12.58    1.20
   4  -3  -4  119.39    5.30
  -4  -3   4  133.05    4.14
  -4  -3   4  125.23    4.44
   4  -3  -3   26.16    1.81
  -4  -3   3   21.97    1.41
  -4  -3   3   25.72    1.36
   4  -3  -3   23.28    1.51
  -4  -3   2  145.51    4.37
   4  -3  -2  140.67    4.59
  -4  -3   1   17.45    1.09
   4  -3   0   59.32    2.44
   4  -3   0   63.29    2.69
   4  -3   0   60.24    2.20
   4  -3   1   49.55    2.40
   4  -3   1   50.24    2.69
   4  -3   1   54.05    2.26
  -4  -3  -1   54.49    2.27
   4  -3   1   47.46    2.03
   4  -3   2   14.89    1.39
   4  -3   2   14.41    1.51
  -4  -3  -2   16.38    1.61
   4  -3   2   16.99    1.29
   4  -3   2   19.86    1.88
  -4  -3  -2   16.74    1.27
   4  -3   2   15.66    1.21
   4  -3   3   16.77    1.53
   4  -3   3   18.64    1.57
   4  -3   3   17.82    1.41
  -4  -3  -3   21.25    2.02
  -4  -3  -3   18.56    1.43
  -4  -3  -3   17.17    1.38
  -4  -3  -4   48.83    3.27
   4  -3   4   48.42    2.64
  -4  -3  -4   48.76    2.53
   4  -3   4   50.25    2.44
  -4  -3  -4   49.04    2.56
   4  -3   5   19.89    1.76
  -4  -3  -5   20.84    2.36
   4  -3   5   22.62    1.58
  -4  -3  -5   23.27    1.74
  -4  -3  -6   11.64    1.89
  -4  -3  -6   13.83    1.36
   4  -3   6   14.30    1.18
   4  -3   6   12.46    1.41
   4  -3   7   35.14    1.86
  -4  -3  -7   37.59    2.73
   4  -3   8   26.07    1.37
   4  -2 -11   33.16    2.36
   4  -2 -10   87.19    4.49
   4  -2 -10   77.05    4.34
   4  -2  -9  129.04    6.19
  -4  -2   9  127.13    5.91
   4  -2  -9  126.45    6.00
   4  -2  -9  131.91    6.13
   4  -2  -8   58.74    3.92
   4  -2  -8   66.56    4.45
  -4  -2   8   51.91    3.67
   4  -2  -8   64.61    4.03
   4  -2  -7  145.37    6.28
   4  -2  -7  149.56    6.81
  -4  -2   7  142.91    6.17
   4  -2  -7  150.28    6.37
   4  -2  -6  133.43    6.21
  -4  -2   6  129.17    5.41
   4  -2  -6  138.22    5.76
  -4  -2   5  560.81   15.53
   4  -2  -5  600.55   16.97
  -4  -2   4  397.86   11.02
  -4  -2   3  565.34   13.54
   4  -2  -3  555.67   13.78
  -4  -2   3  558.62   14.42
  -4  -2   2 1544.30   36.52
   4  -2  -2 1534.27   36.18
  -4  -2   1  679.73   16.77
  -4  -2   0  452.55   10.96
   4  -2   0  407.83   10.16
  -4  -2  -1  327.99    9.07
   4  -2   2  263.73    7.22
   4  -2   2  254.16    7.39
  -4  -2  -2  277.42    7.73
   4  -2   3   10.36    1.13
   4  -2   3   11.23    1.02
  -4  -2  -3   10.34    1.19
  -4  -2  -3   10.38    1.12
   4  -2   4   41.93    2.28
   4  -2   4   43.45    2.07
  -4  -2  -4   39.67    2.87
  -4  -2  -4   42.56    2.44
   4  -2   5  102.70    3.97
  -4  -2  -5   99.84    5.00
   4  -2   5   94.17    3.46
  -4  -2  -5   96.76    4.22
   4  -2   6  179.78    5.93
  -4  -2  -7   46.28    3.34
   4  -2   7   47.38    2.36
  -4  -2  -8   52.19    2.46
  -4  -2  -8   56.04    2.73
  -4  -2  -8   50.97    3.11
  -4  -2  -9    8.39    1.05
   4  -1 -12   11.65    1.32
   4  -1 -11    0.33    1.28
   4  -1 -10   11.19    1.73
   4  -1 -10   16.90    2.33
   4  -1  -9   27.75    2.95
  -4  -1   9   26.51    2.74
   4  -1  -9   23.58    2.38
   4  -1  -8   52.76    3.91
   4  -1  -8   55.09    4.25
  -4  -1   8   54.80    3.84
   4  -1  -8   55.11    3.52
   4  -1  -7    3.88    1.29
   4  -1  -7    3.68    1.49
  -4  -1   7    2.36    1.29
   4  -1  -7    2.77    1.65
   4  -1  -6   16.77    1.98
   4  -1  -6   13.82    2.17
  -4  -1   6   16.65    1.94
   4  -1  -5  122.24    5.77
  -4  -1   5  120.55    4.91
  -4  -1   4  322.31    9.31
  -4  -1   3  304.45    8.75
  -4  -1   3  314.97    7.56
  -4  -1   2   31.17    1.74
  -4  -1   1  155.31    4.77
  -4  -1   0  644.60   16.03
  -4  -1  -1  172.86    5.36
  -4  -1  -2  193.06    6.05
   4  -1   3    2.62    0.64
  -4  -1  -3    2.42    0.73
  -4  -1  -3    3.36    0.85
  -4  -1  -4  115.54    4.46
  -4  -1  -4  111.39    4.26
   4  -1   4  107.01    3.84
   4  -1   5   44.70    2.26
  -4  -1  -5   46.82    3.22
  -4  -1  -5   38.22    2.52
   4  -1   6   28.77    1.81
  -4  -1  -6   31.84    2.75
  -4  -1  -6   29.74    2.30
  -4  -1  -7   49.27    3.37
  -4  -1  -8   56.63    3.33
  -4  -1  -9   20.97    1.34
  -4  -1  -9   19.59    1.34
  -4  -1  -9   19.53    1.52
   4   0 -12   32.56    2.15
   4   0 -11   26.79    2.52
   4   0 -10   21.81    2.65
   4   0  -9  101.78    5.63
  -4   0   9   94.78    5.38
   4   0  -8  261.06    9.65
   4   0  -8  265.12   10.24
  -4   0   8  235.52    9.30
   4   0  -7  282.40    9.72
   4   0  -7  273.02   10.30
  -4   0   7  267.99    9.51
   4   0  -6  703.66   19.19
   4   0  -6  734.16   20.49
  -4   0   6  694.25   19.27
   4   0  -5   29.67    2.89
  -4   0   5   36.39    2.46
  -4   0   4   93.41    3.84
  -4   0   3  753.48   18.94
  -4   0   2 1190.90   28.33
   4   0  -2 1172.60   27.09
  -4   0   1  104.62    3.60
  -4   0   0   31.88    1.70
  -4   0  -1  186.30    5.63
  -4   0  -2 1470.71   35.47
  -4   0  -3 1409.24   34.21
  -4   0  -3 1406.33   34.00
  -4   0  -4  563.96   15.34
  -4   0  -4  577.92   15.17
  -4   0  -5  341.01   10.62
  -4   0  -5  381.78   11.45
  -4   0  -6   11.40    1.82
  -4   0  -7   15.65    2.00
  -4   0  -8   18.64    1.93
  -4   0  -9   13.24    1.20
  -4   0  -9   10.86    1.06
   4   1 -12    9.11    1.25
   4   1 -11    0.67    1.20
   4   1 -10   15.16    2.27
   4   1  -9   27.83    2.98
  -4   1   9   25.06    2.73
   4   1  -8   54.65    3.94
   4   1  -8   53.91    4.23
  -4   1   8   46.72    3.60
   4   1  -7    4.36    1.56
  -4   1   7    2.49    1.30
   4   1  -7    3.11    1.58
   4   1  -6   18.56    2.05
   4   1  -6   15.49    2.29
  -4   1   6   15.68    1.92
   4   1  -5  123.78    5.77
  -4   1   5  117.70    4.83
  -4   1   4  315.49    9.20
  -4   1   3  282.09    8.13
  -4   1   2   33.71    1.83
  -4   1   1  153.76    4.75
  -4   1   0  665.60   16.52
  -4   1  -1  167.12    5.23
  -4   1  -2  198.21    6.18
  -4   1  -3    1.62    0.71
  -4   1  -3    1.38    0.65
  -4   1  -4  111.29    4.48
  -4   1  -4  116.39    4.40
  -4   1  -5   46.15    2.79
  -4   1  -6   31.02    2.54
  -4   1  -6   27.28    2.22
  -4   1  -7   43.02    2.91
  -4   1  -8   49.80    2.70
  -4   1  -9   20.20    1.35
  -4   1  -9   23.12    1.44
   4   2 -11   27.99    2.20
   4   2 -10   87.87    4.59
   4   2  -9  124.88    5.99
   4   2  -9  125.60    6.07
  -4   2   9  118.06    5.70
   4   2  -8   57.68    3.92
   4   2  -8   61.23    4.29
  -4   2   8   56.43    3.79
   4   2  -7  152.62    6.54
   4   2  -7  166.06    7.17
  -4   2   7  150.59    6.33
   4   2  -6  137.79    5.66
  -4   2   6  122.58    5.27
   4   2  -6  128.98    6.06
  -4   2   5  592.33   16.10
   4   2  -5  610.52   17.38
  -4   2   4  416.06   11.47
  -4   2   3  552.18   14.28
  -4   2   2 1513.42   35.98
  -4   2   1  639.68   15.91
  -4   2   0  476.52   12.17
  -4   2  -1  338.15    9.32
  -4   2  -2  278.40    8.05
  -4   2  -3    6.35    0.93
  -4   2  -3    5.14    0.93
  -4   2  -4   43.13    2.50
  -4   2  -5  102.93    4.40
  -4   2  -6  176.20    6.43
  -4   2  -8   50.41    2.53
  -4   2  -8   60.93    2.87
   4   3 -10   29.97    2.21
   4   3  -9   18.42    2.06
   4   3  -8   39.22    2.98
   4   3  -7   13.21    1.82
  -4   3   7   12.33    1.59
   4   3  -7   16.09    2.11
  -4   3   6   42.14    2.64
   4   3  -6   46.25    3.23
  -4   3   5   11.67    1.32
   4   3  -5   10.50    1.65
   4   3  -4  121.06    5.26
  -4   3   4  132.31    4.50
  -4   3   3   21.99    1.43
  -4   3   2  142.35    4.41
  -4   3   1   18.37    1.15
  -4   3   0   71.56    2.77
  -4   3  -1   52.74    2.32
  -4   3  -2   16.83    1.29
  -4   3  -3   19.50    1.51
  -4   3  -3   16.43    1.38
  -4   3  -4   49.85    2.63
  -4   3  -6   14.48    1.47
  -4   3  -7   32.98    1.94
  -4   3  -7   41.23    2.31
   5  -8  -2   11.57    0.99
   5  -7  -7    2.68    0.39
   5  -7  -6   14.76    1.00
  -5  -7   6   13.71    0.82
  -5  -7   5    0.02    0.24
   5  -7  -5    6.90    1.16
   5  -7  -4    2.62    1.17
   5  -7  -3    2.52    0.78
   5  -7  -3    2.04    1.13
   5  -7  -2    3.35    0.77
   5  -7  -1   15.53    1.24
   5  -7  -1   18.74    2.09
   5  -7   0    1.18    0.49
   5  -7   0    1.85    1.22
   5  -7   1   15.55    1.66
   5  -7   2    5.86    0.80
   5  -7   2    7.18    1.04
  -5  -6   9   10.38    0.67
   5  -6  -8   33.91    1.45
  -5  -6   7   30.81    1.47
   5  -6  -7   28.27    1.46
  -5  -6   6    2.86    0.74
   5  -6  -6    2.46    1.06
   5  -6  -5   52.37    2.68
   5  -6  -5   45.63    3.23
   5  -6  -4  230.53    8.68
   5  -6  -4  241.83    7.57
   5  -6  -3  221.49    7.12
   5  -6  -3  217.18    7.09
  -5  -6   3  205.75    6.00
   5  -6  -3  219.72    8.35
   5  -6  -2  141.87    5.44
   5  -6  -2  139.96    6.42
   5  -6  -2  140.55    5.28
   5  -6  -1   87.62    4.06
   5  -6  -1   91.14    4.04
   5  -6  -1   83.57    3.79
   5  -6  -1   88.43    4.90
   5  -6   0   50.01    2.91
   5  -6   0   49.35    2.80
   5  -6   0   45.33    2.57
   5  -6   0   46.80    2.35
   5  -6   0   49.24    3.58
   5  -6   1   85.96    3.73
   5  -6   1   77.65    3.33
   5  -6   1   85.52    3.36
   5  -6   1   83.68    4.49
   5  -6   2  115.04    4.37
   5  -6   2  107.46    3.76
   5  -6   2  112.77    3.99
   5  -6   2  114.63    4.98
   5  -6   3   80.74    3.09
   5  -6   3   79.50    3.50
   5  -6   3   84.00    3.37
   5  -6   4   46.46    1.97
   5  -6   5   15.51    0.99
  -5  -5  10   24.35    1.08
  -5  -5   9   22.12    1.31
   5  -5  -8    5.52    0.79
   5  -5  -8    4.64    1.03
   5  -5  -7   77.64    3.93
   5  -5  -6   42.02    2.47
   5  -5  -6   40.36    2.98
   5  -5  -5   24.76    1.78
   5  -5  -5   24.30    2.47
   5  -5  -4    1.72    0.85
   5  -5  -4    0.82    1.27
   5  -5  -3    1.28    0.98
   5  -5  -3    2.18    0.99
   5  -5  -2    0.35    0.69
   5  -5  -2   -0.09    0.98
   5  -5  -2    0.80    0.97
   5  -5  -2    0.14    1.39
   5  -5  -1   35.01    2.07
   5  -5  -1   33.18    3.05
   5  -5  -1   36.77    2.49
   5  -5  -1   37.03    2.41
   5  -5   0   33.82    2.38
   5  -5   0   35.77    2.58
   5  -5   0   31.24    1.99
   5  -5   0   33.55    3.07
   5  -5   0   30.05    2.25
   5  -5   1   45.70    2.88
   5  -5   1   47.99    2.50
   5  -5   1   46.49    3.48
   5  -5   1   45.04    2.75
   5  -5   2   32.57    2.36
   5  -5   2   36.79    2.18
   5  -5   2   35.00    2.86
   5  -5   3   64.53    3.17
   5  -5   3   66.61    2.96
   5  -5   3   61.96    3.45
   5  -5   4   17.09    1.62
   5  -5   4   19.22    1.48
   5  -5   5   26.09    1.72
   5  -5   5   27.36    1.51
   5  -5   6   28.87    1.46
  -5  -4  10    0.04    0.32
  -5  -4  10  108.37    2.38
  -5  -4   9  125.72    4.11
   5  -4  -8   91.06    3.37
   5  -4  -8   98.33    4.35
  -5  -4   8   92.24    3.41
   5  -4  -7   85.76    4.32
   5  -4  -6  231.60    7.31
   5  -4  -6  229.25    8.23
   5  -4  -5  281.93    8.35
   5  -4  -5  257.68    8.34
   5  -4  -5  278.11    9.32
   5  -4  -4   59.65    3.18
   5  -4  -4   66.91    3.79
   5  -4  -3  208.93    6.97
   5  -4  -3  201.20    7.03
   5  -4  -3  212.87    7.70
   5  -4  -2   74.19    3.48
   5  -4  -2   73.98    3.69
   5  -4  -2   73.68    3.00
   5  -4  -2   78.25    4.14
   5  -4  -2   68.38    3.20
   5  -4  -1  469.70   12.31
   5  -4  -1  483.56   14.08
   5  -4  -1  451.38   12.72
   5  -4   0  270.73    8.21
   5  -4   0  269.08    8.72
   5  -4   0  259.23    7.70
   5  -4   0  275.14    9.31
   5  -4   0  257.05    8.19
   5  -4   1  152.33    5.40
   5  -4   1  139.13    5.61
   5  -4   1  145.00    4.98
   5  -4   1  146.04    6.19
  -5  -4  -2  100.07    4.50
   5  -4   2  106.87    4.33
   5  -4   2  105.91    4.03
   5  -4   2  105.52    5.00
   5  -4   2  102.15    4.45
  -5  -4  -3   16.85    1.91
   5  -4   3   14.54    1.53
   5  -4   3   17.13    1.51
   5  -4   3   17.07    1.73
   5  -4   4    6.62    1.23
  -5  -4  -4    5.56    1.36
   5  -4   4    7.09    1.04
   5  -4   5   48.78    2.57
   5  -4   5   49.00    2.30
  -5  -4  -5   54.59    3.22
   5  -4   6   70.44    2.83
  -5  -4  -6   66.14    3.29
  -5  -4  -7   35.46    1.83
  -5  -3  11    6.43    0.83
   5  -3 -10    0.16    0.69
   5  -3  -9   22.70    2.23
   5  -3  -8   23.96    2.41
   5  -3  -7   17.00    1.36
  -5  -3   7   15.34    1.75
   5  -3  -7   14.35    1.94
   5  -3  -7   16.49    2.25
   5  -3  -6    0.89    1.10
   5  -3  -6    1.08    0.73
  -5  -3   6    0.56    0.80
   5  -3  -6    0.14    1.22
  -5  -3   6    0.65    0.58
   5  -3  -5   80.57    3.89
   5  -3  -5   90.27    3.65
   5  -3  -5   79.87    4.57
  -5  -3   5   77.21    3.54
  -5  -3   5   83.02    2.93
   5  -3  -4   69.21    3.28
  -5  -3   4   65.62    3.00
  -5  -3   4   67.98    2.47
   5  -3  -3   22.81    1.85
  -5  -3   3   19.08    1.42
   5  -3  -3   18.92    1.40
   5  -3  -2   37.65    1.91
   5  -3  -2   34.74    2.15
   5  -3  -2   36.49    2.41
   5  -3  -2   41.92    2.66
  -5  -3   2   39.26    1.98
   5  -3  -2   38.17    2.02
   5  -3  -1   11.33    1.25
   5  -3  -1   11.19    1.46
   5  -3  -1   12.26    1.13
   5  -3  -1   10.39    1.43
  -5  -3   1   12.51    1.09
   5  -3   0   56.31    3.13
   5  -3   0   58.44    2.78
   5  -3   0   54.73    3.18
   5  -3   1  101.38    3.96
   5  -3   1  103.13    4.39
  -5  -3  -1  105.08    4.31
   5  -3   1  104.25    3.76
   5  -3   1   99.10    4.52
  -5  -3  -1  102.30    3.86
   5  -3   2  211.44    6.69
  -5  -3  -2  207.73    7.32
   5  -3   2  214.78    7.08
  -5  -3  -2  215.10    6.55
   5  -3   2  211.93    6.41
  -5  -3  -2  195.28    6.45
  -5  -3  -2  208.70    6.35
   5  -3   3   16.63    1.56
  -5  -3  -3   15.52    1.87
   5  -3   3   15.21    1.50
  -5  -3  -3   17.59    1.52
   5  -3   3   15.53    1.41
  -5  -3  -3   14.52    1.39
   5  -3   4   14.32    1.49
  -5  -3  -4   15.29    2.06
   5  -3   4   14.97    1.37
  -5  -3  -4   13.94    1.42
   5  -3   5   10.14    1.29
  -5  -3  -5   12.88    1.30
   5  -3   5   11.37    1.13
  -5  -3  -5   10.12    1.76
   5  -3   6   28.30    1.67
  -5  -3  -6   31.37    2.49
   5  -3   7   14.52    1.04
  -5  -3  -7   18.63    1.81
  -5  -3  -8   13.76    1.06
   5  -2 -12   25.05    1.44
  -5  -2  12   29.74    1.43
   5  -2 -11   48.38    2.86
   5  -2 -10   62.77    3.87
   5  -2  -9  175.01    7.24
  -5  -2   9  160.40    6.68
   5  -2  -8  113.82    5.57
  -5  -2   8  102.08    5.06
   5  -2  -8  109.02    5.96
   5  -2  -7  201.84    7.76
  -5  -2   7  188.69    7.23
   5  -2  -7  191.38    8.28
   5  -2  -6  480.34   13.79
  -5  -2   6  444.59   13.30
   5  -2  -6  464.49   14.89
  -5  -2   5  211.57    7.14
   5  -2  -5  217.86    7.46
   5  -2  -5  201.55    8.34
  -5  -2   5  210.30    5.76
  -5  -2   4  351.49    8.68
  -5  -2   4  343.64   10.03
  -5  -2   3   37.30    2.14
   5  -2  -3   33.25    1.58
  -5  -2   2  438.85   11.52
   5  -2  -2  420.60   10.92
  -5  -2   1  320.75    8.92
   5  -2   0  547.06   14.38
   5  -2   0  560.22   14.24
  -5  -2   0  596.66   14.72
   5  -2   1  196.26    6.04
  -5  -2  -1  197.90    6.23
   5  -2   1  192.51    6.56
   5  -2   1  195.67    5.90
  -5  -2  -2   76.85    3.34
   5  -2   2   79.57    3.51
   5  -2   2   76.03    3.02
  -5  -2  -2   80.90    3.49
   5  -2   2   76.20    3.14
  -5  -2  -2   82.33    3.39
  -5  -2  -3  169.54    5.87
   5  -2   3  172.08    5.37
  -5  -2  -3  170.42    5.93
  -5  -2  -3  167.49    5.73
   5  -2   3  168.53    5.55
  -5  -2  -4  178.48    7.02
   5  -2   4  176.88    5.75
  -5  -2  -4  180.12    6.17
   5  -2   4  167.20    5.40
  -5  -2  -4  167.09    6.08
   5  -2   5   66.04    3.01
  -5  -2  -5   67.35    4.06
  -5  -2  -5   70.33    3.45
  -5  -2  -5   63.13    3.31
   5  -2   6   69.23    2.89
  -5  -2  -6   64.25    3.23
  -5  -2  -7   45.52    2.32
  -5  -2  -7   47.19    3.05
  -5  -2  -8   22.47    1.25
  -5  -2  -8   27.45    1.87
   5  -1 -12   33.06    2.09
   5  -1 -11   31.28    2.57
   5  -1 -10   13.15    2.18
  -5  -1   9   30.77    2.82
   5  -1  -9   34.87    3.47
   5  -1  -9   36.59    3.31
   5  -1  -8   70.42    4.48
  -5  -1   8   61.61    4.01
   5  -1  -8   66.20    4.78
  -5  -1   7   99.13    4.87
   5  -1  -7   94.90    5.68
   5  -1  -6   99.26    4.75
  -5  -1   6   95.82    4.57
   5  -1  -6   97.49    5.65
   5  -1  -5   91.92    4.26
  -5  -1   5   86.46    4.01
  -5  -1   4   16.15    1.60
  -5  -1   3   64.69    2.94
   5  -1  -3   62.18    1.97
  -5  -1   2  143.39    4.87
  -5  -1   1   74.03    3.04
  -5  -1   0   92.59    3.54
  -5  -1  -1   13.43    1.27
  -5  -1  -1   13.81    1.41
   5  -1   2   19.01    1.28
  -5  -1  -2   18.36    1.57
   5  -1   2   17.02    1.23
  -5  -1  -2   18.39    1.65
  -5  -1  -2   16.71    1.47
   5  -1   3  108.92    3.89
   5  -1   3  111.85    3.83
  -5  -1  -3  120.68    4.68
  -5  -1  -3  123.03    4.54
  -5  -1  -4  191.92    6.73
  -5  -1  -5   25.98    2.09
  -5  -1  -5   28.30    2.65
  -5  -1  -6   90.13    4.72
  -5  -1  -7   41.62    2.95
  -5  -1  -7   43.43    2.51
  -5  -1  -8    7.16    1.00
  -5  -1  -8    7.04    0.90
  -5  -1  -8    6.36    1.15
   5   0 -12   89.92    3.84
   5   0 -11    0.48    1.26
   5   0 -10   11.75    2.27
   5   0  -9    4.75    2.01
   5   0  -9    6.12    2.04
  -5   0   9    4.55    1.53
  -5   0   8   59.78    3.94
   5   0  -8   69.11    4.88
   5   0  -8   63.29    4.27
   5   0  -7   94.72    4.94
  -5   0   7   87.60    4.64
   5   0  -7   92.90    5.68
   5   0  -6  142.83    5.79
  -5   0   6  120.32    5.32
   5   0  -6  132.19    6.68
   5   0  -5  360.13   10.69
  -5   0   5  330.15   10.23
  -5   0   4  635.62   16.82
  -5   0   3  982.26   24.44
  -5   0   2 1292.74   31.40
  -5   0   1  148.88    4.94
  -5   0   0    8.43    1.04
  -5   0  -1  259.87    7.84
  -5   0  -2  584.07   15.84
  -5   0  -2  632.18   16.23
  -5   0  -3  569.29   15.34
  -5   0  -3  556.30   15.04
  -5   0  -4  443.45   12.86
  -5   0  -4  451.24   12.62
  -5   0  -5   43.54    3.15
  -5   0  -6    1.63    1.24
  -5   0  -7    4.10    1.25
  -5   0  -8   46.07    2.47
   5   1 -12   32.80    2.09
   5   1 -11   35.68    2.79
   5   1 -10   16.85    2.42
   5   1  -9   39.92    3.47
  -5   1   9   36.05    3.10
   5   1  -9   42.53    3.82
   5   1  -8   65.53    4.39
  -5   1   8   63.95    4.01
   5   1  -8   66.61    4.78
  -5   1   7   94.17    4.78
   5   1  -7  104.82    5.94
  -5   1   6   80.52    4.21
   5   1  -6   87.63    5.33
   5   1  -5   96.29    4.39
  -5   1   5   91.04    4.17
  -5   1   4   14.47    1.57
  -5   1   3   61.57    2.92
  -5   1   2  151.26    5.06
  -5   1   1   74.27    3.08
  -5   1   0   97.10    3.67
  -5   1  -1   13.31    1.26
  -5   1  -1   14.45    1.44
  -5   1  -2   21.70    1.68
  -5   1  -2   23.44    1.82
  -5   1  -3  130.23    4.98
  -5   1  -3  123.45    4.71
  -5   1  -4  185.07    6.62
  -5   1  -5   29.44    2.25
  -5   1  -6   82.86    4.23
  -5   1  -7   40.46    2.62
  -5   1  -7   42.73    2.52
  -5   1  -8    6.86    1.06
  -5   1  -8    6.74    0.90
   5   2 -12   23.08    1.43
   5   2 -11   38.92    2.59
   5   2 -10   61.60    3.85
   5   2  -9  177.94    7.48
  -5   2   9  170.99    6.95
   5   2  -8  109.70    5.51
   5   2  -8  116.28    6.05
   5   2  -7  207.38    7.91
  -5   2   7  184.15    7.16
   5   2  -7  199.30    8.40
   5   2  -6  454.02   13.29
  -5   2   6  429.21   12.85
   5   2  -6  435.66   14.38
  -5   2   5  214.33    7.25
   5   2  -5  216.75    7.51
   5   2  -5  212.80    8.55
  -5   2   4  335.37    9.77
  -5   2   3   35.98    2.12
  -5   2   2  434.62   11.69
  -5   2   1  334.14    9.26
  -5   2   0  602.48   15.53
  -5   2  -1  206.23    6.43
  -5   2  -1  199.19    6.39
  -5   2  -2   76.98    3.38
  -5   2  -2   79.22    3.50
  -5   2  -2   79.21    3.36
  -5   2  -3  175.74    6.15
  -5   2  -3  176.23    6.17
  -5   2  -3  182.03    6.02
  -5   2  -4  165.78    5.89
  -5   2  -4  150.23    5.72
  -5   2  -5   66.62    3.43
  -5   2  -5   64.76    3.57
  -5   2  -6   74.52    3.64
  -5   2  -6   75.58    3.57
  -5   2  -7   51.32    2.56
  -5   2  -8   24.19    1.31
  -5   2  -8   23.58    1.31
   5   3 -10    3.76    1.13
   5   3  -9   21.00    2.15
   5   3  -8   24.25    2.48
  -5   3   7   13.82    1.66
   5   3  -7   16.55    2.11
   5   3  -6    0.45    1.09
  -5   3   6    0.93    0.83
   5   3  -6    0.56    1.22
   5   3  -5   83.62    4.56
  -5   3   5   78.87    3.60
   5   3  -4   58.85    3.80
  -5   3   4   67.55    3.03
  -5   3   3   22.75    1.59
  -5   3   2   37.80    1.98
  -5   3   1    9.52    0.99
  -5   3   0   61.97    2.80
  -5   3  -1  110.27    4.11
  -5   3  -2  224.77    6.86
  -5   3  -2  212.45    6.80
  -5   3  -3   14.96    1.42
  -5   3  -3   13.83    1.36
  -5   3  -4   11.68    1.37
  -5   3  -5   11.66    1.34
  -5   3  -6   31.20    1.88
   6  -7  -6   23.31    1.12
   6  -7  -5   13.93    1.36
   6  -7  -4    1.77    1.00
   6  -7  -3    7.58    0.85
   6  -7  -2   19.29    1.25
   6  -7  -2   17.11    1.76
   6  -7  -1   15.71    1.07
   6  -7  -1   15.37    1.70
   6  -7   0    6.26    0.61
   6  -7   0    7.44    1.16
   6  -7   1   15.05    1.13
  -6  -6   8   32.31    1.19
   6  -6  -8    0.83    0.25
   6  -6  -7    3.38    0.63
  -6  -6   7    4.59    0.68
   6  -6  -7    4.66    1.00
  -6  -6   6   32.10    1.63
   6  -6  -6   29.27    2.34
   6  -6  -5  100.10    3.82
   6  -6  -5   95.65    4.64
   6  -6  -4  279.87    8.17
   6  -6  -4  264.21    9.32
   6  -6  -3  331.78    9.82
   6  -6  -3  331.76    9.74
   6  -6  -3  347.32   11.23
   6  -6  -2  158.74    5.77
   6  -6  -2  161.74    5.62
   6  -6  -2  163.73    6.78
   6  -6  -1   44.43    2.67
   6  -6  -1   45.93    2.53
   6  -6  -1   50.85    3.41
   6  -6   0   11.24    1.41
   6  -6   0    7.93    1.29
   6  -6   0    8.30    1.11
   6  -6   0    8.33    1.73
   6  -6   1   15.22    1.27
   6  -6   1   19.91    1.92
   6  -6   1   15.74    1.56
   6  -6   2   77.72    2.66
   6  -6   2   81.01    3.24
   6  -6   3   54.70    2.34
  -6  -5  10   10.72    0.65
  -6  -5   9    3.95    0.64
   6  -5  -8   11.60    0.95
   6  -5  -8   13.52    1.49
   6  -5  -7   39.60    2.78
   6  -5  -6   80.85    3.47
   6  -5  -6   78.49    4.29
   6  -5  -5   40.99    2.41
   6  -5  -5   41.64    2.53
   6  -5  -5   40.75    3.15
   6  -5  -4   16.47    1.68
   6  -5  -4   14.56    1.65
   6  -5  -3   34.23    2.99
   6  -5  -3   32.46    2.42
   6  -5  -2   25.27    2.23
   6  -5  -2   27.67    2.30
   6  -5  -2   31.95    2.94
   6  -5  -1   82.96    4.10
   6  -5  -1   84.68    4.77
   6  -5   0   46.89    2.94
   6  -5   0   44.20    2.45
   6  -5   0   42.90    3.30
   6  -5   1   81.74    3.87
   6  -5   1   80.97    3.78
   6  -5   1   80.94    4.33
   6  -5   2   14.86    1.56
   6  -5   2   13.56    1.52
   6  -5   2   14.90    1.43
   6  -5   2   14.07    1.72
   6  -5   3   10.92    1.33
   6  -5   4   21.40    1.50
   6  -5   5    5.47    0.67
  -6  -4  10   35.91    1.61
   6  -4  -9   78.91    3.51
   6  -4  -8  133.18    5.44
   6  -4  -7  154.12    5.21
   6  -4  -7  160.71    6.38
   6  -4  -6   21.83    1.77
   6  -4  -6   22.86    2.43
   6  -4  -5  186.66    6.52
   6  -4  -5  187.96    6.44
   6  -4  -4  114.72    4.87
   6  -4  -4  115.96    5.42
   6  -4  -3   45.59    2.96
   6  -4  -3   51.24    3.46
   6  -4  -2   69.83    3.75
   6  -4  -2   76.56    4.22
   6  -4  -2   73.50    3.58
   6  -4  -2   62.63    3.06
   6  -4  -1   70.19    3.48
   6  -4  -1   72.08    3.83
   6  -4  -1   69.87    3.09
   6  -4  -1   70.46    4.11
   6  -4  -1   62.31    3.13
   6  -4   0  261.78    8.04
   6  -4   0  251.99    8.49
   6  -4   0  256.28    8.98
   6  -4   1   58.81    3.12
   6  -4   1   62.16    3.43
   6  -4   1   59.36    2.88
   6  -4   1   59.26    3.67
  -6  -4  -2   66.31    3.44
   6  -4   2   66.72    3.30
   6  -4   2   67.07    3.40
   6  -4   2   68.98    3.11
  -6  -4  -3   36.56    2.59
   6  -4   3   36.02    2.31
   6  -4   3   38.46    2.24
   6  -4   3   37.31    2.15
   6  -4   4   77.29    3.33
  -6  -4  -4   84.86    3.88
   6  -4   5   77.55    3.00
  -6  -4  -5   77.92    3.43
  -6  -3  11    0.16    0.32
   6  -3 -10   -0.38    0.68
   6  -3 -10   18.38    1.43
   6  -3  -9    7.91    1.47
   6  -3  -8    2.03    1.28
   6  -3  -7   12.68    1.95
   6  -3  -7   12.93    1.21
   6  -3  -7    9.86    1.98
  -6  -3   7   13.13    1.56
   6  -3  -6    1.62    0.72
  -6  -3   6    0.92    0.80
   6  -3  -6    1.13    1.12
   6  -3  -6    0.48    1.40
   6  -3  -6    2.10    0.86
   6  -3  -5   34.23    2.60
   6  -3  -5   42.59    2.60
   6  -3  -5   41.66    3.47
  -6  -3   5   38.28    2.39
   6  -3  -4   22.28    2.13
   6  -3  -4   24.54    2.09
  -6  -3   4   28.61    1.95
   6  -3  -3    2.30    0.98
   6  -3  -3    2.44    1.08
  -6  -3   3    2.46    0.76
   6  -3  -3    1.67    0.68
   6  -3  -2   87.39    3.72
   6  -3  -2   89.71    4.26
  -6  -3   2   83.12    3.40
   6  -3  -2   77.72    3.23
   6  -3  -1   73.56    3.39
  -6  -3   1   74.81    3.16
   6  -3  -1   77.57    3.91
   6  -3  -1   72.11    3.83
   6  -3  -1   69.01    3.14
   6  -3   0   46.25    2.61
  -6  -3   0   46.88    2.40
   6  -3   0   50.26    3.08
   6  -3   0   46.25    2.41
   6  -3   0   48.03    3.07
  -6  -3   0   57.03    2.78
   6  -3   1   10.70    1.38
  -6  -3  -1   11.71    1.56
   6  -3   1   11.93    1.59
   6  -3   1   13.87    1.36
  -6  -3  -1   12.51    1.33
  -6  -3  -1   12.02    1.22
   6  -3   2   13.21    1.47
  -6  -3  -2   12.74    1.69
   6  -3   2   11.42    1.51
  -6  -3  -2   12.98    1.34
   6  -3   2   13.08    1.35
  -6  -3  -2   11.04    1.27
  -6  -3  -2   13.71    1.30
   6  -3   3   82.64    3.62
  -6  -3  -3   79.41    4.23
  -6  -3  -3   85.82    3.56
   6  -3   3   78.99    3.37
  -6  -3  -4   29.66    2.55
   6  -3   4   30.08    2.01
  -6  -3  -4   31.90    1.96
  -6  -3  -5   21.67    2.10
   6  -3   5   24.58    1.53
  -6  -3  -6   26.72    2.07
  -6  -3  -7   27.94    1.55
   6  -2 -11   57.35    3.03
   6  -2 -10  107.05    5.08
   6  -2  -9   55.68    3.83
   6  -2  -8  120.89    5.89
  -6  -2   8  113.41    5.34
   6  -2  -8  121.65    6.39
   6  -2  -7  207.73    9.07
  -6  -2   7  211.91    7.78
  -6  -2   6  418.61   12.56
   6  -2  -6  405.95   12.93
   6  -2  -6  439.47   11.90
   6  -2  -6  409.11   14.37
   6  -2  -5   63.21    3.69
   6  -2  -5   60.52    3.09
  -6  -2   5   60.00    3.26
   6  -2  -4  331.05    9.71
  -6  -2   4  312.02    9.58
   6  -2  -3  147.29    5.10
   6  -2  -3  135.59    5.34
  -6  -2   3  146.58    5.25
   6  -2  -2   75.21    3.70
   6  -2  -2   75.82    2.89
   6  -2  -1  325.06    9.35
   6  -2  -1  331.69   10.12
   6  -2  -1  329.83    9.86
  -6  -2   1  349.81    9.69
   6  -2   0  233.66    7.21
  -6  -2   0  237.60    7.51
  -6  -2   0  244.97    7.50
   6  -2   0  243.38    8.02
   6  -2   1  482.79   13.25
  -6  -2  -1  509.80   13.67
  -6  -2  -1  497.66   13.61
   6  -2   1  496.42   14.06
   6  -2   1  492.04   13.17
   6  -2   2   29.46    1.92
   6  -2   2   33.59    2.27
  -6  -2  -2   29.68    2.08
   6  -2   2   28.81    1.84
  -6  -2  -2   29.36    2.17
  -6  -2  -2   29.60    2.05
   6  -2   3   93.11    3.74
  -6  -2  -3   91.13    4.70
  -6  -2  -3   99.22    4.22
  -6  -2  -3   96.18    4.20
  -6  -2  -3   94.07    3.97
   6  -2   4  117.33    4.27
  -6  -2  -4  119.78    5.54
  -6  -2  -4  118.78    4.80
  -6  -2  -5   88.23    4.51
  -6  -2  -5   78.23    3.59
  -6  -2  -6   26.79    1.75
  -6  -2  -7   -0.20    0.29
  -6  -2  -7   18.24    1.15
   6  -1 -12    0.83    0.81
   6  -1 -11   16.48    2.02
   6  -1 -10   61.40    4.05
   6  -1  -9    3.96    1.83
   6  -1  -9    2.54    1.60
  -6  -1   9    4.23    1.31
   6  -1  -8   13.48    2.34
  -6  -1   8   15.03    1.98
   6  -1  -8   18.59    2.86
  -6  -1   7  199.22    7.60
   6  -1  -7  203.50    7.99
   6  -1  -7  195.52    9.01
  -6  -1   6   22.98    2.25
   6  -1  -6   24.73    2.54
   6  -1  -6   28.13    1.90
   6  -1  -6   25.69    3.31
  -6  -1   5   98.21    4.58
   6  -1  -5  115.72    4.28
   6  -1  -4  220.94    7.01
  -6  -1   4  225.89    7.39
  -6  -1   3   15.11    1.55
  -6  -1   2    5.90    1.07
   6  -1  -1    6.62    1.18
  -6  -1   1    5.91    1.04
   6  -1   0  281.23    8.09
  -6  -1   0  299.29    8.69
  -6  -1   0  303.29    8.84
   6  -1   0  305.58    9.05
  -6  -1   0  296.38    8.92
  -6  -1  -1   77.13    3.54
  -6  -1  -1   76.62    3.48
   6  -1   1   81.01    3.67
  -6  -1  -1   83.30    3.86
  -6  -1  -2  179.80    6.41
  -6  -1  -2  189.83    6.72
  -6  -1  -2  196.72    6.55
  -6  -1  -3   95.30    4.22
  -6  -1  -3   89.66    4.18
  -6  -1  -3   89.56    3.99
  -6  -1  -4   56.26    3.16
  -6  -1  -4   51.05    3.03
  -6  -1  -5    5.52    1.45
  -6  -1  -5    7.14    1.32
  -6  -1  -6   21.26    2.14
  -6  -1  -6   23.24    1.84
  -6  -1  -7    6.59    1.23
  -6  -1  -7    7.84    0.97
   6   0 -12   23.21    1.84
   6   0 -11   22.23    2.31
   6   0 -10   17.58    2.42
   6   0  -9   23.17    2.83
  -6   0   9   23.15    2.44
   6   0  -9   23.09    3.04
   6   0  -8   24.00    2.85
  -6   0   8   26.85    2.59
   6   0  -8   26.80    3.28
   6   0  -7  126.01    5.90
  -6   0   7  111.86    5.32
   6   0  -7  116.73    6.69
  -6   0   6  338.55   10.95
   6   0  -6  360.53   11.49
  -6   0   5  269.63    8.82
  -6   0   4  593.37   16.06
  -6   0   3 1135.14   28.31
  -6   0   2  772.43   19.90
  -6   0   1  235.54    7.38
   6   0   0  360.43   10.37
  -6   0   0  374.97   10.62
  -6   0  -1  110.53    4.48
   6   0   1  114.88    4.44
  -6   0  -1  122.08    4.91
  -6   0  -2  214.59    7.21
  -6   0  -2  227.09    7.60
  -6   0  -3  154.18    5.94
  -6   0  -3  161.49    5.82
  -6   0  -5    0.13    1.07
  -6   0  -6    6.13    1.39
  -6   0  -7   24.25    1.86
   6   1 -12    2.39    0.86
   6   1 -11   18.42    2.10
   6   1 -10   59.21    4.01
   6   1  -9    3.67    1.72
   6   1  -9    3.53    1.75
  -6   1   9    3.83    1.36
   6   1  -8   18.16    2.56
   6   1  -8   12.95    2.56
  -6   1   8   12.35    1.92
  -6   1   7  192.86    7.47
   6   1  -7  199.36    7.89
   6   1  -7  199.49    9.03
  -6   1   6   23.98    2.30
   6   1  -6   23.64    2.51
   6   1  -6   27.98    3.35
  -6   1   5  100.06    4.55
   6   1  -5  108.35    4.98
  -6   1   4  216.28    7.24
  -6   1   3   18.87    1.70
  -6   1   2    8.70    1.25
  -6   1   1    6.03    0.95
  -6   1   1    6.48    1.05
  -6   1   0  295.04    8.74
  -6   1   0  289.95    8.82
  -6   1   0  306.89    8.99
  -6   1  -1   73.97    3.45
  -6   1  -1   72.14    3.37
  -6   1  -2  167.25    6.14
  -6   1  -2  185.19    6.55
  -6   1  -2  181.75    6.26
  -6   1  -3   90.51    4.19
  -6   1  -3  100.30    4.41
  -6   1  -3   94.11    4.13
  -6   1  -4   53.88    3.12
  -6   1  -4   53.21    3.08
  -6   1  -5    7.68    1.51
  -6   1  -5    5.12    1.27
  -6   1  -6   21.24    2.00
  -6   1  -6   17.93    1.67
  -6   1  -7    7.08    0.99
  -6   1  -7    6.72    0.92
   6   2 -11   59.19    3.10
   6   2 -10   93.05    4.74
   6   2  -9   50.10    3.64
  -6   2   8  124.25    5.61
   6   2  -8  123.05    6.07
   6   2  -8  131.69    6.70
  -6   2   7  214.63    7.89
   6   2  -7  225.40    9.33
  -6   2   6  388.08   11.95
   6   2  -6  417.62   12.63
   6   2  -6  388.56   13.76
   6   2  -5   68.43    3.82
  -6   2   5   61.62    3.34
  -6   2   4  339.15   10.11
  -6   2   3  151.88    5.47
  -6   2   2   84.77    3.64
  -6   2   1  348.56   10.00
  -6   2   0  239.40    7.53
  -6   2   0  241.08    7.47
  -6   2   0  254.03    7.83
  -6   2  -1  516.25   13.97
  -6   2  -1  501.62   13.93
  -6   2  -1  529.77   14.41
  -6   2  -2   24.94    1.98
  -6   2  -2   23.44    1.94
  -6   2  -2   24.31    1.88
  -6   2  -3   86.87    3.95
  -6   2  -3   83.84    3.96
  -6   2  -3   86.38    3.80
  -6   2  -4  123.04    4.95
  -6   2  -5   73.38    3.73
  -6   2  -5   78.16    3.59
  -6   2  -6   27.96    1.90
  -6   2  -6   29.41    1.88
  -6   2  -7   15.08    1.06
  -6   2  -7   15.64    1.20
   6   3 -10   20.34    1.75
   6   3  -9    7.41    1.53
   6   3  -8    2.08    1.30
   6   3  -7   11.63    1.88
   6   3  -6    2.63    1.24
  -6   3   6    1.03    0.82
   6   3  -6    1.42    1.40
   6   3  -5   41.07    2.84
   6   3  -5   39.85    3.38
  -6   3   5   45.17    2.61
  -6   3   4   23.15    1.79
  -6   3   3    1.84    0.69
  -6   3   2   93.40    3.69
  -6   3   1   87.30    3.65
  -6   3   0   49.13    2.66
  -6   3  -1   12.60    1.31
  -6   3  -1    9.71    1.22
  -6   3  -1   10.12    1.17
  -6   3  -2   11.39    1.29
  -6   3  -2    9.00    1.16
  -6   3  -3   89.77    3.82
  -6   3  -4   32.90    2.09
  -6   3  -5   23.89    1.64
   7  -7  -5   13.01    1.07
   7  -7  -3    0.29    0.65
   7  -7  -2    5.14    0.56
   7  -7  -2    5.78    0.92
   7  -7  -1    9.40    0.89
  -7  -6   7   17.51    0.96
   7  -6  -7   16.61    0.93
   7  -6  -7   14.37    1.37
  -7  -6   6   11.61    0.85
   7  -6  -6   14.24    1.57
   7  -6  -5  127.98    3.14
   7  -6  -5  129.10    4.34
   7  -6  -4  214.76    6.44
   7  -6  -4  208.43    7.51
   7  -6  -3  188.32    6.08
   7  -6  -3  185.86    5.98
   7  -6  -3  197.13    7.10
   7  -6  -2   92.49    3.74
   7  -6  -2   91.00    3.58
   7  -6  -2   90.05    4.37
   7  -6  -1   15.72    1.46
   7  -6  -1   14.07    1.31
   7  -6  -1   13.98    1.73
   7  -6   0    2.97    0.69
   7  -6   0    3.44    1.02
   7  -6   1   20.54    1.18
  -7  -5   9    7.30    0.68
   7  -5  -9   -0.08    0.29
   7  -5  -8    0.19    0.27
   7  -5  -8   22.75    1.77
   7  -5  -7   12.95    1.68
   7  -5  -6    1.68    0.72
   7  -5  -6    0.67    0.45
   7  -5  -6    2.28    1.20
   7  -5  -5    2.44    0.88
   7  -5  -5    2.40    0.84
   7  -5  -4    1.63    0.90
   7  -5  -4    1.99    1.05
   7  -5  -4    1.45    1.30
   7  -5  -3   30.94    2.32
   7  -5  -3   33.76    2.92
   7  -5  -2   60.98    3.88
   7  -5  -1   16.54    1.83
   7  -5  -1   16.78    1.84
   7  -5  -1   16.13    2.11
   7  -5   0   47.29    2.73
   7  -5   0   49.27    2.85
   7  -5   0   48.06    3.11
   7  -5   1   22.02    1.79
   7  -5   1   22.64    1.78
   7  -5   2   20.12    1.60
   7  -5   3   26.51    1.58
   7  -4 -10    0.04    0.23
   7  -4  -9   22.01    1.79
   7  -4  -8   94.99    4.39
   7  -4  -7  172.20    5.52
   7  -4  -7  184.41    6.98
   7  -4  -6  188.15    6.16
   7  -4  -6  177.71    6.00
   7  -4  -5   14.94    1.65
   7  -4  -5   18.09    1.67
   7  -4  -5   17.34    2.17
   7  -4  -4   19.22    1.99
   7  -4  -4   22.99    2.44
   7  -4  -3    7.01    1.47
   7  -4  -3    5.85    1.62
   7  -4  -2  138.09    5.42
   7  -4  -2  133.75    6.03
   7  -4  -1   37.75    2.60
   7  -4  -1   36.17    2.74
   7  -4  -1   40.77    3.05
   7  -4   0  169.95    6.09
   7  -4   0  174.32    6.50
   7  -4   0  171.52    6.74
   7  -4   1  149.29    5.45
   7  -4   1  150.67    5.67
   7  -4   2  135.74    4.97
   7  -4   2  139.43    4.99
   7  -4   3  121.29    3.32
  -7  -4  -3    0.14    0.54
   7  -4   4   30.50    1.47
  -7  -4  -4   -0.05    0.38
   7  -3 -10   -0.38    0.48
   7  -3 -10    3.14    0.91
   7  -3  -9   10.04    1.50
   7  -3  -8   -0.79    1.24
   7  -3  -7   17.99    2.19
   7  -3  -7   16.10    1.29
   7  -3  -6   10.12    1.23
  -7  -3   6    9.41    1.32
   7  -3  -6   10.46    1.75
   7  -3  -6   11.88    1.48
   7  -3  -6    9.02    2.07
   7  -3  -5    8.52    1.65
   7  -3  -5   10.16    1.55
  -7  -3   5    8.79    1.26
   7  -3  -5    7.41    2.09
   7  -3  -4   11.38    1.76
  -7  -3   4   11.87    1.34
   7  -3  -4   10.88    1.59
   7  -3  -3   20.01    2.11
   7  -3  -3   26.60    2.40
  -7  -3   3   22.84    1.78
   7  -3  -2    1.39    1.08
  -7  -3   2    1.68    0.78
   7  -3  -2    0.79    1.00
   7  -3  -2    0.58    1.06
  -7  -3   2    1.33    0.71
   7  -3  -1   32.31    2.28
  -7  -3   1   32.76    2.09
   7  -3  -1   32.79    2.62
   7  -3  -1   34.36    2.66
  -7  -3   1   38.33    2.40
  -7  -3   0   82.06    3.48
   7  -3   0   75.26    3.58
  -7  -3   0   79.11    3.76
   7  -3   0   77.42    4.08
  -7  -3   0   87.94    3.76
   7  -3   1   64.02    3.18
  -7  -3  -1   62.60    3.48
   7  -3   1   72.68    3.68
  -7  -3  -1   65.22    2.98
  -7  -3  -2   50.00    3.09
   7  -3   2   45.86    2.57
   7  -3   2   45.06    2.64
  -7  -3  -3   32.99    2.52
   7  -3   3   30.60    1.98
  -7  -3  -4   41.76    2.72
   7  -3   4   37.42    1.95
  -7  -3  -5   26.44    1.90
   7  -2 -11   32.00    2.02
   7  -2 -11   -0.30    0.54
   7  -2 -10   55.79    3.42
   7  -2  -9   59.06    3.84
   7  -2  -8   74.89    4.57
   7  -2  -8   85.89    5.26
  -7  -2   8   74.98    4.00
   7  -2  -7  126.50    5.93
   7  -2  -7  121.78    6.74
  -7  -2   7  125.06    5.40
   7  -2  -6  305.81   10.33
   7  -2  -6  312.07    9.34
  -7  -2   6  289.86    9.60
   7  -2  -5  154.16    6.36
   7  -2  -5  147.73    5.71
  -7  -2   5  138.35    5.66
   7  -2  -4   19.26    1.90
  -7  -2   4   16.03    1.69
   7  -2  -3  128.10    5.39
  -7  -2   3  131.46    5.09
   7  -2  -2   80.44    3.66
   7  -2  -2   86.27    4.26
   7  -2  -2   92.86    4.19
  -7  -2   2   90.95    3.96
   7  -2  -1  346.20   10.15
  -7  -2   1  356.59   10.49
   7  -2  -1  363.26   11.13
  -7  -2   1  366.94   10.63
   7  -2   0  173.53    6.04
  -7  -2   0  189.97    6.50
   7  -2   0  188.64    6.94
   7  -2   1  106.41    4.22
  -7  -2  -1  119.77    4.68
   7  -2   1  116.29    4.90
  -7  -2  -1  118.01    4.87
  -7  -2  -1  115.25    4.62
   7  -2   2  253.32    7.78
   7  -2   2  265.08    8.30
  -7  -2  -2  270.25    8.37
  -7  -2  -2  255.24    8.39
  -7  -2  -2  274.96    8.30
   7  -2   3   80.00    3.30
  -7  -2  -3   89.65    4.54
  -7  -2  -3   88.67    3.88
  -7  -2  -4   85.08    4.31
  -7  -2  -4   84.67    3.65
  -7  -2  -5   22.06    2.02
  -7  -2  -5   23.80    1.61
  -7  -2  -6   25.96    1.79
   7  -1 -12   10.00    1.12
   7  -1 -10   15.63    2.25
   7  -1  -9    0.92    1.56
  -7  -1   8    1.57    1.04
   7  -1  -8    2.33    1.89
   7  -1  -7   83.70    4.79
   7  -1  -7   78.37    3.56
   7  -1  -7   83.51    5.68
  -7  -1   7   69.22    4.04
   7  -1  -6   47.87    3.51
   7  -1  -6   43.28    2.66
  -7  -1   6   42.04    3.00
   7  -1  -5   46.80    2.76
  -7  -1   5   41.45    2.84
   7  -1  -4   24.10    2.03
  -7  -1   4   24.57    2.14
  -7  -1   3    1.51    0.82
   7  -1  -2    9.19    1.46
  -7  -1   2    9.29    1.37
   7  -1  -1  176.21    5.76
   7  -1  -1  181.50    6.61
  -7  -1   1  187.85    6.47
  -7  -1   0  195.30    6.73
  -7  -1   0  181.31    6.52
   7  -1   0  191.54    6.90
  -7  -1   0  208.58    7.12
  -7  -1  -1   60.09    3.20
  -7  -1  -1   55.53    3.14
   7  -1   1   57.34    3.22
  -7  -1  -1   59.60    3.40
  -7  -1  -2   29.63    2.32
  -7  -1  -2   30.52    2.39
  -7  -1  -2   31.97    2.31
  -7  -1  -3   13.77    1.62
  -7  -1  -3   14.67    1.58
  -7  -1  -4   60.80    3.22
  -7  -1  -5   15.85    1.86
  -7  -1  -5   15.71    1.58
  -7  -1  -6   44.13    2.52
  -7  -1  -6   45.89    2.16
   7   0 -12    0.31    0.83
   7   0 -11   53.30    3.35
   7   0 -10  118.87    5.73
   7   0  -9   80.82    4.92
   7   0  -8    6.55    2.26
  -7   0   8    8.96    1.75
  -7   0   7   34.40    2.85
   7   0  -7   36.19    3.26
   7   0  -7   42.70    2.44
   7   0  -7   35.41    4.02
   7   0  -6   34.63    3.08
   7   0  -6   34.78    2.28
  -7   0   6   31.69    2.59
   7   0  -5  535.76   14.70
  -7   0   5  540.56   15.33
  -7   0   4 1023.27   26.35
  -7   0   3  946.56   24.82
   7   0  -3  982.55   24.56
   7   0  -2  312.19    9.51
  -7   0   2  314.47    9.64
   7   0  -1  215.01    7.24
  -7   0   1  220.25    7.35
  -7   0   0   71.41    3.58
   7   0   0   72.66    3.61
  -7   0   0   80.43    3.92
  -7   0  -1   44.45    2.79
   7   0   1   42.60    2.67
  -7   0  -2   20.63    2.02
  -7   0  -2   19.93    1.91
  -7   0  -3    7.84    1.31
  -7   0  -4    2.59    1.35
  -7   0  -5   36.18    2.64
  -7   0  -6   17.39    1.60
   7   1 -12   10.12    1.11
   7   1 -10   15.62    2.19
   7   1  -9    1.08    1.48
  -7   1   8    1.84    1.10
   7   1  -8    1.91    1.70
   7   1  -8    2.46    0.78
   7   1  -7   77.25    4.63
   7   1  -7   75.48    5.46
  -7   1   7   72.50    4.10
   7   1  -6   53.83    3.66
  -7   1   6   43.52    3.03
  -7   1   5   43.43    2.90
  -7   1   4   26.95    2.24
  -7   1   3    2.09    0.91
  -7   1   2    8.35    1.30
  -7   1   1  187.43    6.57
  -7   1   0  178.72    6.49
  -7   1   0  186.70    6.44
   7   1   0  182.96    6.37
  -7   1   0  200.75    6.97
  -7   1  -1   58.32    3.13
  -7   1  -1   51.37    2.97
  -7   1  -1   54.05    3.26
  -7   1  -2   29.99    2.32
  -7   1  -2   33.45    2.49
  -7   1  -2   34.93    2.40
  -7   1  -3   12.42    1.63
  -7   1  -3   15.09    1.62
  -7   1  -4   67.44    3.43
  -7   1  -5   14.21    1.69
  -7   1  -5   13.23    1.42
  -7   1  -6   41.31    2.22
  -7   1  -6   43.87    2.12
   7   2 -11   33.14    2.15
   7   2 -10   59.54    3.57
   7   2  -9   64.72    4.05
   7   2  -8   85.16    4.86
   7   2  -8   79.19    5.13
  -7   2   8   80.06    4.15
   7   2  -7  125.63    5.92
   7   2  -7  125.29    6.84
  -7   2   7  126.75    5.46
   7   2  -6  304.96   10.42
   7   2  -6  298.66   11.79
  -7   2   6  307.49    9.90
   7   2  -5  139.89    6.10
  -7   2   5  140.15    5.63
  -7   2   4   11.11    1.43
  -7   2   3  128.24    5.15
  -7   2   2   95.80    4.14
  -7   2   1  357.63   10.56
  -7   2   1  361.36   10.68
  -7   2   0  190.15    6.59
  -7   2   0  196.51    6.96
  -7   2  -1  114.94    4.75
  -7   2  -1  121.52    4.79
  -7   2  -1  116.75    4.95
  -7   2  -2  277.46    8.65
  -7   2  -2  262.17    8.63
  -7   2  -2  275.92    8.51
  -7   2  -3   82.70    3.81
  -7   2  -4   76.17    3.48
  -7   2  -5   19.85    1.66
  -7   2  -5   21.67    1.58
   7   3 -10    2.22    0.87
   7   3  -9    9.76    1.57
   7   3  -8    0.12    1.11
   7   3  -7   16.19    2.06
   7   3  -6   10.17    1.71
   7   3  -5    8.66    1.66
  -7   3   5    9.10    1.31
   7   3  -4   11.54    1.68
  -7   3   4   11.12    1.35
  -7   3   3   24.91    1.85
  -7   3   2    0.53    0.66
  -7   3   2    0.72    0.74
  -7   3   1   34.95    2.18
  -7   3   1   35.58    2.38
  -7   3   0   83.05    3.59
  -7   3  -1   68.11    3.12
  -7   3  -4   39.67    2.27
   8  -6  -7   12.81    1.01
   8  -6  -6   44.86    2.32
   8  -6  -5   17.05    1.09
   8  -6  -5   17.92    1.63
   8  -6  -4   36.19    1.75
   8  -6  -4   36.30    2.33
   8  -6  -3   52.52    2.28
   8  -6  -3   48.81    2.18
   8  -6  -3   52.00    2.76
   8  -6  -2   36.24    1.78
   8  -6  -2   40.33    2.26
   8  -6  -1    6.09    0.71
   8  -6  -1    4.44    0.76
   8  -6   0   10.27    0.72
   8  -5  -8    0.68    0.74
   8  -5  -7    4.46    1.17
   8  -5  -6   18.68    1.24
   8  -5  -6   -0.13    0.41
   8  -5  -5    4.60    0.85
   8  -5  -5    3.87    0.88
   8  -5  -5    4.08    1.41
   8  -5  -4    1.15    0.82
   8  -5  -4    1.11    0.86
   8  -5  -4    0.56    1.24
   8  -5  -3    4.71    1.14
   8  -5  -3    4.12    1.40
   8  -5  -2   11.74    1.68
   8  -5  -1   33.85    2.19
   8  -5  -1   31.71    2.30
   8  -5   0   34.48    2.05
   8  -4  -9   18.52    1.57
   8  -4  -8   52.78    3.06
   8  -4  -7   75.29    2.83
   8  -4  -6   76.67    3.35
   8  -4  -6   71.02    3.12
   8  -4  -6   79.85    4.20
   8  -4  -5   45.25    2.76
   8  -4  -5   42.07    2.46
   8  -4  -5   50.10    3.31
   8  -4  -4   35.37    2.59
   8  -4  -4   34.20    2.85
   8  -4  -3   43.50    2.92
   8  -4  -3   45.31    3.25
   8  -4  -2  125.27    5.28
   8  -4  -2  122.05    5.45
   8  -4  -1  231.03    7.59
   8  -4  -1  243.10    8.04
   8  -4  -1  236.04    8.12
   8  -4   0   52.94    2.85
   8  -4   0   58.81    3.14
   8  -4   1   83.65    3.56
   8  -4   1   94.31    3.73
   8  -4   2   13.40    1.07
   8  -4   2   14.35    1.27
   8  -3 -10    4.75    0.91
   8  -3  -9   -0.39    0.65
   8  -3  -9    2.53    1.07
   8  -3  -8    6.25    1.38
   8  -3  -7    2.60    1.26
   8  -3  -7    1.26    0.72
   8  -3  -6   44.16    3.04
   8  -3  -6   42.45    2.29
   8  -3  -6   44.58    2.73
   8  -3  -5    7.52    1.61
   8  -3  -5   11.63    1.64
   8  -3  -5   13.50    1.88
   8  -3  -4   21.11    2.24
   8  -3  -4   20.06    2.07
   8  -3  -4   24.88    2.42
  -8  -3   3    6.37    1.11
   8  -3  -3    6.36    1.44
  -8  -3   2   42.41    2.40
   8  -3  -2   36.53    2.85
   8  -3  -2   44.42    3.00
  -8  -3   1   12.03    1.29
   8  -3  -1    9.93    1.44
   8  -3  -1   13.72    1.81
  -8  -3   0   12.10    1.41
   8  -3   0   12.52    1.45
   8  -3   0   15.57    1.82
  -8  -3   0   15.43    1.38
  -8  -3  -1   13.63    1.57
   8  -3   1   15.27    1.50
   8  -3   1   15.74    1.67
  -8  -3  -1   16.17    1.33
  -8  -3  -2   30.36    2.20
   8  -3   2   29.65    1.82
   8  -3   2   30.34    1.82
  -8  -3  -3   38.63    2.31
  -8  -3  -4   21.78    1.46
   8  -2 -11   14.71    1.30
   8  -2 -11   15.35    1.19
   8  -2 -10   11.12    1.60
   8  -2  -9   25.08    2.49
   8  -2  -8   87.60    4.78
   8  -2  -7   92.51    5.00
   8  -2  -7  106.02    4.29
   8  -2  -6   63.63    4.09
   8  -2  -6   66.36    3.53
   8  -2  -6   57.84    4.75
  -8  -2   6   66.00    3.59
   8  -2  -5  195.46    7.67
   8  -2  -5  193.15    7.12
  -8  -2   5  193.56    7.01
   8  -2  -4  168.53    6.59
   8  -2  -3   96.60    4.56
  -8  -2   3   96.96    4.34
   8  -2  -2  127.27    5.49
   8  -2  -2  119.61    5.04
  -8  -2   2  119.77    4.98
  -8  -2   1  211.13    7.04
   8  -2  -1  209.79    7.59
  -8  -2   1  225.40    7.59
  -8  -2   0  218.63    7.20
   8  -2   0  223.33    7.68
  -8  -2   0  225.31    7.56
   8  -2   1   22.40    1.66
   8  -2   1   20.86    1.91
  -8  -2  -1   20.83    1.79
  -8  -2  -2   74.21    3.97
  -8  -2  -2   79.27    3.43
  -8  -2  -3   73.82    3.77
  -8  -2  -4   43.78    2.59
  -8  -2  -5    7.91    0.99
   8  -1 -11    3.86    1.18
   8  -1 -10    6.47    1.58
   8  -1  -9    6.30    1.81
   8  -1  -8   -0.15    1.44
   8  -1  -7   47.43    3.65
   8  -1  -7   53.75    3.03
   8  -1  -7   51.41    4.63
  -8  -1   7   50.73    3.27
   8  -1  -6   33.07    3.09
   8  -1  -6   32.56    2.49
  -8  -1   6   32.89    2.61
  -8  -1   5    5.63    1.30
   8  -1  -5    6.38    1.43
  -8  -1   4   15.39    1.79
   8  -1  -4   16.09    1.89
   8  -1  -3   64.60    3.70
  -8  -1   3   64.06    3.53
   8  -1  -2    7.15    1.39
  -8  -1   2    8.83    1.38
  -8  -1   1   61.06    3.39
   8  -1  -1   63.70    3.65
  -8  -1   1   63.35    3.57
  -8  -1   0   35.40    2.53
   8  -1   0   36.56    2.65
  -8  -1   0   36.20    2.72
   8  -1   1   27.81    2.19
  -8  -1  -1   27.55    2.27
  -8  -1  -1   26.68    2.18
  -8  -1  -2   61.15    3.17
  -8  -1  -3   47.73    3.13
   8   0 -12   15.78    1.22
   8   0 -11   53.57    3.07
   8   0 -10  146.41    6.20
   8   0  -9  150.79    6.74
   8   0  -8   44.33    3.63
   8   0  -8   53.28    2.74
   8   0  -7   25.11    2.90
   8   0  -7   26.96    2.12
   8   0  -7   32.71    3.89
  -8   0   7   26.71    2.46
   8   0  -6  100.14    5.36
   8   0  -6  105.53    4.51
  -8   0   6   97.93    4.81
   8   0  -5  278.30    8.95
  -8   0   5  277.41    9.34
  -8   0   4  362.11   11.24
   8   0  -3  209.88    7.41
  -8   0   3  213.50    7.53
   8   0  -2   14.18    1.78
  -8   0   2   12.21    1.59
  -8   0   1    2.93    1.10
   8   0  -1    3.14    1.19
  -8   0   1    2.96    1.06
  -8   0   0   23.10    2.11
   8   0   0   24.01    2.11
  -8   0   0   25.63    2.36
  -8   0  -1   39.83    2.66
   8   0   1   36.12    2.42
  -8   0  -1   41.04    2.82
  -8   0  -2   61.66    3.25
  -8   0  -4    8.02    1.38
  -8   0  -5   39.94    2.29
   8   1 -11    5.16    1.24
   8   1 -10    5.70    1.58
   8   1  -9    7.74    2.00
   8   1  -8    1.32    0.80
   8   1  -7   49.03    3.74
   8   1  -7   46.09    4.33
   8   1  -7   53.52    2.94
  -8   1   7   54.76    3.38
   8   1  -6   33.99    3.13
  -8   1   6   32.24    2.61
  -8   1   5    5.55    1.38
  -8   1   4   14.95    1.76
  -8   1   3   67.41    3.64
   8   1  -2    9.70    1.56
  -8   1   2    8.47    1.36
  -8   1   1   62.30    3.43
   8   1  -1   58.82    3.36
  -8   1   1   63.92    3.57
  -8   1   0   31.70    2.41
   8   1   0   33.24    2.40
  -8   1   0   33.22    2.62
  -8   1  -1   25.49    2.18
  -8   1  -1   25.90    2.15
  -8   1  -2   62.80    3.33
  -8   1  -2   64.28    3.30
  -8   1  -3   48.03    2.73
  -8   1  -4   17.16    1.76
  -8   1  -5   34.30    1.96
   8   2 -11   13.47    1.26
   8   2 -10   12.82    1.70
   8   2  -9   26.09    2.52
   8   2  -8   77.90    4.48
   8   2  -7   93.45    4.95
   8   2  -6   58.77    3.84
   8   2  -6   47.86    4.33
  -8   2   6   54.18    3.28
   8   2  -5  197.36    7.78
  -8   2   5  199.11    7.16
  -8   2   3   93.46    4.27
  -8   2   2  129.57    5.25
  -8   2   1  217.89    7.43
   8   2  -1  214.23    7.44
  -8   2   1  238.67    8.00
  -8   2   0  230.23    7.64
   8   2   0  230.10    7.54
  -8   2   0  235.93    7.98
  -8   2  -1   20.92    1.81
  -8   2  -2   77.67    3.47
  -8   2  -4   41.25    2.32
   8   3  -9    2.77    1.02
   8   3  -8    4.33    1.30
   8   3  -7    2.96    1.33
   8   3  -6   41.38    2.94
   8   3  -5   12.32    1.81
   8   3  -4   17.00    1.99
  -8   3   2   40.25    2.40
  -8   3   1   10.69    1.28
   8   3   0   14.82    1.51
  -8   3   0   15.68    1.45
  -8   3  -1   15.32    1.36
   9  -5  -8   12.75    0.99
   9  -5  -6   19.55    0.95
   9  -5  -6   22.66    1.73
   9  -5  -5    5.40    0.72
   9  -5  -5    4.75    0.77
   9  -5  -5    4.57    1.14
   9  -5  -4   21.29    1.50
   9  -5  -4   21.12    1.39
   9  -5  -4   21.76    1.84
   9  -5  -3   18.06    1.40
   9  -5  -3   13.60    1.20
   9  -5  -3   16.61    1.58
   9  -5  -2    8.93    1.06
   9  -5  -2    7.19    0.97
   9  -5  -1   13.69    1.14
   9  -4  -9    7.35    0.95
   9  -4  -7   80.73    3.78
   9  -4  -6  110.99    3.94
   9  -4  -6  100.05    3.54
   9  -4  -6  111.68    4.75
   9  -4  -5   66.19    3.18
   9  -4  -5   63.61    2.82
   9  -4  -5   72.38    3.72
   9  -4  -4   62.01    3.18
   9  -4  -4   59.12    3.43
   9  -4  -3  161.94    6.08
   9  -4  -2   73.02    3.39
   9  -4  -2   61.28    3.15
   9  -4  -1   44.32    2.49
   9  -4   0    5.58    0.92
   9  -4   1    8.85    0.81
   9  -3 -10    2.19    0.67
   9  -3  -9    8.75    1.26
   9  -3  -8   -0.38    0.65
   9  -3  -8    2.06    1.03
   9  -3  -7    3.96    1.18
   9  -3  -7    4.29    0.89
   9  -3  -7    3.78    1.20
   9  -3  -6    4.96    1.29
   9  -3  -6    4.47    0.77
   9  -3  -6    4.14    1.05
   9  -3  -6    4.36    1.37
   9  -3  -5    2.57    1.18
   9  -3  -5    1.63    1.05
   9  -3  -5    1.12    1.07
   9  -3  -4   17.58    2.00
   9  -3  -4   16.60    1.88
  -9  -3   4   16.80    1.47
   9  -3  -4   19.42    2.06
  -9  -3   3    8.40    1.09
   9  -3  -3    7.13    1.48
  -9  -3   2    2.30    0.73
   9  -3  -2    2.36    1.11
   9  -3  -1   29.24    2.26
  -9  -3   1   26.34    1.68
   9  -3   0   22.13    1.80
  -9  -3   0   21.41    1.39
   9  -3   1   11.83    1.11
  -9  -3  -1   -0.11    0.38
  -9  -3  -2   -0.04    0.26
   9  -2 -11    5.53    0.67
   9  -2 -10   11.12    1.32
   9  -2  -9   16.55    1.85
   9  -2  -8   70.96    3.97
   9  -2  -7  122.59    5.63
   9  -2  -7  136.66    5.00
   9  -2  -6  111.02    5.34
   9  -2  -6  113.31    4.83
   9  -2  -5   88.53    4.70
   9  -2  -5   84.82    4.27
   9  -2  -4  132.10    5.74
   9  -2  -4  144.87    5.78
  -9  -2   3  126.35    5.00
   9  -2  -3  123.48    5.47
   9  -2  -3  123.39    5.10
  -9  -2   2   84.41    3.87
   9  -2  -2   87.13    4.38
  -9  -2   1   26.62    2.03
   9  -2  -1   29.31    2.38
   9  -2   0   55.18    3.04
  -9  -2   0   50.84    2.72
  -9  -2  -1   36.28    2.48
   9  -2   1   39.59    2.21
  -9  -2  -1   40.36    2.20
  -9  -2  -2   32.47    2.20
  -9  -2  -3   28.75    1.80
   9  -1 -11    1.96    0.82
   9  -1 -10    5.89    1.37
   9  -1  -9    2.25    1.29
   9  -1  -8    8.16    1.84
   9  -1  -8   11.13    1.25
   9  -1  -7   24.67    2.65
   9  -1  -7   28.83    2.23
   9  -1  -6   96.69    5.20
   9  -1  -6   97.60    4.54
  -9  -1   5   18.60    1.89
   9  -1  -5   20.44    2.15
  -9  -1   4   20.66    1.98
   9  -1  -3   70.20    3.93
  -9  -1   3   69.35    3.70
  -9  -1   2   25.75    2.22
   9  -1  -2   29.68    2.51
  -9  -1   2   27.30    2.29
  -9  -1   1   14.09    1.65
   9  -1  -1   12.58    1.72
  -9  -1   0   29.31    2.19
   9  -1   0   25.28    2.12
   9  -1   1   14.17    1.37
  -9  -1  -1   13.33    1.45
  -9  -1  -2   25.24    2.10
  -9  -1  -3   21.99    1.79
  -9  -1  -4   10.06    1.04
   9   0 -11   58.25    2.82
   9   0 -10  125.30    5.21
   9   0  -9  140.77    6.13
   9   0  -8   61.53    4.00
   9   0  -8   68.61    3.17
   9   0  -7    5.07    1.75
   9   0  -7    7.82    1.36
   9   0  -6    1.33    1.41
   9   0  -6    0.30    1.01
  -9   0   5   45.83    3.03
   9   0  -5   43.77    2.96
  -9   0   4   94.08    4.52
   9   0  -3    1.56    1.21
  -9   0   3    1.54    0.88
  -9   0   2   42.11    2.82
   9   0  -2   39.25    2.86
  -9   0   2   36.77    2.70
  -9   0   1  116.43    4.94
   9   0  -1  113.75    5.01
  -9   0   0  198.22    6.88
   9   0   0  190.07    6.72
  -9   0  -1  117.80    4.68
  -9   0  -2   50.87    2.64
  -9   0  -3    4.04    1.07
  -9   0  -4   12.04    1.16
   9   1 -11    2.65    0.85
   9   1 -10    6.40    1.34
   9   1  -9    3.80    1.39
   9   1  -8    7.14    1.73
   9   1  -8   11.69    1.32
   9   1  -7   27.36    2.77
   9   1  -7   26.68    2.11
   9   1  -6   95.55    5.19
   9   1  -6  104.22    4.50
  -9   1   5   23.08    2.11
   9   1  -5   23.14    2.12
   9   1  -4   23.33    2.17
  -9   1   4   26.45    2.24
   9   1  -3   75.06    3.90
  -9   1   3   72.30    3.77
  -9   1   2   27.70    2.28
   9   1  -2   24.49    2.25
  -9   1   2   26.80    2.29
  -9   1   1   15.78    1.73
   9   1  -1   15.46    1.81
  -9   1   0   32.10    2.34
   9   1   0   30.55    2.23
  -9   1  -1   15.57    1.58
  -9   1  -3   17.86    1.62
  -9   1  -4    8.83    0.95
   9   2 -10   10.62    1.31
   9   2  -9   14.59    1.79
   9   2  -9   -0.09    0.31
   9   2  -8   62.39    3.79
   9   2  -8   73.26    3.17
   9   2  -7  136.55    5.94
   9   2  -7  139.03    5.22
   9   2  -6  108.91    5.29
   9   2  -5   77.22    4.36
  -9   2   3  130.71    5.19
   9   2  -3  133.55    5.36
  -9   2   2   86.06    3.95
   9   2  -2   84.46    4.07
  -9   2   1   25.09    1.98
   9   2  -1   26.41    2.11
   9   2   0   54.93    2.78
  -9   2   0   50.22    2.76
  -9   2  -1   41.06    2.27
  -9   2  -3   32.70    1.93
   9   3  -9    0.13    0.20
   9   3  -8    1.51    0.91
   9   3  -8    1.78    0.77
   9   3  -7    2.39    1.16
   9   3  -6    3.00    1.17
   9   3  -5    3.35    1.22
   9   3  -4   14.12    1.82
  -9   3   4   20.39    1.63
  -9   3   3    8.23    1.09
  -9   3   2    2.48    0.80
   9   3  -2    4.33    1.14
   9   3  -1   32.31    2.11
  -9   3   1   27.96    1.79
  -9   3   0   27.93    1.65
   9   4  -8   33.42    1.70
   9   4  -2   76.00    3.31
   9   4  -1   37.39    1.97
   9   5  -2    8.47    0.84
  10  -5  -4   13.97    0.86
  10  -5  -4   13.07    0.75
  10  -5  -3   22.62    1.05
  10  -4  -8   28.41    1.58
  10  -4  -7   39.25    2.13
  10  -4  -6   64.95    1.92
  10  -4  -6   63.26    2.53
  10  -4  -5   88.72    3.23
  10  -4  -5   77.54    2.74
  10  -4  -5   87.68    3.52
  10  -4  -4   48.29    2.33
  10  -4  -4   45.73    2.01
  10  -4  -4   41.13    2.25
  10  -4  -3   26.91    1.73
  10  -4  -2   28.19    1.68
  10  -4  -1   13.46    1.03
  10  -3  -9    2.63    0.74
  10  -3  -8    3.68    0.90
  10  -3  -7    0.12    0.32
 -10  -3   7   -0.25    0.26
  10  -3  -7    1.33    0.58
  10  -3  -7    1.23    0.93
  10  -3  -6    6.28    1.01
  10  -3  -6    6.45    1.25
 -10  -3   5    7.56    0.84
  10  -3  -5    9.61    1.29
  10  -3  -5   10.87    1.39
 -10  -3   4   15.52    1.11
  10  -3  -4   14.77    1.59
  10  -3  -4   15.42    1.48
  10  -3  -3   -0.15    0.63
 -10  -3   3   15.27    1.05
  10  -3  -2    0.76    0.60
 -10  -3   2   -0.43    0.35
  10  -3  -1    0.61    0.69
  10  -3   0    8.32    0.82
  10  -2  -9   31.58    2.02
  10  -2  -9   38.20    2.15
  10  -2  -8   41.74    2.64
  10  -2  -8   46.10    2.66
  10  -2  -7   46.37    2.93
  10  -2  -7   50.28    2.53
  10  -2  -7   52.44    2.95
  10  -2  -6   62.63    3.60
  10  -2  -6   66.63    3.32
  10  -2  -6   72.54    3.56
  10  -2  -5   82.57    4.26
  10  -2  -5   83.18    3.96
  10  -2  -5   87.37    3.94
 -10  -2   4   78.21    3.41
  10  -2  -4   73.32    3.40
 -10  -2   3   77.64    3.43
  10  -2  -3   77.78    3.87
 -10  -2   2  102.31    3.94
  10  -2  -2   95.62    4.26
  10  -2  -1   25.70    1.84
 -10  -2   1   27.37    1.66
 -10  -2   0    0.88    0.67
 -10  -2   0    1.51    0.59
  10  -2   0    1.39    0.65
 -10  -2  -1    5.66    0.78
  10  -1 -10    0.75    0.75
  10  -1  -9    4.42    1.23
  10  -1  -8   20.93    1.46
  10  -1  -7   33.80    2.75
  10  -1  -7   34.80    2.26
  10  -1  -6    7.66    1.76
  10  -1  -6    6.71    1.36
  10  -1  -5   10.82    1.96
  10  -1  -5   13.54    1.76
  10  -1  -4   28.33    2.43
 -10  -1   3   76.66    3.61
  10  -1  -3   67.03    3.68
 -10  -1   2   59.78    3.12
  10  -1  -2   62.11    3.40
 -10  -1   1   28.04    2.00
  10  -1  -1   25.14    2.01
  10  -1   0   43.57    2.31
 -10  -1   0   51.91    2.53
 -10  -1  -1   46.54    2.52
 -10  -1  -2   12.80    1.17
  10   0 -10   29.95    2.06
  10   0  -9   50.24    3.07
  10   0  -8   42.37    2.99
  10   0  -8   43.46    2.29
  10   0  -7    5.38    1.63
  10   0  -7    4.66    1.12
  10   0  -6   20.97    2.44
  10   0  -6   20.72    1.98
  10   0  -5    1.20    1.43
  10   0  -4   32.44    2.57
 -10   0   3   61.07    3.28
  10   0  -3   60.07    3.49
 -10   0   2   51.58    2.93
  10   0  -2   52.75    3.14
 -10   0   1  128.85    4.87
  10   0  -1  122.53    4.86
  10   0   0  106.79    3.91
 -10   0   0  110.07    4.20
 -10   0  -1   88.99    3.42
  10   1 -10    1.07    0.73
  10   1  -9    5.50    1.29
  10   1  -8   23.65    1.68
  10   1  -7   33.81    2.76
  10   1  -7   34.59    2.31
  10   1  -6    5.44    1.68
  10   1  -6    8.31    1.41
  10   1  -5   13.37    2.01
  10   1  -4   33.41    2.50
 -10   1   3   79.79    3.72
  10   1  -3   72.11    3.78
 -10   1   2   64.69    3.27
  10   1  -2   64.82    3.40
 -10   1   1   24.30    1.86
  10   1  -1   23.68    1.88
 -10   1   0   50.18    2.52
 -10   1  -2   13.18    1.26
  10   2  -9   29.46    1.92
  10   2  -8   34.85    2.40
  10   2  -8   40.13    2.09
  10   2  -7   43.07    2.81
  10   2  -7   48.70    2.57
  10   2  -6   65.22    3.69
  10   2  -6   70.43    3.39
  10   2  -5   78.22    4.13
  10   2  -5   83.14    3.81
  10   2  -4   65.38    3.77
 -10   2   4   70.68    3.28
  10   2  -4   65.61    3.41
 -10   2   3   72.58    3.30
  10   2  -3   67.77    3.44
 -10   2   2   97.58    3.89
  10   2  -2   95.02    4.07
  10   2  -1   26.74    1.85
 -10   2   1   30.06    1.87
 -10   2   0    1.33    0.61
 -10   2  -2   17.38    1.17
  10   3  -8    2.52    0.64
 -10   3   7    1.02    0.47
  10   3  -7    1.21    0.72
 -10   3   6    6.53    0.81
  10   3  -6    7.16    1.14
  10   3  -5    9.72    1.29
 -10   3   5    9.60    0.97
  10   3  -5   11.11    1.38
 -10   3   4   15.04    1.20
  10   3  -4   14.77    1.51
  10   3  -4   14.76    1.53
 -10   3   3   36.81    1.86
  10   3  -3   40.88    2.36
  10   3  -2   12.15    1.25
 -10   3   2   12.59    1.02
 -10   3   1    0.31    0.39
  10   4  -7   38.98    1.82
  10   4  -5   97.93    3.60
  10   4  -4   52.11    2.42
  10   4  -3   29.23    1.70
  10   4  -2   20.33    1.21
  10   5  -5    6.06    0.63
  11  -3  -7    1.45    0.50
  11  -3  -6    0.76    0.46
  11  -3  -6   -0.12    0.48
  11  -3  -5    6.90    0.88
  11  -3  -4   -0.10    0.24
  11  -3  -3    2.24    0.66
  11  -3  -2    8.59    0.80
 -11  -2   8   25.97    1.21
  11  -2  -8   26.61    1.52
  11  -2  -7   23.85    1.69
  11  -2  -7   19.79    1.27
 -11  -2   7   24.50    1.32
  11  -2  -7   23.40    1.52
 -11  -2   6   24.90    1.42
  11  -2  -6   24.01    1.59
  11  -2  -6   21.22    1.44
 -11  -2   5   36.19    1.81
  11  -2  -5   32.62    2.20
  11  -2  -5   36.05    2.09
 -11  -2   4   63.48    2.52
  11  -2  -4   64.75    2.92
  11  -2  -3   27.38    1.95
  11  -2  -3   31.97    1.94
 -11  -2   3   31.27    1.62
  11  -2  -2   16.56    1.46
  11  -2  -2   17.13    1.32
 -11  -2   2   16.33    1.06
  11  -2  -1    6.74    0.68
  11  -1  -9   10.55    1.08
  11  -1  -9   10.96    0.95
  11  -1  -8    0.86    0.93
  11  -1  -8   -0.03    0.22
  11  -1  -8    0.15    0.60
  11  -1  -7    3.72    1.14
  11  -1  -7    2.42    0.71
  11  -1  -7    2.85    0.76
  11  -1  -6   17.58    1.86
  11  -1  -6   16.05    1.48
  11  -1  -6   14.99    1.24
  11  -1  -5    7.69    1.46
 -11  -1   5    7.50    1.05
  11  -1  -4   17.83    1.91
 -11  -1   4   17.83    1.48
  11  -1  -4   16.44    1.65
 -11  -1   3   12.38    1.24
  11  -1  -3   13.82    1.45
  11  -1  -2   38.40    2.13
 -11  -1   2   40.78    2.07
 -11  -1   1   18.93    1.29
  11  -1  -1   20.37    1.26
 -11  -1   1   18.82    1.28
  11   0  -9    3.89    0.92
  11   0  -8   29.00    2.12
  11   0  -8   26.71    1.42
  11   0  -7   18.16    1.88
  11   0  -7   20.78    1.57
  11   0  -6   42.39    2.84
  11   0  -6   46.69    2.56
  11   0  -5   53.89    3.27
 -11   0   5   62.37    2.94
  11   0  -4    5.42    1.45
 -11   0   4    4.34    0.97
  11   0  -4    5.25    1.15
 -11   0   3   39.44    2.24
  11   0  -3   39.24    2.36
  11   0  -2   64.08    2.87
 -11   0   2   63.03    2.79
  11   0  -1   85.73    3.04
 -11   0   1   96.09    3.36
 -11   0   0   38.74    1.94
  11   1  -9   10.35    1.07
  11   1  -8    0.71    0.89
  11   1  -8   -0.16    0.48
  11   1  -7    2.75    1.12
  11   1  -7    2.46    0.83
  11   1  -6   10.81    1.55
  11   1  -6   15.24    1.49
  11   1  -5    8.58    1.50
 -11   1   5   11.27    1.22
  11   1  -5   10.34    1.37
  11   1  -4   18.31    1.91
 -11   1   4   20.19    1.58
  11   1  -4   18.62    1.71
 -11   1   3   11.60    1.21
  11   1  -3   11.48    1.36
  11   1  -2   34.64    1.97
 -11   1   2   39.23    2.05
 -11   1   1   23.11    1.42
 -11   2   8   29.32    1.32
  11   2  -8   27.91    1.38
 -11   2   7   26.54    1.39
  11   2  -7   25.65    1.58
  11   2  -6   20.53    1.68
 -11   2   6   25.26    1.46
 -11   2   5   35.13    1.84
  11   2  -5   32.84    2.17
  11   2  -5   36.98    2.16
 -11   2   4   62.87    2.58
  11   2  -4   65.89    2.93
  11   2  -3   28.41    1.97
  11   2  -3   34.98    1.98
 -11   2   3   31.68    1.68
  11   2  -2   15.87    1.36
  11   2  -2   12.67    1.07
 -11   2   2   15.17    1.05
  11   3  -7    2.12    0.56
  11   3  -5    6.61    0.91
  11   3  -4   11.46    1.10
  11   3  -3    2.53    0.60
 -12  -1   6    8.39    0.69
  12  -1  -6    7.31    0.87
  12  -1  -6    8.49    0.78
 -12  -1   5    8.74    0.72
  12  -1  -5    7.56    0.97
  12  -1  -4    5.55    0.83
  12  -1  -4    8.05    0.81
 -12  -1   4    6.73    0.64
 -12  -1   3    0.79    0.31
  12   0  -7   86.17    3.27
 -12   0   7   99.13    2.97
 -12   0   6   54.48    2.06
  12   0  -6   47.06    2.32
  12   0  -6   51.79    2.11
 -12   0   5   43.59    1.85
  12   0  -5   45.71    2.01
  12   0  -4    5.07    0.91
  12   0  -4    4.69    0.69
  12   0  -3   15.66    1.25
  12   0  -3   15.64    0.95
 -12   1   6    7.98    0.66
  12   1  -6    5.68    0.78
  12   1  -6    7.62    0.77
 -12   1   5    8.82    0.73
  12   1  -5    8.42    0.85
  12   1  -4    6.79    0.90
  12   1  -4    7.15    0.77
 -12   1   4    7.09    0.66
 -12   1   3    0.90    0.34
   0   0   0    0.00    0.00
;
_shelx_hkl_checksum              89371
loop_
_space_group_symop_operation_xyz
'x, y, z'
'-x, y+1/2, -z'
loop_
_atom_site_label
_atom_site_type_symbol
_atom_site_fract_x
_atom_site_fract_y
_atom_site_fract_z
_atom_site_U_iso_or_equiv
_atom_site_adp_type
_atom_site_occupancy
_atom_site_site_symmetry_order
_atom_site_calc_flag
_atom_site_refinement_flags_posn
_atom_site_refinement_flags_adp
_atom_site_refinement_flags_occupancy
_atom_site_disorder_assembly
_atom_site_disorder_group
Ni1 Ni 0.49133(5) 0.51181(13) 0.49103(5) 0.02272(13) Uani 1 1 d . . . . .
C1 C 0.7481(4) 1.1047(6) 0.0968(4) 0.0438(10) Uani 1 1 d . . . . .
H1 H 0.6546 1.1543 0.0973 0.053 Uiso 1 1 calc R U . . .
C3 C 0.8558(4) 1.0641(5) 0.2497(3) 0.0364(8) Uani 1 1 d . . . . .
H3A H 0.9341 1.1590 0.2787 0.044 Uiso 1 1 calc R U . . .
H3B H 0.8033 1.0730 0.3130 0.044 Uiso 1 1 calc R U . . .
C6 C 0.8621(5) 0.8499(8) 0.0027(5) 0.0598(12) Uani 1 1 d . . . . .
H6A H 0.8874 0.9336 -0.0602 0.072 Uiso 1 1 calc R U . . .
H6B H 0.8484 0.7220 -0.0367 0.072 Uiso 1 1 calc R U . . .
C7 C 0.9868(4) 0.8501(7) 0.1496(4) 0.0469(9) Uani 1 1 d . . . . .
H7A H 1.0427 0.7321 0.1641 0.056 Uiso 1 1 calc R U . . .
H7B H 1.0538 0.9555 0.1572 0.056 Uiso 1 1 calc R U . . .
C8 C 0.7196(5) 0.9179(7) 0.0145(4) 0.0502(11) Uani 1 1 d . . . . .
H8 H 0.6420 0.9352 -0.0803 0.060 Uiso 1 1 calc R U . . .
C9 C 1.0399(4) 0.8460(7) 0.4048(4) 0.0469(9) Uani 1 1 d . . . . .
H9A H 1.1159 0.9399 0.4192 0.070 Uiso 1 1 calc R U . . .
H9B H 1.0821 0.7206 0.4135 0.070 Uiso 1 1 calc R U . . .
H9C H 0.9978 0.8624 0.4749 0.070 Uiso 1 1 calc R U . . .
C10 C 0.8038(4) 0.7207(6) 0.2338(4) 0.0507(11) Uani 1 1 d . . . . .
H10A H 0.7721 0.7170 0.3128 0.061 Uiso 1 1 calc R U . . .
H10B H 0.8430 0.5961 0.2254 0.061 Uiso 1 1 calc R U . . .
C11 C 0.6720(4) 0.7683(9) 0.0970(4) 0.0602(11) Uani 1 1 d . . . . .
H11A H 0.6383 0.6540 0.0399 0.072 Uiso 1 1 calc R U . . .
H11B H 0.5908 0.8171 0.1194 0.072 Uiso 1 1 calc R U . . .
N4 N 0.3028(3) 0.3399(4) 0.4260(3) 0.0277(6) Uani 1 1 d . . . . .
N5 N 0.5914(3) 0.3528(4) 0.6787(3) 0.0278(6) Uani 1 1 d . . . . .
N6 N 0.5865(3) 0.3428(4) 0.3804(3) 0.0265(6) Uani 1 1 d . . . . .
N7 N 0.9220(3) 0.8695(4) 0.2605(3) 0.0290(6) Uani 1 1 d . . . . .
O5 O 0.1768(3) 0.4052(4) 0.3785(3) 0.0498(7) Uani 1 1 d . . . . .
O6 O 0.6876(2) 0.6607(4) 0.5600(3) 0.0338(6) Uani 1 1 d . . . . .
O7 O 0.6450(3) 0.4406(4) 0.7921(2) 0.0468(7) Uani 1 1 d . . . . .
O8 O 0.3959(3) 0.6744(4) 0.3121(2) 0.0336(6) Uani 1 1 d . . . . .
O9 O 0.6350(3) 0.4142(4) 0.2981(3) 0.0454(7) Uani 1 1 d . . . . .
O10 O 0.3950(3) 0.6644(4) 0.6015(3) 0.0323(5) Uani 1 1 d . . . . .
O11 O 0.8173(3) 1.2470(6) 0.0434(3) 0.0639(8) Uani 1 1 d . . . . .
H11 H 0.7616 1.2767 -0.0373 0.096 Uiso 1 1 calc R U . . .
loop_
_atom_site_aniso_label
_atom_site_aniso_U_11
_atom_site_aniso_U_22
_atom_site_aniso_U_33
_atom_site_aniso_U_23
_atom_site_aniso_U_13
_atom_site_aniso_U_12
Ni1 0.0241(2) 0.0148(2) 0.0279(2) 0.0001(2) 0.00851(16) 0.0001(2)
C1 0.0334(17) 0.053(3) 0.0363(19) 0.0103(17) 0.0037(15) 0.0077(16)
C3 0.0385(16) 0.035(2) 0.0306(16) -0.0007(14) 0.0077(13) 0.0078(15)
C6 0.077(3) 0.067(3) 0.043(2) -0.012(2) 0.033(2) -0.007(3)
C7 0.047(2) 0.053(3) 0.054(2) 0.000(2) 0.0329(18) 0.006(2)
C8 0.044(2) 0.068(3) 0.0296(18) -0.0037(18) 0.0043(16) -0.0086(19)
C9 0.0418(19) 0.044(2) 0.043(2) 0.0103(18) 0.0031(16) 0.0043(19)
C10 0.048(2) 0.044(3) 0.056(2) 0.0026(19) 0.0164(18) -0.0179(19)
C11 0.043(2) 0.071(3) 0.060(2) -0.009(3) 0.0122(18) -0.022(2)
N4 0.0267(12) 0.0218(16) 0.0334(13) 0.0003(11) 0.0101(10) 0.0012(11)
N5 0.0317(13) 0.0220(16) 0.0255(12) 0.0010(11) 0.0064(10) 0.0019(12)
N6 0.0260(12) 0.0227(15) 0.0299(13) -0.0022(11) 0.0097(10) -0.0054(12)
N7 0.0232(12) 0.0257(15) 0.0363(14) 0.0027(12) 0.0095(10) 0.0005(11)
O5 0.0229(11) 0.0334(17) 0.083(2) 0.0041(14) 0.0088(12) 0.0089(10)
O6 0.0230(10) 0.0194(13) 0.0529(14) -0.0016(11) 0.0079(10) 0.0013(9)
O7 0.0657(17) 0.0324(14) 0.0277(12) -0.0078(10) 0.0021(11) 0.0015(12)
O8 0.0417(13) 0.0218(13) 0.0300(11) 0.0006(10) 0.0055(10) -0.0011(11)
O9 0.0638(17) 0.0314(15) 0.0572(16) 0.0074(12) 0.0414(14) -0.0027(12)
O10 0.0420(12) 0.0182(13) 0.0446(13) -0.0016(10) 0.0254(11) -0.0018(11)
O11 0.0624(17) 0.061(2) 0.0496(16) 0.0231(18) 0.0009(13) -0.0043(19)
loop_
_atom_type_symbol
_atom_type_description
_atom_type_scat_dispersion_real
_atom_type_scat_dispersion_imag
_atom_type_scat_source
C C 0.0181 0.0091 'International Tables Vol C Tables 4.2.6.8 and 6.1.1.4'
H H 0.0000 0.0000 'International Tables Vol C Tables 4.2.6.8 and 6.1.1.4'
N N 0.0311 0.0180 'International Tables Vol C Tables 4.2.6.8 and 6.1.1.4'
O O 0.0492 0.0322 'International Tables Vol C Tables 4.2.6.8 and 6.1.1.4'
Ni Ni -3.0029 0.5091 'International Tables Vol C Tables 4.2.6.8 and 6.1.1.4'
loop_
_geom_angle_atom_site_label_1
_geom_angle_atom_site_label_2
_geom_angle_atom_site_label_3
_geom_angle
_geom_angle_site_symmetry_1
_geom_angle_site_symmetry_3
_geom_angle_publ_flag
O10 Ni1 O8 93.06(11) . . ?
O10 Ni1 O6 96.58(11) . . ?
O8 Ni1 O6 93.84(11) . . ?
O10 Ni1 N4 86.45(11) . . ?
O8 Ni1 N4 89.70(10) . . ?
O6 Ni1 N4 175.20(14) . . ?
O10 Ni1 N6 177.18(14) . . ?
O8 Ni1 N6 88.71(11) . . ?
O6 Ni1 N6 85.48(10) . . ?
N4 Ni1 N6 91.37(11) . . ?
O10 Ni1 N5 85.71(11) . . ?
O8 Ni1 N5 178.18(14) . . ?
O6 Ni1 N5 84.98(10) . . ?
N4 Ni1 N5 91.56(12) . . ?
N6 Ni1 N5 92.57(12) . . ?
O11 C1 C8 113.8(4) . . ?
O11 C1 C3 106.1(3) . . ?
C8 C1 C3 108.0(3) . . ?
N7 C3 C1 110.6(3) . . ?
C8 C6 C7 109.3(3) . . ?
N7 C7 C6 109.4(3) . . ?
C6 C8 C1 109.6(4) . . ?
C6 C8 C11 108.2(4) . . ?
C1 C8 C11 108.4(4) . . ?
N7 C10 C11 109.5(4) . . ?
C8 C11 C10 109.0(3) . . ?
O5 N4 O6 115.8(3) . 2_646 ?
O5 N4 Ni1 122.8(2) . . ?
O6 N4 Ni1 121.4(2) 2_646 . ?
O7 N5 O8 115.6(3) . 2_646 ?
O7 N5 Ni1 118.0(2) . . ?
O8 N5 Ni1 126.4(2) 2_646 . ?
O9 N6 O10 115.7(3) . 2_646 ?
O9 N6 Ni1 120.9(2) . . ?
O10 N6 Ni1 123.4(2) 2_646 . ?
C9 N7 C3 108.8(3) . . ?
C9 N7 C10 110.5(3) . . ?
C3 N7 C10 109.8(3) . . ?
C9 N7 C7 110.2(3) . . ?
C3 N7 C7 108.9(3) . . ?
C10 N7 C7 108.6(3) . . ?
N4 O6 Ni1 124.2(2) 2_656 . ?
N5 O8 Ni1 119.3(2) 2_656 . ?
N6 O10 Ni1 122.0(2) 2_656 . ?
loop_
_geom_bond_atom_site_label_1
_geom_bond_atom_site_label_2
_geom_bond_distance
_geom_bond_site_symmetry_2
_geom_bond_publ_flag
Ni1 O10 2.030(3) . ?
Ni1 O8 2.047(3) . ?
Ni1 O6 2.055(2) . ?
Ni1 N4 2.084(3) . ?
Ni1 N6 2.086(3) . ?
Ni1 N5 2.103(3) . ?
C1 O11 1.426(5) . ?
C1 C8 1.522(6) . ?
C1 C3 1.535(5) . ?
C3 N7 1.495(4) . ?
C6 C8 1.520(6) . ?
C6 C7 1.524(6) . ?
C7 N7 1.502(4) . ?
C8 C11 1.526(7) . ?
C9 N7 1.489(4) . ?
C10 N7 1.500(5) . ?
C10 C11 1.527(6) . ?
N4 O5 1.225(4) . ?
N4 O6 1.263(3) 2_646 ?
N5 O7 1.235(4) . ?
N5 O8 1.256(3) 2_646 ?
N6 O9 1.221(4) . ?
N6 O10 1.266(3) 2_646 ?
O6 N4 1.263(3) 2_656 ?
O8 N5 1.256(3) 2_656 ?
O10 N6 1.266(3) 2_656 ?
loop_
_geom_hbond_atom_site_label_D
_geom_hbond_atom_site_label_H
_geom_hbond_atom_site_label_A
_geom_hbond_distance_DH
_geom_hbond_distance_HA
_geom_hbond_distance_DA
_geom_hbond_angle_DHA
_geom_hbond_site_symmetry_A
C3 H3B O10 0.97 2.50 3.419(4) 158.6 2_656
C9 H9A O6 0.96 2.41 3.369(5) 175.0 2_756
C9 H9B O5 0.96 2.47 3.417(5) 167.2 1_655
O11 H11 O7 0.82 2.03 2.815(4) 160.3 1_564
loop_
_geom_torsion_atom_site_label_1
_geom_torsion_atom_site_label_2
_geom_torsion_atom_site_label_3
_geom_torsion_atom_site_label_4
_geom_torsion
_geom_torsion_site_symmetry_1
_geom_torsion_site_symmetry_2
_geom_torsion_site_symmetry_3
_geom_torsion_site_symmetry_4
_geom_torsion_publ_flag
O11 C1 C3 N7 -110.3(4) . . . . ?
C8 C1 C3 N7 12.0(4) . . . . ?
C8 C6 C7 N7 14.0(6) . . . . ?
C7 C6 C8 C1 50.8(5) . . . . ?
C7 C6 C8 C11 -67.2(5) . . . . ?
O11 C1 C8 C6 52.0(4) . . . . ?
C3 C1 C8 C6 -65.5(4) . . . . ?
O11 C1 C8 C11 169.9(3) . . . . ?
C3 C1 C8 C11 52.4(4) . . . . ?
C6 C8 C11 C10 50.3(5) . . . . ?
C1 C8 C11 C10 -68.5(5) . . . . ?
N7 C10 C11 C8 14.6(5) . . . . ?
C1 C3 N7 C9 172.5(3) . . . . ?
C1 C3 N7 C10 -66.4(4) . . . . ?
C1 C3 N7 C7 52.5(4) . . . . ?
C11 C10 N7 C9 170.2(4) . . . . ?
C11 C10 N7 C3 50.2(4) . . . . ?
C11 C10 N7 C7 -68.8(4) . . . . ?
C6 C7 N7 C9 173.1(4) . . . . ?
C6 C7 N7 C3 -67.8(4) . . . . ?
C6 C7 N7 C10 51.8(5) . . . . ?
