#------------------------------------------------------------------------------
#$Date: 2020-04-04 07:08:59 +0300 (Sat, 04 Apr 2020) $
#$Revision: 250058 $
#$URL: file:///home/coder/svn-repositories/cod/cif/4/13/44/4134468.cif $
#------------------------------------------------------------------------------
#
# This file is available in the Crystallography Open Database (COD),
# http://www.crystallography.net/
#
# All data on this site have been placed in the public domain by the
# contributors.
#
data_4134468
loop_
_publ_author_name
'Xu, Bin'
'Troian-Gautier, Ludovic'
'Dykstra, Ryan'
'Martin, Robert T.'
'Gutierrez, Osvaldo'
'Tambar, Uttam K.'
_publ_section_title
;
 Photocatalyzed Diastereoselective Isomerization of Cinnamyl Chlorides to
 Cyclopropanes.
;
_journal_issue                   13
_journal_name_full               'Journal of the American Chemical Society'
_journal_page_first              6206
_journal_page_last               6215
_journal_paper_doi               10.1021/jacs.0c00147
_journal_volume                  142
_journal_year                    2020
_chemical_absolute_configuration ad
_chemical_formula_moiety         'C11 H9 Cl S'
_chemical_formula_sum            'C11 H9 Cl S'
_chemical_formula_weight         208.69
_space_group_crystal_system      monoclinic
_space_group_IT_number           4
_space_group_name_Hall           'P 2yb'
_space_group_name_H-M_alt        'P 1 21 1'
_atom_sites_solution_hydrogens   geom
_audit_creation_method           SHELXL-2016/6
_cell_angle_alpha                90
_cell_angle_beta                 109.178(5)
_cell_angle_gamma                90
_cell_formula_units_Z            2
_cell_length_a                   8.3530(4)
_cell_length_b                   5.8263(2)
_cell_length_c                   10.6780(4)
_cell_measurement_reflns_used    4327
_cell_measurement_temperature    100(2)
_cell_measurement_theta_max      26.3
_cell_measurement_theta_min      2.00
_cell_volume                     490.83(4)
_computing_cell_refinement
'CrysAlisPro V 1.171.39.46, Agilent Technologies'
_computing_data_collection       'CrystalClear 1.40 (Rigaku Inc., 2008)'
_computing_data_reduction
'CrysAlisPro V 1.171.39.46, Agilent Technologies'
_computing_molecular_graphics    'XP SHELXTL/PC, Siemens Analytical'
_computing_publication_material  'XP SHELXTL/PC, Siemens Analytical'
_computing_structure_refinement  'SHELXL-2016/6 (Sheldrick, 2015)'
_computing_structure_solution
;

Sheldrick. G. M.  (2015) SHELXT. Acta Cryst. A71, 3-8.

;
_diffrn_ambient_temperature      100(2)
_diffrn_measured_fraction_theta_full 1.000
_diffrn_measured_fraction_theta_max 0.998
_diffrn_measurement_device_type  'Rigaku AFC-12 with a Saturn 724+ CCD'
_diffrn_measurement_method       \w-scans
_diffrn_radiation_type           MoK\a
_diffrn_radiation_wavelength     0.71073
_diffrn_reflns_av_R_equivalents  0.0263
_diffrn_reflns_av_unetI/netI     0.0258
_diffrn_reflns_Laue_measured_fraction_full 1.000
_diffrn_reflns_Laue_measured_fraction_max 0.998
_diffrn_reflns_limit_h_max       10
_diffrn_reflns_limit_h_min       -10
_diffrn_reflns_limit_k_max       7
_diffrn_reflns_limit_k_min       -7
_diffrn_reflns_limit_l_max       13
_diffrn_reflns_limit_l_min       -13
_diffrn_reflns_number            6202
_diffrn_reflns_point_group_measured_fraction_full 1.000
_diffrn_reflns_point_group_measured_fraction_max 0.998
_diffrn_reflns_theta_full        25.242
_diffrn_reflns_theta_max         26.380
_diffrn_reflns_theta_min         2.019
_diffrn_source                   'fine focus sealed tube'
_exptl_absorpt_coefficient_mu    0.547
_exptl_absorpt_correction_T_max  1.00
_exptl_absorpt_correction_T_min  0.794
_exptl_absorpt_correction_type   multi-scan
_exptl_absorpt_process_details
;
CrysAlisPro 1.171.40.37a (Rigaku Oxford Diffraction, 2019)
Empirical absorption correction using spherical harmonics,
 implemented in SCALE3 ABSPACK scaling algorithm.
;
_exptl_crystal_colour            colorless
_exptl_crystal_density_diffrn    1.412
_exptl_crystal_description       plates
_exptl_crystal_F_000             216
_exptl_crystal_size_max          0.160
_exptl_crystal_size_mid          0.095
_exptl_crystal_size_min          0.030
_refine_diff_density_max         0.856
_refine_diff_density_min         -0.301
_refine_diff_density_rms         0.092
_refine_ls_abs_structure_details
;
 Refined as an inversion twin.  The bulk sample was racemic.  The 
crystal is a racemic twin.
;
_refine_ls_abs_structure_Flack   0.44(14)
_refine_ls_extinction_method     none
_refine_ls_goodness_of_fit_ref   1.082
_refine_ls_hydrogen_treatment    constr
_refine_ls_matrix_type           full
_refine_ls_number_parameters     119
_refine_ls_number_reflns         1963
_refine_ls_number_restraints     1
_refine_ls_restrained_S_all      1.082
_refine_ls_R_factor_all          0.0489
_refine_ls_R_factor_gt           0.0471
_refine_ls_shift/su_max          0.000
_refine_ls_shift/su_mean         0.000
_refine_ls_structure_factor_coef Fsqd
_refine_ls_weighting_details
'w=1/[\s^2^(Fo^2^)+(0.0830P)^2^+0.3225P] where P=(Fo^2^+2Fc^2^)/3'
_refine_ls_weighting_scheme      calc
_refine_ls_wR_factor_gt          0.1216
_refine_ls_wR_factor_ref         0.1237
_reflns_Friedel_coverage         0.814
_reflns_Friedel_fraction_full    1.000
_reflns_Friedel_fraction_max     0.998
_reflns_number_gt                1885
_reflns_number_total             1963
_reflns_threshold_expression     'I > 2\s(I)'
_cod_data_source_file            ja0c00147_si_002.cif
_cod_data_source_block           shelx
_cod_depositor_comments
'Adding full bibliography for 4134467--4134469.cif.'
_cod_original_sg_symbol_H-M      'P 21'
_cod_database_code               4134468
_shelx_shelxl_version_number     2016/6
_shelx_space_group_comment
;
The symmetry employed for this shelxl refinement is uniquely defined
by the following loop, which should always be used as a source of
symmetry information in preference to the above space-group names.
They are only intended as comments.
;
_shelx_estimated_absorpt_t_min   0.918
_shelx_estimated_absorpt_t_max   0.984
_shelx_res_file
;
TITL shelxt_a.res in P2(1) colorless plate Saturn
    shelx.res
    created by SHELXL-2016/6 at 11:07:28 on 11-Feb-2019
CELL 0.71073   8.352994   5.826343  10.677985  90.0000 109.1780  90.0000
ZERR    2.00   0.000410   0.000210   0.000448   0.0000   0.0052   0.0000
LATT  -1
SYMM  - X, 1/2 + Y, - Z
SFAC  C    H    S    CL
UNIT  22 18 2 2
MERG   2

FMAP   2
PLAN   20
SIZE     0.030   0.095   0.160
ACTA
BOND   $H
CONF
LIST   4
twin

L.S.  10
TEMP  -173.00
WGHT    0.083000    0.322500
BASF   0.44179
FVAR       6.01751
C1    1    0.320709    0.525391    0.340100    11.00000    0.02581    0.02161 =
         0.02819    0.00926    0.01229    0.01051
C2    1    0.341609    0.634384    0.455407    11.00000    0.00588    0.01270 =
         0.02715    0.00048    0.00607    0.00208
AFIX  43
H2    2    0.388821    0.783476    0.476520    11.00000   -1.20000
AFIX   0
C3    1    0.281039    0.490440    0.544974    11.00000    0.01076    0.01300 =
         0.02366    0.00235    0.00343    0.00264
C4    1    0.274880    0.542567    0.672677    11.00000    0.01707    0.01717 =
         0.02120   -0.00292    0.00027    0.00227
AFIX  43
H4    2    0.317440    0.684400    0.714229    11.00000   -1.20000
AFIX   0
C5    1    0.204800    0.380883    0.736507    11.00000    0.02428    0.02483 =
         0.01193   -0.00183    0.00317    0.00486
AFIX  43
H5    2    0.200639    0.414325    0.822460    11.00000   -1.20000
AFIX   0
C6    1    0.141560    0.174139    0.677979    11.00000    0.02303    0.02230 =
         0.01626    0.00900    0.00716    0.00397
AFIX  43
H6    2    0.094737    0.068258    0.724091    11.00000   -1.20000
AFIX   0
C7    1    0.145485    0.118994    0.552778    11.00000    0.01406    0.01333 =
         0.02253    0.00190    0.00651    0.00070
AFIX  43
H7    2    0.102264   -0.023607    0.512667    11.00000   -1.20000
AFIX   0
C8    1    0.214054    0.277020    0.487364    11.00000    0.01436    0.01442 =
         0.01837   -0.00196    0.00511    0.00065
C9    1    0.366741    0.628009    0.229527    11.00000    0.02138    0.02900 =
         0.02332    0.00227    0.00845   -0.00193
AFIX  13
H9    2    0.441415    0.766405    0.253613    11.00000   -1.20000
AFIX   0
C10   1    0.235999    0.633368    0.092426    11.00000    0.02469    0.03501 =
         0.02926    0.00241    0.01012   -0.00702
AFIX  13
H10   2    0.127181    0.552033    0.082812    11.00000   -1.20000
AFIX   0
C11   1    0.389983    0.481995    0.118963    11.00000    0.03884    0.03832 =
         0.02637    0.00896    0.01853    0.01575
AFIX  23
H11A  2    0.478347    0.528981    0.081040    11.00000   -1.20000
H11B  2    0.373829    0.314151    0.122941    11.00000   -1.20000
AFIX   0
S1    3    0.227691    0.252723    0.328516    11.00000    0.02652    0.02143 =
         0.02025   -0.00076    0.00861    0.00086
CL1   4    0.218927    0.878905   -0.007105    11.00000    0.03046    0.03396 =
         0.02513    0.01148    0.01084    0.00543
HKLF    4




REM  shelxt_a.res in P2(1) colorless plate Saturn
REM R1 =  0.0471 for    1885 Fo > 4sig(Fo)  and  0.0489 for all    1963 data
REM    119 parameters refined using      1 restraints

END

WGHT      0.0741      0.3897

REM Highest difference peak  0.856,  deepest hole -0.301,  1-sigma level  0.092
Q1    1   0.2242  0.4852  0.3250  11.00000  0.05    0.86
Q2    1   0.3144  0.7513  0.1408  11.00000  0.05    0.72
Q3    1   0.2729  0.5185  0.1669  11.00000  0.05    0.57
Q4    1   0.2747  0.2497  0.6798  11.00000  0.05    0.52
Q5    1   0.3476  0.1146  0.4511  11.00000  0.05    0.48
Q6    1   0.2772  0.3084  0.5416  11.00000  0.05    0.45
Q7    1   0.2208  0.4376  0.5007  11.00000  0.05    0.41
Q8    1   0.2247  0.6588 -0.0099  11.00000  0.05    0.37
Q9    1   0.2988  0.6072  0.4870  11.00000  0.05    0.33
Q10   1   0.3197  0.6189  0.4041  11.00000  0.05    0.32
Q11   1   0.2418  0.2492  0.4208  11.00000  0.05    0.32
Q12   1   0.1374  0.6512  0.5475  11.00000  0.05    0.31
Q13   1   0.1565  0.5677  0.6668  11.00000  0.05    0.30
Q14   1   0.3360  0.9981  0.1424  11.00000  0.05    0.30
Q15   1   0.1779  0.1740  0.6176  11.00000  0.05    0.28
Q16   1   0.2865  1.0029  0.1541  11.00000  0.05    0.28
Q17   1   0.1587  0.1474  0.2965  11.00000  0.05    0.27
Q18   1   0.4567  0.5973  0.1609  11.00000  0.05    0.26
Q19   1   0.2337  0.6626  0.8238  11.00000  0.05    0.26
Q20   1   0.2414  0.0272  0.3377  11.00000  0.05    0.25
;
_shelx_res_checksum              67363
_shelx_hkl_file
;
   0  -7   0-28.6467 88.0159   1
   0  -7   0 28.5360 133.760   4
   0  -7   1 471.771 167.108   4
   0  -7   1 783.035 133.363   1
   0  -7  -1 657.041 169.538   4
   0  -7   2 1453.66 207.561   4
   0  -7   2 2000.34 183.503   1
   0  -7  -2 2219.42 254.508   4
   0  -7   3 245.881 118.225   1
   0  -7  -3-2.87122 144.419   4
   0  -7   3 197.944 138.427   4
   0  -6   0 731.338 161.231   4
   0  -6   0 677.585 102.735   1
   0  -6   1 4626.91 213.937   1
   0  -6  -1 4466.34 186.892   1
   0  -6  -1 4047.96 264.035   4
   0  -6   1 4000.81 262.682   4
   0  -6   2 847.638 165.272   4
   0  -6  -2 789.609 152.472   4
   0  -6  -2 639.930 88.6457   1
   0  -6   2 676.128 109.263   1
   0  -6  -3 12703.9 475.313   4
   0  -6   3 13129.5 382.567   1
   0  -6  -4 203.403 121.027   4
   0  -6   4 189.373 124.812   4
   0  -6   4 274.674 107.142   1
   0  -6   5 1932.17 181.621   1
   0  -6  -5 1905.33 221.733   4
   0  -6   6 2126.83 231.312   4
   0  -6   6 4830.13 275.777   1
   0  -6   7 1021.59 165.972   1
   0  -6   7 568.501 172.088   4
   0  -5   0 108.741 57.8238   1
   0  -5   0-23.7117 83.4859   4
   0  -5   1 10547.6 283.595   1
   0  -5  -1 11027.6 257.675   1
   0  -5   1 11354.0 381.323   4
   0  -5  -1 10988.1 387.373   4
   0  -5  -2 5808.14 172.954   1
   0  -5   2 6376.45 236.305   1
   0  -5  -2 5838.29 289.688   4
   0  -5   2 5974.50 284.637   4
   0  -5  -3 956.029 72.9931   1
   0  -5   3 1042.70 150.702   4
   0  -5  -3 856.805 147.712   4
   0  -5   3 1007.84 112.513   1
   0  -5   4 5113.90 236.193   1
   0  -5  -4 5064.54 282.858   4
   0  -5   5 2678.83 211.244   4
   0  -5   5 4308.02 228.780   1
   0  -5   6 2283.23 214.868   4
   0  -5   6 3034.86 208.338   1
   0  -5   7 1415.66 167.379   1
   0  -5   7 1427.93 187.984   4
   0  -5   8 7202.45 336.844   1
   0  -5   8 4105.33 296.108   4
   0  -5   9 459.691 192.993   4
   0  -5   9 604.534 157.410   1
   0  -4   0 218.649 53.0628   1
   0  -4   0 198.302 92.2162   4
   0  -4   1 19704.3 437.168   4
   0  -4  -1 17727.7 279.556   1
   0  -4   1 18479.3 329.113   1
   0  -4  -1 19581.7 435.865   4
   0  -4   2 9877.43 261.097   1
   0  -4  -2 10284.8 190.824   1
   0  -4   2 10388.0 323.113   4
   0  -4  -2 10612.8 332.043   4
   0  -4   3 162.061 73.0487   4
   0  -4  -3 204.506 38.4965   1
   0  -4  -3 237.962 87.7758   4
   0  -4   3 109.091 63.4181   1
   0  -4   4 17605.9 373.103   1
   0  -4  -4 18027.3 456.713   4
   0  -4   4 18043.0 450.551   4
   0  -4   5 15674.3 464.760   4
   0  -4   5 16997.1 386.872   1
   0  -4   6 5924.13 242.749   1
   0  -4   6 6247.00 325.202   4
   0  -4   7 6639.94 283.496   1
   0  -4   7 5289.54 304.082   4
   0  -4   8 3108.79 252.180   4
   0  -4   8 5721.30 280.618   1
   0  -4   9 209.921 114.622   1
   0  -4 -10 1059.81 162.896   5
   0  -4  10 901.437 158.994   1
   0  -3   0 58.3969 66.5562   4
   0  -3   0 33.8829 41.5136   1
   0  -3   0 4.49205 44.7988   3
   0  -3  -1 23560.4 266.640   1
   0  -3   1 24871.7 425.959   4
   0  -3   1 24755.9 327.610   1
   0  -3   1 23050.0 338.118   5
   0  -3  -1 22472.7 304.583   3
   0  -3  -1 24481.1 423.192   4
   0  -3   2 10305.5 227.197   5
   0  -3  -2 10862.6 296.102   4
   0  -3   2 11109.7 242.868   1
   0  -3  -2 9373.10 200.923   3
   0  -3  -2 9793.77 153.178   1
   0  -3   2 10731.3 294.648   4
   0  -3   3 4598.29 219.934   4
   0  -3   3 4144.60 163.419   1
   0  -3  -3 4022.01 81.5787   1
   0  -3  -3 4479.87 193.768   4
   0  -3   4 1470.75 139.851   4
   0  -3   4 1379.57 108.617   1
   0  -3  -4 1451.74 129.967   4
   0  -3   5 5557.34 211.497   1
   0  -3   6 2106.88 144.156   1
   0  -3   7 9314.77 299.909   1
   0  -3   8 6812.48 270.991   1
   0  -3   9 130.366 93.9168   1
   0  -3  -9 191.754 99.5581   5
   0  -3  10 1188.47 156.918   1
   0  -3 -10 1139.14 148.855   5
   0  -3 -11 2094.02 199.475   5
   0  -3  11 2112.14 207.040   1
   0  -2   0 1868.19 90.8565   2
   0  -2   0 1690.99 101.277   4
   0  -2   0 1794.19 70.1592   1
   0  -2   0 1821.90 76.4171   3
   0  -2   0 1988.57 87.7225   5
   0  -2  -1 54547.1 430.709   5
   0  -2   1 53701.2 391.101   3
   0  -2  -1 54282.3 449.732   2
   0  -2   1 54883.6 398.475   5
   0  -2  -1 52911.8 502.246   4
   0  -2  -1 54081.2 307.204   1
   0  -2   1 53865.0 442.516   2
   0  -2  -1 54123.6 368.833   3
   0  -2   1 54812.1 409.097   1
   0  -2   1 56883.3 521.467   4
   0  -2   2 14363.2 211.236   5
   0  -2   2 14174.3 218.759   3
   0  -2  -2 13211.2 121.605   1
   0  -2  -2 14095.0 243.953   2
   0  -2  -2 14189.1 242.813   5
   0  -2  -2 14697.0 274.439   4
   0  -2   2 14230.2 235.875   2
   0  -2  -2 14679.2 203.046   3
   0  -2   3 17681.2 246.300   5
   0  -2   3 16810.3 260.083   3
   0  -2   3 16794.1 274.975   2
   0  -2  -3 17177.0 239.123   3
   0  -2  -3 17536.5 319.701   4
   0  -2   4 19847.8 279.785   5
   0  -2  -4 19386.4 271.140   3
   0  -2   6 12694.1 296.161   1
   0  -2   7 9676.51 279.389   1
   0  -2  -8 15533.1 365.206   5
   0  -2   8 15245.9 369.939   1
   0  -2  -9 428.372 97.5325   5
   0  -2   9 371.799 97.3190   1
   0  -2 -10 3277.80 207.092   5
   0  -2  10 3213.00 209.280   1
   0  -2 -11 4944.94 257.890   5
   0  -2  11 4870.08 267.748   1
   0  -2  12 2186.76 208.655   1
   0  -2 -12 2863.21 218.848   5
   0  -1   0-58.1831 41.4414   4
   0  -1   0 13.2083 29.9223   2
   0  -1   0-3.87551 24.8500   3
   0  -1   0-4.44036 21.6842   1
   0  -1   0 25.7851 28.4010   5
   0  -1   1 10318.8 132.625   3
   0  -1  -1 9691.59 147.839   2
   0  -1   1 10259.7 130.633   5
   0  -1  -1 9980.47 121.570   3
   0  -1   1 10302.6 143.691   2
   0  -1  -1 9165.88 156.875   4
   0  -1   2 8698.09 150.137   2
   0  -1  -2 9118.25 134.097   3
   0  -1   2 9909.09 157.095   3
   0  -1   2 8730.39 134.421   5
   0  -1   3 14817.9 217.273   2
   0  -1  -3 14569.6 195.601   3
   0  -1   3 14095.2 190.284   5
   0  -1  -4 19420.3 253.605   3
   0  -1   4 20144.9 259.599   5
   0  -1   5 15852.4 261.111   5
   0  -1  -6 1047.03 91.1429   5
   0  -1  -7 8952.92 247.712   5
   0  -1  -8 1276.19 113.563   5
   0  -1   8 1232.66 118.575   1
   0  -1   9 205.517 70.9046   1
   0  -1  -9 153.463 77.4770   5
   0  -1 -10 5428.10 237.285   5
   0  -1  10 4979.30 228.267   1
   0  -1 -11 516.308 114.495   5
   0  -1  11 611.869 115.564   1
   0  -1  12 170.521 108.718   1
   0  -1 -12 297.948 117.784   5
   0   0  -1 21271.3 128.641   5
   0   0  -1 20322.7 130.889   3
   0   0   1 20980.3 135.262   3
   0   0   1 21095.6 130.835   5
   0   0   2 12957.4 150.603   3
   0   0   2 12896.6 148.816   5
   0   0  -2 13114.0 146.697   5
   0   0  -2 13116.5 150.064   3
   0   0  -3 55534.6 367.084   3
   0   0   3 55077.4 378.517   3
   0   0  -3 55264.5 363.776   5
   0   0  -4 20288.5 254.544   5
   0   0  -4 19895.3 246.513   3
   0   0   4 21331.6 278.377   3
   0   0   5 16886.6 272.004   3
   0   0  -5 17311.9 266.069   5
   0   0  -6 42930.6 457.895   5
   0   0   6 41833.0 464.791   3
   0   0  -7 2099.51 122.057   5
   0   0   7 2158.14 134.658   3
   0   0  -8 33.7618 61.1250   5
   0   0   8 73.7878 54.7810   1
   0   0   8 74.3402 74.3160   3
   0   0  -9 42236.8 571.092   5
   0   0  -9 43280.8 589.023   2
   0   0   9 42712.9 616.193   3
   0   0   9 43345.1 542.582   1
   0   0 -10 160.025 89.8831   2
   0   0  10-4.26724 62.0892   1
   0   0 -10 52.5779 75.0738   5
   0   0  10 22.2482 89.9707   3
   0   0 -11-10.5347 89.0736   2
   0   0 -11 115.816 91.0130   5
   0   0  11 83.8454 84.8977   1
   0   0  11 34.3584 104.322   3
   0   0 -12 7633.23 304.891   5
   0   0 -12 8288.20 327.128   2
   0   0  12 7496.27 291.304   1
   0   1   0 31.9572 34.1043   4
   0   1   0 58.6753 30.1920   3
   0   1   0 27.9562 32.5382   5
   0   1   1 10158.4 164.388   4
   0   1   1 10018.3 124.729   3
   0   1  -1 10321.3 133.080   3
   0   1  -1 9929.88 125.284   5
   0   1  -1 10700.8 142.991   2
   0   1  -2 9078.64 135.430   5
   0   1   2 8680.77 136.002   3
   0   1   2 9619.15 184.145   4
   0   1  -2 9486.49 150.917   2
   0   1  -2 9617.60 151.868   3
   0   1   3 13976.4 248.769   4
   0   1  -3 13980.0 187.136   5
   0   1   3 13086.3 116.120   1
   0   1   3 13373.1 189.153   3
   0   1  -3 14084.3 205.402   3
   0   1  -3 14440.2 222.052   3
   0   1  -3 14554.8 205.018   2
   0   1  -4 20442.2 274.270   2
   0   1  -4 19356.9 267.851   3
   0   1   4 19879.8 260.228   3
   0   1  -4 19938.2 252.618   5
   0   1  -4 19617.3 277.285   3
   0   1   5 14368.6 250.897   3
   0   1  -5 15874.2 269.545   3
   0   1  -5 15093.3 246.602   5
   0   1  -5 15203.2 263.428   2
   0   1  -6 1248.17 96.4379   3
   0   1  -6 1267.45 94.5524   2
   0   1  -6 1084.17 84.7534   5
   0   1   6 1346.84 101.460   3
   0   1  -7 8997.43 226.911   5
   0   1   7 8960.80 243.057   3
   0   1  -7 9303.97 241.818   3
   0   1   7 9589.69 192.665   1
   0   1  -7 9006.93 239.035   2
   0   1  -8 1300.48 109.763   2
   0   1   8 1112.25 109.689   3
   0   1  -8 1530.13 122.301   3
   0   1  -8 1269.84 109.345   5
   0   1   8 1253.62 87.1153   1
   0   1   9 176.976 56.8179   1
   0   1   9 23.6017 74.6172   3
   0   1  -9 173.686 71.6563   2
   0   1  -9 187.965 75.9251   3
   0   1  -9 187.922 76.2317   5
   0   1  10 5018.74 197.251   1
   0   1 -10 5514.11 235.363   2
   0   1 -10 5406.74 229.043   3
   0   1  10 5739.30 253.120   3
   0   1 -10 4991.81 215.759   5
   0   1 -11 343.237 97.7449   5
   0   1 -11 417.980 104.519   2
   0   1  11 360.927 112.590   3
   0   1 -11 705.103 122.119   3
   0   1  12 507.951 133.715   3
   0   1 -12 200.898 103.390   5
   0   1 -12 158.937 108.877   2
   0   1 -12 231.341 110.073   3
   0   2   0 1993.70 110.399   4
   0   2   0 1742.41 83.4664   5
   0   2   0 1610.17 88.2189   2
   0   2   0 1650.72 72.7219   3
   0   2   1 53578.3 462.629   2
   0   2  -1 54054.8 438.381   2
   0   2  -1 52658.4 382.259   3
   0   2  -1 53228.5 396.537   5
   0   2   1 54928.5 525.015   4
   0   2   1 54375.6 378.865   3
   0   2   2 13989.3 201.061   3
   0   2   2 13868.3 272.879   4
   0   2  -2 14186.8 211.207   5
   0   2  -2 13951.0 229.720   2
   0   2  -2 14056.2 212.695   3
   0   2  -3 16857.2 263.148   2
   0   2  -3 16782.6 235.633   5
   0   2   3 17431.6 235.914   3
   0   2  -3 17039.1 254.731   3
   0   2   3 16422.8 315.939   4
   0   2  -4 19513.2 300.150   2
   0   2  -4 19395.2 268.129   5
   0   2   4 20067.7 280.052   3
   0   2  -4 19399.4 292.754   3
   0   2   5 15014.6 263.878   3
   0   2  -5 14341.0 277.628   2
   0   2  -5 14582.3 274.797   3
   0   2  -5 14328.2 250.451   5
   0   2  -6 13145.3 287.674   2
   0   2  -6 12276.7 270.877   3
   0   2   6 12991.9 137.876   1
   0   2  -6 12868.0 257.598   5
   0   2   6 12625.3 264.527   3
   0   2   6 12673.7 141.226   1
   0   2   7 8702.61 139.096   1
   0   2   7 8436.25 235.586   3
   0   2  -7 8590.09 240.170   3
   0   2  -7 9577.49 235.500   5
   0   2  -7 9572.70 262.426   2
   0   2   7 8542.41 139.505   1
   0   2   8 15968.7 351.110   3
   0   2  -8 15929.4 330.324   5
   0   2  -8 14427.0 329.871   3
   0   2  -8 16236.6 364.600   2
   0   2   8 14260.6 205.137   1
   0   2  -9 423.497 88.1400   5
   0   2  -9 314.697 86.7546   3
   0   2  -9 318.029 85.5583   2
   0   2   9 414.814 97.0625   3
   0   2 -10 3701.97 192.302   5
   0   2  10 3337.00 199.630   3
   0   2 -10 3382.46 193.244   3
   0   2 -10 3535.65 203.254   2
   0   2 -11 4664.20 246.737   2
   0   2 -11 5206.49 250.454   3
   0   2 -11 5113.87 237.308   5
   0   2  11 4997.38 255.282   3
   0   2 -12 2589.45 189.662   5
   0   2 -12 2484.07 199.799   3
   0   2 -12 2957.51 217.122   2
   0   2  12 3230.82 234.661   3
   0   3   0 20.7135 41.8198   3
   0   3   0 8.71015 51.2413   5
   0   3   0-33.9713 50.8040   2
   0   3  -1 23722.0 373.843   2
   0   3   1 23423.0 377.472   2
   0   3  -1 21210.3 301.138   3
   0   3   1 23003.2 304.913   3
   0   3  -1 22861.3 328.669   5
   0   3  -2 10075.9 242.619   2
   0   3  -2 10272.0 227.927   5
   0   3   2 10400.5 213.825   3
   0   3  -2 10990.1 226.187   3
   0   3  -3 4319.42 149.224   5
   0   3  -3 4127.44 147.456   3
   0   3  -3 4021.27 160.349   2
   0   3   3 4332.28 144.514   3
   0   3  -4 1335.80 90.8116   5
   0   3  -4 1306.61 94.2560   3
   0   3  -4 1417.20 103.899   2
   0   3   4 1530.16 95.6187   3
   0   3  -5 5354.47 188.644   3
   0   3  -5 5431.68 175.102   5
   0   3  -5 5064.26 186.697   2
   0   3   5 5406.96 176.934   3
   0   3  -6 2228.21 127.290   5
   0   3  -6 2268.06 144.861   2
   0   3  -6 2115.18 134.889   3
   0   3   6 2180.88 130.835   3
   0   3  -7 9692.71 285.852   2
   0   3  -7 9629.16 258.766   5
   0   3   7 9557.29 265.667   3
   0   3  -7 9269.61 271.996   3
   0   3  -8 6711.60 247.454   3
   0   3   8 6518.96 226.869   3
   0   3  -8 6907.06 230.652   5
   0   3  -8 6544.00 252.118   2
   0   3  -9 231.288 83.8496   5
   0   3  -9 256.939 94.8186   3
   0   3  -9 353.428 95.3214   2
   0   3   9 134.989 85.9596   3
   0   3 -10 852.806 130.241   2
   0   3  10 1142.73 141.262   3
   0   3 -10 922.815 131.707   3
   0   3 -10 982.945 123.168   5
   0   3  11 1911.84 186.819   3
   0   3 -11 2182.84 181.120   3
   0   3 -11 2628.35 193.755   2
   0   3 -11 2398.78 174.505   5
   0   4   0 364.133 87.3427   2
   0   4   0 222.621 74.2400   5
   0   4   0 287.383 61.8003   3
   0   4   1 18988.3 320.826   3
   0   4  -1 18308.2 342.972   5
   0   4  -1 17822.6 360.787   2
   0   4  -1 18203.8 312.743   3
   0   4   1 18605.2 386.359   2
   0   4  -2 9381.63 240.695   5
   0   4  -2 9897.60 243.075   3
   0   4  -2 9792.11 276.686   2
   0   4  -3 186.877 61.4886   5
   0   4  -3 221.910 75.2633   2
   0   4  -3 214.160 64.4028   3
   0   4   3 259.436 62.8538   3
   0   4  -4 16937.3 369.270   2
   0   4  -4 17517.6 344.011   3
   0   4  -4 17811.0 335.351   5
   0   4   4 17528.3 321.988   3
   0   4   5 17283.5 334.409   3
   0   4  -5 17194.4 378.085   2
   0   4  -5 18072.4 347.978   5
   0   4  -5 17360.0 353.478   3
   0   4  -6 6277.14 219.017   5
   0   4  -6 5568.01 230.200   2
   0   4   6 6485.45 226.594   3
   0   4  -6 5771.12 221.696   3
   0   4  -7 7220.62 256.102   3
   0   4  -7 7754.82 244.644   5
   0   4  -7 7155.76 272.177   2
   0   4   7 7256.68 243.264   3
   0   4  -8 5472.97 220.296   5
   0   4  -8 5534.99 246.714   2
   0   4  -8 5787.43 241.733   3
   0   4   8 5984.99 235.969   3
   0   4  -9 201.393 89.5162   5
   0   4  -9 47.7034 95.0378   3
   0   4  -9 166.716 96.6431   2
   0   4   9 120.980 88.8569   3
   0   4 -10 1134.30 145.948   2
   0   4 -10 1092.91 148.567   3
   0   4  10 868.417 137.307   3
   0   4 -10 1092.03 134.583   5
   0   5   0 80.8559 72.8336   2
   0   5   0-1.41639 65.3581   3
   0   5  -1 10439.9 322.396   2
   0   5   1 11094.7 345.954   2
   0   5   1 11505.7 285.112   3
   0   5  -1 10912.4 280.349   3
   0   5  -1 10877.9 308.231   5
   0   5   2 6372.33 219.989   3
   0   5  -2 5432.39 237.194   2
   0   5  -2 6048.78 230.710   5
   0   5  -2 5886.25 210.477   3
   0   5  -3 1021.37 110.246   3
   0   5  -3 914.137 125.193   2
   0   5  -3 1157.91 121.026   5
   0   5   3 1053.89 109.439   3
   0   5  -4 4148.89 209.698   2
   0   5   4 4613.43 192.156   3
   0   5  -4 4914.32 206.390   3
   0   5  -4 4702.63 204.693   5
   0   5  -5 3726.90 209.893   2
   0   5  -5 4127.38 193.683   5
   0   5  -5 3966.90 191.628   3
   0   5   5 4421.01 193.911   3
   0   5  -6 2908.23 180.957   3
   0   5   6 3313.27 181.658   3
   0   5  -6 3189.99 204.964   2
   0   5  -6 3300.55 186.053   5
   0   5  -7 2020.12 155.469   5
   0   5  -7 1938.49 163.354   3
   0   5  -7 1998.00 172.962   2
   0   5   7 1909.42 155.804   3
   0   5  -8 6747.88 299.643   2
   0   5  -8 7053.07 269.065   5
   0   5   8 6621.54 263.874   3
   0   5  -8 6902.89 287.929   3
   0   5  -9 799.183 142.544   3
   0   5   9 930.610 148.130   3
   0   5  -9 838.197 149.572   2
   0   5  -9 850.242 133.241   5
   0   6   0 694.071 134.365   2
   0   6   0 954.616 117.859   3
   0   6  -1 3918.08 212.732   5
   0   6   1 4126.58 197.892   3
   0   6  -1 4252.97 203.016   3
   0   6  -1 3984.54 231.487   2
   0   6   2 730.888 113.746   3
   0   6  -2 665.225 121.637   5
   0   6  -2 583.110 125.048   2
   0   6  -2 650.153 108.448   3
   0   6  -3 12700.6 364.397   5
   0   6  -3 12848.2 343.559   3
   0   6  -3 13370.4 404.162   2
   0   6   3 13553.9 344.012   3
   0   6  -4 382.371 110.115   2
   0   6   4 303.875 92.4978   3
   0   6  -4 296.854 106.523   5
   0   6  -4 195.626 90.4004   3
   0   6  -5 2135.59 169.460   3
   0   6  -5 2026.78 164.472   5
   0   6   5 1899.20 152.920   3
   0   6  -5 2136.29 193.043   2
   0   6   6 4804.27 231.917   3
   0   6  -6 4429.35 261.164   2
   0   6  -6 4940.33 244.210   3
   0   6  -6 4394.40 225.903   5
   0   6  -7 1293.58 156.059   5
   0   6  -7 1436.50 163.721   3
   0   6   7 1188.23 152.498   3
   0   6  -7 953.121 161.647   2
   0   7   0 182.458 125.616   2
   0   7   0 73.9502 95.7428   3
   0   7  -1 610.852 145.796   2
   0   7   1 813.507 129.402   3
   0   7  -1 693.268 122.928   3
   0   7   2 2092.22 176.655   3
   0   7  -2 1858.62 194.751   2
   0   7  -2 2399.46 186.942   3
   0   7   3 374.019 121.028   3
   0   7  -3 120.391 113.405   2
   0   7  -3 133.937 108.485   3
   0   7  -3 204.540 123.348   5
  -1  -7   3 2124.60 196.333   1
   1  -7  -3 1911.06 253.114   4
  -1  -7   3 1753.85 229.142   4
   1  -7  -2 2922.77 283.771   4
  -1  -7   2 3196.94 212.337   1
   1  -7  -1 4245.59 321.888   4
  -1  -7   1 4873.97 246.552   1
   1  -7   0 752.681 177.625   4
  -1  -7   0 923.485 200.464   4
  -1  -7   0 834.780 127.488   1
   1  -7   0 515.084 115.063   1
   1  -7   1 2808.64 199.931   1
   1  -7   1 2233.72 250.826   4
  -1  -7  -1 2355.49 248.691   4
   1  -7   2 2622.74 203.772   1
  -1  -7  -2 2566.21 270.090   4
  -1  -6   7 4341.30 277.877   1
  -1  -6   7 1827.60 226.066   4
   1  -6  -6 29.2575 133.899   4
  -1  -6   6 166.095 121.444   4
  -1  -6   6 57.6362 106.023   1
   1  -6  -5 733.611 163.453   4
  -1  -6   5 960.052 140.516   1
  -1  -6   5 629.095 151.823   4
   1  -6  -4 2082.25 219.328   4
  -1  -6   4 1737.66 197.568   4
  -1  -6   4 2003.04 172.979   1
   1  -6  -3 198.640 122.291   4
  -1  -6   3 109.651 90.1029   1
  -1  -6   3-38.1865 110.230   4
   1  -6  -2 2057.11 134.875   1
  -1  -6   2 2157.26 170.223   1
   1  -6  -2 2439.82 222.538   4
  -1  -6   1 2142.31 210.611   4
   1  -6  -1 2009.41 204.678   4
  -1  -6   1 1866.02 151.696   1
   1  -6  -1 1782.15 133.472   1
   1  -6   0 578.375 103.718   1
  -1  -6   0 482.089 134.828   4
  -1  -6   0 669.412 103.050   1
   1  -6   0 428.580 143.861   4
   1  -6   1 5486.01 317.837   4
   1  -6   1 6210.05 247.556   1
  -1  -6  -1 5687.95 311.209   4
  -1  -6  -1 6219.29 226.051   1
  -1  -6  -2 3074.21 265.137   4
   1  -6   2 3450.72 202.739   1
  -1  -6  -2 3190.51 159.297   1
   1  -6   2 2916.71 235.802   4
   1  -6   3 362.883 103.893   1
  -1  -6  -3 86.8381 120.152   4
   1  -6   3-20.0840 119.062   4
   1  -6   4 3863.27 233.756   1
   1  -6   4 2188.14 228.410   4
   1  -6   5 1136.02 155.626   1
   1  -6   5 1020.88 189.637   4
   1  -6   6 290.998 149.581   4
   1  -6   6 316.529 126.266   1
  -1  -5   9 2752.04 233.067   4
  -1  -5   9 5459.48 308.574   1
  -1  -5   8 403.213 138.888   4
  -1  -5   8 559.415 125.420   1
  -1  -5   7 751.318 139.521   1
  -1  -5   7 725.112 140.079   4
  -1  -5   6 7272.07 296.318   1
   1  -5  -6 7013.62 355.071   4
  -1  -5   5 506.558 102.360   1
  -1  -5   5 306.759 111.215   4
   1  -5  -5 503.160 124.076   4
  -1  -5   4 1101.83 146.398   4
   1  -5  -4 1202.78 155.389   4
  -1  -5   4 1363.33 133.403   1
  -1  -5   3 4421.47 245.976   4
   1  -5  -3 3772.20 127.809   1
   1  -5  -3 4013.86 244.414   4
  -1  -5   3 3624.53 190.568   1
  -1  -5   2 12923.6 329.025   1
   1  -5  -2 13013.2 417.454   4
  -1  -5   2 12713.8 390.619   4
   1  -5  -2 13522.5 262.307   1
  -1  -5   1-1.10360 61.6628   1
   1  -5  -1 89.0419 86.2654   4
  -1  -5   1 84.4768 89.6161   4
   1  -5  -1 43.2388 56.4915   1
   1  -5   0 17279.0 343.362   1
  -1  -5   0 16287.6 327.413   1
   1  -5   0 17010.4 474.549   4
  -1  -5   0 16704.3 449.360   4
  -1  -5  -1 742.064 129.923   4
   1  -5   1 894.044 140.751   4
   1  -5   1 533.035 81.4878   1
  -1  -5  -1 634.022 80.3126   1
   1  -5   2 5421.72 281.896   4
  -1  -5  -2 5722.59 178.896   1
  -1  -5  -2 5229.26 270.616   4
   1  -5   2 5137.31 214.128   1
   1  -5   3 1087.30 141.901   4
   1  -5   3 1528.00 136.808   1
  -1  -5  -3 1266.05 87.3156   1
  -1  -5  -3 1144.05 158.827   4
   1  -5   4 2208.33 205.975   4
   1  -5   4 2644.77 173.959   1
   1  -5   5 1689.73 159.333   1
   1  -5   5 1518.11 193.642   4
   1  -5   6 5936.54 283.839   1
   1  -5   6 4455.79 302.967   4
   1  -5   7 1486.50 163.405   1
   1  -5   7 1226.22 212.655   4
   1  -5   8 187.918 190.175   4
   1  -5   8 74.1654 113.800   1
   1  -4 -10 3717.00 245.337   5
  -1  -4  10 3579.92 252.042   1
  -1  -4   9 171.443 139.420   4
  -1  -4   9 173.382 107.705   1
  -1  -4   8 433.238 115.939   1
  -1  -4   8-1.30142 117.143   4
  -1  -4   7 1619.88 152.419   1
  -1  -4   7 1237.06 156.745   4
  -1  -4   6 757.739 104.619   1
  -1  -4   6 500.839 112.467   4
   1  -4  -5 4449.82 239.444   4
  -1  -4   5 4714.86 213.859   1
  -1  -4   4 12983.3 325.517   1
  -1  -4   4 12762.6 354.221   4
   1  -4  -4 13414.5 387.227   4
   1  -4  -4 11831.0 119.599   1
   1  -4  -3 2111.09 83.3312   1
  -1  -4   3 2202.47 164.287   4
  -1  -4   3 2405.34 145.020   1
   1  -4  -3 2245.12 168.871   4
   1  -4  -2 8368.54 175.822   1
  -1  -4   2 8606.84 241.657   1
  -1  -4   2 9567.97 302.587   4
   1  -4  -2 9709.57 315.997   4
  -1  -4   1 4150.97 202.154   4
  -1  -4   1 4158.93 164.129   1
   1  -4  -1 4785.62 234.637   4
   1  -4  -1 4140.50 136.574   1
  -1  -4   0 1254.29 126.327   4
   1  -4   0 1259.82 129.931   4
  -1  -4   0 1229.39 95.3056   1
   1  -4   0 1173.69 87.4981   1
   1  -4   1 12694.6 371.633   4
  -1  -4  -1 12018.1 343.890   4
  -1  -4  -1 12224.3 239.084   1
   1  -4   1 12261.3 271.668   1
  -1  -4  -2 3517.10 123.793   1
  -1  -4  -2 3365.18 197.660   4
   1  -4   2 3506.45 212.331   4
   1  -4   3 40.0520 90.1347   4
  -1  -4  -3 40.3812 79.6744   4
  -1  -4  -3 109.887 42.6562   1
  -1  -4  -4 6909.08 135.455   1
   1  -4   4 8787.70 378.564   4
   1  -4   5 4227.65 274.442   4
   1  -4   5 3731.16 199.937   1
   1  -4   6 176.995 83.1307   1
   1  -4   7 8401.01 314.176   1
   1  -4   8 401.783 114.896   1
   1  -4   9 992.313 158.150   1
  -1  -4 -10 3677.84 254.023   5
   1  -4  10 2993.52 244.282   1
   1  -3 -11 805.187 141.479   5
  -1  -3  11 644.090 138.221   1
  -1  -3  10 2309.20 190.907   1
   1  -3 -10 2542.08 189.618   5
   1  -3  -9 16099.9 410.842   5
  -1  -3   9 16455.0 433.814   1
  -1  -3   8 16.5217 80.8677   1
   1  -3  -8 16.8384 79.7774   5
  -1  -3   7 4288.63 206.632   1
  -1  -3   6 44154.8 605.408   1
  -1  -3   6 42802.2 658.138   4
   1  -3  -5 87.0482 76.0431   4
  -1  -3   5 269.246 96.0062   4
  -1  -3   5 148.318 66.5257   1
  -1  -3   4 1541.07 114.033   1
  -1  -3   4 1357.04 119.494   4
   1  -3  -4 1475.11 127.130   4
   1  -3  -4 1212.25 77.0400   3
   1  -3  -3 51461.9 419.480   3
  -1  -3   3 49621.5 583.998   4
   1  -3  -3 51138.1 276.084   1
  -1  -3   3 51274.2 544.646   1
   1  -3  -2 7795.69 135.627   1
   1  -3  -2 7502.68 157.379   3
  -1  -3   2 7667.72 200.735   1
  -1  -3   2 7726.70 227.678   4
   1  -3  -2 8360.42 255.628   4
   1  -3  -1 2161.41 110.094   5
  -1  -3   1 1894.58 132.909   4
   1  -3  -1 1994.63 87.3526   3
   1  -3  -1 2148.01 144.220   4
  -1  -3   1 2122.36 107.475   1
  -1  -3   0 74333.0 705.393   4
   1  -3   0 70227.4 503.994   3
   1  -3   0 72929.2 562.562   5
  -1  -3   0 70101.5 529.788   1
  -1  -3  -1 516.946 84.7153   4
   1  -3   1 331.744 97.6711   4
   1  -3   1 354.107 57.3258   5
   1  -3   1 288.905 51.9444   3
  -1  -3  -1 344.066 48.6414   1
   1  -3   2 4279.02 137.051   5
  -1  -3  -2 4371.36 116.872   1
   1  -3   2 4991.59 245.553   4
  -1  -3  -2 4207.96 189.503   4
  -1  -3  -3 36043.1 303.381   1
   1  -3   3 37222.8 392.987   5
   1  -3   4 1717.18 103.123   5
  -1  -3  -4 1477.48 58.9083   1
   1  -3   8 201.035 92.3685   1
   1  -3   9 14283.1 422.127   1
   1  -3  10 1238.48 160.792   1
  -1  -3 -10 1526.87 167.117   5
   1  -3  11 605.550 152.913   1
  -1  -2  12 1442.14 170.870   1
   1  -2 -12 1553.16 176.204   5
  -1  -2  11 1912.80 177.777   1
   1  -2 -11 1903.51 170.068   5
  -1  -2  10 705.603 120.550   1
   1  -2 -10 836.986 128.665   5
  -1  -2   9 1574.84 140.888   1
   1  -2  -9 1598.70 142.611   5
   1  -2  -8 6696.29 243.373   5
  -1  -2   8 6457.01 251.133   1
   1  -2  -7 7848.90 250.731   5
  -1  -2   7 8754.53 271.116   1
  -1  -2   6 1289.48 114.296   1
  -1  -2   5 5377.38 189.322   1
   1  -2  -5 5024.88 142.448   3
   1  -2  -4 4477.28 117.030   3
   1  -2  -4 4718.93 173.851   4
  -1  -2   4 4476.17 161.978   1
  -1  -2   4 4236.72 143.448   5
  -1  -2   4 4436.44 140.476   2
  -1  -2   3 1119.19 74.6860   2
   1  -2  -3 1042.14 81.4158   2
  -1  -2   3 1222.39 84.2002   5
  -1  -2   3 1186.86 96.1683   4
   1  -2  -3 1190.41 95.1814   4
   1  -2  -3 1023.95 58.5962   3
  -1  -2   3 1207.32 92.2714   1
  -1  -2   3 1106.74 79.1455   3
  -1  -2   2 26102.2 298.877   2
  -1  -2   2 27178.2 311.406   3
   1  -2  -2 26639.9 233.970   3
   1  -2  -2 26392.8 325.511   2
  -1  -2   2 29205.6 335.441   5
  -1  -2   2 26758.1 349.608   4
   1  -2  -2 28197.0 385.425   4
  -1  -2   2 27808.1 336.275   1
   1  -2  -1 8388.63 130.256   3
  -1  -2   1 8591.32 175.863   3
   1  -2  -1 8387.86 165.837   5
  -1  -2   1 8557.44 181.100   5
   1  -2  -1 8834.13 224.843   4
  -1  -2   1 8660.83 171.078   1
  -1  -2   1 7960.57 169.853   2
  -1  -2   1 7978.49 196.893   4
   1  -2  -1 7953.17 181.017   2
  -1  -2   0 7537.60 160.980   3
   1  -2   0 7330.53 174.084   2
  -1  -2   0 7467.10 167.797   2
   1  -2   0 7764.85 148.309   5
  -1  -2   0 7261.22 146.195   1
   1  -2   0 8406.92 229.521   4
  -1  -2   0 7850.99 174.719   5
  -1  -2   0 7594.47 189.776   4
   1  -2   0 7471.06 133.069   3
  -1  -2  -1 15504.7 278.945   4
   1  -2   1 16237.2 263.700   2
  -1  -2  -1 15265.7 190.892   1
   1  -2   1 15924.6 199.543   5
  -1  -2  -1 15917.2 254.667   2
   1  -2   1 16244.8 212.998   3
  -1  -2  -1 16555.6 236.362   3
  -1  -2  -1 15568.3 251.021   5
  -1  -2  -2 18127.4 198.486   1
  -1  -2  -2 19037.2 267.374   3
  -1  -2  -2 18961.7 294.403   5
   1  -2   2 18075.8 289.852   2
   1  -2   2 18957.3 216.676   5
  -1  -2  -3 421.382 42.5696   1
   1  -2   3 537.474 52.6592   5
   1  -2   4 6128.98 149.583   5
   1  -2   5 11861.3 225.633   5
  -1  -2  -8 5208.71 227.962   5
  -1  -2  -9 2326.99 168.646   5
  -1  -2 -10 599.900 117.881   5
   1  -2  10 596.915 126.357   1
   1  -2  11 365.181 120.399   1
  -1  -2 -11 377.211 124.063   5
  -1  -1  12 1301.40 157.296   1
   1  -1 -12 1432.34 163.430   5
  -1  -1  11 7733.81 286.637   1
   1  -1 -11 6819.51 276.514   5
   1  -1 -10 4785.08 221.398   5
  -1  -1  10 4665.82 220.643   1
   1  -1  -9 350.945 90.7434   5
  -1  -1   9 328.636 85.1137   1
   1  -1  -8 9533.03 267.915   5
  -1  -1   8 10052.7 273.834   1
   1  -1  -7 17630.5 339.058   5
  -1  -1   7 18783.2 346.247   1
   1  -1  -6 6064.29 191.448   5
  -1  -1   6 6026.36 191.949   1
   1  -1  -5 68256.7 560.378   5
  -1  -1   5 68952.6 576.329   1
   1  -1  -5 69594.6 481.588   3
  -1  -1   4 16716.6 246.990   5
   1  -1  -4 17297.9 212.474   3
  -1  -1   4 16421.1 257.629   1
   1  -1  -4 15991.9 250.284   5
  -1  -1   3 11682.3 164.983   2
  -1  -1   3 11596.0 189.538   5
   1  -1  -3 11903.7 150.261   3
  -1  -1   3 12424.1 205.298   1
  -1  -1   3 11720.0 184.910   3
   1  -1  -3 11397.0 100.460   1
   1  -1  -3 11491.3 203.453   4
  -1  -1   2 48887.6 353.407   1
  -1  -1   2 49036.1 333.437   3
  -1  -1   2 49052.3 338.630   5
   1  -1  -2 49615.4 221.977   3
   1  -1  -2 49675.3 197.233   1
   1  -1  -2 52477.5 377.618   4
  -1  -1   2 50013.5 334.167   4
   1  -1  -2 50100.9 340.560   2
  -1  -1   2 50289.5 282.909   2
   1  -1  -1 103339. 253.714   3
   1  -1  -1 104911. 457.645   2
  -1  -1   1 102433. 456.532   5
   1  -1  -1 108441. 521.855   4
  -1  -1   1 103981. 435.670   4
   1  -1  -1 103477. 348.960   1
  -1  -1   1 104379. 439.685   3
  -1  -1   1 102307. 467.888   1
  -1  -1   1 104019. 394.297   2
   1  -1   0 47743.6 221.236   5
  -1  -1   0 47272.6 284.073   1
  -1  -1   0 46709.2 330.587   4
   1  -1   0 47294.4 222.331   3
  -1  -1   0 48793.6 296.178   2
  -1  -1   0 46098.2 301.061   3
   1  -1   0 48510.0 316.416   2
  -1  -1   0 46457.6 311.223   5
   1  -1   1 130872. 335.640   5
   1  -1   1 134065. 581.824   2
  -1  -1  -1 130642. 561.153   5
  -1  -1  -1 130584. 530.935   3
  -1  -1  -1 131374. 455.024   1
   1  -1   2 72400.1 318.255   5
   1  -1   2 73933.3 475.011   2
  -1  -1  -2 72306.1 359.384   1
   1  -1   2 73972.4 462.134   3
  -1  -1  -2 71922.1 435.382   3
   1  -1   3 7957.20 135.906   5
  -1  -1  -3 7860.27 168.032   3
   1  -1   3 8238.65 183.261   3
   1  -1   3 7712.97 182.654   2
   1  -1   4 17476.2 292.378   3
   1  -1   4 17930.6 232.249   5
   1  -1   5 35404.8 447.054   3
   1  -1   5 34568.8 371.517   5
  -1  -1  -6 7660.87 220.614   5
   1  -1   6 8562.44 251.721   3
  -1  -1  -7 3910.72 169.487   5
   1  -1   7 4316.92 195.389   3
   1  -1   8 8701.50 295.699   3
  -1  -1  -8 9604.47 274.571   5
  -1  -1  -9 496.646 102.254   5
  -1  -1 -10 3924.87 208.135   5
   1  -1  10 3791.43 210.385   1
   1  -1  11 3873.23 230.747   1
  -1  -1 -11 4067.02 225.276   5
  -1  -1 -12 402.106 122.711   5
  -1  -1 -12 475.882 140.207   2
   1  -1  12 303.529 113.841   1
   1   0 -12 861.999 131.134   5
   1   0 -12 837.158 128.220   3
   1   0 -12 694.715 125.895   2
  -1   0  12 430.379 106.826   1
   1   0 -11 463.197 104.529   5
  -1   0  11 375.350 93.9188   1
   1   0 -11 424.906 99.5620   2
   1   0 -11 364.111 99.1110   3
   1   0 -10 2417.59 153.676   2
  -1   0  10 2096.81 138.863   1
   1   0 -10 2107.58 144.349   3
   1   0 -10 2091.66 154.434   5
   1   0  -9 1682.02 133.040   5
  -1   0   9 1680.94 119.290   1
  -1   0   8 22040.4 354.089   1
   1   0  -8 21270.3 381.916   5
  -1   0   8 20527.1 391.102   3
   1   0  -7 866.782 85.8915   5
  -1   0   7 693.102 88.6954   3
  -1   0   7 587.224 73.9735   1
  -1   0   6 1407.04 98.4000   3
  -1   0   6 1071.30 83.9683   1
   1   0  -6 1536.62 99.8735   5
   1   0  -5 16893.1 266.749   5
  -1   0   5 17479.6 243.043   1
  -1   0   5 17344.3 275.576   5
  -1   0   5 17075.7 261.506   3
   1   0  -5 18551.3 268.318   3
   1   0  -4 17814.4 227.680   3
   1   0  -4 16804.4 237.020   5
  -1   0   4 17299.7 221.393   1
  -1   0   4 18062.1 248.465   5
  -1   0   4 17065.5 232.864   3
   1   0  -3 32425.1 256.467   1
  -1   0   3 30631.4 251.949   1
   1   0  -3 30611.5 246.744   3
   1   0  -3 31936.5 282.469   5
  -1   0   3 29528.9 281.372   5
  -1   0   2 6538.43 100.522   1
   1   0  -2 6766.89 103.102   1
   1   0  -2 6889.77 112.125   5
   1   0  -2 6797.33 88.6928   3
  -1   0   2 6697.38 111.916   5
   1   0  -2 6451.50 101.404   3
   1   0  -1 9958.74 101.695   5
  -1   0   1 10263.0 112.437   1
  -1   0   1 10004.2 81.2495   3
  -1   0   1 10145.2 104.584   5
   1   0  -1 10659.1 114.203   1
   1   0  -1 10165.9 78.5532   3
   1   0   0 476.461 25.1547   3
  -1   0   0 565.412 28.1443   2
  -1   0   0 482.571 31.3892   1
  -1   0   0 397.432 24.9847   3
   1   0   0 382.572 31.6439   1
  -1   0  -1 20750.5 178.276   3
  -1   0  -1 20610.6 170.352   1
   1   0   1 20838.1 176.976   3
   1   0   1 20051.2 177.106   1
   1   0   2 65.4295 42.0370   3
  -1   0  -2 26.9365 36.4883   3
  -1   0  -3 886.417 55.9879   5
  -1   0  -3 909.282 63.0793   3
   1   0   3 853.003 64.5088   3
  -1   0  -4 704.608 66.3689   3
  -1   0  -4 661.330 57.4734   5
   1   0   4 676.035 72.1135   3
   1   0   5 15456.0 283.297   3
  -1   0  -5 14741.6 248.255   5
  -1   0  -6 2335.15 113.339   5
   1   0   6 2495.94 135.787   3
  -1   0  -7 279.288 63.4326   5
   1   0   7 385.363 80.1729   3
  -1   0  -8 9486.09 279.429   2
  -1   0  -8 9430.84 256.782   5
   1   0   8 8656.28 266.542   3
   1   0   9 882.749 124.130   3
  -1   0  -9 943.240 116.923   2
  -1   0  -9 759.383 102.118   5
   1   0  10 118.286 79.8940   1
   1   0  10 33.7626 96.0473   3
  -1   0 -10 107.095 81.9548   5
  -1   0 -10 90.4961 77.7919   2
  -1   0 -11 1013.94 130.389   5
  -1   0 -11 988.521 140.281   2
   1   0  11 1151.65 162.559   3
  -1   0 -12 5168.92 277.288   2
   1   0  12 4702.41 292.130   3
  -1   0 -12 4726.28 251.012   5
   1   1 -12 1429.95 152.780   2
   1   1 -12 1665.08 157.810   3
   1   1 -12 1368.76 150.287   5
  -1   1  12 1245.03 165.491   3
   1   1 -11 7077.46 264.439   3
  -1   1  11 7326.64 289.607   3
   1   1 -11 7077.27 271.456   5
   1   1 -11 6939.29 262.677   2
   1   1 -10 4922.10 210.780   3
  -1   1  10 4802.50 180.726   1
  -1   1  10 4760.19 223.029   3
   1   1 -10 4670.22 210.050   5
   1   1 -10 4713.97 206.901   2
  -1   1   9 197.421 58.2378   1
   1   1  -9 382.223 81.5459   2
   1   1  -9 273.437 79.5617   5
  -1   1   9 176.341 79.8749   3
   1   1  -9 376.861 85.5113   3
  -1   1   8 9606.96 199.840   1
   1   1  -8 9431.85 250.166   3
  -1   1   8 9293.91 246.074   3
   1   1  -8 9436.65 254.925   5
   1   1  -8 9194.82 241.089   2
  -1   1   7 18093.9 246.076   1
   1   1  -7 18333.8 327.370   5
  -1   1   7 17628.4 311.128   3
   1   1  -7 17902.5 316.130   3
   1   1  -7 17847.9 305.140   2
  -1   1   6 5714.48 130.103   1
   1   1  -6 5944.39 176.754   3
  -1   1   6 6079.36 174.800   3
   1   1  -6 6156.23 182.730   5
  -1   1   6 5505.13 196.142   4
   1   1  -6 6014.14 170.098   2
   1   1  -5 69896.9 492.786   2
  -1   1   5 69224.2 368.270   1
  -1   1   5 69315.3 493.755   3
   1   1  -5 67137.2 531.215   5
  -1   1   5 71362.1 588.086   4
   1   1  -5 70584.5 522.865   3
   1   1  -4 17328.4 268.484   3
   1   1  -4 16473.7 216.379   2
  -1   1   4 16465.4 259.748   4
   1   1  -4 16065.3 237.804   5
  -1   1   4 16541.9 147.930   1
   1   1  -4 17146.3 239.482   3
  -1   1   4 15881.2 207.857   3
  -1   1   3 11869.3 204.133   4
   1   1  -3 11613.3 185.125   5
  -1   1   3 11374.7 98.9923   1
   1   1  -3 11973.2 184.777   3
   1   1  -3 12136.2 198.098   1
  -1   1   3 11537.0 143.783   3
   1   1  -3 11842.6 163.088   2
   1   1  -2 49514.8 279.258   2
  -1   1   2 48709.5 196.481   1
  -1   1   2 48577.0 224.819   3
   1   1  -2 50169.8 328.407   3
   1   1  -2 49069.4 336.699   5
   1   1  -2 48807.6 357.460   1
  -1   1   2 51536.3 380.602   4
   1   1  -1 103353. 385.530   2
  -1   1   1 104174. 460.237   2
  -1   1   1 105216. 262.163   3
   1   1  -1 102949. 459.468   5
   1   1  -1 103424. 458.044   1
   1   1  -1 103459. 456.142   4
   1   1   0 48825.4 306.682   3
   1   1   0 47357.4 287.034   1
  -1   1   0 47563.6 317.852   2
  -1   1   0 46992.9 219.862   3
   1   1   0 47979.3 318.250   5
   1   1   0 47514.4 329.921   4
   1   1   1 130529. 532.547   3
   1   1   1 131205. 639.649   4
   1   1   1 131080. 464.414   1
   1   1   1 131436. 560.724   5
  -1   1  -1 129705. 497.983   3
  -1   1  -1 131074. 556.202   2
  -1   1  -1 130294. 339.870   5
  -1   1  -1 129525. 479.212   3
  -1   1  -2 73858.1 312.480   5
   1   1   2 73491.1 448.839   3
  -1   1  -2 73479.8 445.728   3
  -1   1  -2 70024.6 472.094   2
   1   1   2 73672.4 365.733   1
  -1   1  -3 7944.29 133.310   5
  -1   1  -3 8263.34 182.734   2
  -1   1  -3 8275.50 178.906   3
   1   1   3 7420.04 134.445   1
   1   1   3 8160.01 174.198   3
   1   1   4 17501.5 223.100   1
  -1   1  -4 18289.5 285.585   2
   1   1   4 16609.0 267.336   3
  -1   1  -4 17629.4 224.446   5
  -1   1  -5 34653.9 355.338   5
   1   1   5 33515.9 335.328   1
   1   1   5 33906.4 404.366   3
  -1   1  -5 33624.1 419.492   2
  -1   1  -6 8469.95 234.449   2
   1   1   6 7695.05 223.011   3
  -1   1  -6 7707.67 194.306   5
   1   1   6 7301.64 171.804   1
  -1   1  -7 4224.68 157.569   5
  -1   1  -7 3705.43 170.144   2
   1   1   7 4576.73 195.654   3
   1   1   8 9542.26 288.587   3
  -1   1  -8 9367.94 245.888   5
  -1   1  -8 9153.45 280.734   2
   1   1   9 374.328 103.725   3
  -1   1  -9 433.109 86.3558   5
  -1   1  -9 347.731 90.2326   2
  -1   1 -10 3904.14 210.846   2
  -1   1 -10 4261.03 199.241   5
   1   1  10 3870.31 184.724   1
   1   1  10 3690.97 215.203   3
  -1   1 -10 4088.08 212.766   3
  -1   1 -11 4721.91 245.461   3
  -1   1 -11 4252.79 212.993   5
  -1   1 -11 4158.40 235.322   2
   1   1  11 4688.50 263.155   3
  -1   1 -12 432.111 128.983   2
   1   1  12 203.726 138.710   3
  -1   1 -12 627.671 139.523   3
  -1   1 -12 451.051 120.184   5
   1   2 -12 1563.25 162.758   2
   1   2 -12 1296.35 152.807   3
  -1   2  12 1107.90 160.959   3
   1   2 -12 1295.81 150.244   5
   1   2 -11 2052.76 170.941   3
   1   2 -11 2160.74 166.930   2
  -1   2  11 1574.37 158.263   3
   1   2 -11 2032.38 158.848   5
   1   2 -10 1115.54 124.089   2
  -1   2  10 694.392 110.165   3
   1   2 -10 906.093 119.995   5
   1   2 -10 776.847 114.045   3
   1   2  -9 1552.71 131.346   5
  -1   2   9 1581.74 127.509   3
   1   2  -9 1464.87 123.730   2
   1   2  -9 1477.51 125.382   3
   1   2  -8 6177.49 214.836   5
   1   2  -8 5983.49 215.389   3
  -1   2   8 6491.83 217.507   3
  -1   2   8 5890.65 107.183   1
   1   2  -8 6611.05 224.178   2
  -1   2   7 7480.50 91.4907   1
   1   2  -7 8322.67 232.626   5
   1   2  -7 8452.24 228.335   2
  -1   2   7 8589.60 225.394   3
   1   2  -7 8464.16 238.785   3
   1   2  -6 1421.62 95.3992   2
   1   2  -6 1423.69 101.141   3
   1   2  -6 1372.75 99.9075   5
  -1   2   6 1063.43 81.0792   3
   1   2  -5 5395.70 171.734   3
   1   2  -5 4812.05 158.074   5
   1   2  -5 4626.24 148.626   2
  -1   2   5 4895.19 138.674   3
   1   2  -4 3952.15 134.808   5
  -1   2   4 4176.58 113.487   3
   1   2  -4 4075.79 133.546   2
  -1   2   4 4375.01 170.454   4
   1   2  -4 3838.80 134.738   3
   1   2  -3 1210.31 81.9625   3
   1   2  -3 1169.44 80.2817   5
  -1   2   3 983.724 94.3349   4
   1   2  -3 1220.40 76.3478   2
  -1   2   3 972.694 56.5255   3
  -1   2   2 27475.9 351.678   2
  -1   2   2 27292.9 239.272   3
   1   2  -2 26456.0 301.879   2
   1   2  -2 27031.0 319.122   1
   1   2  -2 26282.2 320.377   5
  -1   2   2 27588.7 384.828   4
   1   2  -2 25958.6 294.017   3
   1   2  -1 8834.60 170.170   1
   1   2  -1 8396.43 182.235   5
   1   2  -1 8006.23 194.553   4
  -1   2   1 9034.94 248.616   4
   1   2  -1 8056.84 165.688   3
  -1   2   1 7849.02 184.202   2
   1   2  -1 7997.10 165.356   2
  -1   2   1 8324.46 132.106   3
  -1   2   0 7477.39 179.134   2
  -1   2   0 7252.96 145.840   5
   1   2   0 8255.97 202.003   4
   1   2   0 7493.27 146.233   1
   1   2   0 6948.75 169.615   5
  -1   2   0 7520.20 132.210   3
   1   2   0 7177.69 160.330   3
   1   2   0 7852.87 172.013   2
  -1   2  -1 15260.0 207.001   3
   1   2   1 15910.7 265.661   5
   1   2   1 15162.7 231.028   3
  -1   2  -1 15094.5 192.888   5
   1   2   1 15926.1 196.699   1
  -1   2  -1 14807.8 251.733   2
   1   2   1 16324.1 288.058   4
  -1   2  -2 19086.7 283.536   3
  -1   2  -2 19085.6 288.176   2
  -1   2  -2 20220.1 257.935   3
   1   2   2 18532.7 264.619   3
  -1   2  -2 18334.1 217.363   5
   1   2   2 18683.1 325.478   4
   1   2   2 18543.5 197.743   1
   1   2   3 467.982 40.7924   1
  -1   2  -3 472.029 60.4429   3
  -1   2  -3 427.675 48.0497   5
   1   2   3 304.937 58.4183   3
  -1   2  -3 489.809 69.2708   2
   1   2   4 6019.29 178.093   3
   1   2   4 6014.36 119.912   1
  -1   2  -4 6087.00 189.839   2
  -1   2  -4 6062.00 145.957   5
  -1   2  -4 6328.39 176.084   3
  -1   2  -5 11839.5 255.117   3
  -1   2  -5 12710.9 277.157   2
   1   2   5 12551.4 180.657   1
  -1   2  -5 12098.6 217.939   5
   1   2   5 12816.4 268.754   3
  -1   2  -6 6969.73 216.291   3
  -1   2  -6 6906.27 184.992   5
  -1   2  -6 7536.74 237.905   2
   1   2   6 7019.25 220.836   3
   1   2   6 6707.28 150.857   1
  -1   2  -7 8941.91 224.988   5
   1   2   7 8618.99 253.544   3
   1   2   7 8246.67 179.743   1
  -1   2  -7 9075.39 261.378   3
   1   2   8 4902.02 216.429   3
  -1   2  -8 4936.57 210.214   3
  -1   2  -8 5441.83 194.993   5
  -1   2  -8 5635.87 244.389   2
   1   2   9 2531.52 181.721   3
  -1   2  -9 2370.30 162.925   3
  -1   2  -9 2644.58 153.883   5
  -1   2  -9 2715.68 180.583   2
  -1   2 -10 698.296 120.698   3
  -1   2 -10 689.611 122.054   2
  -1   2 -10 838.376 116.157   5
   1   2  10 606.605 128.139   3
  -1   2 -11 535.769 124.913   2
  -1   2 -11 505.913 106.431   5
  -1   2 -11 652.393 122.433   3
   1   2  11 397.092 129.748   3
  -1   3  11 482.625 117.940   3
   1   3 -11 706.569 131.467   2
   1   3 -11 855.489 137.987   3
   1   3 -11 579.622 119.971   5
   1   3 -10 2494.20 178.730   3
   1   3 -10 2447.58 167.687   5
   1   3 -10 2450.13 170.848   2
  -1   3  10 2636.71 175.866   3
   1   3  -9 15720.1 377.122   2
  -1   3   9 17176.3 379.850   3
   1   3  -9 16300.1 371.772   5
   1   3  -9 16913.3 391.387   3
   1   3  -8 41.2241 66.2620   2
   1   3  -8 48.3629 70.9021   3
   1   3  -8 106.269 73.6595   5
  -1   3   8 43.0240 63.2098   3
   1   3  -7 4058.55 182.705   3
   1   3  -7 4601.14 193.948   5
   1   3  -7 3931.77 179.410   2
  -1   3   7 4381.97 169.849   3
   1   3  -6 44243.3 528.128   2
   1   3  -6 43876.8 537.054   3
   1   3  -6 44054.6 525.231   5
  -1   3   6 43301.9 458.300   3
   1   3  -5 220.249 64.0748   5
   1   3  -5 184.872 63.9024   3
   1   3  -5 232.571 63.0112   2
  -1   3   5 191.810 53.3224   3
   1   3  -4 1456.64 101.071   5
   1   3  -4 1328.70 97.9463   2
  -1   3   4 1312.86 79.6317   3
   1   3  -4 1327.83 98.7200   3
  -1   3   3 51725.0 423.400   3
   1   3  -3 50196.2 509.418   2
   1   3  -3 51372.6 518.728   5
   1   3  -3 49395.2 488.767   3
  -1   3   2 7674.95 160.421   3
   1   3  -2 7608.81 205.872   2
   1   3  -2 7299.68 197.791   5
  -1   3   2 7233.50 220.707   2
   1   3  -2 7559.69 193.788   3
   1   3  -1 1875.93 110.239   2
  -1   3   1 2018.34 89.1380   3
   1   3  -1 2089.67 111.125   3
   1   3  -1 2082.42 116.761   5
  -1   3   1 2282.14 128.496   2
  -1   3   0 68336.9 635.794   2
   1   3   0 72227.3 624.348   2
  -1   3   0 70693.5 550.700   5
   1   3   0 69714.4 513.240   1
   1   3   0 70153.0 617.651   5
   1   3   0 70925.0 564.907   3
  -1   3  -1 406.917 55.6412   3
   1   3   1 484.475 68.9201   3
   1   3   1 521.670 51.4729   1
   1   3   1 518.361 79.3653   5
  -1   3  -1 371.078 65.1808   2
  -1   3  -1 372.633 54.1741   5
  -1   3  -2 3977.91 160.222   2
   1   3   2 4376.64 151.181   3
   1   3   2 4336.76 114.430   1
  -1   3  -2 4206.28 138.530   3
  -1   3  -2 4103.07 134.120   5
  -1   3  -3 37032.6 480.661   2
  -1   3  -3 37474.6 424.474   3
   1   3   3 38130.9 441.577   3
  -1   3  -3 36272.5 376.544   5
   1   3   3 36838.1 293.671   1
  -1   3  -4 1669.90 110.754   3
  -1   3  -4 1964.17 130.840   2
   1   3   4 1904.70 66.9307   1
   1   3   4 1805.13 115.771   3
  -1   3  -4 1860.14 102.806   5
  -1   3  -5 4665.91 156.867   5
   1   3   5 4953.37 185.816   3
  -1   3  -5 4658.85 180.346   3
  -1   3  -5 4544.46 194.385   2
   1   3   5 4250.96 87.0524   1
  -1   3  -6 27066.5 469.301   2
  -1   3  -6 27805.4 379.418   5
  -1   3  -6 27132.4 436.720   3
  -1   3  -7 1564.42 137.679   2
   1   3   7 1916.75 158.818   3
  -1   3  -7 1607.10 113.800   5
  -1   3  -7 1434.84 126.066   3
  -1   3  -8 297.395 75.3170   5
  -1   3  -8 197.812 79.2265   3
  -1   3  -8 92.7335 82.0269   2
   1   3   8 213.736 93.3782   3
  -1   3  -9 12941.6 374.012   2
  -1   3  -9 13663.8 321.333   5
  -1   3  -9 13459.0 366.752   3
   1   3   9 13995.8 383.882   3
  -1   3 -10 1489.76 163.052   3
  -1   3 -10 1327.44 132.307   5
  -1   3 -10 1417.60 154.932   2
   1   3  10 1524.45 171.882   3
  -1   3 -11 750.481 144.485   2
  -1   3 -11 804.449 148.675   3
   1   4 -10 3805.51 212.162   5
  -1   4  10 3884.84 217.205   3
   1   4 -10 3909.90 224.491   3
   1   4 -10 3534.97 220.798   2
   1   4  -9 194.825 102.533   3
   1   4  -9 194.966 93.7935   2
   1   4  -9 353.999 97.5315   5
  -1   4   9 209.827 87.0795   3
   1   4  -8 89.1067 81.4011   2
   1   4  -8 98.9631 84.1972   5
  -1   4   8 91.1618 76.7054   3
   1   4  -8 190.719 86.2380   3
   1   4  -7 1866.91 137.758   5
   1   4  -7 1984.67 145.967   3
  -1   4   7 1812.96 125.597   3
   1   4  -7 1649.94 137.669   2
   1   4  -6 787.613 105.563   3
   1   4  -6 800.435 104.895   2
  -1   4   6 601.060 83.2734   3
   1   4  -6 853.703 108.298   5
  -1   4   5 4821.65 167.690   3
   1   4  -5 4458.64 187.273   3
   1   4  -5 4388.77 187.088   5
   1   4  -5 4392.31 192.595   2
   1   4  -4 11770.0 297.634   2
  -1   4   4 12542.9 251.020   3
   1   4  -4 12018.7 288.757   5
   1   4  -4 12297.7 289.765   3
   1   4  -3 2450.34 138.924   3
  -1   4   3 2348.69 113.921   3
   1   4  -3 2342.06 144.700   2
   1   4  -3 2347.06 139.669   5
   1   4  -2 8087.25 240.042   2
   1   4  -2 8511.20 231.721   3
  -1   4   2 9402.17 212.273   3
  -1   4   2 8651.03 277.118   2
   1   4  -2 8506.85 245.049   5
   1   4  -1 4384.78 170.604   3
   1   4  -1 4169.96 180.962   2
  -1   4   1 4602.97 152.642   3
   1   4  -1 3912.03 171.883   5
  -1   4   1 4075.68 192.451   2
  -1   4   0 1323.29 91.9448   3
  -1   4   0 1229.37 115.898   2
   1   4   0 1009.38 91.9411   3
   1   4   0 1358.75 120.122   2
   1   4   0 978.844 103.034   5
  -1   4  -1 13182.1 262.656   3
   1   4   1 12341.1 275.361   3
  -1   4  -1 12254.3 265.680   5
  -1   4  -1 12524.2 315.970   2
  -1   4  -2 3297.03 141.898   5
   1   4   2 3806.15 163.527   3
  -1   4  -2 3430.69 176.513   2
  -1   4  -2 3237.37 142.015   3
  -1   4  -3 69.7457 57.6140   5
  -1   4  -3 103.561 58.0931   3
  -1   4  -3 55.6625 69.1993   2
   1   4   3 47.4923 56.3170   3
   1   4   4 7734.67 236.011   3
  -1   4  -4 7460.24 224.744   3
  -1   4  -4 7401.49 253.686   2
  -1   4  -4 7542.11 212.996   5
  -1   4  -5 3648.19 168.888   3
   1   4   5 3933.90 180.680   3
  -1   4  -5 4163.06 162.653   5
  -1   4  -5 4181.75 203.443   2
   1   4   6 185.759 83.4042   3
  -1   4  -6 93.2062 64.5815   5
  -1   4  -6 52.7960 71.8494   3
  -1   4  -6 207.179 85.3967   2
  -1   4  -7 8036.13 273.148   3
  -1   4  -7 8809.50 253.486   5
  -1   4  -7 8122.88 296.920   2
   1   4   7 8405.51 279.734   3
  -1   4  -8 439.555 110.073   3
  -1   4  -8 684.134 99.9502   5
   1   4   8 509.694 114.781   3
  -1   4  -8 431.419 104.733   2
  -1   4  -9 1320.48 154.673   2
   1   4   9 1116.21 147.386   3
  -1   4  -9 1382.87 152.202   3
  -1   4  -9 1102.59 121.087   5
  -1   4 -10 3372.94 227.273   3
   1   4  10 3062.97 225.480   3
  -1   4 -10 3427.84 237.210   2
   1   5  -9 5947.98 279.776   3
   1   5  -9 5347.62 267.042   2
  -1   5   9 4805.50 220.586   3
   1   5  -9 5264.30 255.125   5
   1   5  -8 576.331 116.982   2
  -1   5   8 646.997 114.542   3
   1   5  -8 472.826 118.863   5
   1   5  -8 839.886 130.409   3
   1   5  -7 891.240 129.632   3
  -1   5   7 1079.26 121.942   3
   1   5  -7 1033.94 136.618   2
   1   5  -7 1030.95 126.801   5
   1   5  -6 7702.00 272.677   3
   1   5  -6 6966.67 275.517   2
  -1   5   6 7707.34 240.234   3
   1   5  -6 7952.12 277.277   5
  -1   5   5 430.797 81.4417   3
   1   5  -5 503.093 97.1107   3
   1   5  -5 578.566 107.320   5
   1   5  -5 515.726 107.261   2
  -1   5   4 1397.71 111.061   3
   1   5  -4 1306.77 127.555   3
   1   5  -4 1401.11 138.341   2
   1   5  -4 1674.33 149.360   5
   1   5  -3 3891.25 186.366   3
   1   5  -3 3314.95 185.833   2
  -1   5   3 4193.95 168.286   3
   1   5  -3 3677.12 188.114   5
   1   5  -2 12868.3 316.521   3
   1   5  -2 13269.6 358.641   2
  -1   5   2 13466.6 288.537   3
  -1   5   2 13110.0 382.668   2
   1   5  -2 12922.8 335.497   5
   1   5  -1 125.067 78.3166   3
  -1   5   1 93.8299 74.9690   2
  -1   5   1 71.9769 66.6855   3
   1   5  -1 30.6139 83.2678   5
   1   5  -1 25.9198 69.5272   2
  -1   5   0 16466.8 407.565   2
   1   5   0 16277.1 347.829   3
   1   5   0 16937.7 402.577   5
  -1   5   0 17709.8 331.700   3
  -1   5  -1 787.323 90.1173   3
   1   5   1 607.285 93.8985   3
  -1   5  -1 682.878 97.7618   5
  -1   5  -1 634.994 103.433   2
  -1   5  -2 5391.27 243.777   2
   1   5   2 6001.84 224.075   3
  -1   5  -2 5335.62 208.362   5
  -1   5  -2 5777.99 206.426   3
  -1   5  -3 1411.28 120.445   5
  -1   5  -3 1075.17 129.515   2
   1   5   3 1349.72 129.180   3
  -1   5  -3 1334.66 115.235   3
  -1   5  -4 2817.66 161.319   3
  -1   5  -4 2635.80 180.372   2
   1   5   4 2941.41 172.596   3
  -1   5  -4 3192.54 163.673   5
  -1   5  -5 2070.69 145.994   5
   1   5   5 2133.75 159.681   3
  -1   5  -5 1818.49 148.272   3
  -1   5  -5 1634.42 158.699   2
  -1   5  -6 6339.56 280.907   2
  -1   5  -6 6523.26 233.171   5
   1   5   6 6688.57 261.087   3
  -1   5  -6 6447.67 254.676   3
  -1   5  -7 1539.93 149.729   3
  -1   5  -7 1811.38 143.879   5
  -1   5  -7 1471.85 163.860   2
   1   5   7 1750.55 158.658   3
  -1   5  -8 247.631 109.139   3
   1   5   8 120.396 101.435   3
  -1   5  -8 234.989 124.751   2
   1   6  -7 4049.29 255.753   2
   1   6  -7 4601.77 252.274   5
   1   6  -7 3960.18 231.771   3
   1   6  -6 62.7594 105.334   2
   1   6  -6 145.300 100.084   5
  -1   6   6 147.885 94.1370   3
   1   6  -6 134.089 97.3567   3
   1   6  -5 730.409 130.987   2
  -1   6   5 916.143 116.938   3
   1   6  -5 949.529 134.177   5
   1   6  -5 1132.23 137.086   3
   1   6  -4 1997.87 175.474   2
   1   6  -4 2203.61 182.684   5
  -1   6   4 2238.40 152.377   3
   1   6  -4 1751.35 149.852   3
  -1   6   3 92.0209 75.2296   3
   1   6  -3 114.424 101.345   2
   1   6  -3 106.188 90.9569   3
   1   6  -3 71.2933 98.5999   5
   1   6  -2 2123.91 175.261   5
  -1   6   2 2426.44 157.822   3
   1   6  -2 2272.39 163.152   3
   1   6  -2 1975.44 172.402   2
   1   6  -1 1937.56 152.722   3
   1   6  -1 2236.67 187.859   2
  -1   6   1 1820.03 182.303   2
   1   6  -1 1936.07 173.941   5
  -1   6   1 2287.38 148.130   3
   1   6   0 596.618 102.033   3
  -1   6   0 413.065 118.437   2
  -1   6   0 515.301 95.9197   3
  -1   6  -1 6311.38 233.976   3
   1   6   1 6039.81 245.160   3
  -1   6  -1 5973.37 283.101   2
  -1   6  -2 3303.99 223.285   2
  -1   6  -2 3424.26 187.926   3
   1   6   2 3493.85 199.493   3
  -1   6  -2 3422.68 199.908   5
  -1   6  -3 110.915 87.4426   3
   1   6   3 143.646 95.9565   3
  -1   6  -3 299.771 110.878   2
  -1   6  -3 190.292 100.226   5
  -1   6  -4 4335.09 217.708   3
  -1   6  -4 3638.76 236.011   2
   1   6   4 4303.04 222.176   3
  -1   6  -4 3984.09 211.472   5
  -1   6  -5 1130.12 151.780   2
   1   6   5 1095.06 141.681   3
  -1   6  -5 1090.47 136.003   3
  -1   6  -5 1277.91 142.215   5
  -1   6  -6 357.381 114.676   3
  -1   6  -6 132.761 120.462   2
   1   6   6 135.196 108.275   3
   1   7  -3 2253.80 211.009   5
   1   7  -3 2197.52 194.843   3
   1   7  -3 2225.83 207.643   2
   1   7  -2 3331.50 246.159   2
   1   7  -2 3390.59 211.914   3
  -1   7   2 3232.91 198.476   3
   1   7  -2 3264.45 239.787   5
  -1   7   1 5082.14 232.460   3
   1   7  -1 5321.24 260.217   3
  -1   7   1 5190.80 305.345   2
   1   7   0 1056.00 142.287   3
  -1   7   0 731.246 126.367   3
  -1   7   0 891.213 164.992   2
  -1   7  -1 2803.11 187.051   3
  -1   7  -1 2725.57 229.122   2
   1   7   1 2912.72 204.067   3
  -1   7  -2 2736.33 235.623   2
   1   7   2 2917.95 205.036   3
  -1   7  -2 2868.36 192.922   3
   2  -7  -3 1086.94 202.851   4
  -2  -7   3 925.521 156.336   1
  -2  -7   3 860.918 177.783   4
  -2  -7   2 1163.60 161.343   1
   2  -7  -2 838.801 205.028   4
  -2  -7   2 654.720 173.058   4
  -2  -7   1 387.176 117.785   1
  -2  -7   1 272.261 152.257   4
   2  -7  -1 315.023 159.273   4
   2  -7   0 1404.57 234.617   4
   2  -7   0 1935.49 174.915   1
  -2  -7   0 1676.80 236.099   4
   2  -7   1 1282.16 205.811   4
   2  -7   1 1616.57 163.444   1
  -2  -7  -1 1116.60 199.645   4
  -2  -6   7 2098.47 205.018   1
   2  -6  -7 1976.31 242.092   4
   2  -6  -6 5504.04 351.933   4
  -2  -6   6 5583.89 295.334   1
   2  -6  -5 546.167 155.128   4
  -2  -6   5 329.627 118.461   4
  -2  -6   5 653.244 131.416   1
  -2  -6   4 4785.93 263.252   1
   2  -6  -4 5038.52 317.424   4
  -2  -6   3 5496.07 254.083   1
   2  -6  -3 5694.25 326.487   4
  -2  -6   3 5176.75 291.196   4
   2  -6  -2 167.577 71.8393   1
  -2  -6   2 116.530 88.3297   1
   2  -6  -2 83.7461 104.923   4
  -2  -6   2 100.791 106.791   4
   2  -6  -1 3022.56 168.536   1
  -2  -6   1 3297.40 192.038   1
   2  -6  -1 2782.60 240.597   4
  -2  -6   0 2434.08 160.146   1
   2  -6   0 2881.28 172.682   1
   2  -6   0 2517.40 236.756   4
  -2  -6  -1 2937.71 167.056   1
   2  -6   1 2946.70 177.499   1
   2  -6   1 2783.94 244.846   4
  -2  -6  -1 2846.44 240.034   4
  -2  -6  -2 1286.21 188.511   4
   2  -6   2 1249.62 189.158   4
   2  -6   2 1352.12 144.632   1
   2  -6   3 7342.91 379.843   4
   2  -6   3 9571.27 341.879   1
   2  -6   4 665.601 127.704   1
   2  -6   4 355.686 144.886   4
   2  -6   5 3097.47 272.198   4
   2  -6   5 5901.70 298.800   1
  -2  -5   9 1445.25 189.028   1
  -2  -5   8 3510.21 238.126   1
  -2  -5   8 1493.46 180.002   4
  -2  -5   7 543.528 129.418   4
   2  -5  -7 518.276 142.306   4
  -2  -5   7 813.335 131.679   1
  -2  -5   6 212.035 100.781   1
  -2  -5   6 136.435 99.5647   4
   2  -5  -6 128.283 110.055   4
  -2  -5   5 2179.16 172.535   1
  -2  -5   5 2120.75 178.885   4
   2  -5  -5 2266.32 201.327   4
   2  -5  -4 5853.48 303.282   4
   2  -5  -4 5190.03 139.163   1
  -2  -5   4 4709.68 244.397   4
  -2  -5   4 5423.97 241.360   1
  -2  -5   3 4096.77 212.234   1
  -2  -5   3 3355.89 213.751   4
   2  -5  -3 3469.46 238.209   4
   2  -5  -3 3704.62 136.708   1
  -2  -5   2 4135.56 196.916   1
   2  -5  -2 4687.78 164.454   1
   2  -5  -2 4332.92 257.598   4
  -2  -5   2 4032.92 230.387   4
  -2  -5   1 9410.01 277.880   1
  -2  -5   1 9294.86 334.551   4
   2  -5  -1 9941.97 254.812   1
   2  -5   0 98.9895 69.5650   1
   2  -5   0-23.3787 100.246   4
  -2  -5   0 20.5545 62.0630   1
  -2  -5   0-16.6408 90.3541   4
  -2  -5  -1 3533.51 160.581   1
   2  -5   1 3375.64 234.367   4
  -2  -5  -1 3536.89 230.315   4
  -2  -5  -2 6077.09 196.645   1
   2  -5   2 5371.97 289.641   4
  -2  -5  -2 5844.89 290.388   4
   2  -5   3 2769.84 232.007   4
  -2  -5  -3 2910.21 132.438   1
   2  -5   4 3060.65 256.008   4
   2  -5   5 3949.28 311.160   4
   2  -5   6 3429.08 313.113   4
   2  -5   6 6147.81 292.469   1
   2  -5   7 1712.21 187.558   1
   2  -5   7 1133.26 216.432   4
  -2  -4  11 5259.13 306.156   1
   2  -4 -11 5505.33 297.795   5
   2  -4 -10 4673.19 258.496   5
  -2  -4  10 3611.40 250.489   1
  -2  -4   9 12.3046 95.8923   1
   2  -4  -9 21.0030 97.1101   5
  -2  -4   9 22.4889 98.0794   4
  -2  -4   8 2788.13 187.557   4
  -2  -4   8 4666.68 248.458   1
  -2  -4   7 13902.9 366.315   4
  -2  -4   7 17762.8 437.378   1
  -2  -4   6 8273.19 289.032   1
   2  -4  -6 8091.37 321.269   4
  -2  -4   5 28677.3 506.086   1
  -2  -4   5 27156.3 487.742   4
   2  -4  -5 28642.7 571.412   4
  -2  -4   4 4000.26 191.098   1
  -2  -4   4 3683.81 193.253   4
   2  -4  -4 3643.08 128.398   3
   2  -4  -4 3318.67 95.7860   1
   2  -4  -4 3973.89 97.3954   1
   2  -4  -4 4499.78 232.399   4
   2  -4  -3 169.450 46.1358   1
   2  -4  -3 203.771 55.1078   3
  -2  -4   3 291.903 73.6454   1
   2  -4  -3 248.275 43.5340   1
  -2  -4   3 341.833 89.0419   4
   2  -4  -3 268.948 99.8345   4
   2  -4  -2 1039.59 79.5255   3
  -2  -4   2 894.291 96.0628   1
   2  -4  -2 1284.61 139.334   4
  -2  -4   2 963.507 113.166   4
  -2  -4   1 45380.5 531.213   1
  -2  -4   1 45725.9 628.909   4
   2  -4   0 187.192 86.5537   4
  -2  -4   0 249.129 87.7065   4
  -2  -4   0 138.858 57.8280   1
  -2  -4  -1 9847.81 230.519   1
   2  -4   1 10555.1 362.667   4
  -2  -4  -1 10020.8 318.460   4
  -2  -4  -2 20903.0 316.163   1
   2  -4   2 24808.1 591.279   4
   2  -4   3 144.978 122.539   4
  -2  -4  -3 128.056 48.7974   1
  -2  -4  -4 10489.7 208.723   1
   2  -4   4 11677.2 440.333   4
   2  -4   9 1137.05 168.658   1
  -2  -3  12 292.858 145.393   1
   2  -3 -12 227.734 123.807   5
   2  -3 -11 3308.27 224.872   5
  -2  -3  11 3394.21 230.750   1
  -2  -3  10 3936.50 233.672   1
   2  -3 -10 3745.88 222.510   5
  -2  -3   9 281.065 100.050   1
  -2  -3   9 32.8895 93.9023   4
   2  -3  -9 80.6504 88.4394   5
   2  -3  -8 2163.66 157.186   5
  -2  -3   8 2098.66 174.955   4
  -2  -3   8 2382.43 169.273   1
  -2  -3   7 3088.93 181.420   1
  -2  -3   7 2777.81 175.827   4
   2  -3  -6 1241.48 83.2706   3
   2  -3  -6 1468.92 135.048   4
  -2  -3   6 1400.85 117.538   4
  -2  -3   6 1566.23 128.123   1
   2  -3  -5 1170.45 72.3324   3
  -2  -3   5 1198.91 105.225   4
   2  -3  -5 1075.74 115.850   4
  -2  -3   5 1227.90 110.054   1
   2  -3  -4 5324.99 125.516   3
  -2  -3   4 5258.93 193.085   1
  -2  -3   4 5063.50 185.516   4
   2  -3  -4 5080.38 93.0883   1
   2  -3  -4 5190.15 221.975   4
   2  -3  -3 4137.23 109.731   3
  -2  -3   3 4438.17 174.960   1
   2  -3  -3 4418.29 118.065   1
  -2  -3   3 4023.38 151.898   2
  -2  -3   3 4582.84 179.677   4
   2  -3  -3 4926.23 214.242   4
   2  -3  -2 1890.39 77.9365   3
  -2  -3   2 2110.75 117.277   1
  -2  -3   2 1747.67 109.127   2
   2  -3  -2 1628.05 76.9239   1
   2  -3  -2 2175.32 147.224   4
  -2  -3   2 1916.05 125.560   4
  -2  -3   1 23210.3 346.267   1
   2  -3  -1 23142.5 319.135   5
   2  -3  -1 23298.3 259.190   3
   2  -3  -1 24489.8 454.294   4
  -2  -3   1 24506.2 397.278   4
  -2  -3   0 1131.03 80.3222   1
   2  -3   0 1176.41 74.9171   5
   2  -3   0 1289.73 74.7300   3
   2  -3   0 932.110 122.498   4
  -2  -3   0 1273.49 110.020   4
  -2  -3  -1 3456.73 172.515   4
   2  -3   1 3026.50 109.231   5
  -2  -3  -1 3119.61 123.154   1
   2  -3   1 3794.27 239.196   4
   2  -3   2 10546.9 185.693   5
  -2  -3  -2 9612.19 195.386   1
   2  -3   3 10075.8 186.342   5
  -2  -3  -3 9742.19 195.424   1
   2  -3   4 3510.03 127.817   5
  -2  -3  -4 3771.70 123.297   1
   2  -3   5 4705.11 156.283   5
  -2  -3 -10 1207.97 160.443   5
   2  -3  10 1023.01 167.585   1
   2  -2 -12 4275.64 254.018   5
  -2  -2  12 4220.10 250.777   1
   2  -2 -11 5579.18 267.820   5
  -2  -2  11 5670.17 266.901   1
  -2  -2  10 567.363 107.869   1
   2  -2 -10 657.068 115.283   5
   2  -2  -9 300.088 93.2254   5
  -2  -2   9 317.004 87.3666   1
   2  -2  -8 22006.5 419.793   5
  -2  -2   8 22061.2 431.968   1
  -2  -2   7 2673.44 155.666   1
   2  -2  -7 2729.36 150.954   5
   2  -2  -6 17638.9 250.850   3
   2  -2  -6 17746.0 336.645   5
  -2  -2   6 18648.9 354.479   1
   2  -2  -5 5183.52 184.254   4
   2  -2  -5 5158.47 121.539   3
  -2  -2   5 5369.68 171.077   4
   2  -2  -5 4970.06 73.0834   1
   2  -2  -5 5312.11 174.133   5
  -2  -2   5 5385.82 150.220   2
  -2  -2   5 5933.46 195.353   1
   2  -2  -4 57417.6 331.559   3
   2  -2  -4 57412.6 533.938   2
   2  -2  -4 60355.1 584.801   4
   2  -2  -4 58760.3 285.271   1
  -2  -2   4 55335.2 463.716   4
  -2  -2   4 58301.7 437.480   2
  -2  -2   4 58868.6 563.019   1
  -2  -2   3 5526.52 168.401   1
   2  -2  -3 6430.64 94.8785   3
   2  -2  -3 6404.14 171.324   2
  -2  -2   3 6459.10 143.624   2
  -2  -2   3 6160.33 155.675   4
   2  -2  -3 6784.03 202.072   4
   2  -2  -3 6256.91 115.130   1
  -2  -2   2 32496.9 362.613   3
  -2  -2   2 32106.3 367.003   1
  -2  -2   2 34016.4 325.192   2
   2  -2  -2 32038.5 368.108   2
  -2  -2   2 30583.1 345.303   4
   2  -2  -2 32516.9 197.037   3
   2  -2  -2 32648.0 293.493   1
   2  -2  -2 35669.3 445.157   4
  -2  -2   2 28395.7 351.970   5
  -2  -2   1 8620.51 188.121   3
  -2  -2   1 8314.87 184.593   1
  -2  -2   1 8611.44 174.655   2
  -2  -2   1 8914.23 196.516   4
  -2  -2   1 8340.97 192.279   5
   2  -2  -1 8698.46 195.612   2
   2  -2  -1 8794.76 159.178   5
   2  -2  -1 8509.52 115.947   3
   2  -2  -1 8213.59 152.975   1
   2  -2   0 9234.64 204.938   2
   2  -2   0 9245.54 142.018   5
  -2  -2   0 8202.27 183.550   3
  -2  -2   0 8977.97 181.643   1
  -2  -2   0 9014.89 185.873   2
  -2  -2   0 8922.85 198.179   5
  -2  -2  -1 28679.2 361.426   5
   2  -2   1 30435.2 223.456   5
  -2  -2  -1 28847.0 341.452   3
  -2  -2  -1 29310.2 314.836   1
   2  -2   1 28182.1 360.620   2
   2  -2   2 652.216 41.0284   5
  -2  -2  -2 564.484 58.3720   1
   2  -2   3 12438.8 167.973   5
  -2  -2  -3 12633.1 222.792   1
   2  -2   4 4979.16 123.373   5
   2  -2   5 20996.9 284.139   5
  -2  -2  -9 430.342 106.109   5
  -2  -2 -10 1946.75 173.989   5
  -2  -2 -11 2460.99 206.032   5
   2  -2  11 2246.48 207.811   1
   2  -1 -13 3992.36 224.159   3
   2  -1 -13 3892.50 249.446   5
  -2  -1  13 3655.31 238.517   1
  -2  -1  12 354.896 106.742   1
   2  -1 -12 306.693 111.841   5
   2  -1 -11 1163.77 139.946   5
   2  -1 -11 1070.98 117.580   3
  -2  -1  11 1099.48 128.177   1
   2  -1 -10 1974.67 156.601   5
  -2  -1  10 2315.93 158.593   1
   2  -1  -9 8376.84 269.648   5
  -2  -1   9 8487.94 266.559   1
   2  -1  -8 5950.92 218.081   5
  -2  -1   8 6320.24 220.344   1
   2  -1  -7 8775.72 241.530   5
  -2  -1   7 8942.91 240.523   1
  -2  -1   6 868.848 83.9922   1
   2  -1  -6 749.869 63.8232   3
   2  -1  -6 878.294 85.6197   5
  -2  -1   5 25513.2 326.781   3
   2  -1  -5 24718.8 246.981   1
   2  -1  -5 25128.1 258.184   3
   2  -1  -5 25850.5 352.841   5
  -2  -1   5 23334.0 339.706   1
  -2  -1   4 21096.9 301.701   1
   2  -1  -4 20960.1 194.775   3
   2  -1  -4 20501.7 263.925   4
   2  -1  -4 21000.1 286.989   5
  -2  -1   4 20833.2 293.675   5
  -2  -1   4 19165.5 203.829   4
  -2  -1   4 20507.9 264.699   3
   2  -1  -4 20834.4 210.583   1
  -2  -1   3 1521.43 78.2713   3
   2  -1  -3 2038.78 89.0169   5
  -2  -1   3 1528.08 87.2198   1
   2  -1  -3 1631.13 83.1432   4
   2  -1  -3 1633.97 73.9641   2
   2  -1  -3 1630.53 63.1631   1
  -2  -1   3 1403.98 48.8975   4
  -2  -1   3 1414.48 80.3901   5
  -2  -1   3 1661.70 53.3075   2
   2  -1  -3 1485.76 45.0732   3
  -2  -1   2 42697.6 336.943   3
  -2  -1   2 41934.6 222.544   2
  -2  -1   2 42215.4 352.659   5
  -2  -1   2 40995.3 365.760   1
   2  -1  -2 43303.5 320.785   2
   2  -1  -2 42229.1 302.534   5
   2  -1  -2 43510.4 303.338   1
   2  -1  -2 44592.2 381.535   4
  -2  -1   2 42286.8 257.279   4
   2  -1  -1 13434.9 179.188   2
  -2  -1   1 13277.7 189.421   3
   2  -1  -1 14869.0 143.745   5
  -2  -1   1 13240.4 190.498   5
  -2  -1   1 13899.4 207.861   1
   2  -1  -1 13897.5 184.206   1
  -2  -1   1 13370.4 147.055   2
   2  -1   0 98415.1 529.510   1
  -2  -1   0 93574.9 520.140   5
   2  -1   0 98609.6 392.678   3
  -2  -1   0 92809.4 519.923   1
  -2  -1   0 91688.7 506.522   3
   2  -1   0 92593.1 507.056   2
  -2  -1  -1 61804.4 438.164   3
   2  -1   1 63940.0 438.763   1
  -2  -1  -1 62521.5 427.547   5
  -2  -1  -1 61820.1 434.109   1
   2  -1   1 64365.7 390.288   3
   2  -1   1 62236.0 448.073   2
  -2  -1  -2 7455.33 168.020   3
  -2  -1  -2 7850.14 171.460   5
  -2  -1  -2 8099.49 169.945   1
   2  -1   2 8095.03 187.205   2
   2  -1   2 8022.37 168.179   3
  -2  -1  -3 2567.79 115.420   5
   2  -1   3 2801.61 117.129   3
  -2  -1  -3 2451.63 90.0776   1
   2  -1   4 6025.33 178.822   3
   2  -1   5 173.137 62.5413   3
   2  -1   6 5271.60 211.720   3
  -2  -1  -7 14090.7 316.695   5
   2  -1   7 14028.7 354.350   3
  -2  -1  -8 142.046 78.9990   5
   2  -1   8 232.058 94.2355   3
  -2  -1  -9 5412.34 232.036   5
   2  -1   9 5126.33 259.982   3
   2  -1  10 8577.55 358.442   3
  -2  -1 -10 7807.35 284.543   5
  -2  -1 -11 930.930 137.152   5
  -2  -1 -11 903.856 152.747   2
   2   0 -13 377.572 114.294   3
   2   0 -13 407.364 125.012   5
   2   0 -13 332.920 110.719   2
  -2   0  12 16402.3 394.267   1
   2   0 -12 14998.1 378.041   3
   2   0 -12 16352.4 429.559   5
   2   0 -12 15957.0 398.554   2
   2   0 -11 566.251 97.3392   2
   2   0 -11 582.033 112.054   5
   2   0 -11 635.833 103.087   3
  -2   0  11 562.041 98.1786   1
  -2   0  10 2961.51 154.822   1
   2   0 -10 2814.99 155.501   3
   2   0 -10 3186.63 165.924   2
   2   0 -10 3216.50 184.074   5
  -2   0   9 40825.3 505.509   1
   2   0  -9 38549.9 554.052   5
   2   0  -9 39029.6 495.371   3
   2   0  -8 302.554 72.9584   5
   2   0  -8 339.819 66.0040   3
  -2   0   8 325.109 64.5528   1
   2   0  -7 1779.80 116.830   5
   2   0  -7 1635.62 97.1420   3
  -2   0   7 1526.45 97.1704   1
  -2   0   6 29000.9 350.401   1
   2   0  -6 28429.8 355.246   3
   2   0  -6 29374.2 388.666   5
   2   0  -6 29317.8 332.323   3
  -2   0   5 69.1672 37.8979   1
   2   0  -5 85.1318 50.7860   5
   2   0  -5 22.0559 35.5686   3
   2   0  -5 66.7238 37.2442   1
   2   0  -5 65.5841 40.1457   3
  -2   0   5 60.4506 31.0762   4
  -2   0   4 4444.37 119.857   1
   2   0  -4 4587.52 105.587   3
   2   0  -4 4543.73 133.429   5
   2   0  -4 4891.92 117.712   3
  -2   0   4 4854.28 87.2225   4
   2   0  -4 4693.62 124.273   1
  -2   0   4 4420.46 131.425   5
   2   0  -3 97175.8 496.091   1
  -2   0   3 97397.2 522.882   5
  -2   0   3 95751.8 494.820   1
   2   0  -3 96899.6 514.975   5
  -2   0   3 96490.5 405.348   3
   2   0  -2 11377.5 120.235   3
  -2   0   2 10438.9 150.200   5
   2   0  -2 11301.3 168.090   1
  -2   0   2 10072.7 116.889   3
  -2   0   2 10311.3 159.670   1
   2   0  -2 10310.7 147.272   5
  -2   0   1 18776.5 155.692   3
   2   0  -1 18757.0 151.694   3
   2   0  -1 18209.8 126.257   2
   2   0  -1 19191.9 218.811   1
   2   0  -1 18677.0 164.939   5
  -2   0   1 18408.7 164.889   5
  -2   0   1 18235.7 210.425   1
  -2   0   1 17879.0 126.387   2
  -2   0   0 487007. 735.433   5
   2   0   0 468697. 873.658   3
  -2   0   0 480541. 894.368   3
  -2   0   0 483319. 1095.21   1
   2   0   0 483932. 750.495   5
  -2   0   0 469469. 891.896   2
   2   0   1 62495.6 381.637   3
  -2   0  -1 63897.7 409.022   1
   2   0   1 61075.2 424.009   1
  -2   0  -1 62154.3 378.194   3
  -2   0  -1 63483.2 285.733   5
  -2   0  -2 9681.17 173.610   3
   2   0   2 9832.04 177.753   3
   2   0   2 10199.0 192.307   1
   2   0   3 40528.1 388.189   1
   2   0   3 38714.5 373.417   3
  -2   0  -3 39512.3 388.937   3
   2   0   4 18853.7 301.850   3
  -2   0  -4 18143.0 246.710   5
   2   0   4 18581.1 288.948   1
  -2   0  -5 9758.44 202.157   5
   2   0   5 10677.7 256.092   3
  -2   0  -6 41530.8 452.628   5
   2   0   6 42979.8 544.054   3
  -2   0  -7 704.213 83.3396   5
   2   0   7 491.729 90.1608   3
  -2   0  -7 804.273 101.249   2
   2   0   8 97.0231 82.1758   3
  -2   0  -8-63.2855 72.5836   2
  -2   0  -8 68.9378 65.3697   5
   2   0   9 7476.50 283.925   3
  -2   0  -9 8052.34 253.284   5
  -2   0  -9 8124.53 294.761   2
   2   0  10 143.243 111.891   3
  -2   0 -10 312.579 106.782   2
  -2   0 -10 261.792 94.2771   5
  -2   0 -11 212.205 104.747   5
  -2   0 -11 139.714 98.8387   2
   2   0  11 19.2765 118.883   3
   2   1 -13 3984.99 242.707   5
   2   1 -13 3545.32 219.860   2
   2   1 -13 4028.41 234.997   3
   2   1 -12 457.831 103.272   2
   2   1 -12 550.670 116.980   5
   2   1 -12 651.115 118.625   3
   2   1 -11 1283.29 134.650   5
   2   1 -11 1355.80 128.226   2
   2   1 -11 1183.54 126.545   3
  -2   1  10 2297.95 123.231   1
   2   1 -10 2270.65 139.421   2
   2   1 -10 2240.73 160.654   5
   2   1 -10 2330.62 150.145   3
   2   1  -9 8703.31 271.277   5
  -2   1   9 8348.46 258.273   3
  -2   1   9 8413.09 204.324   1
   2   1  -9 8677.45 239.898   2
   2   1  -9 8432.51 250.336   3
   2   1  -8 6346.08 218.065   5
  -2   1   8 5810.58 193.565   3
  -2   1   8 6400.05 163.332   1
   2   1  -8 6464.27 190.451   2
   2   1  -8 5946.10 197.574   3
  -2   1   7 8784.43 175.408   1
   2   1  -7 9076.77 239.855   5
  -2   1   7 8770.47 213.127   3
  -2   1   7 8386.22 233.214   4
   2   1  -7 8595.03 198.633   2
   2   1  -7 9002.95 222.896   3
  -2   1   6 804.964 56.3204   1
   2   1  -6 929.767 66.1947   2
  -2   1   6 775.101 79.2873   4
   2   1  -6 1011.79 82.6009   3
  -2   1   6 807.666 71.5326   3
   2   1  -6 1040.41 86.6965   5
   2   1  -5 24898.0 313.777   3
  -2   1   5 24937.0 240.848   1
  -2   1   5 25532.0 274.328   3
   2   1  -5 25970.6 346.623   5
  -2   1   5 25544.9 329.716   4
   2   1  -5 25029.1 262.501   2
   2   1  -4 20181.8 259.872   3
  -2   1   4 20232.2 201.802   3
   2   1  -4 21320.1 208.715   2
   2   1  -4 21180.6 294.823   5
   2   1  -4 20731.3 299.164   1
  -2   1   4 21117.5 281.529   4
  -2   1   4 20421.4 201.863   1
   2   1  -3 1672.39 81.0036   3
   2   1  -3 1589.07 52.3645   2
   2   1  -3 1507.04 84.0164   5
  -2   1   3 1606.28 48.0269   3
  -2   1   3 1580.93 86.3066   4
   2   1  -3 1585.80 82.4720   1
  -2   1   3 1666.90 63.4897   1
   2   1  -2 42666.1 374.153   1
   2   1  -2 42531.9 330.348   3
  -2   1   2 43185.8 295.160   1
   2   1  -2 42598.9 218.862   2
  -2   1   2 42172.2 326.800   2
   2   1  -2 41823.5 353.014   5
   2   1  -2 42594.7 272.793   4
   2   1  -1 13131.1 182.414   3
  -2   1   1 13244.3 183.529   2
   2   1  -1 12998.0 200.996   1
  -2   1   1 13719.1 93.3530   3
   2   1  -1 14185.0 200.581   5
  -2   1   1 13615.5 177.431   1
   2   1  -1 13195.4 175.274   4
   2   1   0 94170.1 506.780   3
   2   1   0 91657.4 529.900   1
  -2   1   0 92550.2 523.193   2
  -2   1   0 96910.4 369.435   3
   2   1   0 94761.0 529.610   5
   2   1   1 62388.8 453.180   5
  -2   1  -1 62613.6 379.183   3
   2   1   1 61276.2 434.285   3
   2   1   1 63535.0 444.754   1
  -2   1  -1 61523.8 443.511   2
  -2   1  -2 7415.60 151.792   3
   2   1   2 7601.62 174.622   3
  -2   1  -2 7654.65 89.0598   5
  -2   1  -2 8173.84 187.663   2
   2   1   2 7645.30 164.195   1
   2   1   3 2618.72 106.454   1
   2   1   3 2517.46 115.298   3
  -2   1  -3 2656.61 108.614   3
  -2   1  -3 2854.20 123.204   2
  -2   1  -3 2630.89 72.6560   5
   2   1   4 5987.96 163.107   1
  -2   1  -4 6037.26 128.319   5
  -2   1  -4 6424.13 188.771   2
   2   1   4 6233.55 183.886   3
  -2   1  -5 143.290 60.8826   2
   2   1   5 107.994 59.3970   3
  -2   1  -5 96.2490 38.0770   5
   2   1   5 186.351 52.2945   1
   2   1   6 4598.56 189.400   3
  -2   1  -6 4548.63 146.815   5
  -2   1  -6 5014.28 195.211   2
  -2   1  -7 14438.1 279.913   5
   2   1   7 15089.9 360.497   3
  -2   1  -7 14297.6 341.218   2
   2   1   8 126.957 90.7714   3
  -2   1  -8 278.535 68.4913   5
  -2   1  -8 95.9455 75.9995   2
   2   1   9 4506.63 242.315   3
  -2   1  -9 4810.80 192.945   5
  -2   1  -9 4982.59 233.374   2
  -2   1 -10 7660.98 259.102   5
   2   1  10 8023.51 327.106   3
  -2   1 -10 7720.25 307.852   2
  -2   1 -11 1062.24 150.293   2
  -2   1 -11 811.226 120.739   5
   2   1  11 922.820 157.308   3
  -2   1 -11 885.850 141.232   3
   2   2 -12 4276.02 232.465   3
   2   2 -12 4041.06 229.874   5
  -2   2  12 3691.27 222.029   3
   2   2 -12 3581.80 209.459   2
   2   2 -11 4697.09 229.742   5
  -2   2  11 5426.48 236.590   3
   2   2 -11 5257.12 231.677   2
   2   2 -11 5112.34 233.859   3
   2   2 -10 620.288 105.906   3
   2   2 -10 628.850 104.016   5
  -2   2  10 810.761 111.201   3
   2   2 -10 454.190 89.3815   2
   2   2  -9 364.915 82.8242   5
  -2   2   9 274.875 40.1984   1
   2   2  -9 520.048 84.4681   2
   2   2  -9 523.947 92.2227   3
  -2   2   9 253.527 69.4638   3
  -2   2   8 20372.1 188.228   1
   2   2  -8 22657.5 397.330   3
   2   2  -8 20880.7 390.457   5
  -2   2   8 20830.7 340.887   3
   2   2  -8 21688.1 357.088   2
   2   2  -7 3041.83 150.138   3
  -2   2   7 2631.32 121.568   3
   2   2  -7 2581.00 141.719   5
  -2   2   7 2418.43 59.7763   1
   2   2  -7 2810.15 127.571   2
   2   2  -6 17979.6 279.088   2
   2   2  -6 17645.2 322.808   5
   2   2  -6 17986.3 315.668   3
  -2   2   6 16971.4 255.114   3
  -2   2   5 4789.96 68.6238   1
   2   2  -5 5074.32 139.944   2
  -2   2   5 4948.79 119.190   3
   2   2  -5 4995.17 162.710   3
   2   2  -5 5166.33 169.768   5
  -2   2   4 56564.9 329.316   3
   2   2  -4 57052.3 437.259   2
   2   2  -4 58745.5 507.625   3
   2   2  -4 56482.4 522.118   5
  -2   2   4 58640.4 599.874   4
   2   2  -3 5494.89 155.070   3
   2   2  -3 5514.70 162.408   5
  -2   2   3 6243.17 93.5232   3
   2   2  -3 5922.33 137.782   2
  -2   2   3 6456.96 205.564   4
  -2   2   3 5891.43 174.001   2
   2   2  -2 32040.3 348.542   3
  -2   2   2 32647.9 199.956   3
  -2   2   2 31821.8 373.129   2
   2   2  -2 30553.7 295.716   2
   2   2  -2 31311.5 369.233   5
   2   2  -2 31314.8 360.910   1
   2   2  -2 32860.9 365.592   4
  -2   2   1 8583.14 118.782   3
   2   2  -1 8950.50 190.922   3
  -2   2   1 8379.22 193.506   2
   2   2  -1 7652.34 187.601   5
   2   2  -1 9202.56 209.768   4
   2   2  -1 8847.75 188.674   1
  -2   2   0 8958.36 140.593   3
   2   2   0 8765.47 176.112   1
  -2   2   0 8624.96 199.207   2
   2   2   0 9434.14 195.596   3
   2   2   0 9646.91 208.797   5
  -2   2   0 9207.94 155.574   3
   2   2   0 8800.20 209.897   4
  -2   2  -1 28291.2 279.510   3
   2   2   1 29129.2 316.011   1
  -2   2  -1 29226.2 224.611   5
   2   2   1 28674.9 341.553   3
  -2   2  -1 30190.3 368.097   2
   2   2   1 30042.1 383.720   5
   2   2   1 28645.3 404.625   4
   2   2   2 605.365 60.5404   1
  -2   2  -2 638.148 66.0930   3
  -2   2  -2 595.494 73.5107   2
  -2   2  -2 576.345 41.1947   5
  -2   2  -2 709.258 63.0860   3
   2   2   2 630.979 72.3381   3
   2   2   3 13685.6 223.074   1
   2   2   3 13473.0 265.628   3
  -2   2  -3 12779.4 165.841   5
  -2   2  -3 12593.2 233.386   3
  -2   2  -3 13107.4 270.123   2
   2   2   4 4941.15 176.692   3
  -2   2  -4 5222.43 122.138   5
  -2   2  -4 4955.84 165.748   3
   2   2   4 4806.60 139.029   1
  -2   2  -4 5202.96 184.192   2
  -2   2  -5 21744.3 275.000   5
   2   2   5 22311.6 385.604   3
   2   2   5 21971.3 311.814   1
  -2   2  -5 22121.0 372.505   3
  -2   2  -5 22920.1 405.824   2
   2   2   6 3229.26 171.206   3
  -2   2  -6 3204.28 123.559   5
   2   2   6 2904.39 127.891   1
  -2   2  -6 3310.92 165.914   3
  -2   2  -6 3476.79 178.244   2
  -2   2  -7 12411.1 250.451   5
   2   2   7 12367.5 325.230   3
  -2   2  -7 12216.0 339.268   2
  -2   2  -7 12488.0 318.528   3
  -2   2  -8 1693.74 112.180   5
   2   2   8 1978.98 163.036   3
  -2   2  -8 1950.41 163.261   2
  -2   2  -8 1861.82 143.439   3
  -2   2  -9 255.980 100.082   2
  -2   2  -9 494.459 108.053   3
  -2   2  -9 340.883 82.5808   5
   2   2   9 339.154 111.189   3
  -2   2 -10 1998.83 142.163   5
   2   2  10 2099.49 195.134   3
  -2   2 -10 2328.45 197.441   2
  -2   2 -10 2444.63 186.841   3
   2   2  11 2347.89 226.626   3
  -2   2 -11 2046.89 199.557   2
  -2   2 -11 2333.46 198.943   3
   2   3 -12 193.827 117.070   3
   2   3 -12 139.785 100.515   2
   2   3 -12 38.4296 102.657   5
  -2   3  12 158.765 111.663   3
   2   3 -11 3141.47 202.885   3
   2   3 -11 3097.65 202.262   5
   2   3 -11 3466.67 200.582   2
  -2   3  11 3269.48 194.008   3
   2   3 -10 3916.33 200.283   2
   2   3 -10 3462.03 198.385   3
   2   3 -10 3396.41 196.499   5
   2   3  -9 253.447 89.4673   3
   2   3  -9 321.444 84.7518   2
   2   3  -9 264.519 88.3232   5
  -2   3   9 139.739 74.0809   3
   2   3  -8 2299.45 137.890   2
   2   3  -8 2104.08 148.866   5
   2   3  -8 2289.36 151.884   3
  -2   3   8 1902.43 123.674   3
   2   3  -7 3006.33 146.129   2
  -2   3   7 3058.92 132.586   3
   2   3  -7 3127.85 169.219   5
   2   3  -7 2954.35 160.362   3
   2   3  -6 1329.43 112.113   3
   2   3  -6 1393.18 102.336   2
  -2   3   6 1415.03 85.8875   3
   2   3  -6 1435.49 113.815   5
   2   3  -5 1332.42 105.699   3
   2   3  -5 1078.87 89.3844   2
   2   3  -5 1228.32 103.524   5
  -2   3   5 1100.16 73.6722   3
   2   3  -4 4990.97 173.449   3
   2   3  -4 4906.28 161.333   2
  -2   3   4 5330.45 124.751   3
   2   3  -4 4891.25 176.096   5
   2   3  -3 4571.17 172.459   3
  -2   3   3 4285.88 184.826   2
  -2   3   3 4554.74 112.979   3
   2   3  -3 4512.96 157.947   2
   2   3  -3 4699.55 212.337   4
   2   3  -3 4539.68 176.250   5
   2   3  -2 2084.69 114.618   3
  -2   3   2 1995.98 80.7410   3
   2   3  -2 1889.39 110.739   2
   2   3  -2 1861.58 121.592   5
  -2   3   2 2061.80 132.710   2
   2   3  -2 2107.35 138.806   4
  -2   3   1 22732.7 255.573   3
   2   3  -1 23481.1 354.649   3
   2   3  -1 23281.7 373.439   5
  -2   3   1 23036.4 387.377   2
  -2   3   0 1186.83 69.3603   3
   2   3   0 1259.14 94.0400   3
  -2   3   0 1278.76 107.009   2
   2   3   0 1228.70 85.6040   1
   2   3   0 1395.16 108.822   5
  -2   3  -1 3247.30 117.079   3
  -2   3  -1 3181.37 154.553   2
   2   3   1 3118.67 141.288   3
   2   3   1 3469.01 168.128   5
  -2   3  -1 2936.34 110.939   5
   2   3   1 2851.04 121.519   1
  -2   3  -2 10354.9 216.980   3
  -2   3  -2 10610.2 268.175   2
   2   3   2 9457.13 199.684   1
  -2   3  -2 9897.49 181.138   5
   2   3   2 10003.6 242.885   3
  -2   3  -3 9736.38 262.981   2
  -2   3  -3 9876.41 181.722   5
   2   3   3 9860.13 248.742   3
   2   3   3 9497.87 188.632   1
  -2   3  -3 9292.27 218.690   3
  -2   3  -4 4209.68 190.914   2
  -2   3  -4 3985.11 130.805   5
   2   3   4 3740.31 127.752   1
   2   3   4 3964.99 176.892   3
  -2   3  -4 4025.33 162.415   3
  -2   3  -5 5362.66 220.672   2
   2   3   5 5176.41 144.815   1
   2   3   5 5481.34 213.607   3
  -2   3  -5 5363.80 150.759   5
  -2   3  -5 5487.49 197.915   3
  -2   3  -6 6440.53 248.489   2
   2   3   6 6769.11 248.379   3
  -2   3  -6 6789.96 181.996   5
  -2   3  -6 6743.30 234.097   3
  -2   3  -7 4262.77 215.874   2
   2   3   7 5105.85 234.884   3
  -2   3  -7 4478.35 164.284   5
  -2   3  -7 4540.21 206.528   3
  -2   3  -8 5744.08 259.306   2
  -2   3  -8 6390.20 205.908   5
   2   3   8 6052.02 267.531   3
  -2   3  -8 6104.99 250.441   3
   2   3   9 1241.14 154.925   3
  -2   3  -9 1153.62 144.283   2
  -2   3  -9 986.344 131.339   3
  -2   3 -10 1035.63 151.731   2
   2   3  10 972.685 159.265   3
  -2   3 -10 1373.44 158.241   3
   2   4 -11 5455.73 276.116   3
   2   4 -11 5367.01 261.221   2
   2   4 -11 5594.80 270.374   5
   2   4 -10 4112.70 233.013   3
   2   4 -10 3921.61 213.442   2
   2   4 -10 4136.81 229.024   5
   2   4  -9 115.416 85.0370   2
  -2   4   9 136.455 81.2249   3
   2   4  -9 73.7499 84.3037   5
   2   4  -9 3.29566 87.3653   3
   2   4  -8 4490.89 216.277   3
  -2   4   8 4268.72 166.600   3
   2   4  -8 4628.10 215.898   5
   2   4  -8 4430.98 205.857   2
   2   4  -7 18106.7 380.938   2
   2   4  -7 17418.7 388.810   5
   2   4  -7 17610.6 390.504   3
  -2   4   7 18045.7 312.195   3
   2   4  -6 7982.28 255.676   3
   2   4  -6 7545.35 238.759   2
  -2   4   6 8826.02 210.194   3
   2   4  -6 8240.50 269.367   5
   2   4  -5 27199.0 447.877   3
   2   4  -5 27009.6 427.062   2
  -2   4   5 28864.1 347.870   3
   2   4  -5 28189.0 472.174   5
   2   4  -4 3793.74 173.096   3
   2   4  -4 4035.41 174.029   2
  -2   4   4 3721.10 126.554   3
   2   4  -4 3842.22 180.195   5
   2   4  -3 78.7588 58.9465   2
  -2   4   3 280.488 89.4032   2
   2   4  -3 194.900 68.4650   3
   2   4  -3 126.131 69.9430   5
  -2   4   3 248.373 50.0889   3
   2   4  -2 1277.33 107.362   3
  -2   4   2 1116.30 77.7287   3
   2   4  -2 892.363 94.2136   2
  -2   4   2 939.615 113.314   2
   2   4  -2 1151.89 112.509   5
  -2   4   1 42862.7 425.667   3
   2   4  -1 44439.2 535.769   3
  -2   4   1 43596.3 591.273   2
   2   4  -1 42732.2 567.707   5
   2   4  -1 42751.0 544.294   2
  -2   4   0 252.021 92.5842   2
  -2   4   0 252.061 58.6115   3
   2   4   0 231.022 82.3815   5
   2   4   0 244.342 70.7564   3
  -2   4  -1 9720.33 218.000   3
   2   4   1 10339.3 269.804   3
  -2   4  -1 9472.78 282.515   2
   2   4   1 10255.1 299.451   5
  -2   4  -2 20233.7 333.163   3
  -2   4  -2 21064.6 422.009   2
   2   4   2 21301.1 388.590   3
  -2   4  -2 20967.0 317.100   5
   2   4   2 20325.2 316.554   1
  -2   4  -3 169.125 77.1805   2
  -2   4  -3 199.977 57.4082   5
  -2   4  -3 83.4667 58.4924   3
   2   4   3 142.522 71.4336   3
   2   4   3 166.045 51.6547   1
  -2   4  -4 11669.8 280.898   3
  -2   4  -4 11787.7 335.635   2
   2   4   4 11348.2 301.748   3
  -2   4  -4 12644.3 249.775   5
  -2   4  -5 1805.49 135.934   3
  -2   4  -5 1547.94 145.979   2
   2   4   5 1730.81 144.662   3
  -2   4  -5 1892.56 112.334   5
  -2   4  -6 1536.62 132.851   3
  -2   4  -6 1866.70 158.419   2
  -2   4  -6 1860.12 111.586   5
   2   4   6 1633.84 148.298   3
  -2   4  -7 891.984 120.128   3
  -2   4  -7 1045.19 138.345   2
   2   4   7 941.885 131.556   3
  -2   4  -7 1015.54 103.273   5
  -2   4  -8 10022.9 357.069   2
   2   4   8 11247.6 367.542   3
  -2   4  -8 10491.2 335.259   3
  -2   4  -9 1159.92 147.652   3
  -2   4  -9 1164.92 159.593   2
   2   4   9 1075.90 160.118   3
   2   5  -9 1619.70 169.402   3
   2   5  -9 1549.45 161.198   2
   2   5  -9 1437.01 166.250   5
   2   5  -8 3648.53 213.851   3
   2   5  -8 3253.80 208.072   2
   2   5  -8 3305.84 212.315   5
   2   5  -7 812.438 119.136   2
  -2   5   7 653.876 90.7869   3
   2   5  -7 651.280 115.269   3
   2   5  -7 651.077 119.437   5
   2   5  -6 122.341 82.5491   2
   2   5  -6 155.920 90.0078   3
   2   5  -6 238.519 91.6065   5
  -2   5   6 190.445 71.3168   3
   2   5  -5 2314.84 164.378   3
   2   5  -5 2302.05 163.363   2
  -2   5   5 2449.14 130.423   3
   2   5  -5 2520.56 172.512   5
   2   5  -4 5304.87 220.217   3
  -2   5   4 5806.74 181.991   3
   2   5  -4 5127.17 218.860   2
   2   5  -4 5936.73 247.460   5
  -2   5   3 3408.43 214.300   2
   2   5  -3 3781.12 200.220   2
   2   5  -3 3521.78 187.950   3
  -2   5   3 3673.38 154.252   3
   2   5  -3 3571.73 199.755   5
   2   5  -2 4175.85 201.036   3
  -2   5   2 4782.36 171.238   3
  -2   5   2 4503.58 236.768   2
   2   5  -2 4485.19 221.477   5
   2   5  -2 4133.69 208.397   2
  -2   5   1 10451.4 245.904   3
   2   5  -1 9738.84 283.858   3
   2   5  -1 9576.42 313.542   5
  -2   5   1 9897.91 333.687   2
  -2   5   0-12.9819 85.5597   2
  -2   5   0 75.2105 63.2063   3
   2   5   0 18.9467 71.9313   3
   2   5   0 31.6337 90.5826   5
  -2   5  -1 3499.50 159.371   3
   2   5   1 3307.92 179.592   3
  -2   5  -1 3400.90 205.352   2
  -2   5  -2 6572.53 215.713   3
  -2   5  -2 5927.49 254.700   2
   2   5   2 6060.77 234.770   3
  -2   5  -2 6328.31 210.171   5
  -2   5  -3 2913.53 156.743   3
  -2   5  -3 2895.26 188.446   2
   2   5   3 3008.90 179.716   3
  -2   5  -3 3205.99 157.567   5
  -2   5  -4 3715.89 185.581   3
  -2   5  -4 3583.70 218.373   2
   2   5   4 3721.17 202.708   3
  -2   5  -4 3779.78 173.296   5
  -2   5  -5 5024.32 217.757   3
  -2   5  -5 4646.24 243.838   2
  -2   5  -5 4842.69 186.907   5
   2   5   5 4976.85 232.956   3
  -2   5  -6 6055.02 292.917   2
   2   5   6 6339.80 273.318   3
  -2   5  -6 5846.25 248.560   3
  -2   5  -7 1796.61 164.013   3
   2   5   7 1868.58 180.196   3
  -2   5  -7 1795.09 193.530   2
   2   6  -7 2427.40 204.986   3
   2   6  -7 2344.83 195.592   5
   2   6  -6 6020.93 271.828   3
   2   6  -6 6216.07 296.278   5
   2   6  -5 581.678 124.208   2
   2   6  -5 521.668 122.014   5
   2   6  -5 388.340 106.122   3
   2   6  -4 5300.87 248.904   3
  -2   6   4 5240.91 196.902   3
   2   6  -4 5350.18 261.532   5
   2   6  -4 5101.11 256.048   2
   2   6  -3 5805.96 270.554   5
  -2   6   3 5950.60 213.966   3
   2   6  -3 5206.07 252.135   2
  -2   6   2 88.8521 121.140   2
   2   6  -2 49.3443 83.3578   3
   2   6  -2 129.381 105.434   5
  -2   6   2 142.532 79.1660   3
   2   6  -2 424.738 124.925   2
  -2   6   1 2879.23 158.421   3
   2   6  -1 2982.73 190.244   3
  -2   6   1 2773.15 209.049   2
   2   6  -1 2700.80 208.304   5
  -2   6   0 2449.56 155.387   3
   2   6   0 2467.60 175.949   3
  -2   6   0 2265.94 202.514   2
  -2   6  -1 3207.50 170.879   3
   2   6   1 3184.68 195.865   3
  -2   6  -1 2754.58 208.468   2
   2   6   2 1507.26 153.148   3
  -2   6  -2 1531.63 172.042   2
  -2   6  -2 1587.15 138.800   3
  -2   6  -3 9965.62 303.480   3
  -2   6  -3 9012.15 356.778   2
   2   6   3 9546.21 326.733   3
  -2   6  -4 831.073 122.071   3
  -2   6  -4 791.083 141.016   2
   2   6   4 640.678 123.952   3
  -2   6  -5 5856.33 254.025   3
   2   6   5 6247.22 285.650   3
   2   7  -3 1302.22 160.934   3
   2   7  -3 1168.21 174.731   5
   2   7  -3 996.036 164.129   2
   2   7  -2 1104.16 152.765   3
   2   7  -2 1095.99 175.094   5
  -2   7   1 419.159 146.891   2
   2   7  -1 491.308 124.574   3
  -2   7   0 1833.36 153.514   3
   2   7   0 2439.46 198.516   3
  -2   7   0 2194.70 218.620   2
  -2   7  -1 1635.27 158.081   3
   2   7   1 1216.07 160.094   3
  -2   7  -1 1575.69 197.550   2
  -3  -6   7 1612.94 190.460   1
   3  -6  -7 1952.15 236.539   4
  -3  -6   6 95.0184 102.088   1
  -3  -6   6 133.666 112.774   4
   3  -6  -6 91.3206 140.903   4
  -3  -6   5 577.606 135.274   4
   3  -6  -5 817.594 164.588   4
  -3  -6   4 1025.96 140.799   1
   3  -6  -4 1095.36 189.708   4
  -3  -6   4 729.781 140.883   4
  -3  -6   3 422.587 111.391   1
   3  -6  -3 310.666 136.041   4
  -3  -6   3 189.610 122.587   4
  -3  -6   2 820.114 124.482   1
   3  -6  -2 998.877 110.457   1
  -3  -6   2 783.492 142.570   4
   3  -6  -2 867.299 171.069   4
  -3  -6   1 561.330 112.323   1
   3  -6  -1 349.372 132.567   4
   3  -6  -1 533.666 99.5285   1
  -3  -6   1 324.013 128.545   4
  -3  -6   0 2015.71 158.919   1
   3  -6   0 2002.34 159.144   1
  -3  -6   0 1566.92 196.297   4
   3  -6   0 1791.22 208.954   4
  -3  -6  -1 6248.85 242.429   1
   3  -6   1 6235.14 266.017   1
   3  -6   2 1428.02 151.839   1
   3  -6   2 1132.90 187.288   4
   3  -6   3 516.275 118.121   1
   3  -6   3 320.983 146.834   4
   3  -6   4 4496.98 264.505   1
   3  -6   4 2570.88 267.146   4
  -3  -5   9 3749.31 264.073   1
   3  -5  -9 4308.80 259.898   5
  -3  -5   8 269.231 110.885   1
  -3  -5   7 428.458 124.233   1
  -3  -5   7 353.643 110.953   4
   3  -5  -7 494.967 142.088   4
  -3  -5   6 11455.1 372.681   1
   3  -5  -6 12433.0 440.384   4
  -3  -5   5 572.302 109.131   1
  -3  -5   5 250.971 100.717   4
   3  -5  -5 262.151 107.978   4
  -3  -5   4 3673.81 212.283   1
  -3  -5   4 3817.29 219.503   4
   3  -5  -4 3729.13 129.954   1
   3  -5  -4 3689.18 247.934   4
  -3  -5   3 7852.85 281.978   1
   3  -5  -3 7981.58 346.189   4
  -3  -5   3 7111.56 287.632   4
   3  -5  -2 7202.03 332.177   4
  -3  -5   2 7528.60 267.711   1
  -3  -5   2 6922.94 288.506   4
  -3  -5   1 1370.31 119.173   1
   3  -5  -1 1813.46 184.266   4
  -3  -5   1 1743.84 161.756   4
  -3  -5   0 10711.2 300.120   1
   3  -5   0 9911.76 388.760   4
  -3  -5   0 10169.0 366.229   4
   3  -5   1 688.330 144.682   4
  -3  -5  -1 586.834 91.1239   1
  -3  -5  -2 970.968 102.178   1
   3  -5   2 1079.72 178.533   4
  -3  -5  -3 2974.63 151.639   1
   3  -5   3 2447.23 236.747   4
   3  -5   4 2295.65 267.863   4
   3  -5   5 3652.37 325.421   4
   3  -5   6 1956.06 271.399   4
   3  -5   7 239.556 187.774   4
  -3  -4  11 3897.30 268.791   1
   3  -4 -11 4457.33 273.395   5
  -3  -4  10 2284.78 207.310   1
   3  -4 -10 2401.98 203.255   5
   3  -4  -9 4.12801 87.8708   5
  -3  -4   9 46.4952 102.843   1
  -3  -4   8 827.132 128.747   1
  -3  -4   8 661.924 103.755   4
   3  -4  -8 1024.22 131.634   5
  -3  -4   7 225.529 101.273   1
  -3  -4   7 251.040 90.1540   4
   3  -4  -7 144.889 91.7156   4
  -3  -4   6 2413.85 173.118   1
   3  -4  -6 1990.83 173.455   4
  -3  -4   6 2203.80 149.825   4
  -3  -4   5 4109.94 202.401   1
   3  -4  -5 4456.51 123.652   3
   3  -4  -5 3934.08 110.271   1
  -3  -4   5 4191.00 191.131   4
   3  -4  -5 4504.28 238.816   4
   3  -4  -4 2409.85 91.4398   3
  -3  -4   4 2371.60 154.377   1
   3  -4  -4 2320.26 107.185   1
   3  -4  -4 2632.57 185.837   4
  -3  -4   4 2215.23 146.062   4
  -3  -4   3 9576.76 284.916   1
   3  -4  -3 9224.56 234.944   1
  -3  -4   3 10155.9 293.601   4
   3  -4  -3 9722.79 179.268   3
  -3  -4   2 11661.5 298.198   1
  -3  -4   2 11645.3 323.530   4
   3  -4  -2 11285.8 200.154   3
   3  -4  -1 16.3414 49.6778   3
  -3  -4   1 174.061 63.6117   1
   3  -4  -1 35.0831 81.1084   4
  -3  -4   1 125.206 74.6754   4
  -3  -4   0 1937.03 124.668   1
   3  -4   0 2106.38 182.756   4
   3  -4   1 9894.65 215.640   5
  -3  -4  -1 10167.4 250.265   1
   3  -4   2 778.517 75.4662   5
   3  -4   2 983.175 181.927   4
  -3  -4  -2 804.280 88.0956   1
  -3  -4  -3 1788.72 118.177   1
  -3  -4  -4 5485.40 185.515   1
  -3  -4  -5 64.2713 47.7597   1
  -3  -3  12 5385.78 303.250   1
   3  -3 -12 6256.73 310.612   5
  -3  -3  11 916.870 148.390   1
   3  -3 -11 723.162 134.520   5
   3  -3 -10 1816.70 166.404   5
  -3  -3  10 1309.76 152.310   1
   3  -3  -9 10931.5 337.319   5
  -3  -3   9 11360.5 360.510   1
  -3  -3   8 121.382 78.0736   1
   3  -3  -8 270.461 89.6684   5
  -3  -3   8 87.4089 56.9172   4
  -3  -3   7 2967.66 179.554   1
   3  -3  -7 2889.38 112.166   3
   3  -3  -7 3073.53 189.691   4
   3  -3  -7 3337.99 175.948   5
  -3  -3   7 2629.15 138.185   4
  -3  -3   6 33691.7 540.168   1
   3  -3  -6 31236.3 289.245   3
   3  -3  -6 32002.6 480.324   5
  -3  -3   6 29889.3 412.389   4
   3  -3  -6 34891.4 559.920   4
  -3  -3   5 495.474 88.2847   1
   3  -3  -5 542.225 47.8248   1
   3  -3  -5 483.868 44.0623   3
  -3  -3   5 652.452 78.7456   4
   3  -3  -5 557.554 94.3562   4
  -3  -3   5 556.748 73.8879   2
  -3  -3   4 14165.1 261.215   2
   3  -3  -4 14424.4 157.564   3
  -3  -3   4 14916.9 329.625   1
  -3  -3   4 14914.8 289.978   4
   3  -3  -4 13924.0 216.298   1
  -3  -3   3 23319.7 339.061   2
   3  -3  -3 22706.4 192.858   3
  -3  -3   3 22122.3 382.985   1
   3  -3  -3 21318.2 297.609   1
   3  -3  -3 24200.8 456.412   4
  -3  -3   3 21609.3 349.944   4
  -3  -3   2 6390.10 188.171   2
  -3  -3   2 6848.56 208.080   1
   3  -3  -2 6624.26 245.118   4
   3  -3  -2 6523.68 181.164   1
  -3  -3   2 6818.55 205.935   4
   3  -3  -2 6727.03 182.488   5
   3  -3  -2 6709.82 117.175   3
  -3  -3   1 1445.35 101.163   1
   3  -3  -1 1588.28 143.419   4
   3  -3  -1 1427.45 84.1901   5
   3  -3   0 29389.3 301.253   5
  -3  -3   0 28458.5 393.893   1
   3  -3   1 1241.95 64.7919   5
  -3  -3  -1 1509.85 104.341   1
  -3  -3  -2 2463.67 122.614   1
   3  -3   2 2560.71 79.5822   5
   3  -3   3 14835.7 187.872   5
  -3  -3  -3 14962.0 278.989   1
   3  -3   4 751.078 59.5422   5
  -3  -3  -4 770.599 78.1205   1
  -3  -2  12 325.567 118.162   1
   3  -2 -12 410.618 99.0275   3
   3  -2 -12 419.128 127.751   5
  -3  -2  11 2750.85 199.129   1
   3  -2 -11 2821.32 200.626   5
   3  -2 -11 2809.66 159.517   3
  -3  -2  10 2696.28 191.873   1
   3  -2 -10 2329.09 172.524   5
  -3  -2   9 1164.97 128.780   1
   3  -2  -9 1285.91 128.721   5
  -3  -2   8 12820.5 336.693   1
   3  -2  -8 13193.9 328.458   5
  -3  -2   7 3764.48 184.282   1
   3  -2  -7 3352.01 117.477   3
   3  -2  -7 3772.96 172.784   5
  -3  -2   7 2903.38 112.096   4
   3  -2  -7 3037.30 92.9984   1
  -3  -2   6 2159.34 132.295   1
   3  -2  -6 2613.29 85.2311   3
   3  -2  -6 2537.22 133.509   5
  -3  -2   6 2257.31 91.4566   4
   3  -2  -6 2606.10 137.057   4
   3  -2  -6 2424.27 84.3860   1
  -3  -2   5 17033.3 337.856   1
   3  -2  -5 16996.9 223.576   1
   3  -2  -5 17486.9 308.770   5
   3  -2  -5 17100.8 170.603   3
  -3  -2   5 16508.9 222.743   4
  -3  -2   5 17685.9 237.130   2
   3  -2  -5 17880.4 337.027   4
  -3  -2   4 9315.13 240.025   1
   3  -2  -4 9912.54 177.806   1
   3  -2  -4 9553.94 218.628   2
   3  -2  -4 10359.1 256.045   4
   3  -2  -4 9283.33 207.299   5
  -3  -2   4 9485.48 167.961   4
  -3  -2   4 10183.7 169.381   2
  -3  -2   3 9085.84 158.217   2
   3  -2  -3 9159.45 216.423   2
  -3  -2   3 10291.0 249.551   1
   3  -2  -3 8964.11 247.352   4
  -3  -2   3 9931.91 186.327   4
   3  -2  -3 9825.08 197.492   5
   3  -2  -3 9615.37 188.193   1
   3  -2  -2 11102.6 229.496   2
  -3  -2   2 11040.3 184.538   2
  -3  -2   2 10969.5 238.858   1
   3  -2  -2 11736.0 217.918   1
   3  -2  -1 2275.57 113.248   2
  -3  -2   1 2254.73 99.9697   2
   3  -2  -1 2590.55 115.798   1
   3  -2  -1 2589.96 163.689   4
  -3  -2   1 2058.72 113.823   1
   3  -2   0 27027.9 199.386   5
  -3  -2   0 26900.0 350.999   1
  -3  -2  -1 34929.4 409.248   1
  -3  -2  -2 5258.69 161.808   1
   3  -2   3 5925.44 196.086   3
  -3  -2  -3 5689.87 173.022   1
  -3  -2  -4 18045.7 286.327   1
   3  -2   4 18428.0 365.244   3
   3  -2   5 5032.16 210.490   3
  -3  -2  -9 2204.18 179.064   5
  -3  -2 -10 2238.92 190.610   5
  -3  -1  13 3010.27 213.523   1
   3  -1 -13 3405.36 237.064   5
   3  -1 -13 2715.61 183.739   3
  -3  -1  12 1083.45 132.836   1
   3  -1 -12 1168.53 151.278   5
   3  -1 -12 1057.70 119.992   3
  -3  -1  11 7843.92 280.565   1
   3  -1 -11 7615.34 289.573   5
   3  -1 -11 7655.74 244.107   3
   3  -1 -10 8764.05 291.424   5
  -3  -1  10 8266.56 274.031   1
   3  -1 -10 8924.60 242.485   3
  -3  -1   9 1072.21 110.299   1
   3  -1  -9 1166.93 117.441   5
   3  -1  -9 1178.67 95.8711   3
  -3  -1   8 9169.65 256.872   1
   3  -1  -8 8874.38 258.796   5
   3  -1  -8 9459.72 208.350   3
  -3  -1   7 27953.4 416.988   1
   3  -1  -7 27052.0 327.485   3
   3  -1  -7 26536.1 415.025   5
   3  -1  -7 27092.8 310.168   3
  -3  -1   6 487.523 71.8310   1
   3  -1  -6 565.682 55.5074   3
   3  -1  -6 590.653 76.4741   5
  -3  -1   6 472.620 38.3297   4
   3  -1  -6 554.464 58.5978   1
   3  -1  -6 604.620 52.6517   3
   3  -1  -5 32230.4 329.003   1
   3  -1  -5 30207.2 247.646   3
  -3  -1   5 31472.3 404.495   1
   3  -1  -5 30707.3 326.329   2
   3  -1  -5 30109.3 375.724   5
   3  -1  -5 32063.2 333.665   4
  -3  -1   5 31530.8 357.572   3
   3  -1  -5 30583.5 242.939   3
  -3  -1   4 1843.65 92.8795   3
   3  -1  -4 1811.89 49.1301   3
  -3  -1   4 1767.72 100.562   1
   3  -1  -4 2166.04 89.4800   1
   3  -1  -4 2023.58 83.2471   2
   3  -1  -4 2067.21 96.7647   5
   3  -1  -4 1880.42 49.1168   3
   3  -1  -4 1959.89 89.1070   4
  -3  -1   3 10475.7 190.040   3
   3  -1  -3 10373.9 168.006   2
   3  -1  -3 10107.3 175.823   5
  -3  -1   3 10357.8 216.260   1
  -3  -1   3 10187.1 204.887   5
   3  -1  -3 9768.64 192.178   4
   3  -1  -3 10841.8 193.433   1
   3  -1  -2 15555.0 202.687   2
  -3  -1   2 16494.1 233.891   3
  -3  -1   2 15563.0 134.029   2
   3  -1  -2 15087.7 185.288   5
  -3  -1   2 15398.2 253.393   1
   3  -1  -2 16188.9 241.068   1
  -3  -1   2 15993.9 238.111   5
   3  -1  -1 57031.9 280.745   3
   3  -1  -1 59650.6 467.163   1
  -3  -1   1 59827.5 444.540   5
  -3  -1   1 56632.9 480.511   1
   3  -1  -1 57735.7 284.975   5
   3  -1  -1 57550.9 400.233   2
  -3  -1   0 3930.30 123.120   3
  -3  -1   0 3840.40 115.423   5
   3  -1   0 4250.35 139.517   1
   3  -1   0 4055.33 98.6613   3
   3  -1   0 3895.82 118.224   2
  -3  -1   0 3967.84 134.913   1
  -3  -1  -1 66039.1 510.212   3
  -3  -1  -1 67574.2 527.126   1
   3  -1   1 65823.7 452.656   3
  -3  -1  -1 66858.6 475.587   5
   3  -1   1 66787.4 520.993   2
   3  -1   1 64416.1 552.854   1
  -3  -1  -2 22392.4 290.423   5
   3  -1   2 22543.7 301.989   3
  -3  -1  -3 146.449 45.6621   1
  -3  -1  -3 70.4091 49.4006   5
   3  -1   3 192.357 63.4362   3
   3  -1   4 1903.38 118.710   3
   3  -1   5 11444.5 281.986   3
   3  -1   6 2492.49 151.472   3
  -3  -1  -7 502.978 89.5395   5
   3  -1   7 501.733 107.745   3
   3  -1   8 7179.06 292.666   3
  -3  -1  -8 6409.30 232.980   5
   3  -1   9 1135.49 157.502   3
  -3  -1  -9 1114.76 125.933   5
   3  -1  10 1059.89 167.264   3
  -3  -1 -10 1065.36 134.997   5
  -3  -1 -10 1179.67 156.144   2
   3   0 -13 1990.78 187.498   5
   3   0 -13 1948.16 164.877   2
   3   0 -13 1902.68 162.510   3
   3   0 -12 517.801 104.517   2
   3   0 -12 587.387 126.470   5
   3   0 -12 498.699 105.569   3
  -3   0  12 369.685 99.7845   1
  -3   0  11 1363.92 126.665   1
   3   0 -11 1031.93 130.317   5
   3   0 -11 1270.43 116.002   2
   3   0 -11 1279.64 121.277   3
   3   0 -10 3726.00 193.555   5
  -3   0  10 3659.27 170.810   1
   3   0 -10 4055.45 171.835   2
   3   0 -10 3950.29 173.844   3
  -3   0   9 3155.08 151.587   1
   3   0  -9 2634.42 157.779   5
  -3   0   9 2657.74 130.964   4
   3   0  -9 3101.49 143.745   3
  -3   0   8 3873.07 156.907   1
   3   0  -8 3373.55 164.833   5
  -3   0   8 3325.39 124.146   4
   3   0  -8 3895.44 147.247   3
  -3   0   7 15013.9 280.613   1
   3   0  -7 13658.0 294.868   5
  -3   0   7 14242.9 216.809   4
   3   0  -7 13806.9 243.302   3
  -3   0   6 4154.10 143.165   1
   3   0  -6 4316.41 158.641   5
   3   0  -6 3837.10 132.697   3
  -3   0   6 4138.29 97.6463   4
   3   0  -6 4095.51 149.864   1
   3   0  -6 4175.47 124.978   3
   3   0  -5 12730.5 192.488   3
  -3   0   5 12858.4 231.889   1
   3   0  -5 12858.8 244.670   5
   3   0  -5 13088.0 213.562   3
  -3   0   5 12081.5 139.034   4
   3   0  -5 12997.5 241.753   1
   3   0  -4 39415.8 302.489   3
   3   0  -4 41992.9 408.660   1
   3   0  -4 41037.1 229.462   2
  -3   0   4 41592.8 403.503   1
  -3   0   4 40144.7 401.596   5
   3   0  -4 40129.2 389.175   5
  -3   0   4 40747.1 303.510   3
  -3   0   3 24010.0 217.839   3
   3   0  -3 24090.0 206.465   3
  -3   0   3 23842.9 290.818   1
   3   0  -3 25230.4 305.294   1
  -3   0   3 24466.1 281.887   5
   3   0  -3 24235.2 271.675   5
  -3   0   2 2814.08 77.7411   3
  -3   0   2 2703.39 57.0102   2
   3   0  -2 2560.64 71.8177   3
   3   0  -2 2918.62 111.903   1
   3   0  -2 2532.22 82.4130   5
  -3   0   2 2663.53 87.2323   5
   3   0  -2 2737.62 52.2241   2
  -3   0   2 2527.98 103.511   1
  -3   0   1 10271.6 205.145   1
  -3   0   1 9734.96 146.670   3
   3   0  -1 9432.44 137.975   3
  -3   0   1 9404.89 138.302   5
   3   0  -1 9452.67 138.408   5
   3   0  -1 10189.4 196.714   1
  -3   0   1 9464.82 129.549   2
   3   0   0 10646.1 209.115   1
   3   0   0 10083.4 162.394   3
  -3   0   0 10514.6 165.709   3
  -3   0   0 10425.2 133.815   5
  -3   0   0 9674.27 194.120   1
   3   0   0 10817.2 143.711   5
  -3   0   0 10403.2 163.253   2
  -3   0  -1 1399.02 84.6107   1
   3   0   1 1379.51 76.8244   3
   3   0   1 1257.78 82.6095   1
  -3   0  -1 1368.49 75.8958   3
  -3   0  -1 1500.36 59.2764   5
  -3   0  -1 1291.26 75.2344   2
   3   0   2 19168.2 304.356   1
  -3   0  -2 17920.3 266.066   1
   3   0   2 18610.6 274.702   3
  -3   0  -2 18236.3 279.810   2
  -3   0  -2 18233.9 204.737   5
  -3   0  -2 18280.1 267.883   3
   3   0   3 8685.64 206.555   3
  -3   0  -3 8679.30 167.474   5
  -3   0  -3 8797.00 211.788   2
   3   0   4 273.633 64.5406   3
  -3   0  -4 264.810 63.3572   2
  -3   0  -5 7370.84 180.009   5
   3   0   5 7783.94 238.298   3
  -3   0  -5 7553.56 232.928   2
   3   0   6 4861.30 207.121   3
  -3   0  -6 4998.33 169.423   5
  -3   0  -6 4853.58 200.987   2
  -3   0  -7 179.377 60.5991   5
  -3   0  -7 200.825 83.8018   2
   3   0   7 278.813 92.8592   3
   3   0   8 4724.37 237.367   3
  -3   0  -8 4590.48 223.180   2
  -3   0  -8 4628.33 187.228   5
   3   0   9 3217.14 214.078   3
  -3   0  -9 3169.54 169.859   5
  -3   0  -9 3535.93 215.140   2
   3   0  10 808.132 157.149   3
  -3   0 -10 626.691 107.855   5
  -3   0 -10 774.526 136.261   2
   3   1 -13 3094.75 203.711   3
   3   1 -13 2694.00 206.447   5
   3   1 -13 2780.37 187.753   2
   3   1 -12 1318.84 136.853   3
   3   1 -12 1215.21 143.356   5
   3   1 -12 1051.05 122.813   2
  -3   1  11 7604.11 219.406   1
   3   1 -11 7690.66 287.894   5
   3   1 -11 7170.29 238.733   2
   3   1 -11 7652.11 262.514   3
   3   1 -10 9154.74 268.740   3
  -3   1  10 8708.93 219.414   1
   3   1 -10 8342.29 282.434   5
   3   1 -10 8481.80 237.536   2
   3   1  -9 934.821 98.4604   3
  -3   1   9 1273.54 89.9494   1
   3   1  -9 1178.89 117.761   5
   3   1  -9 1065.09 89.1791   2
   3   1  -8 9069.08 235.627   3
  -3   1   8 9464.39 204.263   1
  -3   1   8 8415.31 237.615   4
   3   1  -8 9012.54 202.043   2
   3   1  -8 9542.26 267.912   5
   3   1  -7 27763.9 379.333   3
  -3   1   7 28561.3 337.021   1
   3   1  -7 26213.8 406.360   5
  -3   1   7 27219.9 381.704   4
   3   1  -7 27314.9 307.254   2
   3   1  -6 588.006 69.5728   3
  -3   1   6 545.811 58.7239   1
   3   1  -6 678.379 82.6727   5
  -3   1   6 553.257 68.8611   4
   3   1  -6 598.712 50.6722   2
   3   1  -5 30708.5 343.601   3
  -3   1   5 30583.5 314.670   1
   3   1  -5 30502.5 232.371   2
   3   1  -4 1829.92 88.1291   3
   3   1  -4 1976.76 48.6598   2
   3   1  -4 1976.22 104.976   5
  -3   1   4 2374.68 112.180   4
  -3   1   4 2162.65 88.8048   1
   3   1  -3 10066.3 212.486   1
   3   1  -3 9875.37 177.643   3
  -3   1   3 10264.6 182.586   1
   3   1  -3 10085.9 123.385   4
   3   1  -3 10067.4 199.069   5
  -3   1   3 9821.81 172.157   2
   3   1  -2 15137.8 215.454   3
   3   1  -2 16090.2 264.397   1
  -3   1   2 15105.9 205.502   2
   3   1  -2 15226.1 231.948   5
  -3   1   2 14996.9 227.343   1
   3   1  -2 15497.5 192.751   4
  -3   1   1 56474.1 432.209   1
  -3   1   1 58488.1 418.047   2
   3   1  -1 57549.9 423.837   3
  -3   1   1 58161.9 275.032   3
   3   1  -1 57910.5 488.603   1
   3   1  -1 59611.1 444.448   5
  -3   1   0 4131.27 122.545   2
   3   1   0 4008.95 123.127   3
  -3   1   0 3615.40 114.608   1
   3   1   0 4004.52 123.081   5
  -3   1   0 4035.92 95.4306   3
   3   1   0 3833.19 136.366   1
   3   1   1 66356.9 505.054   3
   3   1   1 67955.8 504.580   5
   3   1   1 68873.3 542.259   1
  -3   1  -1 64941.0 438.795   3
  -3   1  -1 65761.3 517.457   2
   3   1   2 23526.6 325.471   3
  -3   1  -2 22097.0 289.817   3
   3   1   2 22461.6 324.458   1
  -3   1  -2 22871.1 329.933   2
  -3   1  -3 130.280 26.7110   5
  -3   1  -3 147.193 56.8446   2
   3   1   3 60.0838 53.0809   3
  -3   1  -4 1609.20 113.326   2
   3   1   4 1439.15 106.648   3
  -3   1  -4 1714.57 69.8757   5
  -3   1  -5 11092.5 191.480   5
  -3   1  -5 11490.1 287.908   2
   3   1   5 12131.4 295.278   3
   3   1   6 2230.78 148.531   3
  -3   1  -6 2237.10 107.296   5
  -3   1  -6 2328.97 150.872   2
  -3   1  -7 416.158 67.5257   5
  -3   1  -7 218.094 73.2673   2
   3   1   7 400.568 96.0140   3
  -3   1  -8 6530.59 200.667   5
   3   1   8 6904.89 282.502   3
  -3   1  -8 6486.71 261.762   2
  -3   1  -9 1033.74 106.347   5
   3   1   9 1090.39 147.002   3
  -3   1  -9 1239.44 151.276   2
   3   1  10 996.908 166.935   3
  -3   1 -10 1063.44 153.236   2
   3   2 -12 493.727 104.354   2
   3   2 -12 327.759 116.387   5
   3   2 -11 2896.59 191.818   5
   3   2 -11 2786.55 163.833   2
   3   2 -10 2477.99 166.889   3
   3   2 -10 2440.12 168.809   5
   3   2 -10 2488.81 145.270   2
   3   2  -9 1309.60 119.560   3
   3   2  -9 1148.66 122.947   5
  -3   2   9 1029.09 103.693   3
  -3   2   9 1023.83 63.5351   1
   3   2  -9 1301.81 102.031   2
   3   2  -8 13536.3 308.686   3
   3   2  -8 13134.4 324.206   5
   3   2  -8 13031.3 258.053   2
  -3   2   8 12975.8 257.022   3
  -3   2   8 12499.8 183.449   1
   3   2  -7 3373.74 128.919   2
   3   2  -7 3343.29 154.454   3
  -3   2   7 3446.36 97.3867   1
   3   2  -7 3425.27 166.993   5
  -3   2   7 3171.11 117.105   3
   3   2  -6 2371.48 125.777   3
   3   2  -6 2063.17 91.1898   2
  -3   2   6 2375.68 87.5642   3
   3   2  -6 2422.85 132.657   5
  -3   2   6 2236.17 77.0116   1
   3   2  -5 17487.9 299.079   3
   3   2  -5 17410.3 229.914   2
  -3   2   5 18652.5 224.167   1
  -3   2   5 18440.1 373.540   4
   3   2  -5 17654.7 326.308   5
   3   2  -4 9453.60 216.157   3
  -3   2   4 9317.41 160.736   1
   3   2  -4 9691.16 163.737   2
   3   2  -4 9124.52 225.558   5
   3   2  -3 8143.04 177.712   4
   3   2  -3 9544.65 211.865   3
  -3   2   3 8837.79 220.127   2
   3   2  -3 9603.66 226.355   5
   3   2  -3 9276.60 155.610   2
  -3   2   2 9865.49 85.0032   3
   3   2  -2 11369.7 231.772   3
  -3   2   2 11033.3 239.661   2
   3   2  -2 11750.5 249.766   5
  -3   2   2 10481.8 92.6335   3
   3   2  -2 10842.3 225.983   4
  -3   2   1 2268.50 65.1757   3
   3   2  -1 2167.93 114.600   1
  -3   2   1 2122.01 113.062   2
   3   2  -1 2064.23 113.172   3
  -3   2   1 2438.29 71.8952   3
   3   2  -1 2173.18 118.534   5
   3   2  -1 2040.89 109.906   4
   3   2   0 26665.6 369.014   5
  -3   2   0 26857.8 363.478   2
   3   2   0 26537.7 365.043   1
   3   2   0 26544.1 355.715   3
  -3   2   0 26865.5 270.628   3
  -3   2   0 26160.0 244.824   3
   3   2   0 25068.6 390.097   4
  -3   2  -1 35711.8 444.927   2
   3   2   1 35562.3 423.542   1
  -3   2  -1 37624.1 358.775   3
   3   2   1 35234.3 453.906   5
  -3   2  -1 37605.4 345.850   3
  -3   2  -2 5373.49 183.412   2
   3   2   2 5550.77 181.829   3
   3   2   2 5096.43 167.245   1
   3   2   3 6149.12 200.759   3
  -3   2  -3 6126.35 86.8934   5
   3   2   3 5450.48 171.631   1
  -3   2  -3 5741.55 197.324   2
  -3   2  -4 19428.8 197.544   5
   3   2   4 20307.8 386.855   3
  -3   2  -4 19491.3 374.324   2
   3   2   5 5566.66 212.864   3
  -3   2  -5 5088.47 210.779   2
   3   2   6 12105.5 333.738   3
  -3   2  -6 11304.1 205.150   5
  -3   2  -6 11475.9 327.613   2
  -3   2  -7 7797.74 192.180   5
   3   2   7 7968.04 286.714   3
  -3   2  -7 8323.45 299.986   2
   3   2   8 5825.71 262.551   3
  -3   2  -8 5702.95 180.615   5
  -3   2  -8 5738.98 266.235   2
  -3   2  -8 5661.11 243.074   3
   3   2   9 2568.61 204.790   3
  -3   2  -9 2065.40 185.994   2
  -3   2  -9 2317.17 181.116   3
   3   2  10 2082.26 214.191   3
  -3   2 -10 2319.01 205.998   2
  -3   2 -10 2083.14 186.915   3
   3   3 -12 5923.71 279.624   3
   3   3 -12 5715.11 281.224   5
   3   3 -11 757.729 126.714   3
   3   3 -11 601.047 101.353   2
   3   3 -11 714.179 129.593   5
   3   3 -10 1722.35 147.632   3
   3   3 -10 1435.22 124.774   2
   3   3 -10 1692.07 158.855   5
  -3   3  10 1497.32 124.258   3
   3   3  -9 11282.1 318.361   3
   3   3  -9 10676.8 275.058   2
   3   3  -9 11446.1 330.708   5
  -3   3   9 10637.9 257.544   3
   3   3  -8 235.982 66.4814   2
   3   3  -8 197.180 87.1404   5
   3   3  -8 223.958 79.3646   3
  -3   3   8 175.743 55.9702   3
   3   3  -7 3083.44 164.617   3
   3   3  -7 3114.81 172.161   5
   3   3  -7 3238.32 143.653   2
  -3   3   7 2715.17 111.746   3
   3   3  -6 32330.6 460.729   3
   3   3  -6 32807.3 400.788   2
  -3   3   6 30244.8 304.427   3
   3   3  -6 32045.9 486.677   5
   3   3  -5 612.276 80.7742   3
   3   3  -5 585.562 69.9193   2
  -3   3   5 475.717 42.1371   3
   3   3  -5 648.943 90.8913   5
   3   3  -4 15172.3 306.215   3
  -3   3   4 14708.6 156.292   3
   3   3  -4 14931.6 321.495   5
   3   3  -4 14382.6 253.130   2
   3   3  -3 21927.6 355.018   3
  -3   3   3 23125.6 191.639   3
  -3   3   3 22678.8 395.397   2
   3   3  -3 21570.7 305.434   2
   3   3  -3 21629.9 376.923   5
   3   3  -3 23454.8 412.917   4
  -3   3   2 6725.50 119.201   3
  -3   3   2 6131.12 204.181   2
   3   3  -2 6632.03 215.827   5
  -3   3   1 1529.38 70.1404   3
   3   3  -1 1710.01 116.040   3
  -3   3   1 1600.37 120.314   2
   3   3  -1 1406.22 113.576   5
  -3   3   1 1523.53 78.5767   3
  -3   3   0 29151.2 304.176   3
  -3   3   0 28023.2 435.244   2
   3   3   0 28917.6 416.833   3
   3   3   0 28872.6 439.768   5
  -3   3   0 27355.9 309.932   3
  -3   3  -1 1296.60 80.6212   3
  -3   3  -1 1315.70 115.277   2
   3   3   1 1672.53 120.997   3
   3   3   1 1415.27 121.443   5
  -3   3  -2 2331.47 144.781   2
   3   3   2 2389.96 139.443   3
  -3   3  -2 2414.00 113.489   3
  -3   3  -3 14659.3 336.870   2
   3   3   3 15381.1 333.010   3
  -3   3  -3 15555.3 192.926   5
  -3   3  -3 14747.4 284.045   3
  -3   3  -4 909.261 115.553   2
   3   3   4 848.542 106.554   3
  -3   3  -4 933.444 59.3004   5
  -3   3  -4 791.046 87.8393   3
  -3   3  -5 9100.57 299.692   2
   3   3   5 10217.4 312.729   3
  -3   3  -5 10413.2 186.876   5
  -3   3  -5 10092.7 269.903   3
  -3   3  -6 7605.05 281.691   2
   3   3   6 7124.53 268.281   3
  -3   3  -6 7324.64 170.420   5
  -3   3  -6 6994.93 239.755   3
  -3   3  -7 354.740 96.9346   2
  -3   3  -7 242.696 84.1935   3
   3   3   7 414.424 116.926   3
  -3   3  -8 561.729 113.642   2
   3   3   8 420.112 117.903   3
  -3   3  -8 428.978 103.089   3
   3   3   9 5195.13 280.573   3
  -3   3  -9 4944.98 247.086   3
  -3   3  -9 4899.32 266.312   2
   3   4 -11 4103.10 242.278   3
   3   4 -11 4189.37 246.843   5
   3   4 -10 2343.77 185.189   3
   3   4 -10 1867.01 152.767   2
   3   4 -10 2195.77 183.531   5
   3   4  -9 49.3339 75.5203   2
   3   4  -9-63.0474 88.2092   5
   3   4  -9 73.5851 89.6619   3
   3   4  -8 743.739 111.985   3
   3   4  -8 793.396 102.839   2
   3   4  -8 1007.88 124.104   5
   3   4  -7 209.782 74.2333   2
   3   4  -7 81.6018 78.7846   3
   3   4  -7 151.397 85.2453   5
  -3   4   7 60.9827 48.1758   3
   3   4  -6 2482.89 144.754   2
  -3   4   6 2130.99 95.0335   3
   3   4  -6 2173.48 161.623   5
   3   4  -5 3869.66 184.251   3
   3   4  -5 4456.48 174.853   2
  -3   4   5 4401.08 119.249   3
   3   4  -5 4065.91 197.016   5
   3   4  -4 2254.78 140.931   3
  -3   4   4 2435.12 88.3819   3
   3   4  -4 2455.27 136.268   2
   3   4  -4 2166.00 146.451   5
   3   4  -3 10552.2 283.518   3
  -3   4   3 10444.4 180.825   3
  -3   4   3 9797.83 302.855   2
   3   4  -3 10173.4 262.461   2
   3   4  -3 9655.45 286.821   5
   3   4  -2 11463.1 290.363   3
  -3   4   2 12257.2 203.488   3
  -3   4   2 11167.7 317.013   2
   3   4  -2 11539.2 315.159   5
  -3   4   1 156.265 81.5993   2
  -3   4   1 181.798 46.4921   3
   3   4  -1 49.9019 71.7618   5
   3   4  -1 117.170 66.8517   3
  -3   4   0 1873.34 99.7767   3
   3   4   0 1561.82 123.386   3
  -3   4   0 1656.56 137.767   2
   3   4   0 1765.39 140.188   5
  -3   4  -1 10424.6 228.455   3
  -3   4  -1 9675.55 295.627   2
   3   4   1 10191.4 281.150   3
   3   4   1 10150.9 312.971   5
  -3   4  -2 748.449 84.2389   3
  -3   4  -2 713.119 105.861   2
   3   4   2 931.326 111.506   3
  -3   4  -3 1821.30 121.722   3
  -3   4  -3 1748.02 155.436   2
   3   4   3 1874.79 148.952   3
  -3   4  -3 1802.19 95.5809   5
  -3   4  -4 5966.58 211.678   3
   3   4   4 5891.67 238.501   3
  -3   4  -4 5777.02 155.204   5
  -3   4  -5 30.0925 78.4953   2
  -3   4  -5 26.7569 71.2138   3
   3   4   5 3.10609 80.3047   3
  -3   4  -6 1170.81 136.406   2
   3   4   6 1175.37 147.636   3
  -3   4  -6 1196.11 123.381   3
  -3   4  -7 8875.83 334.459   2
   3   4   7 8735.76 330.623   3
  -3   4  -7 8645.88 297.668   3
  -3   4  -8 641.097 132.868   2
   3   4   8 651.643 140.495   3
  -3   4  -8 641.137 131.339   3
   3   5  -9 4310.81 242.563   3
   3   5  -9 4271.93 251.757   5
   3   5  -8 344.702 99.6958   2
   3   5  -8 291.272 101.109   3
   3   5  -8 254.704 112.573   5
   3   5  -7 632.820 120.370   3
   3   5  -7 415.690 104.246   2
   3   5  -7 436.391 110.888   5
   3   5  -6 11834.7 344.537   3
   3   5  -6 12328.9 330.931   2
   3   5  -6 12865.7 368.893   5
   3   5  -5 383.142 91.5398   2
   3   5  -5 276.156 90.5443   3
   3   5  -5 429.615 99.8019   5
   3   5  -4 3660.58 198.584   3
   3   5  -4 3633.64 190.099   2
  -3   5   4 3643.24 136.386   3
   3   5  -4 3948.28 214.988   5
   3   5  -3 7852.37 269.348   2
   3   5  -3 7075.14 259.941   3
  -3   5   3 8511.97 197.700   3
  -3   5   3 7297.45 298.605   2
   3   5  -3 7893.22 287.739   5
  -3   5   2 6828.14 287.936   2
   3   5  -2 6809.80 247.008   3
  -3   5   2 7452.53 191.691   3
   3   5  -2 6928.80 274.214   5
  -3   5   1 1884.21 107.418   3
   3   5  -1 1500.31 134.439   3
   3   5  -1 1604.27 154.970   5
  -3   5   1 1663.75 155.390   2
  -3   5   0 11102.9 252.456   3
   3   5   0 10554.2 312.508   3
  -3   5   0 10602.6 341.645   2
   3   5   0 11053.6 356.364   5
  -3   5  -1 563.934 81.4873   3
   3   5   1 599.775 106.082   3
  -3   5  -1 543.655 115.104   2
  -3   5  -2 1106.14 106.376   3
  -3   5  -2 1333.71 153.992   2
   3   5   2 1093.44 130.584   3
  -3   5  -3 2903.51 160.071   3
  -3   5  -3 2293.50 180.467   2
  -3   5  -4 2815.56 166.107   3
  -3   5  -4 2542.44 196.211   2
   3   5   4 2790.82 188.446   3
  -3   5  -5 4167.35 209.728   3
  -3   5  -5 4165.06 248.260   2
   3   5   5 3934.17 239.143   3
  -3   5  -6 3694.38 206.843   3
  -3   5  -6 3737.92 249.524   2
   3   5   6 3843.62 236.749   3
  -3   5  -7 398.609 128.540   2
  -3   5  -7 336.265 116.516   3
   3   5   7 371.633 134.504   3
   3   6  -7 1805.70 179.556   3
   3   6  -7 1596.18 162.267   2
   3   6  -6 59.9451 102.449   3
   3   6  -6 78.2893 114.169   5
   3   6  -6 86.7681 98.8198   2
   3   6  -5 827.528 136.791   3
   3   6  -5 900.283 152.592   5
   3   6  -5 1103.02 135.177   2
   3   6  -4 854.987 129.836   3
   3   6  -4 872.104 134.823   2
   3   6  -4 1194.98 161.150   5
   3   6  -3 432.173 108.244   3
   3   6  -3 342.747 123.630   5
  -3   6   3 362.098 132.604   2
   3   6  -2 973.206 136.298   3
  -3   6   2 1031.29 148.737   2
   3   6  -2 754.411 137.679   5
   3   6  -1 766.286 147.640   5
  -3   6   1 365.325 124.190   2
  -3   6   1 418.239 84.7965   3
   3   6  -1 512.087 115.815   3
  -3   6   0 2001.89 140.704   3
   3   6   0 1854.91 169.561   3
  -3   6   0 1752.07 185.901   2
   3   6   0 1787.78 191.812   5
  -3   6  -1 6747.59 232.976   3
   3   6   1 7148.42 290.608   3
  -3   6  -1 6373.34 303.438   2
  -3   6  -2 1494.21 135.666   3
   3   6   2 1655.37 172.971   3
  -3   6  -2 1336.71 169.847   2
  -3   6  -3 286.912 115.868   2
  -3   6  -3 366.834 96.7294   3
   3   6   3 305.555 114.307   3
  -3   6  -4 4176.88 212.472   3
  -3   6  -4 3979.22 261.551   2
   3   6   4 4465.51 250.660   3
  -4  -6   6 1887.84 200.843   1
   4  -6  -6 2155.55 241.165   4
  -4  -6   5 1476.21 175.869   1
   4  -6  -5 1349.13 194.211   4
  -4  -6   5 1009.71 147.666   4
  -4  -6   4 5533.11 279.897   1
   4  -6  -4 5331.46 322.356   4
  -4  -6   4 4592.68 277.561   4
  -4  -6   3 3748.85 233.870   1
   4  -6  -3 3337.99 279.763   4
  -4  -6   3 3377.85 241.887   4
   4  -6  -2 383.052 149.670   4
  -4  -6   2 371.617 107.459   1
  -4  -6   1 1953.18 169.307   1
   4  -6  -1 1434.06 207.479   4
  -4  -6   0 4815.92 238.484   1
   4  -6   0 3692.78 290.850   4
  -4  -6  -1 133.680 90.3092   1
   4  -6   1 222.371 149.514   4
   4  -6   2 1180.75 204.855   4
   4  -6   3 1507.91 231.260   4
  -4  -5   9 850.489 159.200   1
   4  -5  -9 719.854 138.580   5
  -4  -5   8 1406.70 173.814   1
   4  -5  -8 1278.86 155.523   5
   4  -5  -8 1012.23 185.347   4
  -4  -5   7 202.333 113.399   1
   4  -5  -7 301.327 96.8810   5
   4  -5  -7 413.938 133.967   4
  -4  -5   6 4773.93 257.137   1
   4  -5  -6 4784.57 286.085   4
  -4  -5   6 4081.59 217.214   4
  -4  -5   5 7927.39 316.793   1
   4  -5  -5 7074.89 345.367   4
  -4  -5   5 6819.64 273.795   4
  -4  -5   4 3415.93 208.663   1
   4  -5  -4 3294.08 244.914   4
  -4  -5   4 2739.24 189.945   4
  -4  -5   3 2997.74 195.831   1
   4  -5  -3 2696.37 221.978   4
  -4  -5   3 2871.55 195.855   4
  -4  -5   2 2376.76 172.411   1
   4  -5  -2 2502.60 228.430   4
  -4  -5   1 2922.37 176.001   1
   4  -5  -1 2643.12 224.754   4
  -4  -5   0 3008.09 176.128   1
   4  -5   0 2347.90 213.717   4
  -4  -5  -1 767.266 106.369   1
   4  -5   1 532.410 148.346   4
   4  -5   2 4407.36 312.322   4
  -4  -5  -2 4945.66 212.025   1
  -4  -5  -3 5109.06 206.259   1
   4  -5   3 4949.19 367.564   4
   4  -5   4 4307.37 355.718   4
   4  -5   5 830.644 234.507   4
   4  -5   6 2131.28 284.408   4
  -4  -4  11 4223.31 281.103   1
   4  -4 -11 4391.81 265.674   5
  -4  -4  10 8439.04 362.169   1
   4  -4 -10 9093.51 345.688   5
  -4  -4   9 440.426 131.751   1
   4  -4  -9 433.769 117.826   5
  -4  -4   8 5925.45 283.158   1
   4  -4  -8 5856.62 252.072   5
   4  -4  -8 5692.08 290.365   4
  -4  -4   7 10127.4 342.789   1
   4  -4  -7 11446.4 327.471   5
  -4  -4   7 9690.24 261.161   4
   4  -4  -7 11766.4 388.461   4
  -4  -4   6 5531.99 253.946   1
   4  -4  -6 5420.50 219.166   5
   4  -4  -6 5921.64 277.712   4
  -4  -4   6 5493.09 203.215   4
  -4  -4   5 10485.2 327.512   1
   4  -4  -5 10454.0 359.533   4
  -4  -4   5 10759.6 284.700   4
  -4  -4   4 629.316 100.899   1
  -4  -4   4 584.508 94.0406   4
   4  -4  -4 620.001 118.826   4
  -4  -4   3 716.824 101.331   1
   4  -4  -3 573.526 123.502   4
  -4  -4   3 625.829 100.872   4
   4  -4  -2 71.8407 85.8143   4
  -4  -4   2 137.035 68.0707   1
  -4  -4   1 43804.9 583.859   1
   4  -4  -1 42593.2 750.384   4
   4  -4   0 4100.88 138.437   5
  -4  -4   0 3816.11 173.908   1
   4  -4   1 7225.70 365.921   4
  -4  -4  -1 6785.27 231.564   1
  -4  -4  -2 9667.27 267.862   1
   4  -4   2 9766.56 417.636   4
  -4  -4  -3 114.369 70.4709   1
  -4  -4  -4 440.726 82.4194   1
  -4  -4  -5 923.905 93.6377   1
  -4  -3  12 1369.21 182.332   1
   4  -3 -12 1539.15 185.889   5
  -4  -3  11 1413.54 172.514   1
   4  -3 -11 1435.16 165.204   5
  -4  -3  10 4007.41 236.904   1
   4  -3 -10 3482.82 212.879   5
  -4  -3   9 438.492 108.821   1
   4  -3  -9 455.838 105.996   5
  -4  -3   8 306.442 99.6972   1
   4  -3  -8 548.071 98.9072   5
  -4  -3   8 316.494 57.2156   4
   4  -3  -8 452.677 55.4013   3
  -4  -3   7 3179.86 189.880   1
   4  -3  -7 3270.96 172.658   5
  -4  -3   7 2936.83 116.354   4
   4  -3  -7 3229.42 190.325   4
   4  -3  -7 3346.73 87.7616   3
   4  -3  -6 4001.09 173.466   5
  -4  -3   6 4026.17 201.667   1
   4  -3  -6 3902.30 126.977   1
   4  -3  -6 4019.67 202.229   4
  -4  -3   6 3816.34 136.907   2
  -4  -3   6 3834.32 134.030   4
  -4  -3   5 6708.61 246.989   1
   4  -3  -5 6550.43 176.639   1
   4  -3  -5 6773.85 209.406   5
   4  -3  -5 6578.05 257.479   4
  -4  -3   5 6553.54 180.180   4
  -4  -3   5 6293.28 172.683   2
  -4  -3   4 8876.42 202.959   2
  -4  -3   4 8224.74 257.666   1
   4  -3  -4 8589.97 216.054   5
   4  -3  -4 8368.25 293.132   4
   4  -3  -4 8611.58 209.878   1
  -4  -3   3 3612.33 139.477   2
  -4  -3   3 3843.46 177.468   1
   4  -3  -3 4155.56 141.758   5
   4  -3  -3 3976.62 209.600   4
  -4  -3   2 702.256 79.8829   2
   4  -3  -2 771.923 63.5075   5
  -4  -3   2 850.324 94.7638   1
   4  -3  -2 749.224 70.4664   5
   4  -3  -2 716.574 112.740   4
  -4  -3   1 8546.71 244.356   1
   4  -3  -1 9543.69 179.317   5
   4  -3   0 2539.15 80.6661   5
  -4  -3   0 2579.09 141.761   1
   4  -3   1 2193.27 51.1140   5
  -4  -3  -1 2147.95 130.339   1
  -4  -3  -2 8719.44 242.793   1
  -4  -3  -3 5464.48 200.640   1
  -4  -3  -4 3729.02 166.509   1
  -4  -2  12 2859.85 211.047   1
   4  -2 -12 2950.44 218.858   5
  -4  -2  11 1072.42 143.936   1
   4  -2 -11 1230.00 108.771   3
  -4  -2  10-85.8749 93.3964   1
   4  -2 -10 132.754 58.9552   3
   4  -2 -10 161.043 93.7454   5
  -4  -2   9 6177.20 254.278   1
   4  -2  -9 6379.27 245.391   5
   4  -2  -9 6353.73 167.146   3
  -4  -2   8 6715.14 256.315   1
   4  -2  -8 6499.81 154.510   3
   4  -2  -8 6814.62 240.249   5
   4  -2  -8 6066.33 171.953   1
   4  -2  -8 7002.53 154.700   3
   4  -2  -7 5128.41 199.384   5
  -4  -2   7 5124.45 216.117   1
   4  -2  -7 5081.85 114.360   3
   4  -2  -7 5338.43 203.785   4
   4  -2  -7 4470.35 143.368   1
   4  -2  -7 5167.74 112.797   3
   4  -2  -6 8388.64 104.641   3
   4  -2  -6 8869.71 199.529   1
  -4  -2   6 8781.57 264.674   1
   4  -2  -6 8579.82 101.870   3
   4  -2  -6 9138.83 238.903   5
   4  -2  -6 8580.60 235.940   4
  -4  -2   5 5088.60 194.702   1
   4  -2  -5 6092.31 169.535   1
   4  -2  -5 5624.59 175.186   5
  -4  -2   5 6069.99 111.925   2
   4  -2  -5 5482.57 193.470   4
   4  -2  -4 44659.9 468.828   2
  -4  -2   4 46789.0 552.234   1
   4  -2  -4 45807.5 446.457   5
   4  -2  -4 47122.0 469.629   1
   4  -2  -4 44365.9 557.660   4
  -4  -2   4 48669.2 301.946   2
   4  -2  -3 2481.33 121.312   2
  -4  -2   3 2960.79 91.1409   2
   4  -2  -3 3030.07 108.646   5
  -4  -2   3 2918.22 150.407   1
   4  -2  -3 2818.24 159.783   4
   4  -2  -3 2854.41 129.428   1
  -4  -2   2 12371.5 199.050   2
   4  -2  -2 11440.1 175.299   5
  -4  -2   2 11639.6 264.439   1
   4  -2  -1 2747.96 72.9725   5
  -4  -2   1 2482.67 107.992   2
  -4  -2   1 2566.29 131.828   1
  -4  -2   0 23230.7 360.200   1
  -4  -2  -1 1317.08 108.134   1
   4  -2   1 1127.18 83.8236   3
  -4  -2  -2 4093.32 162.165   1
   4  -2   2 4436.64 165.504   3
   4  -2   3 5033.61 186.188   3
  -4  -2  -3 5740.96 197.724   1
  -4  -2  -4 2808.79 137.702   1
   4  -2   4 3113.49 165.219   3
   4  -2   5 8088.23 278.894   3
   4  -2   6 1880.23 161.801   3
   4  -2   7 4123.23 238.755   3
  -4  -2  -9 1307.50 152.887   5
  -4  -1  13 1134.23 161.304   1
   4  -1 -13 893.576 153.524   5
   4  -1 -13 1090.89 130.850   3
  -4  -1  12 441.959 117.725   1
   4  -1 -12 383.283 95.2045   3
   4  -1 -12 432.700 116.802   5
  -4  -1  11 4344.37 220.965   1
   4  -1 -11 4228.42 228.123   5
   4  -1 -11 4154.65 180.457   3
  -4  -1  10 2126.29 159.669   1
   4  -1 -10 2045.81 161.371   5
   4  -1 -10 2136.59 124.688   3
  -4  -1   9 9100.98 282.836   1
   4  -1  -9 9731.11 292.613   5
   4  -1  -9 9275.80 217.449   3
  -4  -1   8 17252.6 368.808   1
   4  -1  -8 16993.4 360.957   5
   4  -1  -8 16739.6 259.397   3
   4  -1  -7 9802.82 178.024   3
  -4  -1   7 9336.96 264.623   1
   4  -1  -7 9664.35 259.691   5
   4  -1  -7 9218.71 216.341   2
   4  -1  -7 9326.22 183.299   3
   4  -1  -6 388.084 41.7458   3
   4  -1  -6 422.207 62.5638   1
   4  -1  -6 402.935 54.4848   2
   4  -1  -6 443.887 71.3826   5
   4  -1  -6 308.394 45.5080   3
  -4  -1   6 307.973 69.6317   1
   4  -1  -6 411.061 51.2910   4
   4  -1  -5 24060.9 189.365   3
   4  -1  -5 25349.1 355.656   1
   4  -1  -5 24138.2 276.174   2
  -4  -1   5 24187.9 380.035   1
   4  -1  -5 23985.4 340.378   5
   4  -1  -5 24010.5 199.831   3
   4  -1  -5 23920.7 299.299   4
  -4  -1   4 517.531 65.9746   3
   4  -1  -4 671.023 56.1091   2
   4  -1  -4 598.653 26.8294   3
  -4  -1   4 609.275 76.4319   1
   4  -1  -4 640.436 70.1866   1
   4  -1  -4 580.012 61.8762   5
   4  -1  -4 559.747 28.3695   3
   4  -1  -4 549.634 64.7228   4
   4  -1  -3 10136.6 173.797   2
  -4  -1   3 10095.3 202.599   3
   4  -1  -3 10026.4 91.0180   3
   4  -1  -3 10057.0 181.353   5
  -4  -1   3 10063.6 234.979   1
   4  -1  -3 10511.2 228.063   1
  -4  -1   2 47384.1 432.522   3
   4  -1  -2 47014.7 262.212   3
   4  -1  -2 47216.4 341.177   5
  -4  -1   2 47438.1 504.212   1
  -4  -1   2 46386.9 443.872   5
   4  -1  -2 46683.6 389.047   2
  -4  -1   1 4919.74 147.940   3
   4  -1  -1 4457.60 96.7010   3
   4  -1  -1 4983.89 92.1064   5
  -4  -1   1 4926.84 143.305   5
   4  -1  -1 4882.33 135.323   2
  -4  -1   1 4992.69 167.497   1
  -4  -1   0 21345.6 350.645   1
   4  -1   0 20092.9 251.301   3
   4  -1   0 17576.2 127.954   5
  -4  -1   0 19077.8 277.295   5
   4  -1   0 18548.1 296.576   2
   4  -1   1 68392.5 533.297   3
  -4  -1  -1 68431.9 608.805   1
  -4  -1  -2 14787.7 265.203   5
  -4  -1  -2 15507.4 303.366   1
  -4  -1  -3 2923.27 136.089   1
   4  -1   3 2771.54 137.694   3
   4  -1   4 6999.34 226.276   3
   4  -1   5 3396.82 177.340   3
   4  -1   6 10321.9 312.177   3
  -4  -1  -7 13511.0 324.177   5
   4  -1   7 14316.9 380.882   3
  -4  -1  -8 581.643 101.744   5
  -4  -1  -8 527.750 114.731   2
   4  -1   8 374.349 118.109   3
  -4  -1  -9 1672.71 154.231   5
   4  -1   9 1888.39 195.490   3
  -4  -1  -9 1807.69 178.778   2
   4   0 -13 145.631 99.3291   3
   4   0 -13 156.787 120.198   5
   4   0 -12 20054.9 417.158   3
  -4   0  12 20124.7 425.819   1
   4   0 -12 20895.2 492.719   5
   4   0 -12 20418.2 400.642   2
   4   0 -11 593.642 98.1563   3
  -4   0  11 575.935 97.3268   1
   4   0 -11 523.375 103.638   5
   4   0 -11 567.885 86.7473   2
   4   0 -10 1632.66 119.955   3
  -4   0  10 1466.28 119.722   1
   4   0 -10 1590.22 142.326   5
   4   0 -10 1738.73 113.727   2
   4   0  -9 8347.13 220.451   3
  -4   0   9 7627.11 232.750   1
   4   0  -8 3965.28 144.804   3
  -4   0   8 3888.25 162.354   1
   4   0  -8 4084.05 181.044   5
   4   0  -7 26.2619 40.8721   3
   4   0  -7-26.0477 56.3569   5
  -4   0   7-0.05660 48.7469   1
   4   0  -6 33939.7 337.978   3
   4   0  -6 34061.3 274.082   2
  -4   0   6 34937.0 430.409   1
   4   0  -6 32247.0 367.852   3
   4   0  -6 33813.8 436.882   5
   4   0  -5 3368.68 99.6099   3
   4   0  -5 3350.58 68.3673   2
   4   0  -5 3431.96 136.175   5
  -4   0   5 3754.60 143.403   1
  -4   0   5 3442.29 107.795   3
  -4   0   4-21.3772 46.3740   1
  -4   0   4 0.70123 31.8128   3
   4   0  -4 66.1295 46.6015   5
   4   0  -4 41.1769 32.3066   3
   4   0  -4 19.3666 28.2527   4
  -4   0   3 32961.0 283.952   3
   4   0  -3 31244.9 266.423   3
  -4   0   3 31492.6 344.138   5
  -4   0   3 31859.5 183.571   2
   4   0  -3 30893.6 327.184   5
  -4   0   3 30073.5 379.684   1
  -4   0   2 4309.70 93.6969   2
  -4   0   2 3884.29 141.530   1
  -4   0   2 4515.09 115.292   3
   4   0  -2 3899.69 110.666   5
   4   0  -2 4217.94 104.066   3
  -4   0   2 4333.54 119.924   5
  -4   0   1 3203.65 104.765   3
  -4   0   1 3363.94 134.673   1
   4   0  -1 3210.39 98.4604   3
   4   0  -1 3002.16 92.7004   5
  -4   0   1 3283.30 95.6347   5
  -4   0   1 3385.58 98.4981   2
  -4   0   0 16109.8 237.856   3
   4   0   0 16330.9 236.295   3
  -4   0   0 16606.2 193.369   5
  -4   0   0 17063.8 297.843   1
  -4   0   0 15759.8 232.305   2
  -4   0  -1 3221.84 131.910   1
  -4   0  -1 3100.80 86.7943   5
   4   0   1 3012.41 116.042   3
  -4   0  -1 3059.35 119.164   2
  -4   0  -2 898.705 78.1695   1
  -4   0  -2 964.509 59.1690   5
   4   0   2 1081.94 88.1315   3
  -4   0  -2 1030.13 86.3539   2
   4   0   3 24423.2 371.101   3
  -4   0  -3 23110.8 284.214   5
  -4   0  -3 24302.5 382.013   2
   4   0   4 3970.72 170.771   3
  -4   0  -4 3182.51 122.742   5
  -4   0  -4 3761.35 169.311   2
  -4   0  -5 2951.39 119.473   5
   4   0   5 3621.86 179.999   3
  -4   0  -5 3099.63 166.930   2
  -4   0  -6 6240.24 188.225   5
   4   0   6 6200.56 247.552   3
  -4   0  -6 6072.14 239.350   2
  -4   0  -7 688.766 84.7240   5
  -4   0  -7 585.141 105.602   2
   4   0   7 738.301 119.217   3
  -4   0  -8 940.135 103.307   5
   4   0   8 1035.58 145.689   3
  -4   0  -8 1056.42 134.293   2
  -4   0  -9-46.2673 95.9708   2
   4   0   9 1.48292 106.374   3
   4   1 -13 1036.39 142.641   3
   4   1 -13 852.693 148.256   5
   4   1 -12 487.639 110.175   3
   4   1 -12 423.951 121.283   5
   4   1 -11 4223.92 199.546   3
  -4   1  11 4262.38 177.547   1
   4   1 -11 4329.68 227.708   5
   4   1 -11 4269.47 174.242   2
   4   1 -10 2143.37 140.594   3
   4   1 -10 2231.15 164.544   5
  -4   1  10 2104.75 125.573   1
   4   1 -10 2206.43 121.048   2
   4   1  -9 9244.13 252.165   3
   4   1  -9 9336.80 286.627   5
  -4   1   9 9785.49 236.804   1
   4   1  -9 9233.02 203.161   2
   4   1  -8 17118.7 320.461   3
   4   1  -8 17181.9 365.868   5
  -4   1   8 17464.2 295.892   1
   4   1  -8 17995.6 255.549   2
   4   1  -7 9589.07 228.488   3
   4   1  -7 9731.55 266.674   5
  -4   1   7 9378.10 213.410   1
  -4   1   7 10342.2 251.777   4
   4   1  -7 9306.28 151.860   2
   4   1  -6 415.735 32.3483   2
   4   1  -6 427.583 61.9197   3
  -4   1   6 327.983 53.5579   1
   4   1  -6 393.541 70.7462   5
   4   1  -5 24722.6 318.345   3
   4   1  -5 23543.9 356.897   5
  -4   1   5 24047.6 323.098   1
  -4   1   4 660.524 73.2899   1
   4   1  -4 630.714 65.2116   3
  -4   1   4 564.727 67.7737   5
   4   1  -4 597.470 73.1355   5
  -4   1   3 9890.53 91.6710   3
   4   1  -3 9675.17 191.111   3
  -4   1   3 9767.98 177.884   2
  -4   1   3 10250.6 218.527   1
  -4   1   3 9592.89 185.104   5
   4   1  -3 9639.01 210.492   5
   4   1  -3 9781.95 156.311   4
  -4   1   2 46028.8 396.437   2
  -4   1   2 46523.5 263.543   3
   4   1  -2 45564.4 414.401   3
  -4   1   2 45947.9 349.750   5
  -4   1   2 46847.0 473.877   1
   4   1  -2 46097.4 438.186   5
  -4   1   1 5434.61 165.597   1
  -4   1   1 4793.38 135.838   2
   4   1  -1 4979.74 143.091   3
  -4   1   1 5018.43 108.266   3
  -4   1   1 4950.03 93.9604   5
   4   1  -1 4952.58 145.021   5
   4   1   0 19988.0 300.157   3
  -4   1   0 20608.8 318.655   1
  -4   1   0 19171.2 239.904   3
   4   1   0 18696.8 284.333   5
  -4   1   0 19343.0 288.637   2
   4   1   1 66237.3 574.020   3
  -4   1  -1 64861.2 501.433   3
  -4   1  -1 66350.5 586.561   2
   4   1   2 15675.6 301.757   3
  -4   1  -2 16423.4 316.444   2
   4   1   3 3060.02 146.327   3
  -4   1  -3 2866.87 62.9128   5
  -4   1  -3 2692.05 57.0852   5
  -4   1  -3 2628.95 137.290   2
  -4   1  -4 6747.36 119.230   5
   4   1   4 6949.60 225.950   3
  -4   1  -4 6779.64 129.488   5
  -4   1  -4 6625.42 224.812   2
  -4   1  -5 3321.74 102.886   5
   4   1   5 3253.45 174.035   3
  -4   1  -5 3092.86 117.381   5
  -4   1  -5 3254.68 175.021   2
  -4   1  -6 10187.6 199.347   5
   4   1   6 10133.4 305.839   3
  -4   1  -6 10128.0 310.486   2
  -4   1  -7 14739.4 262.089   5
  -4   1  -7 14033.1 382.838   2
   4   1   8 800.071 140.493   3
  -4   1  -8 528.453 117.610   2
   4   1   9 1742.26 193.446   3
  -4   1  -9 1556.49 163.518   2
   4   2 -12 3211.18 200.013   3
   4   2 -12 3018.47 213.809   5
   4   2 -11 1170.64 106.612   2
   4   2 -11 1423.49 141.323   3
   4   2 -11 1133.78 141.430   5
   4   2 -10-11.9670 55.9609   2
   4   2 -10 175.023 79.9191   3
   4   2 -10 108.292 84.1635   5
  -4   2   9 6300.50 157.023   1
   4   2  -9 7006.85 188.987   2
   4   2  -9 6782.34 234.056   3
   4   2  -9 6543.53 251.383   5
   4   2  -8 6936.34 226.365   3
   4   2  -8 7741.10 176.039   2
  -4   2   8 6664.02 163.637   1
   4   2  -8 6648.72 237.603   5
   4   2  -7 5424.97 209.495   5
   4   2  -7 5648.24 197.279   3
   4   2  -7 5456.33 137.230   2
  -4   2   7 5440.29 143.383   1
   4   2  -6 8398.66 223.861   3
   4   2  -6 8405.47 147.335   2
  -4   2   6 7987.18 177.298   1
   4   2  -6 8260.01 243.223   5
   4   2  -5 5785.65 181.097   3
   4   2  -5 5388.83 192.153   5
  -4   2   5 6199.64 159.622   1
   4   2  -5 6042.26 115.063   2
  -4   2   4 45864.6 413.628   1
   4   2  -4 47071.6 484.368   3
  -4   2   4 45757.6 507.536   2
   4   2  -4 46020.3 523.190   5
   4   2  -4 45710.4 414.723   4
   4   2  -3 2721.50 127.061   3
  -4   2   3 2838.66 113.619   1
  -4   2   3 2427.27 123.857   2
   4   2  -3 2869.84 140.382   5
   4   2  -3 2770.54 118.893   4
  -4   2   2 11289.9 99.6877   3
   4   2  -2 11176.0 238.957   3
  -4   2   2 11373.8 242.578   2
  -4   2   2 11875.1 101.249   3
   4   2  -2 11645.9 257.375   5
   4   2  -2 10982.8 237.504   4
  -4   2   1 2629.34 129.724   2
   4   2  -1 2544.06 125.552   3
  -4   2   1 2469.56 78.0870   3
   4   2  -1 2534.12 131.219   5
   4   2  -1 2311.80 127.647   4
  -4   2   1 2442.02 73.9564   3
  -4   2   0 21844.4 355.071   2
   4   2   0 23487.1 354.076   3
  -4   2   0 23274.0 263.096   3
   4   2   0 23815.0 370.196   5
  -4   2  -1 1350.48 107.436   2
  -4   2  -1 1034.37 74.9913   3
   4   2   1 1083.16 99.2235   3
   4   2   1 1126.21 102.901   5
  -4   2  -2 4478.92 183.294   2
   4   2   2 4167.08 176.337   3
   4   2   3 5068.91 197.514   3
  -4   2  -3 5399.63 203.467   2
   4   2   4 3187.21 171.800   3
  -4   2  -4 3180.47 172.097   2
   4   2   5 8358.68 280.054   3
  -4   2  -5 7622.42 118.144   5
  -4   2  -5 8504.57 288.863   2
   4   2   6 1719.51 157.545   3
  -4   2  -6 1724.55 151.928   2
   4   2   7 3894.18 223.253   3
  -4   2  -7 4061.28 224.854   2
   4   2   8 909.258 152.018   3
  -4   2  -8 849.940 135.540   2
   4   2   9 1440.81 182.743   3
  -4   2  -9 1446.40 166.427   3
  -4   2  -9 1497.80 177.333   2
   4   3 -12 1543.87 172.071   3
   4   3 -12 1586.43 179.094   5
   4   3 -11 1455.51 154.207   3
   4   3 -11 1370.13 156.588   5
   4   3 -10 4075.54 214.262   3
   4   3 -10 3556.12 168.072   2
   4   3 -10 3882.42 222.068   5
   4   3  -9 321.606 73.0524   2
   4   3  -9 440.025 100.854   3
   4   3  -9 590.338 114.476   5
   4   3  -8 506.033 93.2736   3
   4   3  -8 435.541 71.5300   2
   4   3  -8 630.119 107.981   5
   4   3  -7 3205.59 164.012   3
   4   3  -7 3188.35 128.067   2
   4   3  -7 3277.48 176.404   5
   4   3  -6 3928.22 176.410   3
   4   3  -6 4016.51 133.330   2
   4   3  -5 6552.55 219.704   3
   4   3  -5 6759.72 170.562   2
   4   3  -5 6784.05 236.185   5
   4   3  -4 8275.45 238.178   3
  -4   3   4 8651.28 258.517   2
   4   3  -4 7580.01 246.520   5
   4   3  -4 8809.54 264.077   4
   4   3  -3 3702.39 166.278   3
  -4   3   3 3785.73 178.144   2
   4   3  -3 3706.12 174.592   5
   4   3  -3 3526.86 170.562   4
  -4   3   2 827.101 42.9140   3
   4   3  -2 669.626 85.4715   3
  -4   3   2 756.083 96.9990   2
  -4   3   2 659.726 42.7000   3
   4   3  -2 679.582 93.9872   5
  -4   3   1 9271.98 154.269   3
  -4   3   1 9377.76 260.941   2
   4   3  -1 9326.22 246.842   3
  -4   3   1 8324.92 153.037   3
   4   3  -1 9258.99 264.623   5
  -4   3   0 2481.86 96.5489   3
  -4   3   0 2565.29 146.089   2
   4   3   0 2253.61 135.968   3
  -4   3   0 2269.69 98.9992   3
   4   3   0 2289.93 146.987   5
  -4   3  -1 2308.98 148.046   2
   4   3   1 2177.09 142.227   3
   4   3   1 2341.62 160.748   5
  -4   3  -1 2303.98 105.965   3
  -4   3  -2 8832.04 272.087   2
   4   3   2 8190.09 252.137   3
  -4   3  -2 8981.82 213.503   3
  -4   3  -3 4820.37 211.224   2
   4   3   3 5047.42 210.782   3
  -4   3  -3 4803.23 170.353   3
  -4   3  -4 4335.58 217.186   2
   4   3   4 4119.52 207.807   3
  -4   3  -4 4499.15 183.114   3
  -4   3  -5 3382.80 196.206   2
   4   3   5 3231.83 193.802   3
  -4   3  -5 3373.61 171.408   3
  -4   3  -6 5813.15 266.628   2
   4   3   6 6363.01 275.133   3
  -4   3  -6 5958.51 236.558   3
  -4   3  -7 1454.08 158.785   2
   4   3   7 1260.63 164.121   3
  -4   3  -7 1136.49 131.763   3
  -4   3  -8 1304.03 165.215   2
   4   3   8 1385.14 171.638   3
  -4   3  -8 1102.61 139.577   3
   4   4 -11 4023.38 239.004   3
   4   4 -11 4483.09 261.672   5
   4   4 -10 7912.31 306.290   3
   4   4 -10 8025.91 324.877   5
   4   4  -9 381.428 92.9151   2
   4   4  -9 394.246 105.758   3
   4   4  -9 316.870 107.647   5
   4   4  -8 6029.34 245.547   3
   4   4  -8 5965.60 212.263   2
   4   4  -8 5622.51 252.276   5
   4   4  -7 11803.1 335.457   3
   4   4  -7 11005.9 265.388   2
   4   4  -7 10967.8 331.401   5
   4   4  -6 5725.03 229.362   3
   4   4  -6 6068.34 201.462   2
   4   4  -6 5830.14 252.067   5
   4   4  -5 11225.7 306.566   3
   4   4  -5 11003.2 258.429   2
   4   4  -5 10399.0 321.744   5
  -4   4   4 477.001 34.8374   3
  -4   4   4 637.992 108.361   2
   4   4  -4 473.666 89.5289   3
   4   4  -4 437.052 97.2041   5
   4   4  -3 813.852 104.821   3
  -4   4   3 792.968 117.776   2
  -4   4   3 672.988 44.3571   3
   4   4  -3 856.540 116.434   5
  -4   4   2 121.261 75.2952   2
  -4   4   2 217.191 41.9919   3
   4   4  -2 241.130 88.9221   5
   4   4  -2 171.079 86.4908   3
  -4   4   2 153.870 46.9016   3
  -4   4   1 46377.1 411.434   3
   4   4  -1 42731.9 579.854   3
  -4   4   1 44333.2 640.785   2
  -4   4   1 40747.9 412.311   3
   4   4  -1 43348.0 627.814   5
  -4   4   0 4242.31 140.118   3
  -4   4   0 4107.37 206.743   2
   4   4   0 4524.26 204.279   3
   4   4   0 4438.49 218.765   5
  -4   4  -1 6528.11 184.355   3
  -4   4  -1 6057.87 248.257   2
   4   4   1 6433.03 241.072   3
   4   4   1 6486.87 267.532   5
  -4   4  -2 9276.87 235.912   3
  -4   4  -2 9275.94 309.666   2
   4   4   2 9935.52 303.075   3
  -4   4  -3 163.915 86.9838   2
  -4   4  -3-21.2286 65.4619   3
   4   4   3 155.681 85.4093   3
   4   4   4 516.417 116.837   3
  -4   4  -4 449.858 119.673   2
  -4   4  -4 485.953 90.1959   3
  -4   4  -5 904.397 143.396   2
   4   4   5 1205.08 152.075   3
  -4   4  -5 1141.13 125.434   3
  -4   4  -6 57.7719 106.317   2
  -4   4  -6 49.2128 84.1825   3
   4   4   6 55.9353 104.899   3
  -4   4  -7 207.117 114.799   2
  -4   4  -7 182.507 101.927   3
   4   4   7 189.631 120.154   3
   4   5  -9 796.077 152.815   5
   4   5  -9 624.592 131.522   3
   4   5  -8 1568.37 163.387   3
   4   5  -8 1335.08 139.039   2
   4   5  -8 1592.06 173.184   5
   4   5  -7 397.763 96.8759   2
   4   5  -7 557.890 115.300   3
   4   5  -7 461.159 124.596   5
   4   5  -6 4998.45 236.402   3
   4   5  -6 4872.27 212.971   2
   4   5  -6 4752.03 243.982   5
   4   5  -5 7837.24 291.028   3
   4   5  -5 7689.88 264.844   2
   4   5  -5 7761.55 309.754   5
   4   5  -4 3686.24 205.035   3
  -4   5   4 3096.44 219.160   2
   4   5  -4 3258.03 207.652   5
   4   5  -3 2954.58 181.537   3
   4   5  -3 2957.71 200.713   5
  -4   5   3 2565.65 199.609   2
  -4   5   2 2510.25 110.937   3
   4   5  -2 2621.54 174.206   3
  -4   5   2 2752.34 199.923   2
   4   5  -2 2748.51 198.914   5
  -4   5   1 3344.80 135.555   3
   4   5  -1 2921.42 182.136   3
  -4   5   1 2802.67 195.112   2
   4   5  -1 2500.79 190.299   5
  -4   5   0 3335.42 147.507   3
   4   5   0 3154.32 192.209   3
  -4   5   0 3036.99 205.024   2
   4   5   0 2842.60 206.845   5
  -4   5  -1 759.919 91.9036   3
   4   5   1 706.339 113.726   3
  -4   5  -1 553.891 123.659   2
  -4   5  -2 5229.24 197.520   3
  -4   5  -2 4873.31 253.837   2
   4   5   2 4849.33 239.795   3
  -4   5  -3 5042.10 205.560   3
  -4   5  -3 5147.55 269.001   2
   4   5   3 5068.74 251.313   3
  -4   5  -4 6173.91 242.190   3
  -4   5  -4 6140.78 299.569   2
   4   5   4 6251.86 292.664   3
  -4   5  -5 1832.66 152.159   3
  -4   5  -5 2201.31 204.824   2
   4   5   5 1981.80 193.260   3
  -4   5  -6 4464.37 230.526   3
  -4   5  -6 4330.42 273.373   2
   4   5   6 4242.08 274.621   3
   4   6  -6 2100.55 189.997   3
   4   6  -6 1871.75 170.593   2
   4   6  -6 2091.10 208.281   5
   4   6  -5 2104.61 185.778   3
   4   6  -5 1297.59 170.464   5
   4   6  -4 5632.77 265.250   3
   4   6  -4 5498.66 289.872   5
   4   6  -3 3448.29 219.673   3
  -4   6   3 3490.15 249.723   2
   4   6  -3 3961.72 254.303   5
  -4   6   2 335.104 124.939   2
   4   6  -2 446.239 136.460   5
   4   6  -1 2184.85 184.515   3
  -4   6   1 1608.40 182.546   2
   4   6  -1 1822.01 197.977   5
   4   6   0 5491.65 272.816   3
  -4   6   0 4920.49 283.367   2
   4   6   0 4749.41 286.358   5
  -4   6  -1 29.0185 113.759   2
   4   6   1 167.874 114.069   3
  -4   6  -2 2439.33 163.247   3
  -4   6  -2 2285.39 221.785   2
   4   6   2 2954.33 218.865   3
  -4   6  -3 2494.99 172.246   3
  -4   6  -3 2107.02 213.135   2
  -5  -6   5 3354.26 244.916   1
   5  -6  -5 3192.67 202.813   5
   5  -6  -5 2652.87 271.101   4
  -5  -6   4 567.068 134.043   1
   5  -6  -4 375.618 170.263   4
  -5  -6   3 1185.17 164.020   1
   5  -6  -3 792.306 186.776   4
  -5  -6   2 2843.29 209.791   1
   5  -6  -2 2349.66 239.762   4
  -5  -6   1 336.146 113.819   1
   5  -6  -1 194.619 151.232   4
  -5  -6   0 1820.81 168.330   1
   5  -6   0 1080.05 208.141   4
   5  -6   1 2398.57 263.809   4
  -5  -6  -1 4491.39 237.711   1
   5  -5  -8 775.115 137.267   5
  -5  -5   8 646.657 148.303   1
   5  -5  -8 305.496 134.818   4
   5  -5  -7 233.192 90.9427   5
  -5  -5   7 127.877 111.531   1
   5  -5  -7 264.851 143.627   4
  -5  -5   6 11294.8 389.402   1
   5  -5  -6 10242.0 317.001   5
   5  -5  -6 10637.6 425.138   4
   5  -5  -5 11.9239 68.8493   5
  -5  -5   5 6.43016 92.3354   1
   5  -5  -5 41.3880 101.063   4
   5  -5  -4 3908.07 187.108   5
  -5  -5   4 4076.18 233.147   1
   5  -5  -4 3603.66 269.491   4
  -5  -5   3 4959.83 249.925   1
   5  -5  -3 3631.96 266.599   4
  -5  -5   2 747.803 121.279   1
   5  -5  -2 465.118 142.315   4
  -5  -5   1 2121.75 163.180   1
   5  -5  -1 1646.81 197.242   4
   5  -5   0 3771.41 286.414   4
  -5  -5   0 4791.79 228.241   1
   5  -5   1 653.294 174.984   4
  -5  -5  -1 802.874 116.818   1
   5  -5   2 59.6524 175.816   4
  -5  -5  -2 383.706 106.383   1
  -5  -5  -3 3100.70 185.998   1
   5  -5   3 2129.04 285.052   4
   5  -5   4 258.783 194.163   4
   5  -4 -10 1039.35 147.295   5
  -5  -4  10 749.391 155.259   1
  -5  -4   9 94.7455 112.340   1
   5  -4  -9 74.3610 98.3300   5
   5  -4  -9-47.5142 108.001   4
  -5  -4   8 2584.90 207.219   1
   5  -4  -8 3055.04 189.724   5
   5  -4  -8 2371.27 197.333   4
  -5  -4   7 397.875 113.821   1
   5  -4  -7 414.860 97.1797   5
   5  -4  -7 599.051 129.492   4
  -5  -4   6 873.881 124.120   1
   5  -4  -6 1118.11 111.837   5
   5  -4  -6 938.278 139.460   4
   5  -4  -5 7853.76 237.973   5
  -5  -4   5 7350.66 285.352   1
   5  -4  -5 6737.26 303.587   4
   5  -4  -4 2287.86 127.310   5
  -5  -4   4 1752.71 147.924   1
   5  -4  -4 1881.99 174.303   4
  -5  -4   3 4377.82 214.452   1
   5  -4  -3 4387.26 158.290   5
   5  -4  -3 4131.35 248.628   4
   5  -4  -2 5553.91 164.447   5
  -5  -4   2 5243.70 230.495   1
   5  -4  -1 1887.49 89.7300   5
  -5  -4   1 1885.31 142.662   1
   5  -4  -1 1819.95 200.760   4
   5  -4   0 968.385 58.4313   5
  -5  -4   0 974.584 115.272   1
   5  -4   0 955.266 186.352   4
  -5  -4  -1 8134.13 270.726   1
   5  -4   1 7192.56 384.231   4
  -5  -4  -2 7.17844 71.1186   1
  -5  -4  -3 728.867 110.385   1
  -5  -4  -4 7879.84 271.914   1
  -5  -3  11 1167.96 165.726   1
   5  -3 -11 1541.09 165.359   5
  -5  -3  10 6.70313 104.710   1
   5  -3 -10-68.3544 87.0161   5
  -5  -3   9 6075.89 280.025   1
   5  -3  -9 5693.15 248.261   5
   5  -3  -8 1329.09 126.855   5
   5  -3  -8 1295.00 131.872   4
  -5  -3   7 1552.89 148.664   1
   5  -3  -7 1750.21 132.345   5
   5  -3  -7 1540.45 145.388   4
  -5  -3   6 12736.6 349.433   1
   5  -3  -6 12496.7 295.704   5
   5  -3  -6 11331.1 333.243   4
  -5  -3   5 2245.61 155.649   1
   5  -3  -5 2274.04 125.279   5
   5  -3  -5 2213.65 171.481   4
  -5  -3   5 2158.56 94.4775   2
  -5  -3   4 7487.74 174.299   2
   5  -3  -4 8720.03 215.727   5
  -5  -3   4 8286.39 283.581   1
   5  -3  -4 7509.63 284.960   4
  -5  -3   3 10742.8 228.185   2
   5  -3  -3 11163.9 219.745   5
  -5  -3   3 10614.0 304.632   1
   5  -3  -3 10009.6 342.328   4
  -5  -3   2 6823.38 197.541   2
   5  -3  -2 6454.16 147.491   5
  -5  -3   2 6294.40 229.856   1
   5  -3  -2 6254.07 164.339   5
   5  -3  -2 5640.01 295.813   4
   5  -3  -1 2630.49 80.4539   5
   5  -3  -1 2854.64 92.1011   5
   5  -3  -1 2786.45 215.249   4
  -5  -3   1 2438.18 147.556   1
  -5  -3   0 8645.34 262.897   1
  -5  -3  -1 4669.80 203.645   1
  -5  -3  -2 197.386 76.7340   1
  -5  -3  -3 1262.76 125.354   1
  -5  -3  -4 1292.93 118.113   1
  -5  -2  12 523.243 137.047   1
   5  -2 -12 528.586 136.168   5
  -5  -2  11 3812.44 233.100   1
   5  -2 -11 3903.44 226.347   5
  -5  -2  10 1125.99 133.979   1
   5  -2 -10 1190.79 136.973   5
   5  -2  -9 2552.53 98.6844   3
  -5  -2   9 2451.39 174.490   1
   5  -2  -9 2775.14 172.288   5
   5  -2  -8 13144.3 165.812   3
   5  -2  -8 14203.2 346.809   5
  -5  -2   8 13396.2 359.647   1
  -5  -2   7 4806.18 210.219   1
   5  -2  -7 5007.36 196.015   5
   5  -2  -7 4820.90 186.630   4
   5  -2  -6 9659.63 248.503   5
  -5  -2   6 8939.34 279.989   1
   5  -2  -5 13809.2 275.575   5
  -5  -2   5 13539.0 337.447   1
   5  -2  -5 12728.7 310.442   4
   5  -2  -4 9987.05 214.378   5
  -5  -2   4 9217.94 273.443   1
  -5  -2   4 9557.76 110.124   2
  -5  -2   3 3896.94 103.631   2
   5  -2  -3 4294.68 128.573   5
  -5  -2   3 3848.51 175.619   1
   5  -2  -3 4643.22 232.938   4
  -5  -2   2 7889.61 172.224   2
   5  -2  -2 8147.15 148.985   5
  -5  -2   2 8535.23 258.896   1
   5  -2  -1 1310.79 47.6581   5
   5  -2  -1 1162.05 68.0206   3
  -5  -2   1 1101.04 104.699   1
  -5  -2   0 22902.4 400.047   1
   5  -2   0 23216.7 312.180   3
  -5  -2  -1 27549.8 449.680   1
   5  -2   1 29649.8 400.472   3
  -5  -2  -2 8885.56 266.136   1
   5  -2   2 8965.64 244.675   3
  -5  -2  -3 11385.9 296.492   1
   5  -2   3 11423.8 295.112   3
  -5  -2  -4 8469.75 251.820   1
   5  -2   4 9024.06 286.337   3
   5  -2   5 601.631 110.808   3
   5  -2   6 6487.77 283.498   3
   5  -2   7 7899.16 339.399   3
  -5  -2  -8 1918.47 173.770   5
   5  -2   8 2384.05 222.915   3
   5  -1 -13 3312.15 234.913   5
  -5  -1  13 3198.96 222.499   1
   5  -1 -12 385.909 121.255   5
  -5  -1  12 490.863 115.410   1
   5  -1 -11 5634.00 195.103   3
  -5  -1  11 5132.51 241.060   1
   5  -1 -11 5181.07 247.598   5
   5  -1 -10 10679.0 240.192   3
  -5  -1  10 10522.2 319.595   1
   5  -1 -10 10748.9 327.908   5
   5  -1  -9 844.028 77.2058   3
  -5  -1   9 819.438 112.568   1
   5  -1  -9 728.151 102.332   5
   5  -1  -8 2002.10 91.7706   3
  -5  -1   8 2039.49 144.917   1
   5  -1  -8 2289.56 145.283   5
   5  -1  -8 1869.82 98.1839   3
   5  -1  -7 21647.8 234.519   3
   5  -1  -7 20950.9 296.518   2
  -5  -1   7 22212.3 413.487   1
   5  -1  -7 21975.0 388.269   5
   5  -1  -7 20486.2 246.769   3
   5  -1  -6 1358.09 57.5730   3
   5  -1  -6 1281.22 81.3768   2
   5  -1  -6 1748.22 113.071   5
  -5  -1   6 1327.03 116.094   1
   5  -1  -6 1171.06 62.8675   3
   5  -1  -6 1394.13 84.7130   4
   5  -1  -5 5091.25 133.259   2
   5  -1  -5 5045.18 83.7560   3
   5  -1  -5 5035.21 164.331   5
  -5  -1   5 5311.29 197.066   1
   5  -1  -5 4969.76 91.3708   3
   5  -1  -5 4355.49 154.931   4
   5  -1  -4 4642.69 74.8637   3
   5  -1  -4 4680.57 144.242   5
  -5  -1   4 4375.92 173.825   1
   5  -1  -4 3958.95 165.659   4
   5  -1  -4 4339.76 120.294   2
  -5  -1   3 7451.45 89.2626   2
   5  -1  -3 8023.04 114.665   3
   5  -1  -3 7915.92 166.555   5
  -5  -1   3 7675.76 223.720   1
   5  -1  -3 7607.04 163.920   2
  -5  -1   3 7688.49 84.1945   2
   5  -1  -2 2276.14 83.1667   5
   5  -1  -2 2445.74 79.8858   3
  -5  -1   2 2286.21 76.6212   2
   5  -1  -2 2394.51 102.973   2
  -5  -1   2 2045.60 128.158   1
  -5  -1   1 18735.8 355.824   1
   5  -1  -1 18154.1 234.063   3
   5  -1  -1 18918.2 192.056   5
  -5  -1   1 18216.7 244.292   2
   5  -1  -1 18320.7 289.671   2
  -5  -1   0 438.475 78.3022   1
   5  -1   0 565.710 62.8790   3
  -5  -1   0 524.903 65.9857   5
   5  -1   0 593.789 32.9707   5
   5  -1   1 4453.03 153.837   3
  -5  -1  -1 4841.12 194.302   1
   5  -1   2 9688.35 242.948   3
  -5  -1  -2 8669.58 250.060   1
  -5  -1  -3 794.989 92.0639   1
   5  -1   3 697.563 88.9483   3
   5  -1   4 2014.28 145.007   3
   5  -1   5 5391.83 232.966   3
   5  -1   6 645.325 118.863   3
  -5  -1  -6 568.329 110.109   2
  -5  -1  -7 733.307 103.946   5
   5  -1   7 801.316 131.186   3
  -5  -1  -7 833.933 122.143   2
   5  -1   8 3603.93 245.927   3
  -5  -1  -8 3729.56 240.265   2
   5   0 -13 990.314 129.568   3
   5   0 -13 1037.67 156.860   5
   5   0 -12 1842.90 146.155   3
  -5   0  12 2047.59 164.723   1
   5   0 -12 2245.68 180.887   5
   5   0 -11 1095.00 111.134   3
  -5   0  11 1162.67 130.408   1
   5   0 -11 1058.29 133.658   5
   5   0 -10 6514.31 207.893   3
  -5   0  10 7327.21 255.252   1
   5   0 -10 6447.05 257.748   5
   5   0 -10 7028.93 183.947   2
  -5   0   9 133.769 70.3142   1
   5   0  -9 159.523 49.0519   2
   5   0  -9 70.2648 56.4786   3
   5   0  -9 167.141 76.3085   5
   5   0  -8 4610.85 149.791   3
   5   0  -8 3701.38 117.419   2
   5   0  -8 4386.42 190.437   5
  -5   0   8 4590.44 187.492   1
   5   0  -8 4619.00 114.741   2
   5   0  -7 6134.25 155.833   3
   5   0  -7 5895.29 111.085   2
   5   0  -7 5812.49 204.846   5
  -5   0   7 5882.70 203.711   1
   5   0  -7 5475.15 174.482   3
   5   0  -6 1913.16 86.7749   3
   5   0  -6 1974.94 119.075   5
  -5   0   6 2069.07 122.088   1
  -5   0   6 1730.82 90.4216   3
   5   0  -5 2811.25 98.3675   3
   5   0  -5 2838.38 130.664   5
  -5   0   5 2772.55 136.599   1
   5   0  -5 2124.36 65.2589   4
  -5   0   5 2699.36 102.158   3
  -5   0   4 30769.3 317.802   3
   5   0  -4 31163.4 295.517   3
   5   0  -4 31289.2 378.210   5
  -5   0   4 30730.8 422.801   1
  -5   0   3 6691.10 201.062   1
  -5   0   3 7463.11 160.025   3
  -5   0   3 6908.42 114.018   2
   5   0  -3 6212.30 135.322   3
  -5   0   3 6920.52 177.204   5
   5   0  -3 6347.07 162.431   5
  -5   0   2 48.8438 55.9991   1
  -5   0   2 7.89124 30.0250   2
  -5   0   2 22.3287 38.7284   5
   5   0  -2 3.21622 37.3358   5
  -5   0   2 15.0808 37.7925   3
   5   0  -2 54.1563 35.8187   3
  -5   0   1 19852.1 284.256   3
   5   0  -1 20184.8 274.436   3
  -5   0   1 20387.5 254.103   5
  -5   0   1 21591.0 361.777   1
   5   0  -1 21496.4 272.671   5
  -5   0   1 21324.1 277.383   2
   5   0   0 18818.2 286.753   3
  -5   0   0 18686.3 230.532   5
   5   0   0 18372.7 244.115   5
  -5   0   0 19431.3 353.696   1
  -5   0   0 18283.7 281.012   2
  -5   0  -1 3748.60 160.607   1
   5   0   1 3901.75 145.647   3
  -5   0  -1 3980.85 109.114   5
  -5   0  -1 3846.54 145.224   2
   5   0   2 3848.61 159.749   3
  -5   0  -2 3144.09 148.336   1
  -5   0  -2 3337.15 103.050   5
  -5   0  -2 3863.30 156.531   2
   5   0   3 2755.65 144.411   3
  -5   0  -3 2762.52 106.876   5
  -5   0  -3 2911.36 149.686   2
  -5   0  -4 114.215 69.7622   2
  -5   0  -4 9.81420 50.2042   5
   5   0   4 61.3552 71.2469   3
  -5   0  -5 3247.34 124.054   5
   5   0   5 3625.21 195.893   3
  -5   0  -5 3546.14 186.447   2
  -5   0  -6 4121.07 151.208   5
   5   0   6 4312.72 223.608   3
  -5   0  -6 3763.13 206.987   2
  -5   0  -7 15.6546 83.6740   2
   5   0   7-18.7587 94.1760   3
   5   0   8 6140.47 303.920   3
  -5   0  -8 5350.79 265.255   2
   5   1 -13 3248.56 204.773   3
   5   1 -13 3523.70 243.884   5
   5   1 -12 456.979 107.744   3
   5   1 -12 410.202 118.105   5
   5   1 -11 4690.18 240.879   5
  -5   1  11 5068.32 195.270   1
   5   1 -10 10844.7 285.588   3
   5   1 -10 10483.0 329.003   5
  -5   1  10 11005.9 273.139   1
   5   1  -9 787.040 91.5194   3
   5   1  -9 1064.38 122.042   5
  -5   1   9 782.830 90.4494   1
   5   1  -9 722.618 59.0780   2
   5   1  -8 2082.61 65.2836   2
   5   1  -8 2147.96 120.537   3
   5   1  -8 2167.72 145.736   5
  -5   1   8 2226.97 125.210   1
   5   1  -7 21741.2 332.753   3
   5   1  -7 21714.9 398.258   5
  -5   1   7 21477.0 351.390   1
   5   1  -6 1570.79 97.8799   3
   5   1  -6 1554.20 115.394   5
  -5   1   6 1361.76 99.1159   1
  -5   1   5 5588.49 186.187   1
   5   1  -5 5246.03 158.849   3
   5   1  -5 5174.39 182.218   5
   5   1  -4 4167.23 135.300   3
  -5   1   4 4663.45 163.311   1
  -5   1   4 4758.90 131.840   2
   5   1  -4 4719.18 169.768   5
   5   1  -4 4210.65 103.112   4
  -5   1   4 4539.81 76.4621   3
  -5   1   3 8342.45 120.447   3
   5   1  -3 8295.42 190.927   3
  -5   1   3 8051.48 173.079   2
  -5   1   3 7095.51 167.380   5
  -5   1   3 8082.15 216.160   1
   5   1  -3 8104.58 207.834   5
  -5   1   2 2227.99 104.318   2
  -5   1   2 2402.14 81.5537   3
   5   1  -2 2524.95 112.696   3
  -5   1   2 2235.47 85.7108   5
   5   1  -2 2404.26 119.313   5
  -5   1   2 2565.21 132.293   1
  -5   1   1 18920.4 295.491   2
  -5   1   1 18748.0 328.037   1
  -5   1   1 18233.9 237.340   3
   5   1  -1 17960.2 292.632   3
  -5   1   1 17812.3 187.118   5
   5   1  -1 17348.2 289.423   5
  -5   1   0 551.918 60.8722   3
   5   1   0 556.577 71.0737   3
  -5   1   0 564.102 75.0847   1
   5   1   0 419.800 66.1790   5
  -5   1   0 513.109 66.1778   2
   5   1   1 4774.24 171.734   3
   5   1   1 4631.51 162.185   5
  -5   1  -1 4562.34 165.232   2
   5   1   2 8887.61 247.606   3
  -5   1  -2 9012.74 252.935   2
   5   1   3 812.094 99.7174   3
  -5   1  -3 946.154 102.450   2
  -5   1  -4 1610.57 52.9781   5
   5   1   4 1911.07 144.482   3
  -5   1  -4 1775.95 138.406   2
   5   1   5 5175.38 230.122   3
  -5   1  -5 4964.29 225.200   2
   5   1   6 773.153 118.951   3
  -5   1  -6 551.229 111.079   2
   5   1   7 779.265 128.582   3
  -5   1  -7 741.594 128.161   2
   5   1   8 3572.95 244.991   3
  -5   1  -8 3944.67 238.324   2
   5   2 -12 620.882 139.235   5
   5   2 -12 496.579 121.242   3
   5   2 -11 4475.24 217.424   3
   5   2 -11 3660.31 222.871   5
   5   2 -10 1147.45 123.828   3
   5   2 -10 973.622 127.353   5
   5   2  -9 2538.44 149.992   3
  -5   2   9 2754.20 126.071   1
   5   2  -9 2508.42 169.083   5
   5   2  -8 13393.0 310.976   3
   5   2  -8 12846.0 171.692   2
  -5   2   8 13622.2 258.796   1
   5   2  -8 12371.5 332.381   5
   5   2  -7 4892.62 185.775   3
   5   2  -7 4831.37 80.8682   2
  -5   2   7 5163.81 165.597   1
   5   2  -7 4914.29 206.398   5
   5   2  -6 9316.49 239.214   3
   5   2  -6 10005.5 280.589   5
  -5   2   6 10181.3 232.154   1
   5   2  -5 13505.1 285.738   3
   5   2  -5 12694.6 303.635   5
  -5   2   4 10126.9 228.394   1
   5   2  -4 9557.59 240.539   3
  -5   2   4 10037.8 247.814   2
   5   2  -4 9499.64 257.644   5
   5   2  -4 8782.54 197.227   4
   5   2  -3 4002.76 159.142   3
  -5   2   3 4513.12 159.791   1
  -5   2   3 4246.96 164.209   2
   5   2  -3 4144.24 175.532   5
   5   2  -3 3661.61 144.187   4
  -5   2   2 7880.10 224.988   2
   5   2  -2 7870.80 222.064   3
  -5   2   2 7617.82 116.308   3
   5   2  -2 7862.91 229.578   5
  -5   2   2 8527.74 212.587   1
   5   2  -2 7052.47 218.924   4
  -5   2   2 7956.47 108.622   3
  -5   2   1 1335.91 102.320   2
   5   2  -1 1261.70 98.4300   3
  -5   2   1 1146.01 61.5869   3
   5   2  -1 1411.67 114.328   5
  -5   2   0 23252.9 386.185   2
   5   2   0 23104.1 381.548   3
  -5   2   0 23372.4 296.212   3
   5   2   0 23289.0 392.704   5
  -5   2  -1 29248.7 469.357   2
   5   2   1 27671.1 442.680   3
   5   2   1 27858.5 458.705   5
  -5   2  -2 8757.33 264.974   2
   5   2   2 9228.04 268.303   3
   5   2   3 11006.3 305.020   3
  -5   2  -3 10795.2 304.366   2
   5   2   4 8881.31 292.472   3
  -5   2  -4 8803.02 292.288   2
  -5   2  -5 426.107 105.316   2
   5   2   5 526.260 105.898   3
   5   2   6 6796.90 286.432   3
  -5   2  -6 6881.70 290.274   2
   5   2   7 7783.11 319.147   3
  -5   2  -7 7455.44 319.735   2
   5   2   8 2078.64 212.148   3
  -5   2  -8 2309.56 207.479   2
   5   3 -11 1523.98 150.627   3
   5   3 -11 1472.67 171.416   5
   5   3 -10-31.0495 83.5122   3
   5   3 -10-22.5186 94.1770   5
   5   3  -9 5560.60 229.656   3
   5   3  -9 5649.13 255.756   5
   5   3  -8 1669.22 137.662   3
   5   3  -8 1233.42 81.8372   2
   5   3  -8 1281.95 135.780   5
   5   3  -7 1606.81 132.502   3
   5   3  -7 1741.60 87.1520   2
   5   3  -7 1615.33 145.569   5
   5   3  -6 12493.3 307.218   3
   5   3  -6 11708.4 317.886   5
   5   3  -5 2169.14 137.394   3
  -5   3   5 2265.74 150.791   2
   5   3  -5 2375.32 155.275   5
   5   3  -5 2025.13 142.514   4
   5   3  -4 8293.14 251.261   3
  -5   3   4 7848.12 262.834   2
   5   3  -4 8299.85 268.297   5
   5   3  -3 11650.5 294.966   3
  -5   3   3 10882.5 291.906   2
   5   3  -3 11306.2 305.679   5
  -5   3   2 6258.75 100.025   3
   5   3  -2 6006.24 210.332   3
  -5   3   2 6351.92 227.495   2
  -5   3   2 6279.89 100.984   3
   5   3  -2 6626.42 235.053   5
  -5   3   1 2487.09 87.1686   3
  -5   3   1 2471.83 151.439   2
   5   3  -1 2636.65 153.551   3
  -5   3   1 2504.84 90.4766   3
   5   3  -1 2379.22 156.783   5
  -5   3   0 8333.10 265.201   2
   5   3   0 8905.36 264.805   3
  -5   3   0 8172.11 185.237   3
   5   3   0 7929.39 270.085   5
  -5   3   0 8014.84 175.586   3
  -5   3  -1 4478.07 203.681   2
   5   3   1 4290.92 193.800   3
   5   3   1 4413.96 213.893   5
  -5   3  -1 4272.30 145.727   3
   5   3   2 484.703 94.7840   3
  -5   3  -2 253.792 86.7125   2
  -5   3  -2 286.468 64.9969   3
  -5   3  -3 1675.51 148.370   2
   5   3   3 1645.89 146.714   3
  -5   3  -3 1485.94 115.229   3
  -5   3  -4 1224.35 138.972   2
   5   3   4 1464.25 146.855   3
  -5   3  -4 1397.01 119.231   3
  -5   3  -5 2450.30 188.881   2
   5   3   5 2856.31 199.843   3
  -5   3  -5 2653.01 167.233   3
  -5   3  -6 2864.84 211.623   2
   5   3   6 3183.13 219.481   3
  -5   3  -6 3196.00 190.997   3
  -5   3  -7 806.886 153.083   2
   5   3   7 710.925 143.514   3
  -5   3  -7 839.606 132.294   3
   5   4 -10 1029.64 142.061   3
   5   4 -10 1016.36 151.508   5
   5   4  -9-14.7098 95.0156   3
   5   4  -9 43.5083 101.522   5
   5   4  -8 3228.29 191.855   3
   5   4  -8 2670.00 193.183   5
   5   4  -7 279.486 107.650   5
   5   4  -7 433.276 78.8156   2
   5   4  -6 1289.80 130.912   3
   5   4  -6 1016.29 132.275   5
   5   4  -5 5568.77 228.620   3
   5   4  -5 6445.44 263.571   5
   5   4  -4 2058.33 145.519   3
  -5   4   4 2292.90 171.756   2
   5   4  -4 2235.08 165.857   5
   5   4  -3 4242.30 201.845   3
  -5   4   3 4505.69 217.058   2
   5   4  -3 4607.21 221.987   5
  -5   4   2 5415.56 114.558   3
   5   4  -2 5300.38 223.145   3
  -5   4   2 5110.72 236.321   2
   5   4  -2 5104.66 230.516   5
  -5   4   1 1907.53 89.4271   3
   5   4  -1 1770.64 144.097   3
  -5   4   1 1771.11 152.529   2
   5   4  -1 1729.14 155.893   5
  -5   4   0 1018.69 79.1902   3
  -5   4   0 982.681 127.567   2
   5   4   0 732.801 108.361   3
   5   4   0 1032.12 136.792   5
  -5   4  -1 8407.65 213.719   3
  -5   4  -1 8228.07 299.120   2
   5   4   1 8183.84 284.674   3
   5   4   1 8561.45 318.138   5
  -5   4  -2 60.0503 90.3194   2
  -5   4  -2 170.359 74.2522   3
   5   4   2 14.8731 82.4049   3
  -5   4  -3 621.433 126.875   2
   5   4   3 612.964 120.623   3
  -5   4  -3 813.839 102.172   3
  -5   4  -4 7049.45 308.229   2
   5   4   4 7957.84 317.429   3
  -5   4  -4 8062.06 258.944   3
  -5   4  -5 2380.78 198.336   2
   5   4   5 2773.07 216.203   3
  -5   4  -5 2508.51 170.031   3
  -5   4  -6 213.707 122.431   2
  -5   4  -6 147.417 98.0819   3
   5   4   6 179.349 124.581   3
   5   5  -8 651.855 128.468   3
   5   5  -8 786.925 148.521   5
   5   5  -7 204.720 112.386   3
   5   5  -7 41.6906 101.622   5
   5   5  -6 11870.1 360.643   3
   5   5  -6 10513.7 368.360   5
   5   5  -5 130.884 101.490   5
   5   5  -5 90.5627 83.3538   3
   5   5  -4 4174.99 222.294   3
  -5   5   4 3596.56 238.212   2
   5   5  -4 4261.87 252.513   5
   5   5  -3 4586.05 227.216   3
  -5   5   3 4938.78 266.866   2
   5   5  -3 4506.96 239.248   5
  -5   5   2 645.342 126.733   2
   5   5  -2 427.932 105.759   3
   5   5  -1 2250.36 175.989   3
  -5   5   1 2154.27 184.068   2
   5   5  -1 2355.32 193.722   5
   5   5   0 4645.33 234.291   3
  -5   5   0 5104.52 264.765   2
   5   5   0 4791.02 269.211   5
  -5   5  -1 1156.86 106.821   3
  -5   5  -1 912.703 140.397   2
   5   5   1 902.490 135.377   3
   5   5   2 594.994 135.276   3
  -5   5  -2 436.294 130.005   2
  -5   5  -2 523.655 93.9083   3
  -5   5  -3 3120.29 175.916   3
  -5   5  -3 3073.18 231.079   2
   5   5   3 3308.80 224.177   3
  -5   5  -4 411.797 140.283   2
  -5   5  -4 355.451 103.538   3
   5   5   4 356.625 134.979   3
   5   6  -5 3081.26 217.699   3
   5   6  -5 3117.10 240.474   5
  -5   6   4 652.357 155.586   2
   5   6  -4 534.209 143.404   5
   5   6  -4 363.583 122.946   3
   5   6  -3 1581.60 170.501   3
  -5   6   3 1264.85 180.102   2
   5   6  -3 1477.86 185.374   5
   5   6  -2 3082.08 219.177   3
  -5   6   2 3355.98 252.242   2
   5   6  -2 3031.49 243.042   5
  -5   6   1 397.550 133.421   2
   5   6  -1 320.546 140.568   5
   5   6  -1 661.243 142.101   3
   5   6   0 1899.57 188.131   3
  -5   6   0 2166.60 208.407   2
   5   6   0 2031.58 221.829   5
  -5   6  -1 5622.80 328.425   2
   5   6   1 5224.35 286.114   3
  -6  -5   8 2347.56 222.961   1
   6  -5  -8 2746.22 199.976   5
   6  -5  -8 2059.02 235.730   4
   6  -5  -7 204.353 98.9110   5
  -6  -5   7 217.696 127.192   1
   6  -5  -7 94.5438 134.192   4
   6  -5  -6 7026.68 265.165   5
  -6  -5   6 6720.86 315.112   1
   6  -5  -5 6177.01 238.821   5
  -6  -5   5 6461.08 316.418   1
   6  -5  -4 3762.04 182.354   5
  -6  -5   4 3752.52 234.457   1
  -6  -5   3 3889.80 230.001   1
   6  -5  -3 2208.39 228.908   4
  -6  -5   2 1094.48 139.457   1
   6  -5  -2 813.528 161.622   4
  -6  -5   1 1599.55 158.615   1
   6  -5  -1 930.960 179.740   4
   6  -5   0 6128.87 377.440   4
  -6  -5   0 10634.5 356.525   1
  -6  -5  -1 2670.76 196.018   1
   6  -5   1 1724.99 270.225   4
  -6  -5  -2 1113.94 135.021   1
   6  -5   2 784.217 235.017   4
   6  -5   3 1315.52 251.653   4
  -6  -4  10 4000.78 266.264   1
   6  -4 -10 4796.22 262.453   5
   6  -4  -9 285.416 105.403   5
  -6  -4   9 14.1492 108.135   1
   6  -4  -9 71.1763 104.368   4
  -6  -4   8 2533.69 208.017   1
   6  -4  -8 2574.94 178.816   5
   6  -4  -8 1934.51 197.878   4
  -6  -4   7 2495.01 196.419   1
   6  -4  -7 2924.45 174.138   5
   6  -4  -7 2640.21 203.234   4
  -6  -4   6 1329.56 151.178   1
   6  -4  -6 1304.10 121.575   5
   6  -4  -6 1042.49 146.606   4
   6  -4  -5 616.205 84.3026   5
  -6  -4   5 669.556 118.424   1
   6  -4  -5 509.844 119.785   4
   6  -4  -4 3231.42 145.124   5
  -6  -4   4 2993.97 195.732   1
  -6  -4   3 274.218 98.8232   1
   6  -4  -3 281.741 63.7160   5
   6  -4  -3 371.178 112.798   4
  -6  -4   2 107.588 82.8494   1
   6  -4  -2 78.4069 111.842   4
   6  -4  -1 10949.1 478.044   4
  -6  -4   1 12922.3 370.322   1
   6  -4   0 2149.16 233.544   4
  -6  -4   0 2879.46 186.524   1
  -6  -4  -1 1633.84 151.538   1
  -6  -4  -2 2567.09 179.061   1
  -6  -4  -3 150.299 93.0314   1
  -6  -4  -4 1081.02 129.052   1
   6  -3 -11 784.258 143.841   5
  -6  -3  11 702.106 146.421   1
  -6  -3  10 3323.04 237.808   1
   6  -3 -10 3421.95 213.189   5
  -6  -3   9 2561.23 203.558   1
   6  -3  -9 2537.61 181.930   5
  -6  -3   8 2621.52 196.819   1
   6  -3  -8 2954.14 175.639   5
   6  -3  -8 2639.57 185.002   4
  -6  -3   7 2052.22 167.907   1
   6  -3  -7 2066.65 138.787   5
   6  -3  -7 1693.74 150.919   4
   6  -3  -6 5900.08 208.003   5
  -6  -3   6 5447.58 254.088   1
   6  -3  -5 5624.71 193.029   5
  -6  -3   5 5683.64 259.939   1
   6  -3  -4 9707.10 224.777   5
  -6  -3   4 9401.74 306.252   1
   6  -3  -3 2686.19 111.452   5
  -6  -3   3 2536.15 163.517   1
   6  -3  -2 3708.55 106.964   5
  -6  -3   2 3487.92 188.004   1
  -6  -3   1 6151.77 244.010   1
  -6  -3   0 9522.32 303.334   1
  -6  -3  -1 6994.69 259.019   1
  -6  -3  -2 3857.75 205.244   1
  -6  -3  -3 2619.10 175.766   1
  -6  -3  -4 908.996 117.044   1
  -6  -2  12 3793.87 250.756   1
   6  -2 -12 4726.70 270.835   5
   6  -2 -11 368.801 119.824   5
  -6  -2  11 332.219 122.417   1
  -6  -2  10 1542.87 159.932   1
   6  -2 -10 1230.70 145.387   5
  -6  -2   9 5307.69 250.935   1
   6  -2  -9 5755.32 246.034   5
   6  -2  -8 109.671 77.4787   5
   6  -2  -8 107.345 64.8883   4
  -6  -2   8 107.996 85.7572   1
   6  -2  -7 10164.3 280.359   5
  -6  -2   7 10513.0 327.328   1
  -6  -2   6 2471.22 168.797   1
   6  -2  -6 2362.07 149.360   4
  -6  -2   5 6593.48 244.831   1
   6  -2  -5 5932.26 229.642   4
   6  -2  -4 10400.2 221.040   5
  -6  -2   4 9751.72 287.534   1
  -6  -2   3 4319.02 115.139   2
   6  -2  -3 4839.31 137.090   5
   6  -2  -3 4164.65 239.478   4
  -6  -2   3 4443.71 206.304   1
   6  -2  -2 1272.97 62.9919   5
  -6  -2   2 1188.74 84.7924   2
   6  -2  -2 1045.99 65.3636   3
  -6  -2   2 1256.53 117.424   1
  -6  -2   1 4892.24 206.851   1
   6  -2  -1 4777.04 148.361   3
  -6  -2   0 4656.13 203.320   1
   6  -2   0 4818.08 163.984   3
  -6  -2  -1 6782.88 248.036   1
   6  -2   1 6858.38 209.161   3
   6  -2   2 6365.13 225.848   3
  -6  -2  -2 6278.41 245.901   1
  -6  -2  -3 605.421 106.431   1
   6  -2   3 684.043 104.398   3
  -6  -2  -4 1149.34 117.593   1
   6  -2   4 1305.34 142.165   3
   6  -2   5 2149.63 183.415   3
   6  -2   6 1368.35 168.367   3
   6  -2   7 96.5407 128.328   3
   6  -1 -12 496.354 128.260   5
  -6  -1  12 394.114 121.330   1
  -6  -1  11 5200.33 256.779   1
   6  -1 -11 5682.30 264.771   5
  -6  -1  10 1328.52 140.419   1
   6  -1 -10 1414.41 141.585   5
   6  -1  -9 2169.02 96.6440   3
   6  -1  -9 2187.75 155.977   5
  -6  -1   9 2102.15 158.065   1
   6  -1  -8 5536.47 131.042   3
   6  -1  -8 5733.89 225.455   5
  -6  -1   8 6077.06 245.804   1
   6  -1  -7 6675.71 157.902   2
   6  -1  -7 7142.43 127.753   3
   6  -1  -7 7919.66 244.524   5
   6  -1  -7 7065.17 140.043   3
  -6  -1   7 7381.02 257.377   1
   6  -1  -7 6094.65 163.174   4
   6  -1  -6 4270.33 120.225   2
   6  -1  -6 4461.96 88.6204   3
   6  -1  -6 4504.12 172.553   5
   6  -1  -6 3667.66 91.1899   3
  -6  -1   6 4259.99 194.890   1
   6  -1  -6 3317.79 135.286   4
   6  -1  -5 18362.4 166.369   3
   6  -1  -5 18990.6 319.876   5
  -6  -1   5 17704.1 380.901   1
   6  -1  -5 19346.0 250.045   2
   6  -1  -4 1103.37 52.1860   3
   6  -1  -4 1154.89 83.0273   5
  -6  -1   4 1146.52 112.811   1
   6  -1  -4 1061.92 70.1587   2
   6  -1  -3 7587.32 139.197   3
   6  -1  -3 7472.30 171.820   5
   6  -1  -3 7294.41 175.841   2
  -6  -1   3 7335.48 246.165   1
  -6  -1   3 7395.94 113.457   2
  -6  -1   2 20341.1 402.186   1
   6  -1  -2 22148.5 267.308   3
   6  -1  -2 20944.3 258.466   5
   6  -1  -2 20571.9 319.747   2
  -6  -1   2 21038.5 253.703   2
  -6  -1   1 2923.59 160.450   1
   6  -1  -1 2999.84 114.171   3
   6  -1  -1 3060.70 90.7946   5
  -6  -1   1 2876.56 114.392   2
   6  -1   0 468.037 67.2549   3
  -6  -1   0 633.351 75.1416   2
  -6  -1   0 438.207 84.5357   1
   6  -1   1 17421.8 323.319   3
  -6  -1  -1 17001.9 377.938   1
  -6  -1  -1 16788.0 320.397   2
  -6  -1  -2 11481.4 310.239   1
  -6  -1  -2 10811.7 284.220   2
  -6  -1  -3 2226.81 144.090   1
   6  -1   3 2092.63 147.612   3
  -6  -1  -3 2151.87 144.856   2
   6  -1   4 3989.42 204.191   3
  -6  -1  -4 4460.38 210.797   2
   6  -1   5 3938.01 217.237   3
  -6  -1  -5 3399.46 202.019   2
   6  -1   6 4906.21 252.371   3
  -6  -1  -6 5153.25 255.149   2
   6  -1   7 6716.58 307.556   3
  -6  -1  -7 6965.72 317.089   2
   6   0 -12 11124.2 374.726   5
  -6   0  12 11195.9 347.133   1
  -6   0  11 149.353 82.1048   1
   6   0 -11 162.493 80.6073   3
   6   0 -11 105.132 101.889   5
  -6   0  10 81.4674 79.9507   1
   6   0 -10 125.008 86.0301   5
   6   0 -10-44.2060 62.7238   3
   6   0  -9 4649.89 161.366   3
   6   0  -9 4240.24 205.596   5
  -6   0   9 4052.00 188.716   1
   6   0  -8 22798.8 316.565   3
   6   0  -8 21830.3 422.725   5
  -6   0   8 22684.2 422.935   1
   6   0  -7 5307.01 148.152   3
   6   0  -7 5534.12 208.161   5
  -6   0   7 5305.56 204.112   1
   6   0  -6 21417.6 270.097   3
   6   0  -6 21155.2 369.529   5
  -6   0   6 21060.5 399.049   1
  -6   0   6 20047.8 294.718   3
  -6   0   5 33.0518 45.8862   3
   6   0  -5 75.9872 56.1403   5
   6   0  -5 24.7292 38.1688   3
  -6   0   5 35.5514 58.2408   1
   6   0  -5 90.0610 47.1078   4
  -6   0   4 445.338 76.0275   1
  -6   0   4 542.867 64.2121   3
   6   0  -4 429.455 52.9823   3
  -6   0   4 450.345 31.7170   2
   6   0  -4 336.590 59.9109   5
  -6   0   3 672.434 67.5157   3
  -6   0   3 759.350 54.4945   2
  -6   0   3 553.228 85.7851   1
   6   0  -3 728.212 62.0046   3
   6   0  -3 698.685 70.5042   5
  -6   0   2 8194.59 171.293   2
   6   0  -2 8258.54 184.897   3
  -6   0   2 7750.42 241.529   1
  -6   0   2 7773.73 186.703   5
   6   0  -2 7643.25 184.102   5
   6   0  -1 1629.65 96.2809   3
  -6   0   1 1519.41 84.1565   5
   6   0  -1 1489.13 87.7952   5
  -6   0   1 1633.35 123.236   1
  -6   0   1 1500.85 91.0319   2
   6   0   0 2871.93 130.592   3
  -6   0   0 2921.58 104.345   5
   6   0   0 3037.80 115.830   5
  -6   0   0 2914.58 128.014   2
  -6   0   0 3261.82 171.342   1
  -6   0  -1 20220.6 398.517   1
   6   0   1 18591.0 336.118   3
  -6   0  -1 18687.7 244.381   5
  -6   0  -1 19359.8 342.269   2
   6   0   2 4651.67 187.472   3
  -6   0  -2 4400.35 125.916   5
  -6   0  -2 4288.72 188.011   1
  -6   0  -2 4499.32 182.744   2
   6   0   3 7209.42 239.759   3
  -6   0  -3 7592.19 251.168   2
  -6   0  -4 16.2778 76.5304   2
  -6   0  -4 24.9444 44.9940   5
   6   0   4-60.8058 79.0957   3
   6   0   5 1562.37 151.382   3
  -6   0  -5 1214.53 129.850   2
  -6   0  -6 17.4362 88.2389   2
   6   0   6 222.554 105.000   3
   6   0   7 3412.43 238.144   3
  -6   0  -7 2746.95 200.055   2
   6   1 -12 639.531 115.216   3
   6   1 -12 467.433 129.654   5
   6   1 -11 5531.74 217.212   3
   6   1 -11 4923.86 250.109   5
  -6   1  11 5251.30 217.059   1
   6   1 -10 1558.37 125.684   3
   6   1 -10 1414.63 143.776   5
  -6   1  10 1633.44 130.429   1
   6   1  -9 2416.95 141.695   3
   6   1  -9 2302.13 162.740   5
  -6   1   9 2163.18 138.166   1
   6   1  -8 5625.53 190.535   3
   6   1  -8 5135.81 221.630   5
  -6   1   8 5259.52 204.211   1
  -6   1   7 7657.83 235.898   1
   6   1  -7 7331.65 205.467   3
   6   1  -7 7217.39 244.486   5
  -6   1   6 4918.74 195.306   1
   6   1  -6 4561.99 161.114   3
   6   1  -6 4385.38 186.006   5
   6   1  -5 18092.4 294.952   3
  -6   1   5 18552.1 350.999   1
   6   1  -5 18472.8 355.887   5
  -6   1   5 18285.2 171.725   3
  -6   1   4 967.089 52.3341   3
   6   1  -4 1047.12 82.6235   3
  -6   1   4 986.147 72.7598   2
  -6   1   4 1053.15 99.8859   1
   6   1  -4 962.099 94.3036   5
  -6   1   3 7126.86 142.868   3
  -6   1   3 7734.57 191.039   2
   6   1  -3 7677.35 197.841   3
  -6   1   3 6459.97 171.379   5
   6   1  -3 7475.49 214.982   5
  -6   1   3 7582.21 237.536   1
  -6   1   2 21684.9 320.882   2
  -6   1   2 21064.2 270.010   3
   6   1  -2 21151.5 335.426   3
  -6   1   2 20601.8 260.929   5
   6   1  -2 21411.4 348.719   5
  -6   1   1 2915.86 137.543   2
  -6   1   1 3101.64 160.542   1
  -6   1   1 2503.51 111.920   3
   6   1  -1 2834.89 133.677   3
  -6   1   1 2815.10 82.2615   5
   6   1  -1 3043.23 143.275   5
  -6   1   0 571.444 78.1192   2
   6   1   0 493.256 80.4727   3
  -6   1   0 441.256 79.2780   1
   6   1   0 438.148 73.0172   5
   6   1   1 15983.9 336.530   3
   6   1   1 15575.4 314.645   5
  -6   1  -1 16196.9 337.502   2
   6   1   2 11579.2 303.013   3
  -6   1  -2 12235.0 313.717   2
   6   1   3 2496.27 159.701   3
  -6   1  -3 2429.90 163.943   2
   6   1   4 4438.18 216.871   3
  -6   1  -4 4800.82 226.265   2
   6   1   5 3288.69 195.560   3
  -6   1  -5 3466.40 207.502   2
   6   1   6 5400.82 272.180   3
  -6   1  -6 5440.92 268.548   2
   6   1   7 7303.99 332.299   3
  -6   1  -7 7169.75 322.906   2
   6   2 -12 4850.99 238.458   3
   6   2 -12 4109.46 251.615   5
   6   2 -11 296.775 95.0166   3
   6   2 -11 255.032 110.469   5
   6   2 -10 1403.94 130.136   3
   6   2 -10 1427.09 153.122   5
   6   2  -9 6448.73 238.047   3
  -6   2   9 5710.44 197.369   1
   6   2  -9 5703.39 247.952   5
  -6   2   8 57.9398 56.2236   1
   6   2  -8 130.661 82.9816   5
   6   2  -8 133.415 72.7319   3
   6   2  -7 10158.0 268.876   3
   6   2  -7 9404.04 295.794   5
  -6   2   7 9209.23 260.169   1
   6   2  -6 2394.37 136.955   3
   6   2  -6 2657.84 160.353   5
   6   2  -5 6963.58 209.589   3
  -6   2   5 8346.52 230.147   2
   6   2  -5 7311.12 241.438   5
  -6   2   5 8206.86 237.058   1
  -6   2   4 10441.3 256.545   1
   6   2  -4 10345.3 259.907   3
  -6   2   4 10344.4 251.588   2
   6   2  -4 9941.74 281.379   5
   6   2  -3 4743.08 185.409   3
  -6   2   3 4628.93 180.143   2
  -6   2   3 4963.88 185.585   1
   6   2  -3 5232.46 205.580   5
  -6   2   2 1286.95 106.302   2
  -6   2   2 1153.48 59.9807   3
   6   2  -2 1214.34 102.074   3
   6   2  -2 1160.21 111.508   5
  -6   2   2 1324.05 104.176   1
  -6   2   1 4771.76 193.298   2
  -6   2   1 4363.23 132.161   3
   6   2  -1 4832.47 191.828   3
   6   2  -1 4847.63 200.601   5
  -6   2   0 4888.06 194.682   2
   6   2   0 4631.12 189.877   3
   6   2   0 4948.68 201.202   5
  -6   2  -1 7293.70 250.738   2
   6   2   1 6901.23 237.339   3
   6   2   1 6714.75 242.966   5
  -6   2  -2 5875.22 238.113   2
   6   2   2 6585.88 246.012   3
  -6   2  -3 826.026 115.947   2
   6   2   3 822.187 117.640   3
   6   2   4 1116.24 135.687   3
  -6   2  -4 1213.51 137.041   2
   6   2   5 2285.42 191.119   3
  -6   2  -5 2910.14 201.269   2
   6   2   6 1162.40 158.621   3
  -6   2  -6 1471.97 172.541   2
  -6   2  -7 209.368 130.154   2
   6   2   7 154.005 120.470   3
   6   3 -11 703.685 129.376   3
   6   3 -11 604.703 144.390   5
   6   3 -10 3804.18 218.091   3
   6   3 -10 3435.60 221.572   5
   6   3  -9 2321.99 167.828   3
   6   3  -9 2315.84 181.557   5
   6   3  -8 3139.85 180.453   3
   6   3  -8 2902.18 193.667   5
   6   3  -7 1970.88 143.952   3
   6   3  -7 1751.29 148.218   5
   6   3  -6 5486.59 216.153   3
   6   3  -6 5152.11 232.951   5
   6   3  -5 5825.11 219.304   3
  -6   3   5 6110.88 239.809   2
   6   3  -5 5847.58 247.890   5
   6   3  -4 9169.75 275.265   3
  -6   3   4 9683.16 297.826   2
   6   3  -4 8598.93 287.176   5
   6   3  -3 2618.62 152.612   3
  -6   3   3 2680.27 163.379   2
   6   3  -3 2492.60 164.231   5
  -6   3   2 3509.36 81.4548   3
  -6   3   2 3342.95 175.373   2
   6   3  -2 3675.78 181.467   3
   6   3  -2 3665.04 199.769   5
  -6   3   1 6235.54 238.136   2
   6   3  -1 6287.15 232.461   3
   6   3  -1 6536.91 251.628   5
  -6   3   1 6331.88 143.873   3
  -6   3   0 10304.1 318.971   2
   6   3   0 10395.9 309.363   3
   6   3   0 9795.07 322.630   5
  -6   3   0 10661.6 215.795   3
  -6   3  -1 7386.17 278.798   2
   6   3   1 7519.58 269.739   3
   6   3   1 7224.17 289.774   5
  -6   3  -1 7544.57 201.768   3
  -6   3  -2 3302.62 193.695   2
   6   3   2 3471.08 197.931   3
  -6   3  -2 3568.14 156.127   3
  -6   3  -3 2235.04 172.831   2
   6   3   3 2425.82 179.318   3
  -6   3  -3 2399.37 145.682   3
  -6   3  -4 1048.10 146.082   2
   6   3   4 1129.59 147.939   3
  -6   3  -4 1022.11 116.403   3
  -6   3  -5 2402.95 200.117   2
   6   3   5 2440.45 200.480   3
  -6   3  -5 2465.16 167.768   3
  -6   3  -6 2935.41 228.383   2
   6   3   6 3077.58 232.089   3
  -6   3  -6 2798.33 190.528   3
   6   4 -10 4694.01 251.921   3
   6   4 -10 5100.62 283.318   5
   6   4  -9 228.832 113.962   5
   6   4  -9 131.425 101.700   3
   6   4  -8 2920.40 194.024   3
   6   4  -8 2809.90 204.508   5
   6   4  -7 2982.26 190.254   3
   6   4  -7 2895.42 201.944   5
   6   4  -6 1232.33 136.485   3
   6   4  -6 1182.73 146.590   5
   6   4  -5 721.765 122.397   5
  -6   4   5 530.956 117.449   2
   6   4  -5 617.867 104.796   3
   6   4  -4 2924.83 178.751   3
  -6   4   4 3045.58 198.545   2
   6   4  -4 3040.35 197.770   5
  -6   4   3 247.845 94.6456   2
   6   4  -3 321.737 103.185   5
   6   4  -3 347.567 90.8369   3
  -6   4   2 125.468 94.1580   2
   6   4  -2 306.057 101.161   5
   6   4  -2 83.1140 85.0327   3
  -6   4   1 12122.8 362.175   2
   6   4  -1 12356.2 349.911   3
   6   4  -1 12134.6 371.119   5
  -6   4   0 3064.71 126.539   3
  -6   4   0 3007.18 194.329   2
   6   4   0 2777.46 184.881   3
   6   4   0 3237.55 211.519   5
  -6   4  -1 1432.99 109.193   3
  -6   4  -1 1971.79 171.755   2
   6   4   1 1528.55 150.952   3
   6   4   1 1832.20 175.988   5
  -6   4  -2 2811.16 206.105   2
   6   4   2 2807.36 199.329   3
  -6   4  -2 2477.29 144.796   3
  -6   4  -3 178.037 108.035   2
  -6   4  -3 84.0411 77.4350   3
   6   4   3 187.633 109.291   3
  -6   4  -4 1199.93 164.756   2
   6   4   4 1393.90 173.666   3
  -6   4  -4 1200.37 130.529   3
  -6   4  -5 1878.48 198.920   2
   6   4   5 2081.47 207.789   3
  -6   4  -5 1664.02 154.086   3
   6   5  -8 2942.80 216.102   3
   6   5  -8 2796.13 231.404   5
   6   5  -7 235.441 125.029   5
   6   5  -7 265.922 111.940   3
   6   5  -6 6809.95 288.703   3
   6   5  -6 7142.84 326.744   5
   6   5  -5 6413.22 283.205   3
  -6   5   5 6891.04 323.185   2
   6   5  -5 6500.74 305.225   5
   6   5  -4 3861.18 227.651   3
  -6   5   4 3469.96 233.028   2
   6   5  -4 3515.07 234.732   5
   6   5  -3 4347.54 233.914   3
  -6   5   3 4437.06 253.748   2
   6   5  -3 3835.99 239.130   5
   6   5  -2 1196.59 150.719   3
  -6   5   2 1295.38 161.821   2
   6   5  -2 1114.14 159.080   5
   6   5  -1 1562.02 158.635   3
  -6   5   1 2057.18 195.113   2
   6   5  -1 1744.42 183.409   5
  -6   5   0 9762.50 366.926   2
   6   5   0 10272.4 359.453   3
  -6   5  -1 2203.56 203.082   2
   6   5   1 3462.96 230.184   3
  -6   5  -2 1296.02 176.715   2
   6   5   2 932.411 156.076   3
  -6   5  -3 3914.17 262.065   2
   6   5   3 3268.16 243.645   3
  -7  -5   6 2764.19 230.098   1
   7  -5  -6 1443.25 204.930   4
  -7  -5   5 673.307 141.325   1
   7  -5  -5 277.187 161.340   4
  -7  -5   4 995.206 153.259   1
   7  -5  -4 572.073 173.396   4
  -7  -5   3 1103.39 156.909   1
   7  -5  -3 682.165 175.219   4
  -7  -5   2 800.879 138.694   1
   7  -5  -2 628.163 179.887   4
   7  -5  -1 365.629 171.445   4
  -7  -5   1 725.491 141.444   1
  -7  -5   0 1575.23 175.000   1
   7  -5   0 856.196 210.206   4
  -7  -4   9 261.240 135.562   1
   7  -4  -9 456.025 117.319   5
   7  -4  -8 3594.22 204.952   5
  -7  -4   8 3767.52 252.957   1
  -7  -4   7 317.383 123.056   1
   7  -4  -7 373.357 96.3031   5
   7  -4  -7 182.664 123.798   4
  -7  -4   6 528.295 130.376   1
   7  -4  -6 339.978 87.5794   5
   7  -4  -5 7887.02 235.683   5
  -7  -4   5 6547.23 294.115   1
  -7  -4   4 3253.07 213.964   1
   7  -4  -4 1782.65 194.449   4
  -7  -4   3 122.496 95.3625   1
   7  -4  -3-2.42353 108.196   4
   7  -4  -2 1907.30 240.337   4
  -7  -4   2 3362.93 210.434   1
  -7  -4   1 3519.68 220.026   1
   7  -4  -1 2704.02 281.409   4
  -7  -4   0 822.462 132.841   1
   7  -4   0 568.098 184.589   4
  -7  -4  -1 4682.96 249.755   1
  -7  -4  -2 473.838 115.758   1
  -7  -4  -3 78.9601 102.412   1
  -7  -3  10 165.705 116.606   1
   7  -3 -10 244.643 111.233   5
   7  -3  -9 2151.98 169.102   5
  -7  -3   9 1888.64 184.404   1
  -7  -3   8 1898.06 182.009   1
   7  -3  -8 1323.68 149.424   4
   7  -3  -7 1500.94 131.748   5
  -7  -3   7 1192.08 152.086   1
   7  -3  -7 1047.76 136.774   4
   7  -3  -6 2751.90 148.286   5
  -7  -3   6 2524.41 188.803   1
   7  -3  -5 745.541 85.3898   5
   7  -3  -5 563.864 121.544   4
   7  -3  -4 2474.46 118.896   5
  -7  -3   4 2433.87 184.179   1
   7  -3  -4 1933.81 178.787   4
   7  -3  -3 4803.72 138.718   5
   7  -3  -3 4602.44 305.344   4
  -7  -3   3 4726.78 236.653   1
   7  -3  -2 1587.48 206.867   4
  -7  -3   2 2890.48 190.559   1
  -7  -3   1 3502.79 202.209   1
  -7  -3   0 2115.40 159.431   1
  -7  -3  -1 5001.37 238.636   1
  -7  -3  -2 3593.61 216.788   1
  -7  -3  -3 291.675 98.0356   1
  -7  -3  -4 1511.27 149.286   1
   7  -2 -11 4088.95 239.855   5
  -7  -2  11 3657.42 249.096   1
   7  -2 -10 1088.45 139.174   5
  -7  -2  10 916.282 136.516   1
   7  -2  -9 3004.20 183.241   5
  -7  -2   9 2909.23 201.974   1
   7  -2  -8 6547.10 247.449   5
  -7  -2   8 6410.26 280.039   1
   7  -2  -7 8444.63 258.752   5
  -7  -2   7 7849.15 295.682   1
   7  -2  -6 8040.76 237.697   5
  -7  -2   6 7244.34 275.039   1
   7  -2  -5 7185.81 207.846   5
  -7  -2   5 6281.45 262.583   1
   7  -2  -4 3147.32 219.173   4
  -7  -2   4 3578.20 200.804   1
   7  -2  -3 6370.32 156.709   5
  -7  -2   3 5754.08 127.413   2
  -7  -2   3 5874.62 246.780   1
  -7  -2   2 3288.07 187.913   1
   7  -2  -2 2698.07 85.7089   5
   7  -2  -2 2684.62 111.884   3
  -7  -2   2 2784.43 117.218   2
  -7  -2   1 2263.27 159.428   1
   7  -2  -1 2079.49 117.346   3
  -7  -2   0 12716.9 358.969   1
   7  -2   0 11562.4 277.833   3
   7  -2   1 8325.07 257.611   3
  -7  -2  -1 8860.57 308.805   1
   7  -2   2 6067.67 239.862   3
  -7  -2  -2 6296.30 268.146   1
  -7  -2  -3 4679.77 228.562   1
   7  -2   3 4651.92 228.049   3
   7  -2   4 2463.49 196.820   3
  -7  -2  -4 2331.89 176.592   2
   7  -2   5 655.368 142.471   3
  -7  -2  -5 621.286 128.254   2
  -7  -1  12 563.040 135.746   1
   7  -1 -12 564.785 131.911   5
   7  -1 -11 1856.96 169.080   5
  -7  -1  11 2106.15 185.366   1
   7  -1 -10 5935.11 260.082   5
  -7  -1  10 5828.58 261.592   1
   7  -1  -9 680.509 112.110   5
  -7  -1   9 840.827 125.109   1
  -7  -1   8 504.088 98.0639   1
   7  -1  -8 582.133 97.3590   5
   7  -1  -7 10572.2 285.568   5
  -7  -1   7 9950.81 316.475   1
   7  -1  -6 3635.73 85.3620   3
   7  -1  -6 3556.90 164.935   5
  -7  -1   6 3637.55 197.319   1
   7  -1  -5 2052.54 72.7926   3
   7  -1  -5 2148.13 123.085   5
  -7  -1   5 2149.02 158.322   1
  -7  -1   4 6804.80 255.365   1
   7  -1  -4 7307.30 141.697   3
   7  -1  -4 7563.63 198.218   5
   7  -1  -4 7273.02 176.378   2
  -7  -1   3 2374.96 82.1077   2
  -7  -1   3 2630.48 171.696   1
   7  -1  -3 2497.54 100.943   3
   7  -1  -3 2545.82 113.920   5
  -7  -1   2 1407.32 124.869   1
   7  -1  -2 1541.36 93.4604   3
   7  -1  -2 1538.26 89.0259   5
  -7  -1   2 1700.51 90.6867   2
  -7  -1   1 5272.06 227.089   1
   7  -1  -1 5087.24 164.984   3
   7  -1  -1 5336.57 123.491   5
  -7  -1   1 5312.84 167.802   2
   7  -1   0 791.240 89.3142   3
  -7  -1   0 590.716 111.974   1
  -7  -1   0 627.127 79.2964   2
   7  -1   1 665.938 100.000   3
  -7  -1  -1 709.653 91.0246   2
  -7  -1  -1 791.974 113.329   1
  -7  -1  -2 3827.78 203.923   1
   7  -1   2 4455.37 203.537   3
  -7  -1  -2 3902.62 187.167   2
   7  -1   3 1382.45 136.474   3
  -7  -1  -3 1191.83 126.280   2
   7  -1   4 502.923 119.241   3
  -7  -1  -4 951.292 125.640   2
   7  -1   5 2290.17 195.014   3
  -7  -1  -5 2059.47 172.456   2
  -7  -1  -6 556.463 129.057   2
   7  -1   6 569.516 142.982   3
   7   0 -12 4518.40 256.534   5
  -7   0  12 4666.98 248.021   1
  -7   0  11 225.185 98.7752   1
   7   0 -11 193.778 109.378   5
   7   0 -10 5221.04 246.726   5
  -7   0  10 5125.28 235.816   1
   7   0  -9 1082.81 92.0648   3
   7   0  -9 1148.84 129.420   5
  -7   0   9 1301.21 130.693   1
   7   0  -8 4977.13 155.266   3
   7   0  -8 4860.87 212.862   5
  -7   0   8 5085.04 224.792   1
   7   0  -7 489.649 63.6829   3
   7   0  -7 478.587 90.8108   5
  -7   0   7 470.062 96.8030   1
  -7   0   6 3746.01 188.920   1
   7   0  -6 3714.91 125.616   3
   7   0  -6 3922.18 172.379   5
   7   0  -5 17.9580 56.6675   5
   7   0  -5 82.3561 46.6600   3
  -7   0   5 69.0046 68.5480   1
  -7   0   4 14776.4 351.847   1
  -7   0   4 15419.1 175.518   2
   7   0  -4 14812.4 246.146   3
   7   0  -4 15278.8 299.441   5
  -7   0   3 4376.66 128.695   2
   7   0  -3 4535.35 146.016   3
  -7   0   3 4243.89 199.124   1
   7   0  -3 4439.53 162.206   5
  -7   0   2 3456.45 128.599   2
   7   0  -2 3494.60 137.864   3
  -7   0   2 3605.18 185.499   1
   7   0  -2 3460.14 138.337   5
   7   0  -1 8712.59 224.328   3
   7   0  -1 8969.38 211.400   5
  -7   0   1 8766.61 283.524   1
  -7   0   1 8917.16 219.296   2
  -7   0   0 12889.0 336.139   1
   7   0   0 12620.6 282.593   3
   7   0   0 13570.2 252.533   5
  -7   0   0 13632.6 298.646   2
  -7   0  -1 533.696 91.2580   1
   7   0   1 557.833 87.7893   3
  -7   0  -1 626.750 92.7863   2
  -7   0  -2-11.3131 67.9847   2
   7   0   2 140.064 82.2956   3
   7   0   3 3691.31 190.351   3
  -7   0  -3 3909.48 198.544   2
   7   0   4 974.866 128.945   3
  -7   0  -4 1078.28 131.091   2
  -7   0  -5 420.098 113.028   2
   7   0   5 477.073 124.625   3
   7   0   6 2096.67 199.055   3
  -7   0  -6 1962.18 185.614   2
   7   1 -12 337.927 122.382   5
   7   1 -11 1795.57 175.222   5
  -7   1  11 1623.95 142.472   1
   7   1 -10 6332.93 220.616   3
   7   1 -10 6208.79 273.909   5
  -7   1  10 6176.40 244.007   1
  -7   1   9 642.475 99.9942   1
   7   1  -9 814.009 98.0961   3
   7   1  -9 628.041 108.369   5
  -7   1   8 847.289 114.417   1
   7   1  -8 570.436 81.3347   3
   7   1  -8 920.613 116.028   5
   7   1  -7 10449.8 242.797   3
  -7   1   7 11263.7 306.728   1
   7   1  -7 10355.5 299.787   5
   7   1  -6 3481.19 149.436   3
  -7   1   6 3553.01 176.589   1
   7   1  -6 3371.57 179.284   5
   7   1  -5 2114.42 119.825   3
  -7   1   5 2129.59 144.536   1
  -7   1   5 2284.71 104.342   2
   7   1  -5 2137.78 141.137   5
   7   1  -4 7253.68 203.426   3
  -7   1   4 7323.08 182.408   2
   7   1  -4 7109.04 228.613   5
  -7   1   4 7415.49 251.813   1
  -7   1   3 2533.33 124.206   2
   7   1  -3 2594.90 133.394   3
   7   1  -3 2380.65 139.814   5
  -7   1   3 2783.96 163.847   1
  -7   1   2 1549.20 128.909   1
  -7   1   2 1822.44 117.055   2
   7   1  -2 1574.54 111.607   3
   7   1  -2 1556.34 116.746   5
  -7   1   1 5544.43 195.767   2
  -7   1   1 5717.61 225.944   1
   7   1  -1 5655.38 202.498   3
   7   1  -1 5381.89 193.061   5
  -7   1   0 580.587 87.5323   2
   7   1   0 613.479 94.9501   3
  -7   1   0 721.339 99.5585   1
   7   1   0 517.074 86.9608   5
   7   1   1 808.886 109.693   3
  -7   1  -1 917.867 112.951   2
   7   1   2 4065.96 203.296   3
  -7   1  -2 4093.03 200.322   2
   7   1   3 1297.09 139.375   3
  -7   1  -3 1182.46 137.590   2
   7   1   4 871.587 131.411   3
  -7   1  -4 767.444 126.293   2
   7   1   5 2274.08 186.709   3
  -7   1  -5 2246.52 187.952   2
  -7   1  -6 602.606 142.755   2
   7   1   6 562.365 138.945   3
   7   2 -11 3809.33 209.004   3
   7   2 -11 4157.89 249.792   5
   7   2 -10 869.281 113.573   3
   7   2 -10 841.655 136.077   5
   7   2  -9 3327.68 180.822   3
  -7   2   9 2913.94 163.952   1
   7   2  -9 2671.16 196.288   5
   7   2  -8 7008.01 240.735   3
   7   2  -8 6259.86 264.431   5
  -7   2   8 6820.82 235.797   1
   7   2  -7 8177.04 249.801   3
   7   2  -7 7813.90 276.706   5
  -7   2   7 9005.69 275.283   1
   7   2  -6 7200.67 233.515   3
   7   2  -6 7355.00 263.181   5
   7   2  -5 7186.14 231.338   3
  -7   2   5 6819.04 217.744   2
   7   2  -5 6993.17 251.592   5
  -7   2   5 7432.43 246.375   1
  -7   2   4 4311.71 191.186   1
   7   2  -4 4128.83 179.046   3
  -7   2   4 4096.82 171.034   2
   7   2  -4 3755.81 191.306   5
  -7   2   3 6575.78 212.419   2
   7   2  -3 5755.64 206.806   3
  -7   2   3 6238.86 220.818   1
   7   2  -3 5982.90 224.353   5
  -7   2   2 3362.58 170.357   2
   7   2  -2 3152.52 166.666   3
   7   2  -2 3104.38 176.530   5
  -7   2   1 2557.21 150.853   2
   7   2  -1 2490.67 150.888   3
   7   2  -1 2329.28 156.063   5
   7   2   0 11315.4 310.672   3
   7   2   0 11610.4 327.559   5
  -7   2  -1 8410.37 289.411   2
   7   2   1 9009.88 297.850   3
  -7   2  -2 6156.23 257.513   2
   7   2   2 6576.92 267.938   3
  -7   2  -3 4784.55 235.875   2
   7   2   3 5108.25 245.491   3
  -7   2  -4 2483.74 191.636   2
   7   2   4 2008.52 175.968   3
  -7   2  -5 611.180 133.472   2
   7   2   5 524.000 135.088   3
   7   3 -10 230.421 113.734   5
   7   3 -10 175.638 100.810   3
   7   3  -9 2037.61 164.386   3
   7   3  -9 2094.49 184.798   5
   7   3  -8 1721.62 148.026   3
   7   3  -8 2009.20 168.422   5
   7   3  -7 1650.82 144.614   3
  -7   3   7 1495.82 109.827   1
   7   3  -7 1568.28 156.644   5
   7   3  -6 2402.39 156.036   3
   7   3  -6 2301.06 176.777   5
   7   3  -5 904.492 111.748   3
  -7   3   5 844.191 117.572   2
   7   3  -5 860.134 127.282   5
   7   3  -4 2853.08 171.209   3
  -7   3   4 2240.77 159.894   2
   7   3  -4 2400.03 169.018   5
   7   3  -3 5127.93 222.245   3
  -7   3   3 5897.81 242.811   2
   7   3  -3 5043.90 234.673   5
  -7   3   2 3047.49 182.449   2
   7   3  -2 3198.58 177.576   3
   7   3  -2 3457.42 200.500   5
  -7   3   1 3515.29 199.700   2
   7   3  -1 3777.73 197.290   3
   7   3  -1 3347.24 198.341   5
  -7   3   0 1816.11 157.297   2
   7   3   0 1805.63 151.416   3
   7   3   0 1360.21 144.697   5
  -7   3   0 1693.11 103.070   3
  -7   3  -1 3953.52 216.338   2
   7   3   1 4716.77 230.784   3
  -7   3  -1 4118.63 165.749   3
  -7   3  -2 3453.43 210.477   2
   7   3   2 3091.98 206.023   3
  -7   3  -2 3417.39 165.806   3
  -7   3  -3 271.229 106.792   2
  -7   3  -3 215.346 88.7184   3
   7   3   3 298.745 113.933   3
  -7   3  -4 2104.82 195.887   2
   7   3   4 1921.20 192.122   3
  -7   3  -4 2184.98 162.258   3
   7   4  -9 85.9226 109.461   5
   7   4  -9 524.551 133.672   3
   7   4  -8 3477.58 218.513   3
   7   4  -8 3336.88 232.136   5
   7   4  -7 314.699 116.711   5
   7   4  -7 412.755 111.702   3
   7   4  -6 200.441 110.877   5
   7   4  -6 184.983 94.5998   3
   7   4  -5 7687.39 288.424   3
  -7   4   5 7734.34 304.044   2
   7   4  -5 7247.05 305.770   5
   7   4  -4 3322.89 197.178   3
  -7   4   4 3589.65 221.181   2
   7   4  -4 3408.12 217.121   5
  -7   4   3 55.0545 86.0863   2
   7   4  -3 236.299 108.237   5
   7   4  -3 157.980 93.8032   3
   7   4  -2 3566.75 207.783   3
  -7   4   2 3874.51 229.502   2
   7   4  -2 3612.50 225.476   5
  -7   4   1 3627.68 221.571   2
   7   4  -1 3828.23 220.337   3
   7   4  -1 3646.46 235.120   5
  -7   4   0 706.931 133.938   2
   7   4   0 871.016 133.508   3
   7   4   0 819.284 149.474   5
  -7   4  -1 4414.29 248.970   2
   7   4   1 4813.31 249.936   3
  -7   4  -2 455.887 126.999   2
   7   4   2 270.319 111.900   3
  -7   4  -3 22.8593 113.328   2
   7   4   3 100.718 114.233   3
   7   5  -6 3107.73 219.238   3
   7   5  -6 2759.12 231.460   5
  -7   5   5 488.875 132.651   2
   7   5  -5 624.644 145.585   5
   7   5  -5 609.258 133.277   3
   7   5  -4 964.134 148.827   3
  -7   5   4 1146.51 167.427   2
   7   5  -4 967.268 157.035   5
   7   5  -3 1249.53 159.331   3
  -7   5   3 1139.63 160.269   2
   7   5  -3 1112.22 167.699   5
   7   5  -2 1064.09 146.304   3
  -7   5   2 828.494 148.989   2
   7   5  -2 1130.86 171.663   5
   7   5  -1 814.748 155.337   3
  -7   5   1 1058.81 168.790   2
   7   5  -1 647.068 149.384   5
   7   5   0 1358.63 169.888   3
   7   5   0 1446.39 196.052   5
  -8  -4   7 1196.37 171.598   1
   8  -4  -7 604.277 152.466   4
  -8  -4   6 150.192 116.727   1
   8  -4  -6 23.4529 129.596   4
  -8  -4   5 610.896 149.048   1
   8  -4  -5 217.670 135.899   4
   8  -4  -4 1510.12 188.181   4
  -8  -4   4 3639.21 244.365   1
   8  -4  -3 631.635 162.157   4
  -8  -4   3 1354.41 160.149   1
  -8  -4   2 857.426 142.264   1
   8  -4  -2 533.771 186.117   4
  -8  -4   1 1668.78 175.811   1
   8  -4  -1 890.087 219.202   4
  -8  -4   0 451.538 126.296   1
   8  -4   0 32.6131 179.884   4
   8  -3  -9 3543.90 210.889   5
  -8  -3   9 3437.66 248.776   1
   8  -3  -8 4223.92 215.073   5
  -8  -3   8 3878.35 255.723   1
  -8  -3   7 583.685 123.706   1
   8  -3  -7 647.109 100.483   5
   8  -3  -7 263.692 115.856   4
   8  -3  -6 5716.06 210.406   5
  -8  -3   6 5673.84 285.493   1
   8  -3  -5 1644.63 176.440   4
  -8  -3   5 3116.34 220.070   1
  -8  -3   4 1263.54 152.119   1
   8  -3  -4 588.117 145.330   4
  -8  -3   3 4477.13 246.101   1
   8  -3  -3 2304.47 256.425   4
  -8  -3   2 2124.30 186.630   1
   8  -3  -2 1075.60 186.379   4
  -8  -3   1 807.101 125.263   1
  -8  -3   0 10602.3 363.963   1
  -8  -3  -1 8092.83 335.402   1
  -8  -3  -2 2382.50 195.137   1
   8  -2 -10 2523.79 191.671   5
  -8  -2  10 2331.13 205.529   1
   8  -2  -9 898.509 122.607   5
  -8  -2   9 1009.15 146.208   1
  -8  -2   8 47.1155 102.703   1
   8  -2  -8 91.9774 78.5703   5
   8  -2  -7 2630.24 159.635   5
  -8  -2   7 2689.81 196.420   1
   8  -2  -6 2045.52 134.946   5
  -8  -2   6 1627.99 163.290   1
   8  -2  -5 2717.69 138.457   5
  -8  -2   5 2338.82 180.725   1
  -8  -2   4 2883.69 194.372   1
   8  -2  -4 2485.42 231.497   4
  -8  -2   3 3364.48 209.800   1
  -8  -2   2 163.343 86.1599   1
  -8  -2   1 4746.21 245.735   1
   8  -2  -1 3946.93 172.169   3
  -8  -2   1 4018.51 166.082   2
   8  -2   0 1066.84 119.090   3
  -8  -2   0 1254.95 143.956   1
  -8  -2   0 1217.32 115.083   2
   8  -2   1 1283.38 133.096   3
  -8  -2  -1 1469.45 133.702   2
  -8  -2  -1 1655.76 165.933   1
   8  -2   2 1198.48 145.740   3
  -8  -2  -2 1323.67 141.259   2
  -8  -2  -3 291.147 101.149   2
  -8  -2  -3 326.587 101.831   1
   8  -2   3 431.058 123.461   3
   8  -1 -11 5688.56 279.455   5
  -8  -1  11 5420.43 284.053   1
   8  -1 -10 978.642 136.199   5
  -8  -1  10 1048.02 147.783   1
   8  -1  -9 1613.50 151.666   5
  -8  -1   9 1668.17 169.659   1
   8  -1  -8 1696.91 137.979   5
  -8  -1   8 1465.24 153.708   1
   8  -1  -7 6460.83 237.425   5
  -8  -1   7 6532.76 270.858   1
   8  -1  -6 4362.21 187.287   5
  -8  -1   6 4564.62 230.276   1
  -8  -1   5 9628.37 318.435   1
   8  -1  -5 9532.66 250.523   5
  -8  -1   4 1126.23 132.919   1
   8  -1  -4 1019.76 73.6300   3
   8  -1  -4 1207.44 106.781   5
  -8  -1   3 1445.38 145.911   1
   8  -1  -3 1276.04 89.4926   3
   8  -1  -3 1369.82 95.3120   5
  -8  -1   2 7188.45 278.948   1
   8  -1  -2 6625.56 189.300   3
   8  -1  -2 6923.05 171.147   5
  -8  -1   2 6440.98 175.504   2
   8  -1  -1 2731.94 137.368   3
  -8  -1   1 2646.08 187.437   1
  -8  -1   1 2728.08 137.571   2
  -8  -1   0 311.240 97.1213   1
   8  -1   0 596.939 96.8907   3
  -8  -1   0 411.983 83.1632   2
  -8  -1  -1 5889.20 259.484   1
   8  -1   1 6181.73 234.965   3
  -8  -1  -1 5718.05 221.092   2
  -8  -1  -2 4127.70 225.105   1
   8  -1   2 3733.28 204.800   3
  -8  -1  -2 3282.71 185.112   2
   8  -1   3 931.499 140.964   3
  -8  -1  -3 785.749 127.385   2
   8  -1   4 1324.93 161.786   3
  -8  -1  -4 1784.29 166.830   2
  -8   0  11 505.970 119.042   1
   8   0 -11 604.244 132.601   5
   8   0 -10 430.679 114.218   5
  -8   0  10 240.772 99.2177   1
   8   0  -9 6282.16 261.044   5
  -8   0   9 5707.47 257.808   1
  -8   0   8 9149.50 312.267   1
   8   0  -8 8718.94 289.334   5
  -8   0   7 11954.0 349.583   1
   8   0  -7 12348.3 233.136   3
   8   0  -7 12601.8 332.290   5
  -8   0   6 4679.54 228.769   1
   8   0  -6 4771.52 150.863   3
   8   0  -6 4969.63 207.046   5
  -8   0   5-102.012 81.5758   1
   8   0  -5 98.2104 69.3326   5
   8   0  -5 38.1373 50.7147   3
   8   0  -4 1022.42 87.0429   3
  -8   0   4 1064.27 124.937   1
   8   0  -4 1208.68 108.346   5
  -8   0   3 646.596 69.7822   2
   8   0  -3 638.447 80.5015   3
  -8   0   3 526.987 104.800   1
   8   0  -3 705.921 88.1634   5
  -8   0   2 8202.88 213.971   2
   8   0  -2 8198.53 225.363   3
   8   0  -2 7991.84 219.996   5
  -8   0   2 8138.15 297.953   1
   8   0  -1 5753.77 202.155   3
   8   0  -1 5477.58 176.490   5
  -8   0   1 5483.38 247.691   1
  -8   0   1 5517.63 190.879   2
  -8   0   0 2481.14 179.987   1
   8   0   0 2284.40 146.722   3
  -8   0   0 2440.64 145.990   2
   8   0   1 5702.12 229.750   3
  -8   0  -1 4809.95 226.300   1
  -8   0  -1 5151.73 216.907   2
   8   0   2 7769.81 265.555   3
  -8   0  -2 8789.08 300.353   2
   8   0   3 1647.64 153.703   3
  -8   0  -3 1618.63 149.905   2
  -8   0  -4 75.8469 99.5531   2
   8   0   4 34.4225 105.895   3
  -8   1  11 5712.51 261.899   1
   8   1 -11 5658.77 285.539   5
  -8   1  10 1151.66 142.088   1
   8   1 -10 1134.65 152.320   5
   8   1  -9 1384.62 115.775   3
  -8   1   9 1758.62 150.584   1
   8   1  -9 1426.11 147.026   5
   8   1  -8 1829.40 123.138   3
  -8   1   8 1577.29 138.052   1
   8   1  -8 1963.25 163.478   5
   8   1  -7 6782.33 208.104   3
  -8   1   7 6286.48 253.143   1
   8   1  -7 6455.71 251.719   5
   8   1  -6 4810.85 184.118   3
  -8   1   6 4701.87 219.274   1
   8   1  -6 4742.65 217.073   5
   8   1  -5 9742.49 246.884   3
   8   1  -5 9677.99 288.076   5
  -8   1   5 9877.86 310.165   1
  -8   1   4 1143.83 90.9578   2
   8   1  -4 1319.21 109.206   3
   8   1  -4 985.284 112.803   5
  -8   1   4 1429.14 137.057   1
  -8   1   3 1454.38 111.623   2
   8   1  -3 1574.77 117.361   3
   8   1  -3 1415.54 122.032   5
  -8   1   3 1482.57 139.408   1
  -8   1   2 7575.27 225.525   2
  -8   1   2 7412.04 274.974   1
   8   1  -2 7238.13 234.614   3
   8   1  -2 7336.49 251.941   5
  -8   1   1 2696.62 150.616   2
  -8   1   1 2617.44 167.971   1
   8   1  -1 2507.39 150.237   3
   8   1  -1 2691.59 156.633   5
  -8   1   0 465.589 93.8833   2
   8   1   0 474.153 91.4088   5
   8   1   0 507.656 95.3602   3
  -8   1  -1 6204.70 245.491   2
   8   1   1 6112.77 245.603   3
   8   1   2 3467.87 202.095   3
  -8   1  -2 3785.10 206.872   2
   8   1   3 942.404 137.088   3
  -8   1  -3 892.037 136.028   2
   8   1   4 1702.95 173.236   3
  -8   1  -4 1794.93 177.410   2
   8   2 -10 2250.20 164.252   3
   8   2 -10 2151.16 193.615   5
   8   2  -9 1056.66 123.559   3
   8   2  -9 949.069 142.588   5
  -8   2   9 1392.67 137.622   1
  -8   2   8 27.4339 79.7276   1
   8   2  -8 136.979 99.2391   5
   8   2  -8 196.665 82.6321   3
   8   2  -7 3063.77 172.177   3
   8   2  -7 2651.56 183.515   5
  -8   2   7 3065.36 187.331   1
   8   2  -6 1971.21 143.251   3
   8   2  -6 1768.14 153.455   5
  -8   2   6 1844.89 147.954   1
  -8   2   5 2992.22 171.167   1
   8   2  -5 2658.78 158.291   3
  -8   2   5 2802.68 149.411   2
   8   2  -5 2706.30 178.920   5
   8   2  -4 3414.81 175.949   3
  -8   2   4 3567.49 186.573   1
  -8   2   4 3391.06 169.699   2
   8   2  -4 3465.33 194.590   5
  -8   2   3 2846.82 162.035   2
   8   2  -3 2880.67 169.263   3
  -8   2   3 2675.61 160.909   1
   8   2  -3 2744.34 181.681   5
  -8   2   2 51.7757 74.1302   2
   8   2  -2 83.9939 78.7356   5
   8   2  -2 87.0636 79.5380   3
  -8   2   1 4745.68 220.249   2
   8   2  -1 4470.94 210.488   3
   8   2  -1 4377.23 220.726   5
  -8   2   0 1436.72 145.247   2
   8   2   0 1427.59 140.504   3
   8   2   0 1468.24 151.962   5
  -8   2  -1 1610.66 150.437   2
   8   2   1 1847.36 160.993   3
  -8   2  -2 1898.03 177.490   2
   8   2   2 1512.58 156.911   3
  -8   2  -3 533.962 129.685   2
   8   2   3 631.866 132.973   3
   8   3  -9 3863.06 219.205   3
   8   3  -9 3754.62 244.732   5
   8   3  -8 3915.28 211.992   3
   8   3  -8 4038.68 242.219   5
   8   3  -7 560.570 114.208   3
   8   3  -7 506.544 121.119   5
   8   3  -6 5206.50 232.069   3
   8   3  -6 5438.36 270.559   5
   8   3  -5 3397.48 196.615   3
  -8   3   5 3301.14 195.071   2
   8   3  -5 3200.56 209.735   5
   8   3  -4 1119.73 123.926   3
  -8   3   4 1444.74 143.668   2
   8   3  -4 1249.25 150.671   5
   8   3  -3 4867.40 226.521   3
  -8   3   3 5625.49 250.239   2
   8   3  -3 4933.96 250.718   5
  -8   3   2 2496.64 179.929   2
   8   3  -2 2173.42 163.007   3
   8   3  -2 2312.68 182.375   5
  -8   3   1 945.180 131.323   2
   8   3  -1 999.557 126.529   3
   8   3  -1 837.034 133.375   5
  -8   3   0 11562.7 372.525   2
   8   3   0 10562.0 349.270   3
   8   3   0 10491.2 382.762   5
  -8   3  -1 7605.05 310.119   2
   8   3   1 7694.92 315.179   3
  -8   3  -2 2245.50 200.341   2
   8   3   2 2293.18 202.814   3
   8   4  -7 1288.95 153.808   3
   8   4  -7 1195.97 161.798   5
   8   4  -6-12.2852 106.234   5
   8   4  -6 174.380 102.087   3
  -8   4   5 596.405 133.604   2
   8   4  -5 753.486 151.125   5
   8   4  -5 424.996 113.887   3
   8   4  -4 4278.55 238.417   3
  -8   4   4 3792.54 228.726   2
   8   4  -4 3994.84 247.373   5
   8   4  -3 1240.82 148.225   3
  -8   4   3 1352.22 157.098   2
   8   4  -3 1474.07 169.207   5
  -8   4   2 904.762 144.483   2
   8   4  -2 968.378 145.252   3
   8   4  -2 672.078 136.530   5
  -8   4   1 1493.09 171.234   2
   8   4  -1 1614.89 169.254   3
   8   4  -1 1334.19 175.724   5
  -8   4   0 403.274 135.350   2
   8   4   0 200.996 138.165   5
   8   4   0 187.787 115.112   3
  -9  -3   7 2206.76 218.610   1
  -9  -3   6 674.851 144.132   1
   9  -3  -5 155.842 127.691   4
  -9  -3   5 956.102 155.895   1
  -9  -3   4 2014.62 194.612   1
   9  -3  -4 968.262 190.800   4
  -9  -3   3 707.813 150.018   1
   9  -3  -3 393.863 169.902   4
  -9  -3   2 321.329 122.948   1
   9  -3  -2 254.264 158.648   4
  -9  -3   1 2231.27 199.287   1
   9  -2  -9 2462.47 186.030   5
  -9  -2   9 2523.40 218.244   1
   9  -2  -8 4330.50 214.455   5
  -9  -2   8 4348.42 266.409   1
   9  -2  -7 3004.00 173.399   5
  -9  -2   7 2295.22 197.221   1
  -9  -2   6 3124.33 221.109   1
  -9  -2   5 5127.56 272.357   1
   9  -2  -5 2545.14 230.283   4
  -9  -2   4 4110.76 248.887   1
   9  -2  -4 1285.31 196.998   4
  -9  -2   3 2661.82 197.152   1
  -9  -2   2 296.629 104.889   1
  -9  -2   1 2069.40 188.468   1
  -9  -2   0 5505.55 289.572   1
  -9  -2  -1 2534.18 199.692   1
   9  -1  -9 723.753 127.432   5
  -9  -1   9 563.579 126.527   1
   9  -1  -8 1379.39 140.605   5
  -9  -1   8 951.204 141.846   1
  -9  -1   7 4626.71 250.335   1
   9  -1  -7 5006.72 220.404   5
  -9  -1   6 808.664 141.862   1
   9  -1  -6 1027.08 118.932   5
   9  -1  -5 589.317 96.4268   5
  -9  -1   5 560.761 118.861   1
  -9  -1   4 3288.36 214.433   1
  -9  -1   3 2939.67 205.023   1
  -9  -1   2 2120.00 175.342   1
   9  -1  -1 1170.49 122.832   3
  -9  -1   1 1192.80 152.657   1
  -9  -1   0 149.157 89.7952   1
   9  -1   0 164.559 92.5891   3
  -9  -1  -1 1763.64 169.354   1
   9  -1   1 1670.25 156.438   3
  -9  -1  -1 1481.08 140.714   2
   9  -1   2 1457.21 159.805   3
  -9  -1  -2 1507.48 155.738   2
  -9   0  10 824.648 136.872   1
   9   0 -10 623.041 133.205   5
  -9   0   9 2765.32 203.051   1
   9   0  -9 2770.50 194.979   5
   9   0  -8 362.320 105.031   5
  -9   0   8 463.343 118.911   1
  -9   0   7 371.703 100.910   1
   9   0  -7 365.002 102.104   5
  -9   0   6 9188.84 330.344   1
   9   0  -6 9693.42 296.607   5
  -9   0   5 768.766 121.528   1
   9   0  -5 600.953 99.9938   5
   9   0  -4 2309.51 128.822   3
  -9   0   4 2295.70 180.020   1
   9   0  -4 2430.93 154.051   5
   9   0  -3 4274.57 176.329   3
   9   0  -3 4104.94 181.452   5
  -9   0   3 4186.85 239.560   1
   9   0  -2 2322.37 143.103   3
  -9   0   2 2388.19 189.670   1
  -9   0   1 1049.21 134.053   1
   9   0  -1 1088.61 118.621   3
  -9   0   0 7330.54 296.307   1
   9   0   0 6934.30 258.336   3
  -9   0   0 7394.30 255.865   2
  -9   0  -1 61.4174 89.7300   2
   9   0   1-27.7178 79.7130   3
  -9   0  -2 152.785 110.897   2
   9   0   2 39.8439 96.5603   3
  -9   1   9 814.773 130.999   1
   9   1  -9 759.631 133.400   5
  -9   1   8 1153.09 139.856   1
   9   1  -8 1027.63 139.202   5
   9   1  -7 4635.95 185.517   3
  -9   1   7 4891.66 246.372   1
   9   1  -7 4355.13 222.954   5
   9   1  -6 913.361 103.918   3
   9   1  -6 890.308 123.106   5
  -9   1   6 928.200 129.754   1
   9   1  -5 613.069 92.9742   3
  -9   1   5 536.894 110.907   1
   9   1  -5 502.326 106.698   5
   9   1  -4 3392.12 167.851   3
   9   1  -4 2944.35 177.331   5
  -9   1   4 3333.31 208.218   1
  -9   1   3 2903.67 193.325   1
   9   1  -3 2957.31 169.265   3
   9   1  -3 2577.07 171.740   5
   9   1  -2 2224.48 151.225   3
   9   1  -2 2407.72 163.921   5
  -9   1   1 1034.37 119.739   2
   9   1  -1 1213.86 132.131   3
  -9   1   1 1052.47 129.694   1
  -9   1   0 79.8470 94.5992   2
   9   1   0-11.9266 86.6481   3
  -9   1  -1 1540.08 155.368   2
   9   1   1 1448.12 153.242   3
  -9   1  -2 1418.92 159.559   2
   9   1   2 1605.21 169.907   3
   9   2  -9 2330.12 166.664   3
   9   2  -9 2145.28 188.354   5
  -9   2   9 2172.69 178.462   1
   9   2  -8 4300.54 205.491   3
   9   2  -8 4344.57 249.483   5
  -9   2   8 4739.68 243.404   1
   9   2  -7 2899.37 173.796   3
   9   2  -7 2434.48 188.404   5
  -9   2   7 2840.57 186.893   1
  -9   2   6 3277.20 192.231   1
   9   2  -6 3006.90 172.359   3
   9   2  -6 2901.13 200.608   5
  -9   2   5 5442.13 245.931   1
   9   2  -5 5333.79 228.677   3
   9   2  -5 5011.98 247.381   5
   9   2  -4 3789.67 192.687   3
  -9   2   4 3638.12 198.000   1
   9   2  -4 3883.25 215.666   5
   9   2  -3 2442.40 161.969   3
   9   2  -3 2605.83 186.312   5
  -9   2   2 311.464 100.789   2
   9   2  -2 202.906 105.565   5
   9   2  -2 208.283 93.2068   3
  -9   2   1 2072.54 168.462   2
   9   2  -1 1967.92 167.089   3
   9   2  -1 1892.08 172.541   5
  -9   2   0 5591.44 265.671   2
   9   2   0 5801.14 267.935   3
  -9   2  -1 2524.92 195.222   2
   9   2   1 2637.39 204.234   3
   9   3  -7 2161.74 176.198   3
   9   3  -7 1914.27 195.223   5
   9   3  -6 311.563 123.150   5
   9   3  -6 413.890 111.503   3
   9   3  -5 888.584 127.240   3
   9   3  -5 625.449 139.729   5
   9   3  -4 2504.21 183.754   3
   9   3  -4 2492.12 202.322   5
  -9   3   3 584.240 125.402   2
   9   3  -3 314.424 116.781   5
   9   3  -3 605.740 117.500   3
   9   3  -2 605.504 125.525   3
  -9   3   2 501.772 118.487   2
   9   3  -2 611.018 135.224   5
  -9   3   1 2173.22 185.956   2
   9   3  -1 2338.26 184.752   3
   9   3  -1 2429.35 212.625   5
 -10  -2   5-75.8983 118.403   1
 -10  -2   4 1221.13 169.748   1
 -10  -1   7 3853.67 253.215   1
 -10  -1   6 3099.10 223.445   1
 -10  -1   5 4353.97 264.090   1
 -10  -1   4 2168.99 195.115   1
 -10  -1   3-17.5738 103.352   1
 -10  -1   2 3387.37 238.413   1
 -10  -1   1 2902.31 218.132   1
 -10   0   7 4637.91 264.576   1
  10   0  -7 4783.05 234.694   5
  10   0  -6 399.866 105.173   5
 -10   0   6 383.024 115.800   1
 -10   0   5 843.349 143.343   1
 -10   0   4 3341.90 233.562   1
 -10   0   3 1017.54 152.093   1
 -10   0   2 2610.12 202.486   1
 -10   0   1 3514.47 231.694   1
  10   0  -1 3734.02 206.160   3
  10   1  -7 4174.05 234.158   5
 -10   1   7 4075.48 255.476   1
  10   1  -6 3250.93 213.942   5
 -10   1   6 3473.70 235.165   1
  10   1  -5 3834.59 218.688   5
 -10   1   5 4649.99 263.023   1
 -10   1   4 2133.03 184.203   1
  10   1  -4 1958.26 150.680   3
  10   1  -4 1920.00 165.993   5
 -10   1   3 64.1047 96.0555   1
  10   1  -3 233.808 93.0080   3
  10   1  -2 3319.86 194.812   3
 -10   1   2 2839.24 200.980   1
  10   1  -1 2650.98 189.861   3
 -10   2   5 409.743 112.688   1
  10   2  -5 207.434 113.605   5
  10   2  -5 209.755 96.7508   3
  10   2  -4 1410.57 144.781   3
  10   2  -4 1481.02 172.118   5
   0   0   0    0.00    0.00   0

TITL VB-B-207A-xtal2 in P2(1)
REM P2(1) (#4 in standard setting)
CELL 0.71073   8.356022   5.825663  10.676776  90.0000 109.1955  90.0000
ZERR    2.00   0.000478   0.000265   0.000558   0.0000   0.0064   0.0000
LATT -1
SYMM -x, y+1/2,-z
SFAC C H S Cl
UNIT 22.00 28.00 2.00 2.00
TREF
HKLF 4
END
;
_shelx_hkl_checksum              4874
loop_
_space_group_symop_operation_xyz
'x, y, z'
'-x, y+1/2, -z'
loop_
_atom_site_label
_atom_site_type_symbol
_atom_site_fract_x
_atom_site_fract_y
_atom_site_fract_z
_atom_site_U_iso_or_equiv
_atom_site_adp_type
_atom_site_occupancy
_atom_site_site_symmetry_order
_atom_site_calc_flag
_atom_site_refinement_flags_posn
_atom_site_refinement_flags_adp
_atom_site_refinement_flags_occupancy
_atom_site_disorder_assembly
_atom_site_disorder_group
C1 C 0.3207(6) 0.5254(8) 0.3401(5) 0.0244(10) Uani 1 1 d . . . . .
C2 C 0.3416(5) 0.6344(7) 0.4554(4) 0.0151(8) Uani 1 1 d . . . . .
H2 H 0.388821 0.783476 0.476520 0.018 Uiso 1 1 calc R U . . .
C3 C 0.2810(5) 0.4904(7) 0.5450(4) 0.0164(8) Uani 1 1 d . . . . .
C4 C 0.2749(5) 0.5426(8) 0.6727(4) 0.0200(9) Uani 1 1 d . . . . .
H4 H 0.317440 0.684400 0.714229 0.024 Uiso 1 1 calc R U . . .
C5 C 0.2048(5) 0.3809(8) 0.7365(4) 0.0210(9) Uani 1 1 d . . . . .
H5 H 0.200639 0.414325 0.822460 0.025 Uiso 1 1 calc R U . . .
C6 C 0.1416(6) 0.1741(8) 0.6780(4) 0.0204(9) Uani 1 1 d . . . . .
H6 H 0.094737 0.068258 0.724091 0.024 Uiso 1 1 calc R U . . .
C7 C 0.1455(5) 0.1190(7) 0.5528(4) 0.0165(8) Uani 1 1 d . . . . .
H7 H 0.102264 -0.023607 0.512667 0.020 Uiso 1 1 calc R U . . .
C8 C 0.2141(5) 0.2770(8) 0.4874(4) 0.0158(8) Uani 1 1 d . . . . .
C9 C 0.3667(6) 0.6280(9) 0.2295(4) 0.0243(9) Uani 1 1 d . . . . .
H9 H 0.441415 0.766405 0.253613 0.029 Uiso 1 1 calc R U . . .
C10 C 0.2360(6) 0.6334(9) 0.0924(5) 0.0293(11) Uani 1 1 d . . . . .
H10 H 0.127181 0.552033 0.082812 0.035 Uiso 1 1 calc R U . . .
C11 C 0.3900(7) 0.4820(10) 0.1190(5) 0.0326(12) Uani 1 1 d . . . . .
H11A H 0.478347 0.528981 0.081040 0.039 Uiso 1 1 calc R U . . .
H11B H 0.373829 0.314151 0.122941 0.039 Uiso 1 1 calc R U . . .
S1 S 0.22769(14) 0.25272(18) 0.32852(10) 0.0225(3) Uani 1 1 d . . . . .
Cl1 Cl 0.21893(15) 0.8789(2) -0.00710(11) 0.0294(3) Uani 1 1 d . . . . .
loop_
_atom_site_aniso_label
_atom_site_aniso_U_11
_atom_site_aniso_U_22
_atom_site_aniso_U_33
_atom_site_aniso_U_23
_atom_site_aniso_U_13
_atom_site_aniso_U_12
C1 0.026(2) 0.022(2) 0.028(2) 0.009(2) 0.0123(19) 0.011(2)
C2 0.0059(16) 0.0127(18) 0.027(2) 0.0005(17) 0.0061(15) 0.0021(15)
C3 0.0108(17) 0.0130(18) 0.024(2) 0.0023(18) 0.0034(16) 0.0026(15)
C4 0.017(2) 0.017(2) 0.021(2) -0.0029(17) 0.0003(17) 0.0023(17)
C5 0.024(2) 0.025(2) 0.0119(18) -0.0018(18) 0.0032(16) 0.005(2)
C6 0.023(2) 0.022(2) 0.0163(19) 0.0090(17) 0.0072(18) 0.0040(17)
C7 0.0141(18) 0.0133(19) 0.0225(19) 0.0019(17) 0.0065(16) 0.0007(16)
C8 0.0144(19) 0.0144(19) 0.0184(18) -0.0020(17) 0.0051(16) 0.0007(17)
C9 0.021(2) 0.029(2) 0.023(2) 0.0023(19) 0.0084(17) -0.0019(19)
C10 0.025(2) 0.035(3) 0.029(2) 0.002(2) 0.0101(19) -0.007(2)
C11 0.039(3) 0.038(3) 0.026(2) 0.009(2) 0.019(2) 0.016(2)
S1 0.0265(6) 0.0214(5) 0.0202(5) -0.0008(4) 0.0086(4) 0.0009(5)
Cl1 0.0305(6) 0.0340(6) 0.0251(6) 0.0115(5) 0.0108(5) 0.0054(5)
loop_
_atom_type_symbol
_atom_type_description
_atom_type_scat_dispersion_real
_atom_type_scat_dispersion_imag
_atom_type_scat_source
C C 0.0033 0.0016 'International Tables Vol C Tables 4.2.6.8 and 6.1.1.4'
H H 0.0000 0.0000 'International Tables Vol C Tables 4.2.6.8 and 6.1.1.4'
S S 0.1246 0.1234 'International Tables Vol C Tables 4.2.6.8 and 6.1.1.4'
Cl Cl 0.1484 0.1585 'International Tables Vol C Tables 4.2.6.8 and 6.1.1.4'
loop_
_geom_angle_atom_site_label_1
_geom_angle_atom_site_label_2
_geom_angle_atom_site_label_3
_geom_angle
_geom_angle_site_symmetry_1
_geom_angle_site_symmetry_3
_geom_angle_publ_flag
C2 C1 C9 123.3(4) . . ?
C2 C1 S1 114.4(3) . . ?
C9 C1 S1 122.3(4) . . ?
C1 C2 C3 110.8(4) . . ?
C1 C2 H2 124.6 . . ?
C3 C2 H2 124.6 . . ?
C4 C3 C8 118.2(4) . . ?
C4 C3 C2 129.0(4) . . ?
C8 C3 C2 112.7(4) . . ?
C5 C4 C3 118.6(4) . . ?
C5 C4 H4 120.7 . . ?
C3 C4 H4 120.7 . . ?
C6 C5 C4 121.8(4) . . ?
C6 C5 H5 119.1 . . ?
C4 C5 H5 119.1 . . ?
C5 C6 C7 120.8(4) . . ?
C5 C6 H6 119.6 . . ?
C7 C6 H6 119.6 . . ?
C6 C7 C8 118.4(4) . . ?
C6 C7 H7 120.8 . . ?
C8 C7 H7 120.8 . . ?
C7 C8 C3 122.2(4) . . ?
C7 C8 S1 127.3(3) . . ?
C3 C8 S1 110.5(3) . . ?
C1 C9 C10 119.1(4) . . ?
C1 C9 C11 121.7(5) . . ?
C10 C9 C11 59.7(3) . . ?
C1 C9 H9 115.1 . . ?
C10 C9 H9 115.1 . . ?
C11 C9 H9 115.1 . . ?
C11 C10 C9 60.4(3) . . ?
C11 C10 Cl1 118.9(4) . . ?
C9 C10 Cl1 119.4(4) . . ?
C11 C10 H10 115.6 . . ?
C9 C10 H10 115.6 . . ?
Cl1 C10 H10 115.6 . . ?
C10 C11 C9 60.0(3) . . ?
C10 C11 H11A 117.8 . . ?
C9 C11 H11A 117.8 . . ?
C10 C11 H11B 117.8 . . ?
C9 C11 H11B 117.8 . . ?
H11A C11 H11B 114.9 . . ?
C8 S1 C1 91.5(2) . . ?
loop_
_geom_bond_atom_site_label_1
_geom_bond_atom_site_label_2
_geom_bond_distance
_geom_bond_site_symmetry_2
_geom_bond_publ_flag
C1 C2 1.345(6) . ?
C1 C9 1.482(6) . ?
C1 S1 1.755(5) . ?
C2 C3 1.481(6) . ?
C2 H2 0.9500 . ?
C3 C4 1.414(6) . ?
C3 C8 1.418(6) . ?
C4 C5 1.399(6) . ?
C4 H4 0.9500 . ?
C5 C6 1.380(7) . ?
C5 H5 0.9500 . ?
C6 C7 1.386(6) . ?
C6 H6 0.9500 . ?
C7 C8 1.388(6) . ?
C7 H7 0.9500 . ?
C8 S1 1.743(4) . ?
C9 C10 1.512(7) . ?
C9 C11 1.518(7) . ?
C9 H9 1.0000 . ?
C10 C11 1.508(7) . ?
C10 Cl1 1.760(5) . ?
C10 H10 1.0000 . ?
C11 H11A 0.9900 . ?
C11 H11B 0.9900 . ?
loop_
_geom_torsion_atom_site_label_1
_geom_torsion_atom_site_label_2
_geom_torsion_atom_site_label_3
_geom_torsion_atom_site_label_4
_geom_torsion
_geom_torsion_site_symmetry_1
_geom_torsion_site_symmetry_2
_geom_torsion_site_symmetry_3
_geom_torsion_site_symmetry_4
_geom_torsion_publ_flag
C9 C1 C2 C3 178.9(4) . . . . ?
S1 C1 C2 C3 0.7(5) . . . . ?
C1 C2 C3 C4 -177.7(4) . . . . ?
C1 C2 C3 C8 -1.0(5) . . . . ?
C8 C3 C4 C5 0.6(6) . . . . ?
C2 C3 C4 C5 177.2(4) . . . . ?
C3 C4 C5 C6 -0.3(6) . . . . ?
C4 C5 C6 C7 0.1(6) . . . . ?
C5 C6 C7 C8 -0.2(6) . . . . ?
C6 C7 C8 C3 0.6(6) . . . . ?
C6 C7 C8 S1 -177.9(3) . . . . ?
C4 C3 C8 C7 -0.8(6) . . . . ?
C2 C3 C8 C7 -178.0(4) . . . . ?
C4 C3 C8 S1 177.9(3) . . . . ?
C2 C3 C8 S1 0.7(4) . . . . ?
C2 C1 C9 C10 -127.5(5) . . . . ?
S1 C1 C9 C10 50.4(6) . . . . ?
C2 C1 C9 C11 162.1(4) . . . . ?
S1 C1 C9 C11 -20.0(6) . . . . ?
C1 C9 C10 C11 -111.9(5) . . . . ?
C1 C9 C10 Cl1 139.6(4) . . . . ?
C11 C9 C10 Cl1 -108.6(4) . . . . ?
Cl1 C10 C11 C9 109.3(4) . . . . ?
C1 C9 C11 C10 107.4(5) . . . . ?
C7 C8 S1 C1 178.3(4) . . . . ?
C3 C8 S1 C1 -0.3(3) . . . . ?
C2 C1 S1 C8 -0.3(3) . . . . ?
C9 C1 S1 C8 -178.4(4) . . . . ?
