#------------------------------------------------------------------------------
#$Date: 2020-02-04 01:49:19 +0200 (Tue, 04 Feb 2020) $
#$Revision: 247483 $
#$URL: file:///home/coder/svn-repositories/cod/cif/4/13/41/4134105.cif $
#------------------------------------------------------------------------------
#
# This file is available in the Crystallography Open Database (COD),
# http://www.crystallography.net/
#
# All data on this site have been placed in the public domain by the
# contributors.
#
data_4134105
loop_
_publ_author_name
'Lou, Shao-Jie'
'Mo, Zhenbo'
'Nishiura, Masayoshi'
'Hou, Zhaomin'
_publ_section_title
;
 Construction of All-Carbon Quaternary Stereocenters by Scandium-Catalyzed
 Intramolecular C-H Alkylation of Imidazoles with 1,1-Disubstituted
 Alkenes.
;
_journal_issue                   3
_journal_name_full               'Journal of the American Chemical Society'
_journal_page_first              1200
_journal_page_last               1205
_journal_paper_doi               10.1021/jacs.9b12503
_journal_volume                  142
_journal_year                    2020
_chemical_absolute_configuration ad
_chemical_formula_moiety         'C27 H25 Br N2 O'
_chemical_formula_sum            'C27 H25 Br N2 O'
_chemical_formula_weight         473.40
_space_group_crystal_system      triclinic
_space_group_IT_number           1
_space_group_name_Hall           'P 1'
_space_group_name_H-M_alt        'P 1'
_atom_sites_solution_hydrogens   geom
_audit_creation_method           SHELXL-2018/3
_cell_angle_alpha                91.478(7)
_cell_angle_beta                 97.316(7)
_cell_angle_gamma                111.443(8)
_cell_formula_units_Z            1
_cell_length_a                   6.1625(5)
_cell_length_b                   8.0217(7)
_cell_length_c                   12.3804(11)
_cell_measurement_reflns_used    3765
_cell_measurement_temperature    173(2)
_cell_measurement_theta_max      24.888
_cell_measurement_theta_min      2.843
_cell_volume                     563.27(9)
_computing_structure_refinement  'SHELXL-2018/3 (Sheldrick, 2018)'
_diffrn_ambient_temperature      173(2)
_diffrn_measured_fraction_theta_full 0.997
_diffrn_measured_fraction_theta_max 0.997
_diffrn_measurement_device_type  'RIGAKU Xtalab Pilatus200'
_diffrn_measurement_method       'phi and omega scan'
_diffrn_radiation_type           MoK\a
_diffrn_radiation_wavelength     0.71073
_diffrn_reflns_av_R_equivalents  0.0451
_diffrn_reflns_av_unetI/netI     0.0571
_diffrn_reflns_Laue_measured_fraction_full 0.997
_diffrn_reflns_Laue_measured_fraction_max 0.997
_diffrn_reflns_limit_h_max       7
_diffrn_reflns_limit_h_min       -7
_diffrn_reflns_limit_k_max       9
_diffrn_reflns_limit_k_min       -9
_diffrn_reflns_limit_l_max       14
_diffrn_reflns_limit_l_min       -14
_diffrn_reflns_number            8735
_diffrn_reflns_point_group_measured_fraction_full 0.959
_diffrn_reflns_point_group_measured_fraction_max 0.959
_diffrn_reflns_theta_full        25.081
_diffrn_reflns_theta_max         25.081
_diffrn_reflns_theta_min         2.736
_exptl_absorpt_coefficient_mu    1.846
_exptl_absorpt_correction_T_max  1.00
_exptl_absorpt_correction_T_min  0.789
_exptl_absorpt_correction_type   multi-scan
_exptl_absorpt_process_details
;
CrysAlisPro 1.171.38.46 (Rigaku Oxford Diffraction, 2015)
Empirical absorption correction using spherical harmonics,
 implemented in SCALE3 ABSPACK scaling algorithm.
;
_exptl_crystal_colour            colorless
_exptl_crystal_density_diffrn    1.396
_exptl_crystal_description       needle
_exptl_crystal_F_000             244
_exptl_crystal_size_max          0.430
_exptl_crystal_size_mid          0.350
_exptl_crystal_size_min          0.150
_refine_diff_density_max         1.116
_refine_diff_density_min         -0.645
_refine_diff_density_rms         0.099
_refine_ls_abs_structure_details
;
 Refined as an inversion twin.
;
_refine_ls_abs_structure_Flack   -0.037(15)
_refine_ls_extinction_method     none
_refine_ls_goodness_of_fit_ref   1.029
_refine_ls_hydrogen_treatment    constr
_refine_ls_matrix_type           full
_refine_ls_number_parameters     282
_refine_ls_number_reflns         3846
_refine_ls_number_restraints     3
_refine_ls_restrained_S_all      1.028
_refine_ls_R_factor_all          0.0639
_refine_ls_R_factor_gt           0.0545
_refine_ls_shift/su_max          0.000
_refine_ls_shift/su_mean         0.000
_refine_ls_structure_factor_coef Fsqd
_refine_ls_weighting_details
'w=1/[\s^2^(Fo^2^)+(0.0993P)^2^] where P=(Fo^2^+2Fc^2^)/3'
_refine_ls_weighting_scheme      calc
_refine_ls_wR_factor_gt          0.1365
_refine_ls_wR_factor_ref         0.1418
_reflns_Friedel_coverage         0.924
_reflns_Friedel_fraction_full    0.921
_reflns_Friedel_fraction_max     0.921
_reflns_number_gt                3288
_reflns_number_total             3846
_reflns_threshold_expression     'I > 2\s(I)'
_cod_data_source_file            ja9b12503_si_004.cif
_cod_data_source_block           shelx
_cod_database_code               4134105
_shelx_shelxl_version_number     2018/3
_shelx_space_group_comment
;
The symmetry employed for this shelxl refinement is uniquely defined
by the following loop, which should always be used as a source of
symmetry information in preference to the above space-group names.
They are only intended as comments.
;
_shelx_estimated_absorpt_t_min   0.504
_shelx_estimated_absorpt_t_max   0.769
_shelx_res_file
;
TITL SIR2014 run in space group P 1
    shelx.res
    created by SHELXL-2018/3 at 20:05:42 on 04-Dec-2018
CELL  0.71073   6.1625   8.0217  12.3804   91.478   97.316  111.443
ZERR     1.00   0.0005   0.0007   0.0011    0.007    0.007    0.008
LATT  -1
SFAC  C    H    N    O    BR
UNIT  27 25 2 1 1
MERG   2
FMAP   2
PLAN    2
ACTA
BOND   $H
SIZE 0.43 0.35 0.15
CONF
L.S.  15
TEMP  -100.00
TWIN
WGHT    0.099300
BASF  -0.03727
FVAR       4.91218
BR1   5    0.045452    0.881017    0.621309    11.00000    0.07807    0.08126 =
         0.04855    0.02001   -0.00146    0.04020
N1    3    0.601453    0.271858    1.196075    11.00000    0.02477    0.03987 =
         0.02571    0.00614    0.00306    0.00911
N2    3    0.895475    0.424719    1.108644    11.00000    0.02644    0.04163 =
         0.02193    0.00351    0.00138    0.00933
O1    4    0.432722    0.474028    0.943094    11.00000    0.05737    0.05548 =
         0.02045    0.00307    0.00304    0.02983
C1    1    0.526876    0.217978    0.990245    11.00000    0.02916    0.04922 =
         0.02506    0.00163   -0.00259    0.00935
C2    1    0.631788    0.089430    0.946672    11.00000    0.03787    0.05651 =
         0.03934   -0.00965   -0.00828    0.01610
AFIX 137
H2A   2    0.544981    0.034607    0.874675    11.00000   -1.50000
H2B   2    0.620110   -0.004753    0.997015    11.00000   -1.50000
H2C   2    0.797776    0.155725    0.940290    11.00000   -1.50000
AFIX   0
C3    1    0.676493    0.310776    1.098352    11.00000    0.02896    0.04354 =
         0.02300    0.00382    0.00154    0.01633
C4    1    0.366243    0.149002    1.211886    11.00000    0.03425    0.04645 =
         0.03758    0.01218    0.00268    0.01248
AFIX  23
H4A   2    0.265845    0.218223    1.223223    11.00000   -1.20000
H4B   2    0.378262    0.083175    1.277526    11.00000   -1.20000
AFIX   0
C5    1    0.255737    0.016409    1.111995    11.00000    0.03209    0.04360 =
         0.04567    0.01021    0.00265    0.00451
AFIX  23
H5A   2    0.339940   -0.067164    1.108092    11.00000   -1.20000
H5B   2    0.088862   -0.055026    1.117602    11.00000   -1.20000
AFIX   0
C6    1    0.270170    0.117832    1.009865    11.00000    0.03259    0.04401 =
         0.03406   -0.00110   -0.00721    0.00829
AFIX  23
H6A   2    0.193155    0.205706    1.016392    11.00000   -1.20000
H6B   2    0.182917    0.032135    0.946010    11.00000   -1.20000
AFIX   0
C7    1    0.969071    0.464342    1.219915    11.00000    0.02747    0.04305 =
         0.02257    0.00358    0.00135    0.01193
C8    1    0.789476    0.370378    1.275413    11.00000    0.02378    0.04360 =
         0.02735    0.00534   -0.00110    0.01111
C9    1    1.206968    0.593771    1.260837    11.00000    0.03113    0.04289 =
         0.01962    0.01033    0.00455    0.01116
C10   1    1.257780    0.704159    1.357802    11.00000    0.03253    0.04247 =
         0.02639    0.00625    0.00478    0.01042
AFIX  43
H10   2    1.135950    0.696295    1.399670    11.00000   -1.20000
AFIX   0
C11   1    1.484495    0.824116    1.392406    11.00000    0.04196    0.04480 =
         0.02801    0.00088   -0.00462    0.00965
AFIX  43
H11   2    1.517146    0.897483    1.458471    11.00000   -1.20000
AFIX   0
C12   1    1.664556    0.839492    1.332888    11.00000    0.03122    0.04348 =
         0.04210    0.00518   -0.00631    0.00334
AFIX  43
H12   2    1.819551    0.922869    1.357913    11.00000   -1.20000
AFIX   0
C13   1    1.618704    0.733065    1.236592    11.00000    0.03144    0.05277 =
         0.04427    0.02032    0.01077    0.01419
AFIX  43
H13   2    1.741777    0.742598    1.195185    11.00000   -1.20000
AFIX   0
C14   1    1.391479    0.612453    1.201171    11.00000    0.03257    0.04072 =
         0.02600    0.00647    0.00258    0.01290
AFIX  43
H14   2    1.360214    0.540568    1.134611    11.00000   -1.20000
AFIX   0
C15   1    0.773352    0.354443    1.393100    11.00000    0.02776    0.04084 =
         0.02822    0.00616    0.00228    0.00999
C16   1    0.594580    0.385098    1.438440    11.00000    0.03547    0.05579 =
         0.03038    0.00393    0.00423    0.02066
AFIX  43
H16   2    0.485580    0.422356    1.394161    11.00000   -1.20000
AFIX   0
C17   1    0.574458    0.361519    1.548246    11.00000    0.03785    0.07390 =
         0.03391    0.00374    0.01130    0.02063
AFIX  43
H17   2    0.450011    0.379887    1.578451    11.00000   -1.20000
AFIX   0
C18   1    0.735336    0.311595    1.612656    11.00000    0.04993    0.06405 =
         0.02332    0.00757    0.00631    0.01614
AFIX  43
H18   2    0.721704    0.295465    1.687588    11.00000   -1.20000
AFIX   0
C19   1    0.915605    0.284804    1.569739    11.00000    0.04236    0.04886 =
         0.02737    0.00532   -0.00499    0.01259
AFIX  43
H19   2    1.027847    0.252693    1.615395    11.00000   -1.20000
AFIX   0
C20   1    0.934640    0.304343    1.460286    11.00000    0.02979    0.04593 =
         0.02601    0.00507    0.00276    0.00897
AFIX  43
H20   2    1.058267    0.283503    1.430794    11.00000   -1.20000
AFIX   0
C21   1    0.534326    0.354069    0.905964    11.00000    0.03493    0.05653 =
         0.01948    0.00271   -0.00026    0.01256
AFIX  23
H21A  2    0.699497    0.421910    0.895665    11.00000   -1.20000
H21B  2    0.445372    0.291228    0.834941    11.00000   -1.20000
AFIX   0
C22   1    0.354840    0.568114    0.866911    11.00000    0.04015    0.04561 =
         0.02222    0.00151   -0.00314    0.01401
C23   1    0.440531    0.606047    0.769169    11.00000    0.03481    0.05821 =
         0.02404    0.00056    0.00254    0.01355
AFIX  43
H23   2    0.560989    0.566886    0.751953    11.00000   -1.20000
AFIX   0
C24   1    0.351039    0.701581    0.695624    11.00000    0.03841    0.05031 =
         0.02784    0.00742    0.00076    0.01203
AFIX  43
H24   2    0.411891    0.730506    0.628878    11.00000   -1.20000
AFIX   0
C25   1    0.172629    0.753508    0.721277    11.00000    0.04122    0.04489 =
         0.03323    0.00579   -0.00647    0.00880
C26   1    0.087315    0.718010    0.819215    11.00000    0.02952    0.04124 =
         0.04159   -0.00192   -0.00295    0.00870
AFIX  43
H26   2   -0.032741    0.757496    0.836613    11.00000   -1.20000
AFIX   0
C27   1    0.179568    0.623502    0.892240    11.00000    0.03239    0.04518 =
         0.02433    0.00229    0.00041    0.00850
AFIX  43
H27   2    0.121382    0.597140    0.959779    11.00000   -1.20000
AFIX   0
HKLF    4




REM  SIR2014 run in space group P 1
REM wR2 = 0.1418, GooF = S = 1.029, Restrained GooF = 1.028 for all data
REM R1 = 0.0545 for 3288 Fo > 4sig(Fo) and 0.0639 for all 3846 data
REM 282 parameters refined using 3 restraints

END

WGHT      0.0989      0.0000

REM Highest difference peak  1.116,  deepest hole -0.645,  1-sigma level  0.099
Q1    1   0.0275  1.0005  0.6189  11.00000  0.05    1.12
Q2    1   0.0734  0.7721  0.6294  11.00000  0.05    0.87
;
_shelx_res_checksum              34068
_shelx_hkl_file
;
  -7   1   0-3.42169 149.217   2
  -7   1   0-53.5776 198.061   4
  -7   1   1 745.800 198.649   4
  -7   1   2 191.471 194.500   4
  -7   1   3 636.822 181.705   1
  -7   1   4 341.528 177.563   1
  -7   1   4 164.076 197.761   4
  -7   2  -1 659.614 168.012   2
  -7   2  -1 769.854 199.945   4
  -7   2   0-3.58133 147.988   2
  -7   2   0 139.159 186.820   4
  -7   2   1 118.811 185.975   4
  -7   2   1 178.664 153.265   2
  -7   2   2 1558.82 211.117   4
  -7   2   2 1150.25 174.428   2
  -7   2   5 884.063 180.283   1
  -7   3  -2 1014.07 197.891   4
  -7   3  -2 648.047 184.695   2
  -7   3  -1 374.465 167.407   2
  -7   3   0 252.914 159.513   2
  -7   3   1 282.581 161.797   2
  -7   3   2 100.449 154.171   2
  -7   3   3 403.588 146.953   2
  -7   3   4 449.972 147.310   2
  -7   4  -2 390.848 178.320   2
  -7   4  -1 843.153 194.295   2
  -7   4   0 51.1550 164.236   2
  -7   4   1 428.003 156.800   2
  -7   4   2 1312.54 178.155   2
  -7   4   3 8.24636 145.533   2
  -7   4   4 691.594 153.878   2
  -7   4   5 62.0622 146.101   2
  -7   5  -1 366.381 173.262   2
  -7   5   0 405.398 169.297   2
  -7   5   1 436.578 159.842   2
  -7   5   2 10.6663 155.093   2
  -7   5   3 145.911 154.204   2
  -7   5   4-84.9891 152.571   2
  -7   5   5 242.108 147.695   2
  -7   6   1 177.552 166.950   2
  -6  -2   0-96.4050 171.203   1
  -6  -2   0 74.0630 214.664   4
  -6  -2   1 348.258 172.662   1
  -6  -2   1 242.286 214.491   4
  -6  -2   2 150.444 179.184   1
  -6  -2   3 14.4859 176.309   1
  -6  -2   3-129.380 200.424   4
  -6  -2   4 639.690 188.280   1
  -6  -2   4 1032.19 209.364   4
  -6  -1  -3 155.590 203.974   4
  -6  -1  -3 128.141 163.016   2
  -6  -1  -2 561.613 155.915   2
  -6  -1  -2 161.978 194.654   4
  -6  -1  -2 274.327 153.852   1
  -6  -1  -1 460.729 164.441   1
  -6  -1  -1 771.305 198.348   4
  -6  -1  -1 625.746 151.171   2
  -6  -1   0 730.875 164.277   1
  -6  -1   0 657.648 198.100   4
  -6  -1   1 700.219 169.602   1
  -6  -1   1 727.411 195.927   4
  -6  -1   2 202.403 171.535   1
  -6  -1   3-117.408 169.308   1
  -6  -1   4 124.907 184.298   4
  -6  -1   4 321.561 174.598   1
  -6  -1   5 844.477 200.544   4
  -6  -1   5 969.808 187.184   1
  -6  -1   6 369.298 194.325   4
  -6  -1   6 739.020 182.491   1
  -6  -1   7 1105.60 194.539   1
  -6  -1   7 1135.75 210.260   4
  -6   0  -5 599.641 177.412   2
  -6   0  -5 999.367 202.862   4
  -6   0  -4 1204.61 188.638   2
  -6   0  -4 1425.68 212.311   4
  -6   0  -3 1326.99 181.810   2
  -6   0  -3 1470.72 213.814   4
  -6   0  -2 1580.66 204.648   4
  -6   0  -2 1480.83 183.261   2
  -6   0  -1 1500.83 205.450   4
  -6   0  -1 1223.03 170.749   2
  -6   0   0 455.119 176.375   4
  -6   0   0 580.695 136.819   2
  -6   0   1 303.270 123.466   2
  -6   0   1 332.821 170.224   4
  -6   0   2 496.040 153.978   1
  -6   0   2 568.604 122.681   2
  -6   0   3 134.859 150.671   1
  -6   0   4 615.518 167.929   4
  -6   0   4 341.465 160.667   1
  -6   0   5 238.914 160.809   1
  -6   0   5 114.906 166.662   4
  -6   0   6 278.355 165.257   1
  -6   0   6 189.981 168.846   4
  -6   0   7 299.792 171.819   1
  -6   0   7 89.3807 172.836   4
  -6   0   8 26.8085 175.835   4
  -6   0   8 390.733 178.603   1
  -6   1  -6 140.457 181.142   2
  -6   1  -6-42.5726 188.537   4
  -6   1  -5-93.4765 180.903   4
  -6   1  -5 153.634 169.074   2
  -6   1  -4 451.346 183.986   4
  -6   1  -4 293.664 160.156   2
  -6   1  -3 887.462 158.705   2
  -6   1  -3 831.376 182.047   4
  -6   1  -2 399.062 144.205   2
  -6   1  -2 347.785 167.789   4
  -6   1  -1 1300.04 165.899   2
  -6   1  -1 1339.60 183.407   4
  -6   1   0 1061.63 153.132   2
  -6   1   0 1151.85 173.435   4
  -6   1   1 2855.65 236.824   4
  -6   1   1 2684.48 212.978   2
  -6   1   2 522.676 129.132   2
  -6   1   2 502.860 165.482   4
  -6   1   3 408.263 121.338   2
  -6   1   4 82.7890 141.221   1
  -6   1   4 35.0178 161.199   4
  -6   1   4-37.7716 112.076   2
  -6   1   5 2095.95 202.583   1
  -6   1   5 2320.78 214.270   4
  -6   1   6 259.911 155.579   1
  -6   1   6 142.882 165.747   4
  -6   1   7 485.298 170.924   1
  -6   1   7 476.039 173.564   4
  -6   1   8 101.969 169.588   4
  -6   1   9 24.1740 173.796   4
  -6   2  -6 2209.30 234.852   2
  -6   2  -6 2883.06 238.482   4
  -6   2  -5 673.469 167.936   2
  -6   2  -5 531.036 172.644   4
  -6   2  -4 330.262 158.229   2
  -6   2  -4 520.422 165.979   4
  -6   2  -3 2260.01 209.632   4
  -6   2  -3 1936.22 199.868   2
  -6   2  -2 4696.10 322.090   4
  -6   2  -2 4402.27 315.550   2
  -6   2  -1 2491.82 218.939   4
  -6   2  -1 2290.44 207.897   2
  -6   2   0 105.839 132.474   2
  -6   2   1 2145.98 194.494   2
  -6   2   2 879.970 148.204   2
  -6   2   3 666.611 125.176   2
  -6   2   4 1698.21 161.161   2
  -6   2   5 467.685 113.583   2
  -6   2   6 903.032 127.643   2
  -6   2   8 429.787 170.709   1
  -6   2   9 107.197 166.297   1
  -6   3  -6 301.956 165.747   4
  -6   3  -6 330.248 172.501   2
  -6   3  -5 3176.55 274.211   2
  -6   3  -5 3857.56 274.217   4
  -6   3  -4 51.2960 156.570   4
  -6   3  -4 180.042 162.055   2
  -6   3  -3 1430.58 182.211   2
  -6   3  -2 1069.75 169.090   2
  -6   3  -1 1028.02 170.455   2
  -6   3   0 4725.44 320.719   2
  -6   3   1 3055.07 237.165   2
  -6   3   2 886.261 139.505   2
  -6   3   3 1376.66 155.342   2
  -6   3   4 249.600 123.702   2
  -6   3   5 2045.40 176.213   2
  -6   3   6 58.2549 115.133   2
  -6   3   7 403.499 148.161   1
  -6   3   7 281.381 115.551   2
  -6   3   8 133.544 119.249   2
  -6   3   8 270.679 152.054   1
  -6   3   9 464.006 169.070   1
  -6   4  -6 1113.45 196.799   2
  -6   4  -5 94.0225 171.293   2
  -6   4  -4 2467.26 229.216   2
  -6   4  -3 1325.73 189.487   2
  -6   4  -2 289.782 148.293   2
  -6   4  -1 8.50618 142.624   2
  -6   4   0 1588.59 171.897   2
  -6   4   1 22.8916 128.710   2
  -6   4   2 793.694 143.872   2
  -6   4   3 497.809 134.211   2
  -6   4   4 1186.56 147.749   2
  -6   4   5 145.416 122.312   2
  -6   4   6-11.1507 125.770   2
  -6   4   7 630.465 123.737   2
  -6   4   8 483.640 124.572   2
  -6   4   8 514.211 152.910   1
  -6   4   9 178.876 135.847   2
  -6   4   9 129.423 153.925   1
  -6   5  -6 163.613 179.187   2
  -6   5  -5 1882.23 223.428   2
  -6   5  -4 1839.18 215.397   2
  -6   5  -3 2038.93 206.933   2
  -6   5  -2 400.897 151.638   2
  -6   5  -1 2564.03 217.232   2
  -6   5   0 286.623 140.919   2
  -6   5   1 2336.34 208.055   2
  -6   5   2 4.45415 130.794   2
  -6   5   3 285.957 134.629   2
  -6   5   4 784.568 144.697   2
  -6   5   5 502.314 136.969   2
  -6   5   6 653.221 127.621   2
  -6   5   7 82.5886 131.061   2
  -6   5   8 234.065 139.379   2
  -6   6  -4 336.919 171.955   2
  -6   6  -3 546.383 163.094   2
  -6   6  -2 630.326 158.579   2
  -6   6  -1 521.223 157.284   2
  -6   6   0 810.801 160.209   2
  -6   6   1 261.101 139.044   2
  -6   6   2 468.957 145.476   2
  -6   6   3 183.734 141.608   2
  -6   6   4 114.380 137.795   2
  -6   6   5 70.9854 125.389   2
  -6   6   6 23.0786 135.184   2
  -6   6   7 698.411 162.816   2
  -6   7  -2 59.3201 164.950   2
  -6   7  -1 427.619 165.447   2
  -6   7   0 282.974 153.310   2
  -6   7   1 518.808 158.186   2
  -6   7   2 385.611 152.407   2
  -6   7   3 593.389 160.902   2
  -6   7   4 108.541 134.111   2
  -6   7   5 23.9482 144.568   2
  -5  -4   0-100.423 211.012   4
  -5  -4   2-147.885 183.958   1
  -5  -4   3 483.961 193.896   1
  -5  -4   3 376.969 210.344   4
  -5  -4   4 103.418 206.860   4
  -5  -4   4 83.3903 201.502   1
  -5  -3  -4 178.548 151.260   2
  -5  -3  -4 417.200 210.572   4
  -5  -3  -3 65.9554 138.815   2
  -5  -3  -3 62.2731 206.666   4
  -5  -3  -2 411.971 136.154   2
  -5  -3  -2 437.045 201.245   4
  -5  -3  -1 1366.72 211.301   4
  -5  -3  -1 1289.60 158.163   2
  -5  -3   0 368.369 191.615   4
  -5  -3   0 435.433 151.701   1
  -5  -3   1 178.886 154.895   1
  -5  -3   2 541.621 165.302   1
  -5  -3   3 699.266 200.181   4
  -5  -3   4 928.170 207.873   4
  -5  -3   4 799.010 179.671   1
  -5  -3   5 16.8207 194.095   4
  -5  -3   5-61.2227 172.654   1
  -5  -3   6 172.814 179.858   1
  -5  -3   6-187.659 197.171   4
  -5  -3   7 851.721 199.829   1
  -5  -3   7 323.949 201.431   4
  -5  -3   8 779.798 213.922   1
  -5  -3   8 766.431 209.813   4
  -5  -2  -6 943.598 207.683   4
  -5  -2  -6 705.639 178.088   2
  -5  -2  -5 588.499 198.850   4
  -5  -2  -5 452.781 166.043   2
  -5  -2  -4 331.120 155.511   2
  -5  -2  -4 509.763 188.334   4
  -5  -2  -3 491.175 188.148   4
  -5  -2  -3 535.437 149.278   2
  -5  -2  -2 512.618 186.170   4
  -5  -2  -2 242.837 137.950   2
  -5  -2  -2 487.173 142.278   1
  -5  -2  -1-82.4095 177.638   4
  -5  -2  -1-160.075 124.702   2
  -5  -2  -1 29.4282 143.629   1
  -5  -2   0 688.409 150.263   1
  -5  -2   0 663.511 173.248   4
  -5  -2   0 696.888 124.827   2
  -5  -2   1 1406.85 137.561   2
  -5  -2   1 1378.97 173.099   1
  -5  -2   2 108.151 145.345   1
  -5  -2   3 498.157 148.984   1
  -5  -2   3 309.127 170.750   4
  -5  -2   4 2078.39 208.644   4
  -5  -2   4 1672.23 190.784   1
  -5  -2   5 1326.58 179.151   1
  -5  -2   5 1192.86 192.101   4
  -5  -2   6 68.5549 161.595   1
  -5  -2   6-38.2185 174.060   4
  -5  -2   7-39.0613 167.365   1
  -5  -2   7 31.1684 174.113   4
  -5  -2   8 158.572 173.707   1
  -5  -2   8 26.3391 176.731   4
  -5  -2   9 382.287 179.593   4
  -5  -2   9 343.917 188.801   1
  -5  -1  -7 522.280 186.304   2
  -5  -1  -7 989.643 198.027   4
  -5  -1  -6 298.490 173.751   2
  -5  -1  -6 425.595 182.244   4
  -5  -1  -5 708.078 185.094   4
  -5  -1  -5 432.363 166.416   2
  -5  -1  -4 765.623 182.157   4
  -5  -1  -4 706.485 155.163   2
  -5  -1  -3 546.943 170.885   4
  -5  -1  -3 598.651 145.715   2
  -5  -1  -2 643.609 136.067   2
  -5  -1  -2 615.899 168.771   4
  -5  -1  -1 2350.56 194.675   2
  -5  -1  -1 2503.83 221.214   4
  -5  -1   0 1636.48 167.640   1
  -5  -1   0 1682.40 159.911   2
  -5  -1   0 1828.25 188.240   4
  -5  -1   1 686.334 137.991   1
  -5  -1   1 847.321 118.803   2
  -5  -1   1 827.863 161.214   4
  -5  -1   2 274.995 97.9177   2
  -5  -1   2 141.133 131.822   1
  -5  -1   3 209.174 87.2939   2
  -5  -1   3 302.183 137.232   1
  -5  -1   3-12.5624 151.250   4
  -5  -1   4 3299.45 223.638   1
  -5  -1   4 3320.16 236.157   4
  -5  -1   5 1464.11 179.132   4
  -5  -1   5 1351.76 172.218   1
  -5  -1   6 1492.25 177.762   1
  -5  -1   6 1768.30 189.947   4
  -5  -1   7 707.902 156.964   1
  -5  -1   7 587.817 162.349   4
  -5  -1   8 691.086 174.044   4
  -5  -1   8 787.803 165.385   1
  -5  -1   9 104.552 169.395   1
  -5  -1   9 306.428 167.156   4
  -5  -1  10 363.145 170.147   4
  -5   0  -8 675.493 190.005   2
  -5   0  -7 543.685 174.910   2
  -5   0  -7 744.501 183.356   4
  -5   0  -6 1512.00 195.330   4
  -5   0  -6 1301.68 183.372   2
  -5   0  -5 1505.31 184.739   2
  -5   0  -5 1826.05 196.376   4
  -5   0  -4 3718.17 285.234   2
  -5   0  -4 4388.78 298.491   4
  -5   0  -3-45.7937 149.215   4
  -5   0  -3 53.6717 136.675   2
  -5   0  -2 3710.11 262.895   4
  -5   0  -2 3394.85 250.265   2
  -5   0  -1 272.495 116.435   2
  -5   0  -1 199.972 139.692   4
  -5   0   0 1295.20 135.047   2
  -5   0   0 1090.24 153.092   4
  -5   0   1 640.758 112.655   2
  -5   0   1 672.031 142.555   4
  -5   0   2 149.025 99.9694   2
  -5   0   3 5875.73 371.017   1
  -5   0   3 5835.71 359.240   2
  -5   0   4 2165.15 167.814   2
  -5   0   4 2703.77 205.981   4
  -5   0   4 2614.92 197.051   1
  -5   0   5 171.868 131.989   1
  -5   0   5 94.9408 75.2769   2
  -5   0   5 104.612 140.271   4
  -5   0   6 5087.71 266.976   4
  -5   0   6 4796.52 260.905   1
  -5   0   7 2204.99 199.020   4
  -5   0   7 1944.42 196.032   1
  -5   0   8 308.565 148.395   4
  -5   0   9 283.700 149.146   4
  -5   0  10 136.941 149.531   4
  -5   0  10 229.823 165.182   1
  -5   0  11 162.461 176.188   1
  -5   0  11 119.682 154.664   4
  -5   1  -8 1165.50 192.195   2
  -5   1  -7 327.238 156.494   4
  -5   1  -7 111.592 168.170   2
  -5   1  -6 601.847 156.545   2
  -5   1  -6 753.289 160.413   4
  -5   1  -5 6235.93 369.115   4
  -5   1  -5 4950.10 363.607   2
  -5   1  -4 1333.10 160.933   2
  -5   1  -4 1574.06 170.357   4
  -5   1  -3 3881.68 281.665   2
  -5   1  -3 4186.41 280.532   4
  -5   1  -2 2627.82 209.776   4
  -5   1  -2 2574.75 204.933   2
  -5   1  -1 6355.29 400.788   2
  -5   1  -1 6417.03 404.196   4
  -5   1   0 8659.26 531.815   4
  -5   1   0 8726.77 530.034   2
  -5   1   1 446.293 114.919   2
  -5   1   2 3889.00 261.234   2
  -5   1   3 2389.84 178.814   2
  -5   1   4 1126.21 119.238   2
  -5   1   5 378.781 123.691   1
  -5   1   5 266.561 90.1708   2
  -5   1   6 274.576 74.1930   2
  -5   1   6 312.995 90.4875   2
  -5   1   7 1296.83 117.755   2
  -5   1   8 3702.22 234.022   1
  -5   1   8 2531.28 193.063   2
  -5   1   9 240.954 149.816   1
  -5   1  10 954.624 165.509   1
  -5   1  11 931.479 163.747   4
  -5   1  11 747.228 174.637   1
  -5   2  -9 133.084 182.883   2
  -5   2  -8 991.568 180.585   2
  -5   2  -7 176.970 146.427   2
  -5   2  -7 344.388 151.244   4
  -5   2  -6 690.457 159.037   2
  -5   2  -6 759.641 146.782   4
  -5   2  -5 297.247 137.924   4
  -5   2  -5 165.597 135.390   2
  -5   2  -4 3883.57 262.761   4
  -5   2  -4 3523.39 265.406   2
  -5   2  -3 3364.76 248.033   2
  -5   2  -2 1081.12 147.368   2
  -5   2  -1 2936.99 223.500   2
  -5   2   0 323.798 116.852   2
  -5   2   1 1389.20 143.258   2
  -5   2   2 9123.11 550.208   2
  -5   2   3 189.321 103.442   2
  -5   2   4 854.661 113.280   2
  -5   2   5 1559.80 137.610   2
  -5   2   6 1038.54 143.282   1
  -5   2   6 905.310 105.262   2
  -5   2   6 1160.63 117.187   2
  -5   2   7 1711.59 144.697   2
  -5   2   7 1728.68 144.418   2
  -5   2   7 2145.05 174.242   1
  -5   2   8 763.498 145.133   1
  -5   2   8 687.617 111.653   2
  -5   2   9 1634.30 149.963   2
  -5   2   9 1934.42 184.280   1
  -5   2  10 294.436 152.702   1
  -5   2  11-1.11692 153.629   1
  -5   2  12 548.203 171.282   1
  -5   3  -7 3475.46 289.838   2
  -5   3  -7 4283.72 274.927   4
  -5   3  -6 2507.25 239.322   2
  -5   3  -6 3491.52 232.528   4
  -5   3  -5 633.656 152.279   2
  -5   3  -4 355.686 140.111   2
  -5   3  -3 2547.17 210.726   2
  -5   3  -2 9400.43 594.304   3
  -5   3  -2 10374.9 603.818   2
  -5   3  -1 8741.89 506.175   2
  -5   3  -1 7748.50 494.756   3
  -5   3   0 1036.40 107.328   3
  -5   3   0 1007.25 128.514   2
  -5   3   1 4372.85 275.688   2
  -5   3   1 3814.77 259.952   3
  -5   3   2 1284.16 126.395   3
  -5   3   2 1274.27 136.547   2
  -5   3   3 3002.07 210.979   2
  -5   3   3 2934.16 200.267   3
  -5   3   4 1501.80 133.892   3
  -5   3   4 1736.24 147.294   2
  -5   3   5 168.081 90.7157   2
  -5   3   5 308.776 96.4629   2
  -5   3   6 995.105 112.366   2
  -5   3   6 1056.58 119.708   2
  -5   3   7 320.856 126.957   1
  -5   3   7 263.927 100.155   2
  -5   3   7 292.125 107.684   2
  -5   3   8 232.132 109.919   2
  -5   3   8-16.6203 101.167   2
  -5   3   8 160.093 130.183   1
  -5   3   9 357.977 148.492   1
  -5   3   9 315.476 147.988   2
  -5   3  10 1454.84 169.388   1
  -5   3  10 989.122 147.127   2
  -5   3  11 99.3134 126.440   2
  -5   3  11 277.979 154.391   1
  -5   4  -9 723.311 188.872   2
  -5   4  -5 2974.23 235.349   2
  -5   4  -5 2774.67 189.469   6
  -5   4  -4 1325.49 105.546   6
  -5   4  -4 1735.41 173.135   2
  -5   4  -3 67.3469 128.067   2
  -5   4  -3 94.5757 95.8449   3
  -5   4  -2 1511.32 153.655   2
  -5   4  -2 1253.25 131.606   3
  -5   4  -1 1169.99 145.004   2
  -5   4  -1 1308.56 125.137   3
  -5   4   0 2001.28 169.663   2
  -5   4   0 1754.47 141.850   3
  -5   4   1 4492.33 288.497   2
  -5   4   1 4233.53 274.012   3
  -5   4   2 2504.24 175.276   3
  -5   4   2 2463.64 191.603   2
  -5   4   3 2731.44 196.960   2
  -5   4   3 2452.97 175.288   3
  -5   4   4 439.876 102.793   2
  -5   4   4 413.417 87.6636   3
  -5   4   5 475.315 91.2543   3
  -5   4   5 577.926 120.778   2
  -5   4   6 1740.39 153.853   3
  -5   4   6 2043.02 168.991   2
  -5   4   7 523.167 127.978   2
  -5   4   8 168.153 125.704   1
  -5   4   8 241.905 162.097   2
  -5   4   9 706.863 139.834   1
  -5   4   9 483.355 134.064   2
  -5   4  10 262.183 144.278   1
  -5   4  10 213.417 132.635   2
  -5   4  11 114.118 148.840   1
  -5   4  11 213.148 131.243   2
  -5   5  -8 320.459 177.446   2
  -5   5  -7 3847.02 297.793   2
  -5   5  -4 2826.62 199.461   3
  -5   5  -4 2647.97 182.804   6
  -5   5  -3 3184.63 202.026   3
  -5   5  -3 2563.79 225.048   2
  -5   5  -2 547.483 95.6325   3
  -5   5  -2 471.157 129.899   2
  -5   5  -1 3788.74 241.892   3
  -5   5  -1 3665.00 264.421   2
  -5   5   0 3136.23 228.388   2
  -5   5   1 6.76297 53.4196   6
  -5   5   1 106.060 111.077   2
  -5   5   2 353.945 70.2894   6
  -5   5   2 352.115 120.175   2
  -5   5   3 1300.54 147.479   2
  -5   5   3 1939.36 128.367   6
  -5   5   4 379.949 116.571   2
  -5   5   4 334.779 89.2504   6
  -5   5   4 470.892 85.7807   3
  -5   5   5 787.928 95.0491   3
  -5   5   5 785.293 130.024   2
  -5   5   6-92.4901 128.114   2
  -5   5   7 538.645 171.118   2
  -5   5   8 169.410 131.099   2
  -5   5   9 127.993 134.299   2
  -5   5   9 268.788 128.942   1
  -5   5  10 423.727 143.796   1
  -5   5  10 369.696 139.430   2
  -5   6  -8 2535.17 248.679   2
  -5   6  -7 1169.23 199.404   2
  -5   6  -6 577.301 170.792   2
  -5   6  -5 2226.16 219.929   2
  -5   6  -5 2504.10 203.934   5
  -5   6  -4 1934.49 181.504   5
  -5   6  -3 1721.51 166.581   5
  -5   6  -2 1488.06 155.901   5
  -5   6  -1 1513.43 177.689   2
  -5   6  -1 2262.53 167.841   5
  -5   6   0 340.626 122.300   2
  -5   6   0 418.147 108.021   5
  -5   6   1 2127.53 204.335   2
  -5   6   1 2762.22 178.552   5
  -5   6   2 1737.17 175.830   2
  -5   6   2 2154.70 143.881   5
  -5   6   3-30.3711 120.359   2
  -5   6   4 946.548 143.737   2
  -5   6   5 415.029 126.950   2
  -5   6   6 1510.70 180.857   2
  -5   6   7 563.917 191.410   2
  -5   6   8 31.8477 148.576   2
  -5   6   9-114.781 131.268   1
  -5   6   9 120.008 148.081   2
  -5   7  -6 957.818 188.196   2
  -5   7  -6 1145.22 178.194   5
  -5   7  -5 954.303 174.476   5
  -5   7  -5 778.689 170.709   2
  -5   7  -4 1241.05 183.439   2
  -5   7  -4 1704.99 176.596   5
  -5   7  -3 419.613 156.718   2
  -5   7  -3 450.328 135.513   5
  -5   7  -2 2679.09 207.017   5
  -5   7  -1 981.433 134.045   5
  -5   7   0 79.2686 105.873   5
  -5   7   1 46.0077 95.3767   5
  -5   7   1 85.8458 132.458   2
  -5   7   2 339.468 127.400   2
  -5   7   3 681.746 151.526   2
  -5   7   4 137.702 135.808   2
  -5   7   5 300.848 146.740   2
  -5   7   6 205.264 176.880   2
  -5   7   7 139.720 182.824   2
  -5   7   8 484.354 170.690   2
  -5   8  -4 560.208 176.771   2
  -5   8  -4 775.433 150.764   5
  -5   8  -3 546.931 166.165   2
  -5   8  -3 680.155 148.103   5
  -5   8  -2 1470.54 156.936   5
  -5   8  -2 1164.88 175.287   2
  -5   8  -1-131.041 149.216   2
  -5   8  -1-43.4213 121.911   5
  -5   8   3 333.304 160.046   2
  -5   8   4 169.782 153.278   2
  -5   8   5 136.087 161.118   2
  -4  -5  -2 193.769 188.918   4
  -4  -5  -1 267.300 194.391   4
  -4  -5   2 1094.77 198.683   1
  -4  -5   2 1112.53 204.883   4
  -4  -5   3 30.4741 189.818   1
  -4  -5   3 222.808 187.704   4
  -4  -5   4 325.874 205.413   1
  -4  -5   4 13.9586 189.915   4
  -4  -5   5 67.9574 190.520   4
  -4  -5   5 249.826 209.105   1
  -4  -5   6 248.871 234.202   1
  -4  -5   6 81.6319 190.627   4
  -4  -4  -5 350.652 186.621   4
  -4  -4  -5 181.687 153.125   2
  -4  -4  -4 143.340 143.352   2
  -4  -4  -4 10.6328 184.864   4
  -4  -4  -3 686.357 143.426   2
  -4  -4  -3 671.321 188.747   4
  -4  -4  -2 191.651 121.234   2
  -4  -4  -2 307.824 180.335   4
  -4  -4  -1 363.283 118.231   2
  -4  -4  -1 697.296 180.845   4
  -4  -4   0 234.599 103.965   2
  -4  -4   0 326.539 146.137   1
  -4  -4   0 254.104 179.919   4
  -4  -4   1 205.705 154.402   1
  -4  -4   2 65.4600 160.427   1
  -4  -4   2 91.2922 180.889   4
  -4  -4   3 1349.99 203.819   4
  -4  -4   3 1453.60 192.597   1
  -4  -4   4 9.20198 168.750   1
  -4  -4   4-161.193 177.313   4
  -4  -4   5 178.084 177.811   4
  -4  -4   5 320.660 182.358   1
  -4  -4   6 281.777 185.309   1
  -4  -4   6 118.147 182.898   4
  -4  -4   7 234.579 199.732   1
  -4  -4   7 234.461 179.827   4
  -4  -4   8 633.910 209.993   1
  -4  -4   8 245.505 184.138   4
  -4  -4   9 1086.86 198.079   4
  -4  -4   9 1438.16 240.363   1
  -4  -3  -7 150.756 160.799   2
  -4  -3  -6 1072.40 171.708   2
  -4  -3  -6 1284.83 192.212   4
  -4  -3  -5 172.089 140.295   2
  -4  -3  -5 399.821 177.850   4
  -4  -3  -4 474.923 173.047   4
  -4  -3  -4 459.325 137.125   2
  -4  -3  -3 176.529 177.194   4
  -4  -3  -3 413.058 126.051   2
  -4  -3  -2 1216.23 182.568   4
  -4  -3  -2 1210.65 141.334   2
  -4  -3  -2 1223.15 141.553   1
  -4  -3  -1 1122.44 135.254   1
  -4  -3  -1 782.096 129.052   2
  -4  -3  -1 771.130 165.378   4
  -4  -3   0 115.884 122.110   1
  -4  -3   0-48.5502 157.718   4
  -4  -3   0 120.364 95.8437   2
  -4  -3   1 1669.29 164.993   1
  -4  -3   1 1558.12 130.731   2
  -4  -3   2 2226.91 159.537   2
  -4  -3   2 2407.62 222.010   4
  -4  -3   2 2627.01 198.934   1
  -4  -3   3 591.697 142.256   1
  -4  -3   3 356.950 48.4957   2
  -4  -3   3 811.630 167.272   4
  -4  -3   4 1181.33 166.682   1
  -4  -3   4 1691.85 191.534   4
  -4  -3   5 1517.48 193.718   4
  -4  -3   5 1296.48 176.224   1
  -4  -3   6 3511.85 279.372   1
  -4  -3   6 3914.43 286.469   4
  -4  -3   7 930.281 180.075   4
  -4  -3   7 664.698 178.858   1
  -4  -3   8 1242.93 200.274   1
  -4  -3   8 1498.48 193.519   4
  -4  -3   9 355.776 165.292   4
  -4  -3   9 425.201 190.963   1
  -4  -3  10 316.262 163.543   4
  -4  -3  10 344.374 206.627   1
  -4  -2  -8 493.328 163.917   4
  -4  -2  -8 492.535 172.383   2
  -4  -2  -7 2340.79 219.912   4
  -4  -2  -7 2160.47 216.630   2
  -4  -2  -6 288.065 151.117   2
  -4  -2  -6 708.959 167.806   4
  -4  -2  -5 829.615 172.767   4
  -4  -2  -5 589.439 149.130   2
  -4  -2  -4 984.001 122.753   1
  -4  -2  -4 926.153 152.768   2
  -4  -2  -4 1108.71 169.659   4
  -4  -2  -3 5257.40 339.105   4
  -4  -2  -3 4964.91 329.468   2
  -4  -2  -3 4857.97 315.934   1
  -4  -2  -2 5289.07 330.277   2
  -4  -2  -2 5392.24 345.319   4
  -4  -2  -2 4699.54 317.106   1
  -4  -2  -2 5098.13 323.574   1
  -4  -2  -1 1537.51 174.398   4
  -4  -2  -1 1555.03 149.500   2
  -4  -2  -1 1392.91 135.287   1
  -4  -2  -1 1703.19 151.931   1
  -4  -2   0 3319.33 221.193   2
  -4  -2   0 3204.05 220.389   1
  -4  -2   0 3247.35 229.322   1
  -4  -2   0 3211.78 243.098   4
  -4  -2   1 258.173 103.830   1
  -4  -2   1 268.176 89.3211   2
  -4  -2   1 294.107 119.103   1
  -4  -2   2 1079.30 137.797   1
  -4  -2   2 1025.70 98.3743   2
  -4  -2   2 903.609 124.738   1
  -4  -2   3 3892.40 251.158   4
  -4  -2   3 3861.07 237.826   1
  -4  -2   3 3119.39 200.968   2
  -4  -2   4 1901.16 174.787   1
  -4  -2   4 2109.49 193.216   4
  -4  -2   5 4469.71 293.188   4
  -4  -2   5 3908.08 283.079   1
  -4  -2   6 1363.73 168.085   1
  -4  -2   6 1600.75 175.875   4
  -4  -2   7 551.172 111.518   5
  -4  -2   7 429.845 144.748   1
  -4  -2   7 407.537 151.133   4
  -4  -2   8 433.432 155.036   4
  -4  -2   8 531.599 156.581   1
  -4  -2   9 1399.79 198.804   1
  -4  -2   9 1562.65 181.317   4
  -4  -2  10 1156.10 171.301   4
  -4  -2  11 770.049 164.870   4
  -4  -1  -9 31.7116 176.145   2
  -4  -1  -8 582.491 160.860   4
  -4  -1  -8 531.651 174.854   2
  -4  -1  -7 10.7675 156.909   2
  -4  -1  -7 63.9978 156.619   4
  -4  -1  -6 2795.77 236.597   2
  -4  -1  -6 3057.98 237.330   4
  -4  -1  -5 2063.23 194.170   4
  -4  -1  -5 1704.73 182.711   2
  -4  -1  -4 4356.47 281.147   2
  -4  -1  -4 4655.16 287.331   4
  -4  -1  -3 962.718 142.936   4
  -4  -1  -3 884.208 131.578   2
  -4  -1  -3 852.769 104.753   1
  -4  -1  -2 4125.71 283.176   1
  -4  -1  -2 4791.07 302.556   4
  -4  -1  -2 4687.22 295.521   2
  -4  -1  -1 313.937 125.783   4
  -4  -1  -1 320.079 106.682   2
  -4  -1   0 3265.27 231.554   4
  -4  -1   0 3014.00 211.439   1
  -4  -1   0 3232.33 216.126   2
  -4  -1   1 7293.61 431.209   2
  -4  -1   1 6875.70 432.416   1
  -4  -1   1 7157.31 434.672   1
  -4  -1   2 9486.62 578.935   1
  -4  -1   2 9861.71 580.471   1
  -4  -1   2 9713.26 572.761   2
  -4  -1   3 909.865 88.3746   2
  -4  -1   3 1086.41 130.238   1
  -4  -1   3 861.084 137.153   4
  -4  -1   3 943.500 116.869   1
  -4  -1   4 5665.66 266.930   1
  -4  -1   4 5797.96 271.823   4
  -4  -1   5 1986.29 176.965   4
  -4  -1   5 1987.42 172.390   1
  -4  -1   6 2113.87 178.118   1
  -4  -1   6 2064.33 183.334   4
  -4  -1   7 65.8512 128.053   1
  -4  -1   7 279.187 89.9789   5
  -4  -1   7 287.431 130.852   4
  -4  -1   8 4589.71 276.846   4
  -4  -1   8 3340.92 255.088   5
  -4  -1   9-126.883 136.491   4
  -4  -1  10 292.613 143.213   4
  -4  -1  10 258.591 162.937   1
  -4  -1  11 159.685 141.236   4
  -4  -1  11 220.287 180.508   1
  -4  -1  12 900.296 203.167   1
  -4   0 -10 78.0466 183.884   2
  -4   0  -9 316.869 172.868   2
  -4   0  -8 3414.74 283.145   2
  -4   0  -8 4155.88 273.928   4
  -4   0  -7 432.847 148.374   4
  -4   0  -7 622.588 153.298   2
  -4   0  -6 303.285 135.291   4
  -4   0  -6 55.6494 100.188   1
  -4   0  -6 137.448 136.637   2
  -4   0  -5 3649.57 252.172   2
  -4   0  -5 3945.64 248.359   4
  -4   0  -4 1595.72 135.376   1
  -4   0  -4 1773.36 161.988   4
  -4   0  -4 1448.81 160.737   2
  -4   0  -3 8276.48 526.279   1
  -4   0  -3 8769.45 534.126   2
  -4   0  -3 9615.98 536.669   4
  -4   0  -2 243.895 87.3594   1
  -4   0  -2 263.355 108.173   4
  -4   0  -2 310.547 99.0459   2
  -4   0  -1 2493.57 188.036   4
  -4   0  -1 2642.28 178.956   1
  -4   0  -1 2725.84 184.435   2
  -4   0  -1 2224.99 176.584   3
  -4   0   0 326.449 87.0635   1
  -4   0   0 364.763 84.5630   3
  -4   0   0 436.367 94.5669   2
  -4   0   0 450.033 109.125   4
  -4   0   1 4306.15 260.323   2
  -4   0   1 3817.12 260.785   3
  -4   0   1 3985.47 259.256   1
  -4   0   1 4159.32 270.305   4
  -4   0   2 3571.24 215.303   2
  -4   0   2 3322.24 217.940   1
  -4   0   2 2884.32 214.653   3
  -4   0   3 1725.56 143.074   1
  -4   0   3 1833.87 142.643   1
  -4   0   3 1776.08 130.545   2
  -4   0   3 1755.50 156.481   4
  -4   0   3 1507.05 133.009   3
  -4   0   4 4148.38 265.217   1
  -4   0   4 4167.34 251.676   2
  -4   0   4 4329.27 270.972   4
  -4   0   4 4117.57 263.639   1
  -4   0   4 3455.33 258.433   3
  -4   0   5 4042.70 269.871   2
  -4   0   5 4349.42 273.689   2
  -4   0   5 5764.98 298.040   1
  -4   0   5 6007.43 300.494   4
  -4   0   6 2292.39 157.033   2
  -4   0   6 2404.15 155.397   2
  -4   0   7 137.438 47.9401   2
  -4   0   7 129.786 74.0340   5
  -4   0   7 114.781 51.3697   2
  -4   0   7 145.569 119.951   4
  -4   0   8 3780.49 243.943   2
  -4   0   8 4401.30 255.886   5
  -4   0   8 3562.82 242.661   2
  -4   0   9 3242.58 194.987   4
  -4   0   9 3004.56 200.191   1
  -4   0  10 1000.72 145.008   4
  -4   0  10 1022.38 157.980   1
  -4   0  11 1138.52 176.077   1
  -4   0  11 1138.40 151.754   4
  -4   0  12 78.0778 174.192   1
  -4   0  13 494.223 195.523   1
  -4   1  -8 3588.63 292.604   2
  -4   1  -8 4300.32 279.312   4
  -4   1  -7 2695.15 196.031   4
  -4   1  -7 1960.91 202.774   2
  -4   1  -6 3252.85 251.615   2
  -4   1  -6 3234.16 241.035   1
  -4   1  -5 1153.11 142.886   2
  -4   1  -5 1357.27 139.386   4
  -4   1  -5 1051.39 122.357   1
  -4   1  -4 4411.31 292.354   2
  -4   1  -4 3858.70 277.028   1
  -4   1  -4 4857.54 285.315   4
  -4   1  -3 1672.86 146.040   4
  -4   1  -3 1707.73 148.759   2
  -4   1  -3 1397.67 127.409   1
  -4   1  -3 1649.91 141.058   3
  -4   1  -2 5672.81 346.421   4
  -4   1  -2 6132.21 351.302   2
  -4   1  -2 5333.66 342.115   3
  -4   1  -2 5137.33 339.214   1
  -4   1  -1 1649.53 138.806   2
  -4   1  -1 1339.51 119.728   3
  -4   1  -1 1442.17 123.116   1
  -4   1   0 5572.52 327.053   2
  -4   1   0 4871.10 319.809   3
  -4   1   0 5193.72 321.925   1
  -4   1   1 1828.27 136.662   2
  -4   1   1 1686.69 134.281   1
  -4   1   1 1652.54 133.258   3
  -4   1   2 6593.91 377.823   2
  -4   1   2 6071.66 378.869   1
  -4   1   2 5933.77 377.319   3
  -4   1   3 2390.96 158.445   2
  -4   1   3 2334.45 163.818   1
  -4   1   3 2092.99 157.226   3
  -4   1   4 1263.30 120.268   1
  -4   1   4 1226.57 108.377   3
  -4   1   4 1215.72 104.506   2
  -4   1   5 2358.09 159.170   2
  -4   1   5 2414.61 170.885   3
  -4   1   5 2288.38 156.107   2
  -4   1   6 4360.03 259.978   2
  -4   1   6 4077.02 258.824   2
  -4   1   7 5624.50 340.203   2
  -4   1   7 5894.38 339.146   2
  -4   1   7 4804.61 332.893   5
  -4   1   8 274.769 64.6339   5
  -4   1   8 361.642 124.306   1
  -4   1   8 305.403 82.3090   2
  -4   1   8 309.772 110.262   2
  -4   1   9 65.8581 91.9781   2
  -4   1   9 95.4623 126.047   1
  -4   1   9 85.7388 86.6655   2
  -4   1  10 754.113 143.447   1
  -4   1  10 585.383 96.8705   2
  -4   1  11 326.031 149.953   1
  -4   1  12 1316.98 184.765   1
  -4   1  13-19.6231 180.462   1
  -4   2 -11 959.322 200.355   2
  -4   2 -10 163.475 176.750   2
  -4   2  -8 2774.92 209.234   4
  -4   2  -7 3669.01 251.536   4
  -4   2  -6 1924.92 157.394   4
  -4   2  -6 1548.65 170.507   2
  -4   2  -5 4272.75 293.002   2
  -4   2  -5 3652.25 280.039   1
  -4   2  -4 8237.70 468.741   2
  -4   2  -4 7341.01 459.008   3
  -4   2  -4 7143.15 458.537   1
  -4   2  -3 3642.98 261.006   1
  -4   2  -3 4514.85 275.457   2
  -4   2  -3 4163.10 263.164   3
  -4   2  -2 3035.89 192.420   3
  -4   2  -2 2984.89 203.626   2
  -4   2  -1 6677.65 423.961   1
  -4   2  -1 6849.54 421.982   3
  -4   2  -1 7646.00 430.889   2
  -4   2   0 4138.33 254.593   2
  -4   2   0 3770.58 251.999   1
  -4   2   0 3960.14 249.306   3
  -4   2   1 11284.1 648.420   3
  -4   2   1 10257.0 647.684   1
  -4   2   1 11230.6 650.169   2
  -4   2   2 226.914 84.6825   1
  -4   2   2 321.657 78.7332   2
  -4   2   2 316.948 74.4947   3
  -4   2   3 6333.24 365.285   2
  -4   2   3 5658.47 362.130   3
  -4   2   4 3781.63 248.422   2
  -4   2   4 3898.30 251.955   3
  -4   2   5 670.120 91.8937   2
  -4   2   5 629.469 101.692   1
  -4   2   5 713.500 86.8397   2
  -4   2   5 778.872 108.396   4
  -4   2   5 702.443 94.6877   3
  -4   2   6 4022.29 258.057   2
  -4   2   6 3768.37 254.588   4
  -4   2   6 3905.21 252.879   2
  -4   2   6 3924.11 258.475   3
  -4   2   6 4199.54 261.864   1
  -4   2   7 2319.28 119.855   2
  -4   2   7 2615.36 143.974   1
  -4   2   7 2340.86 128.658   2
  -4   2   7 2424.27 133.913   4
  -4   2   8 6146.75 336.446   2
  -4   2   8 5604.95 336.070   2
  -4   2   9 2529.76 188.009   2
  -4   2   9 2382.29 187.235   2
  -4   2  10 384.720 129.028   1
  -4   2  10 71.8419 103.625   2
  -4   2  11 1627.89 170.332   1
  -4   2  11 1214.61 142.271   2
  -4   2  12 34.4418 113.638   2
  -4   2  12 86.0831 146.833   1
  -4   2  13 81.0221 161.598   1
  -4   3 -11-42.2249 148.334   6
  -4   3 -11 67.7261 179.165   2
  -4   3 -10 4266.67 330.391   2
  -4   3 -10 4936.50 314.800   6
  -4   3  -9 950.790 167.322   2
  -4   3  -9 1102.81 142.166   6
  -4   3  -8 1375.94 136.578   4
  -4   3  -8 1107.64 167.512   2
  -4   3  -8 1325.94 140.845   6
  -4   3  -7 5447.42 342.782   6
  -4   3  -6 264.892 106.751   4
  -4   3  -6 442.235 98.3630   6
  -4   3  -5 4679.65 317.569   3
  -4   3  -5 4983.24 316.263   4
  -4   3  -5 5129.65 308.671   6
  -4   3  -4 5479.73 318.698   6
  -4   3  -4 5425.72 343.615   2
  -4   3  -4 4689.40 324.979   3
  -4   3  -3 4078.30 288.327   1
  -4   3  -3 4472.05 271.531   6
  -4   3  -3 4491.66 284.853   3
  -4   3  -3 4613.61 295.638   2
  -4   3  -3 5069.10 289.341   4
  -4   3  -2 8378.09 369.289   4
  -4   3  -2 7913.41 374.738   2
  -4   3  -2 7640.12 365.616   3
  -4   3  -1 3038.86 198.468   2
  -4   3  -1 3202.62 195.242   4
  -4   3  -1 2677.83 184.388   3
  -4   3  -1 2399.27 187.015   1
  -4   3   0 1430.00 120.228   4
  -4   3   0 1200.54 121.278   1
  -4   3   0 1463.31 127.625   2
  -4   3   0 1350.09 110.103   3
  -4   3   1 2759.50 182.627   3
  -4   3   1 2719.98 190.787   2
  -4   3   1 2848.27 190.829   4
  -4   3   2 5960.54 369.624   3
  -4   3   2 6404.25 378.088   2
  -4   3   3 1570.05 127.167   1
  -4   3   3 1520.45 119.958   2
  -4   3   3 1210.74 109.730   3
  -4   3   4 253.615 91.1492   1
  -4   3   4 249.099 87.6536   2
  -4   3   4 258.082 98.1359   4
  -4   3   4 361.410 73.5495   3
  -4   3   5 4234.30 273.473   3
  -4   3   5 4651.96 284.012   4
  -4   3   5 4356.15 278.471   1
  -4   3   5 3957.01 274.262   2
  -4   3   5 4680.60 287.631   2
  -4   3   6 1891.14 152.492   2
  -4   3   6 2127.11 161.573   2
  -4   3   6 1993.25 152.720   3
  -4   3   7 1156.36 126.555   2
  -4   3   7 1334.43 133.027   1
  -4   3   7 944.767 119.338   3
  -4   3   7 1245.85 119.602   2
  -4   3   8 2388.98 162.925   1
  -4   3   8 1883.61 150.865   2
  -4   3   8 1613.08 111.284   5
  -4   3   8 2091.59 154.655   2
  -4   3   9 3027.83 207.392   1
  -4   3   9 2325.32 198.057   2
  -4   3  10 222.122 112.923   2
  -4   3  10 209.356 132.084   1
  -4   3  11 61.1237 117.523   2
  -4   3  11 224.203 135.598   1
  -4   3  12 152.882 142.147   1
  -4   3  12 145.979 127.497   2
  -4   4 -11 1255.08 172.973   6
  -4   4 -10 1611.71 170.557   6
  -4   4 -10 1550.87 201.209   2
  -4   4  -9 1709.31 200.134   2
  -4   4  -9 2064.56 172.729   6
  -4   4  -8 1545.20 185.654   2
  -4   4  -8 1784.12 158.810   6
  -4   4  -7 307.457 106.206   6
  -4   4  -7 371.842 140.530   2
  -4   4  -6 7718.74 431.158   4
  -4   4  -6 6644.24 431.468   3
  -4   4  -6 7014.01 425.322   6
  -4   4  -6 6538.77 445.110   2
  -4   4  -5 3135.26 223.241   3
  -4   4  -5 3763.49 229.209   4
  -4   4  -5 3124.74 215.431   6
  -4   4  -4 789.208 115.220   4
  -4   4  -4 695.019 109.126   3
  -4   4  -3 4052.03 283.782   3
  -4   4  -3 5476.38 296.487   4
  -4   4  -2 8277.42 455.554   4
  -4   4  -2 7007.35 446.511   3
  -4   4  -2 8130.80 451.389   5
  -4   4  -2 6615.38 457.822   2
  -4   4  -1 8472.39 466.544   4
  -4   4  -1 7062.83 455.909   3
  -4   4  -1 8368.79 458.323   5
  -4   4  -1 6858.16 465.592   2
  -4   4   0 7643.18 417.150   4
  -4   4   0 6536.03 415.650   2
  -4   4   0 7481.28 406.734   5
  -4   4   0 5963.54 403.786   3
  -4   4   1 7140.52 437.267   1
  -4   4   1 7334.85 440.987   2
  -4   4   1 6713.84 429.133   3
  -4   4   2 1361.83 111.080   3
  -4   4   2 1578.02 131.833   1
  -4   4   2 1709.97 140.222   4
  -4   4   2 1656.57 113.002   6
  -4   4   2 1503.25 130.361   2
  -4   4   3 2395.42 143.857   6
  -4   4   3 2154.88 156.934   1
  -4   4   3 1734.55 138.103   3
  -4   4   3 1960.87 159.331   2
  -4   4   4 3286.30 230.543   2
  -4   4   4 4045.40 221.651   6
  -4   4   4 3422.99 237.137   2
  -4   4   4 3033.08 217.469   3
  -4   4   4 3507.03 228.974   1
  -4   4   5 2324.22 185.849   2
  -4   4   5 2448.35 179.715   1
  -4   4   5 2254.49 168.857   3
  -4   4   5 2110.66 175.798   2
  -4   4   6 1544.53 148.250   2
  -4   4   6 1390.99 130.533   3
  -4   4   6 1878.26 137.798   6
  -4   4   7-37.0450 99.0539   6
  -4   4   7 121.484 87.6749   3
  -4   4   7-26.2980 100.709   2
  -4   4   7 10.9175 23.3415   5
  -4   4   7 11.2706 26.3789   5
  -4   4   8 497.351 58.2208   5
  -4   4   8 584.023 118.375   2
  -4   4   8 690.197 117.544   1
  -4   4   9 1981.90 183.479   2
  -4   4   9 2375.70 184.044   1
  -4   4  10 1464.03 157.067   1
  -4   4  10 1162.94 153.402   2
  -4   4  11 837.045 140.080   1
  -4   4  11 484.889 136.061   2
  -4   4  12 461.739 138.086   1
  -4   4  12 105.966 134.425   2
  -4   5 -10 1660.11 215.773   2
  -4   5 -10 2114.18 185.522   6
  -4   5  -9 1898.72 210.534   2
  -4   5  -9 1856.89 174.894   6
  -4   5  -8 3346.46 264.925   2
  -4   5  -8 3423.12 241.091   6
  -4   5  -7 1846.78 195.723   2
  -4   5  -7 2032.31 186.665   5
  -4   5  -6 648.876 143.788   2
  -4   5  -6 772.731 146.067   5
  -4   5  -5 4890.43 294.443   4
  -4   5  -5 5006.26 302.077   5
  -4   5  -4 1895.37 157.884   4
  -4   5  -4 1859.50 163.516   5
  -4   5  -3 933.190 123.437   5
  -4   5  -3 928.945 123.652   4
  -4   5  -3 738.403 98.2133   3
  -4   5  -2 6037.37 384.441   3
  -4   5  -2 6590.71 390.965   5
  -4   5  -2 6624.99 395.718   4
  -4   5  -1 2270.59 150.413   5
  -4   5  -1 1616.76 129.592   3
  -4   5   0 2626.78 175.523   3
  -4   5   0 2416.51 199.700   2
  -4   5   1 2189.25 151.658   3
  -4   5   1 1993.52 173.943   2
  -4   5   2 2570.49 182.691   3
  -4   5   2 2897.60 210.676   2
  -4   5   2 3244.92 185.623   5
  -4   5   3 1292.87 104.273   3
  -4   5   3 1362.39 138.994   2
  -4   5   3 1435.67 99.2457   5
  -4   5   4 703.297 63.5662   5
  -4   5   4 883.245 100.826   6
  -4   5   4 904.568 147.381   2
  -4   5   4 620.499 78.8728   3
  -4   5   5 2733.57 164.316   6
  -4   5   5 2427.14 179.119   2
  -4   5   5 2189.17 148.998   3
  -4   5   5 1900.51 131.827   5
  -4   5   6 91.3495 49.4716   5
  -4   5   6 117.360 81.5427   3
  -4   5   6 229.542 111.184   2
  -4   5   6 125.002 98.8683   6
  -4   5   7 620.964 118.667   2
  -4   5   7 577.129 98.8303   3
  -4   5   7 570.068 67.4372   5
  -4   5   8 584.988 111.003   3
  -4   5   8 664.531 128.790   2
  -4   5   9 121.737 126.215   2
  -4   5   9 143.802 115.547   1
  -4   5  10 69.5588 134.149   2
  -4   5  10 156.500 125.885   1
  -4   5  11 286.967 145.635   2
  -4   5  11 416.255 132.443   1
  -4   6  -9 1593.34 207.699   2
  -4   6  -9 1638.54 202.618   5
  -4   6  -8 870.846 178.906   5
  -4   6  -8 1064.89 184.945   2
  -4   6  -7 1449.40 192.186   2
  -4   6  -7 1807.88 196.323   5
  -4   6  -6 6996.30 397.612   5
  -4   6  -6 5197.15 398.392   2
  -4   6  -5 526.089 136.776   2
  -4   6  -5 798.519 136.590   5
  -4   6  -4 4041.26 260.301   5
  -4   6  -4 3318.87 260.933   2
  -4   6  -3 2525.92 222.316   2
  -4   6  -3 3465.68 217.979   5
  -4   6  -2 972.821 116.217   5
  -4   6  -2 785.921 128.277   2
  -4   6  -1 151.553 105.244   5
  -4   6   0 15428.3 907.551   5
  -4   6   1 1245.74 96.6796   5
  -4   6   1 415.715 36.6441   3
  -4   6   2 445.392 45.2355   3
  -4   6   2 533.740 119.336   2
  -4   6   3 261.310 78.5773   5
  -4   6   3 229.623 43.9194   3
  -4   6   3 286.580 120.731   2
  -4   6   4 3292.00 226.664   2
  -4   6   4 2712.58 156.966   5
  -4   6   5 857.694 94.2001   5
  -4   6   5 783.079 138.083   2
  -4   6   5 787.956 121.023   6
  -4   6   6 294.631 79.6748   5
  -4   6   6 244.391 125.077   2
  -4   6   7 891.710 137.577   2
  -4   6   8 549.161 139.435   2
  -4   6   8 579.948 122.917   3
  -4   6   9 208.206 117.146   1
  -4   6   9-45.3720 127.576   3
  -4   6   9 25.7785 140.126   2
  -4   6  10-33.9279 130.442   1
  -4   6  10 214.675 152.132   2
  -4   7  -8 1255.81 192.182   5
  -4   7  -8 1261.61 204.273   2
  -4   7  -7 1502.72 175.943   5
  -4   7  -7 1141.74 187.287   2
  -4   7  -6 785.434 160.614   2
  -4   7  -6 797.936 157.027   5
  -4   7  -5 1058.23 162.815   2
  -4   7  -5 1271.94 155.500   5
  -4   7  -4 2392.31 187.625   5
  -4   7  -4 2036.49 199.241   2
  -4   7  -3 1264.85 156.111   2
  -4   7  -3 1604.09 153.404   5
  -4   7  -2 995.021 141.634   2
  -4   7  -2 1111.76 133.642   5
  -4   7  -1 1106.03 131.260   5
  -4   7  -1 906.863 143.866   2
  -4   7   0 600.337 111.789   5
  -4   7   0 355.096 118.467   2
  -4   7   1 3332.48 226.644   5
  -4   7   2 1018.14 115.851   5
  -4   7   3 947.092 109.593   5
  -4   7   4 1538.26 135.699   5
  -4   7   4 1627.66 194.074   2
  -4   7   5 206.145 95.6072   5
  -4   7   5 191.088 142.087   2
  -4   7   6 1338.64 171.161   2
  -4   7   7 295.807 138.568   2
  -4   7   8 108.248 150.028   2
  -4   7   9 489.175 159.717   2
  -4   8  -6 1778.20 204.108   2
  -4   8  -6 1869.70 192.672   5
  -4   8  -5 1636.53 174.686   5
  -4   8  -5 1627.10 197.401   2
  -4   8  -4 686.646 149.187   5
  -4   8  -4 605.030 157.682   2
  -4   8  -3 716.465 137.267   5
  -4   8  -3 614.889 151.539   2
  -4   8  -2 1246.30 168.431   2
  -4   8  -2 1440.92 154.691   5
  -4   8  -1 1238.94 140.875   5
  -4   8  -1 815.972 155.783   2
  -4   8   0 1373.69 164.039   2
  -4   8   0 1742.02 164.200   5
  -4   8   1 482.522 146.892   2
  -4   8   1 462.138 114.264   5
  -4   8   2 183.720 141.056   2
  -4   8   2 207.997 107.740   5
  -4   8   3 317.818 111.555   5
  -4   8   4 158.728 109.622   5
  -4   8   6 100.390 162.748   2
  -4   8   7-132.687 157.112   2
  -4   9  -3 426.381 163.997   2
  -4   9  -3 347.604 147.031   5
  -4   9  -2 807.965 171.526   2
  -4   9  -2 545.436 150.547   5
  -4   9  -1 586.587 146.221   5
  -4   9  -1 704.927 168.155   2
  -4   9   0 898.800 159.390   2
  -4   9   0 722.713 142.246   5
  -4   9   1 820.008 136.856   5
  -4   9   1 551.103 170.500   2
  -4   9   2 319.864 158.353   2
  -4   9   2-17.7517 121.223   5
  -4   9   3 449.120 177.884   2
  -3  -6  -3 294.040 205.344   4
  -3  -6  -3 372.412 134.822   2
  -3  -6  -2-88.1899 129.536   2
  -3  -6  -2 170.419 203.136   4
  -3  -6  -1 240.781 213.150   4
  -3  -6  -1 41.3958 119.534   2
  -3  -6   1 247.741 201.768   4
  -3  -6   2 115.430 196.240   4
  -3  -6   2-21.9795 142.812   1
  -3  -6   3 117.229 156.734   1
  -3  -6   3 263.799 197.068   4
  -3  -6   4 712.065 202.613   4
  -3  -6   4 321.916 167.958   1
  -3  -6   5 550.739 178.500   1
  -3  -6   5 597.781 202.954   4
  -3  -6   6 380.874 199.980   4
  -3  -6   6 243.500 177.861   1
  -3  -6   7-74.8923 200.836   4
  -3  -6   7 38.3526 181.114   1
  -3  -5  -6 222.312 190.998   4
  -3  -5  -6 329.923 156.957   2
  -3  -5  -5 102.833 196.811   4
  -3  -5  -5 105.700 145.150   2
  -3  -5  -4 654.243 146.675   2
  -3  -5  -4 1021.10 208.379   4
  -3  -5  -3 953.470 196.577   4
  -3  -5  -3 482.214 135.016   2
  -3  -5  -2 624.385 176.897   4
  -3  -5  -2 406.837 128.371   2
  -3  -5  -1 128.774 106.954   2
  -3  -5  -1 80.7751 166.367   4
  -3  -5   0 1385.92 153.276   1
  -3  -5   0 1154.27 129.292   2
  -3  -5   1 2354.88 214.925   1
  -3  -5   2 404.465 165.692   4
  -3  -5   2 724.325 164.854   1
  -3  -5   3 1178.22 188.219   1
  -3  -5   3 1237.08 181.903   4
  -3  -5   4 280.210 168.677   1
  -3  -5   4 327.017 164.176   4
  -3  -5   5 707.448 190.019   1
  -3  -5   5 963.541 173.371   4
  -3  -5   6 1429.30 193.019   4
  -3  -5   6 1736.63 210.157   1
  -3  -5   7 984.700 176.940   4
  -3  -5   7 933.319 187.984   1
  -3  -5   8 383.474 159.835   4
  -3  -5   8 562.746 190.255   1
  -3  -5   9-15.3389 163.650   4
  -3  -5   9 307.422 184.392   1
  -3  -4  -8 228.479 177.684   4
  -3  -4  -8 370.204 167.407   2
  -3  -4  -7 26.1401 174.064   4
  -3  -4  -7 55.1223 153.416   2
  -3  -4  -6 540.196 192.172   4
  -3  -4  -6 217.317 148.496   2
  -3  -4  -5 750.606 186.301   4
  -3  -4  -5 852.952 151.299   2
  -3  -4  -4 44.0125 126.955   2
  -3  -4  -4-39.2092 150.278   4
  -3  -4  -3 2056.19 202.186   4
  -3  -4  -3 2101.79 175.668   2
  -3  -4  -2 1310.20 136.156   1
  -3  -4  -2 1187.26 168.410   4
  -3  -4  -2 1009.38 133.556   2
  -3  -4  -1 2461.98 224.326   4
  -3  -4  -1 3039.13 203.915   1
  -3  -4  -1 2426.59 191.465   2
  -3  -4   0 1100.96 142.633   1
  -3  -4   0 826.494 108.378   2
  -3  -4   0 728.201 111.509   1
  -3  -4   1 763.467 110.536   1
  -3  -4   1 939.121 144.532   1
  -3  -4   1 621.140 87.5117   2
  -3  -4   2 6378.01 437.441   1
  -3  -4   2 7061.93 452.416   4
  -3  -4   2 7927.42 449.005   1
  -3  -4   3 126.548 142.672   1
  -3  -4   3 297.056 152.447   4
  -3  -4   4 1929.57 195.011   1
  -3  -4   4 2005.01 196.429   4
  -3  -4   5 4494.16 305.267   1
  -3  -4   5 4018.64 302.266   4
  -3  -4   6 984.106 178.672   1
  -3  -4   6 1006.94 165.530   4
  -3  -4   7 2205.33 223.981   1
  -3  -4   7 2124.27 207.494   4
  -3  -4   8 3223.14 257.395   4
  -3  -4   8 3575.23 288.530   1
  -3  -4   9 416.792 190.615   1
  -3  -4   9 324.789 152.072   4
  -3  -4  10 46.1506 194.711   1
  -3  -4  10-26.3202 146.241   4
  -3  -4  11-172.430 192.774   1
  -3  -3  -9 45.0766 161.398   4
  -3  -3  -9-67.5758 166.088   2
  -3  -3  -8 343.413 154.976   2
  -3  -3  -8 410.624 174.271   4
  -3  -3  -7 537.290 148.122   2
  -3  -3  -7 450.205 171.264   4
  -3  -3  -6 399.602 153.772   4
  -3  -3  -6 732.367 134.974   2
  -3  -3  -5 45.1736 141.664   4
  -3  -3  -5 33.5056 120.426   2
  -3  -3  -4 2566.45 205.192   2
  -3  -3  -4 2757.52 220.517   4
  -3  -3  -4 2738.79 178.506   1
  -3  -3  -3 2098.63 177.235   2
  -3  -3  -3 2294.71 194.504   4
  -3  -3  -3 2372.26 159.004   1
  -3  -3  -3 1969.89 149.640   1
  -3  -3  -2 3415.13 234.983   1
  -3  -3  -2 3969.91 243.270   1
  -3  -3  -2 3783.60 268.126   4
  -3  -3  -2 3855.84 252.297   2
  -3  -3  -1 1067.69 155.043   4
  -3  -3  -1 1272.01 114.042   1
  -3  -3  -1 1303.43 123.148   1
  -3  -3  -1 1194.05 124.051   2
  -3  -3   0 2305.00 177.540   1
  -3  -3   0 2445.18 170.869   2
  -3  -3   0 2395.61 171.832   1
  -3  -3   1 2838.12 197.016   1
  -3  -3   1 2516.34 186.065   1
  -3  -3   1 2841.51 182.493   2
  -3  -3   2 3299.68 220.174   4
  -3  -3   2 2554.81 177.684   2
  -3  -3   2 2900.28 199.715   1
  -3  -3   2 3163.24 205.277   1
  -3  -3   3 2807.49 206.071   1
  -3  -3   3 2941.51 219.292   4
  -3  -3   3 2653.80 202.252   1
  -3  -3   4 5760.41 366.313   4
  -3  -3   4 5554.36 359.908   1
  -3  -3   5 9.72004 130.552   1
  -3  -3   5 40.9118 134.628   4
  -3  -3   5 100.801 102.800   5
  -3  -3   6 1000.53 161.106   4
  -3  -3   6 1364.47 160.412   1
  -3  -3   7 2773.51 216.267   4
  -3  -3   7 2469.33 220.156   1
  -3  -3   8 1189.80 159.155   4
  -3  -3   8 1233.29 179.856   1
  -3  -3   9 1628.87 172.283   4
  -3  -3   9 1569.58 199.603   1
  -3  -3  10 596.995 149.770   4
  -3  -3  12 287.247 200.882   1
  -3  -2 -10 1289.69 195.654   2
  -3  -2  -9 3180.28 263.541   2
  -3  -2  -9 3476.76 260.790   4
  -3  -2  -8 2493.29 229.198   2
  -3  -2  -8 3118.66 234.517   4
  -3  -2  -7 639.896 148.958   2
  -3  -2  -7 606.246 147.511   4
  -3  -2  -6 3059.49 227.887   4
  -3  -2  -6 2836.83 226.899   2
  -3  -2  -5 5120.66 310.796   4
  -3  -2  -5 4247.40 280.614   1
  -3  -2  -5 5014.89 310.358   2
  -3  -2  -4 2765.59 202.749   4
  -3  -2  -4 2929.69 199.424   2
  -3  -2  -4 2242.26 162.560   1
  -3  -2  -3 9311.11 563.165   1
  -3  -2  -3 9935.31 576.559   4
  -3  -2  -3 9973.85 574.924   2
  -3  -2  -3 9302.68 562.190   1
  -3  -2  -2 5290.28 329.548   4
  -3  -2  -2 5550.27 323.829   2
  -3  -2  -2 4503.16 317.003   3
  -3  -2  -2 5192.85 310.832   1
  -3  -2  -2 5034.83 312.306   1
  -3  -2  -1 2075.55 149.109   1
  -3  -2  -1 1739.56 148.260   3
  -3  -2  -1 2138.75 155.566   2
  -3  -2  -1 1955.72 142.156   1
  -3  -2  -1 2114.73 172.378   4
  -3  -2   0 664.371 119.474   4
  -3  -2   0 609.611 90.0611   1
  -3  -2   0 567.982 90.5424   3
  -3  -2   0 578.927 90.0299   2
  -3  -2   0 621.176 94.8962   1
  -3  -2   1 3545.78 214.900   2
  -3  -2   1 3639.67 223.923   1
  -3  -2   1 3309.90 219.713   1
  -3  -2   1 3022.95 219.749   3
  -3  -2   2 1364.57 143.809   4
  -3  -2   2 1239.54 117.732   3
  -3  -2   2 1578.75 103.455   2
  -3  -2   2 1410.62 128.042   1
  -3  -2   2 1276.01 118.790   1
  -3  -2   3 4718.00 282.884   3
  -3  -2   3 5924.22 289.859   1
  -3  -2   3 6117.16 290.028   1
  -3  -2   3 6277.73 297.389   4
  -3  -2   3 4079.77 264.590   2
  -3  -2   4 8225.18 472.789   1
  -3  -2   4 8669.74 478.526   4
  -3  -2   4 8362.36 473.177   1
  -3  -2   5 447.989 104.565   1
  -3  -2   5 452.037 123.867   4
  -3  -2   5 487.434 89.9956   5
  -3  -2   5 353.793 110.836   1
  -3  -2   6 6466.66 368.073   4
  -3  -2   6 6044.51 364.849   1
  -3  -2   7 163.309 85.7509   5
  -3  -2   7-11.4274 123.032   4
  -3  -2   7 229.229 126.155   1
  -3  -2   8 9168.72 494.166   4
  -3  -2   8 6959.91 485.460   5
  -3  -2   9 2225.11 187.154   4
  -3  -2  10 1764.29 170.618   4
  -3  -2  11 1757.15 214.905   1
  -3  -2  11 1779.75 176.923   4
  -3  -2  12 297.929 205.521   1
  -3  -2  13 274.031 201.167   1
  -3  -1  -9-39.7592 153.868   2
  -3  -1  -9-76.4751 141.868   4
  -3  -1  -8 262.274 131.459   4
  -3  -1  -8 87.8858 144.385   2
  -3  -1  -7 1900.59 171.385   4
  -3  -1  -7 1813.65 186.190   2
  -3  -1  -6 10322.9 587.937   4
  -3  -1  -6 9263.79 576.250   1
  -3  -1  -6 9810.49 593.172   2
  -3  -1  -5 508.743 82.1787   1
  -3  -1  -5 475.333 123.358   4
  -3  -1  -5 420.505 119.667   2
  -3  -1  -4 518.466 78.8833   1
  -3  -1  -4 512.572 100.082   3
  -3  -1  -4 562.221 112.788   2
  -3  -1  -4 546.130 118.522   4
  -3  -1  -3 8733.09 513.864   4
  -3  -1  -3 8455.02 514.924   2
  -3  -1  -3 8611.03 513.391   3
  -3  -1  -3 8401.99 504.600   1
  -3  -1  -2 3340.00 202.048   1
  -3  -1  -2 3093.39 210.084   2
  -3  -1  -2 2893.02 205.891   3
  -3  -1  -2 3224.77 216.352   4
  -3  -1  -1 11374.9 681.335   1
  -3  -1  -1 11369.2 686.980   4
  -3  -1  -1 12103.2 686.507   2
  -3  -1   0 16430.4 998.918   1
  -3  -1   0 17531.5 1000.88   2
  -3  -1   0 17475.3 1004.31   4
  -3  -1   1 580.068 87.3078   1
  -3  -1   1 642.201 85.9351   1
  -3  -1   1 767.578 80.4019   2
  -3  -1   2 9464.23 586.918   1
  -3  -1   2 10267.2 582.459   2
  -3  -1   2 9747.37 587.661   1
  -3  -1   3 1298.50 107.852   1
  -3  -1   3 1276.63 115.323   4
  -3  -1   3 1093.92 95.3282   1
  -3  -1   4 1590.59 130.064   1
  -3  -1   4 1384.03 119.439   5
  -3  -1   4 1638.17 133.983   1
  -3  -1   4 1733.38 138.264   4
  -3  -1   5 4581.52 286.409   1
  -3  -1   5 4650.39 287.794   1
  -3  -1   5 4244.96 278.919   5
  -3  -1   5 4717.20 289.048   4
  -3  -1   6 1206.49 106.605   5
  -3  -1   6 1218.51 133.884   1
  -3  -1   6 1441.93 132.127   4
  -3  -1   6 1287.98 131.647   1
  -3  -1   7 2673.25 184.369   4
  -3  -1   7 2249.60 167.577   5
  -3  -1   8 61.2924 31.1487   2
  -3  -1   8 178.836 90.4135   5
  -3  -1   8 49.8223 109.102   4
  -3  -1   8 33.0265 27.7654   2
  -3  -1   9 1571.97 160.139   1
  -3  -1   9 1622.87 136.322   4
  -3  -1   9 1492.57 123.224   5
  -3  -1   9 1036.06 79.7533   2
  -3  -1   9 881.935 83.6145   2
  -3  -1  10 786.391 84.6808   2
  -3  -1  10 1106.27 123.868   5
  -3  -1  10 1293.25 138.392   4
  -3  -1  10 1240.11 167.248   1
  -3  -1  11 1435.50 152.561   4
  -3  -1  11 1771.97 194.741   1
  -3  -1  12 961.106 194.582   1
  -3  -1  13 454.921 199.157   1
  -3   0 -12 823.935 203.012   2
  -3   0 -11 972.849 192.018   2
  -3   0  -9 12598.2 748.300   4
  -3   0  -8 1189.36 139.447   4
  -3   0  -8 816.925 128.008   1
  -3   0  -7 4770.22 329.131   1
  -3   0  -7 4982.80 344.454   2
  -3   0  -6 6470.49 420.791   2
  -3   0  -6 6143.69 407.803   1
  -3   0  -5 10290.8 656.298   1
  -3   0  -5 11312.3 667.749   2
  -3   0  -5 12039.6 661.638   4
  -3   0  -4 6893.82 439.607   1
  -3   0  -4 8023.54 445.446   4
  -3   0  -4 7325.15 450.095   2
  -3   0  -3 2319.05 159.053   4
  -3   0  -3 2057.17 159.656   2
  -3   0  -3 2091.46 144.785   1
  -3   0  -2 5413.76 324.028   1
  -3   0  -2 5461.95 330.151   2
  -3   0  -2 5221.59 328.175   4
  -3   0  -1 5033.81 303.911   2
  -3   0  -1 4762.64 304.221   4
  -3   0  -1 5034.90 300.499   1
  -3   0   0 4713.64 299.985   1
  -3   0   0 4878.41 306.476   4
  -3   0   0 5338.47 304.754   2
  -3   0   1 18546.2 1126.55   1
  -3   0   1 19958.0 1126.48   2
  -3   0   2 26396.4 1476.79   2
  -3   0   2 23982.8 1478.42   1
  -3   0   3 10678.4 632.054   2
  -3   0   3 10864.3 637.431   1
  -3   0   3 11031.3 638.383   1
  -3   0   4 6525.10 358.959   3
  -3   0   4 5707.42 347.914   2
  -3   0   4 6340.12 359.253   1
  -3   0   4 5999.26 356.751   1
  -3   0   4 5674.61 347.106   2
  -3   0   4 5880.33 350.797   5
  -3   0   5 5259.53 292.928   3
  -3   0   5 4981.39 277.782   2
  -3   0   5 5175.75 282.774   5
  -3   0   6 1555.78 108.961   5
  -3   0   6 1513.94 107.350   2
  -3   0   6 1334.14 101.394   2
  -3   0   6 1463.18 124.813   3
  -3   0   7 7746.11 400.333   5
  -3   0   7 6449.23 396.332   2
  -3   0   7 6863.33 410.532   3
  -3   0   7 7702.94 409.724   1
  -3   0   7 7678.39 409.994   1
  -3   0   8 5911.42 395.617   2
  -3   0   8 7631.47 412.886   1
  -3   0   8 7775.21 402.216   5
  -3   0   8 6207.42 396.771   2
  -3   0   9 4001.04 258.182   2
  -3   0   9 4338.46 263.444   4
  -3   0   9 3409.36 254.236   2
  -3   0   9 5041.39 268.971   5
  -3   0   9 4668.06 279.037   1
  -3   0  10 950.708 114.008   5
  -3   0  10 747.173 121.576   4
  -3   0  10 730.655 99.5804   2
  -3   0  10 740.943 143.690   1
  -3   0  10 874.870 103.740   4
  -3   0  11 732.796 119.459   4
  -3   0  11 787.317 120.252   5
  -3   0  11 690.533 159.883   1
  -3   0  12 2552.61 231.953   1
  -3   0  13 785.170 187.214   1
  -3   0  14 200.043 202.099   1
  -3   1 -12 52.3678 182.955   2
  -3   1 -11 2301.21 222.113   2
  -3   1 -10 2581.45 226.118   2
  -3   1  -9 1194.92 121.374   4
  -3   1  -9 920.486 158.399   2
  -3   1  -9 837.447 133.616   1
  -3   1  -8 8622.14 464.737   4
  -3   1  -8 6098.24 467.002   1
  -3   1  -7 6615.57 373.630   4
  -3   1  -7 5243.02 376.825   1
  -3   1  -6 560.519 100.036   1
  -3   1  -6 610.832 112.397   3
  -3   1  -6 605.582 103.726   4
  -3   1  -5 10543.8 587.765   4
  -3   1  -5 10050.6 596.813   2
  -3   1  -5 9229.32 590.369   3
  -3   1  -5 9626.50 588.454   1
  -3   1  -4 5433.78 333.115   3
  -3   1  -4 5231.61 329.012   1
  -3   1  -4 5256.98 336.085   2
  -3   1  -4 5660.98 330.957   4
  -3   1  -3 27043.9 1507.13   2
  -3   1  -3 26859.8 1504.69   3
  -3   1  -3 24108.7 1501.49   1
  -3   1  -2 14358.8 932.298   1
  -3   1  -2 17443.9 936.733   3
  -3   1  -2 16798.4 937.808   2
  -3   1  -1 7570.05 414.199   2
  -3   1  -1 6301.18 407.642   1
  -3   1  -1 6876.41 408.890   3
  -3   1   0 3519.98 214.127   2
  -3   1   0 3511.90 212.444   3
  -3   1   0 3100.66 210.449   1
  -3   1   1 18511.6 1036.36   2
  -3   1   1 16392.6 1035.52   1
  -3   1   1 18286.9 1035.94   3
  -3   1   2 3145.17 193.440   3
  -3   1   2 3179.49 193.371   2
  -3   1   2 2882.79 196.242   1
  -3   1   3 6837.49 416.473   2
  -3   1   3 7350.89 420.204   3
  -3   1   4 8588.09 516.738   2
  -3   1   4 9306.46 521.681   3
  -3   1   4 8637.13 516.544   2
  -3   1   5 1434.23 101.422   5
  -3   1   5 1724.90 129.067   1
  -3   1   5 1726.93 116.699   2
  -3   1   5 1744.66 115.591   2
  -3   1   5 1692.90 128.580   1
  -3   1   5 1614.53 122.877   3
  -3   1   6 5977.93 426.090   2
  -3   1   6 7981.73 435.614   1
  -3   1   6 7377.84 432.142   4
  -3   1   6 7135.87 426.667   2
  -3   1   6 7022.57 434.506   3
  -3   1   6 7407.45 431.850   1
  -3   1   6 7630.97 423.045   5
  -3   1   7 334.111 98.3212   3
  -3   1   7 393.370 83.8567   4
  -3   1   7 192.075 71.1050   2
  -3   1   7 321.027 72.3657   2
  -3   1   7 244.895 84.0290   1
  -3   1   7 326.572 66.3774   5
  -3   1   7 221.669 102.593   1
  -3   1   8 1628.03 135.768   1
  -3   1   8 1850.72 148.958   1
  -3   1   8 1654.24 131.394   2
  -3   1   8 1551.22 133.768   4
  -3   1   8 1399.76 129.147   2
  -3   1   8 1808.78 125.318   5
  -3   1   9 2516.11 184.682   1
  -3   1   9 2563.58 175.076   4
  -3   1   9 2278.64 169.017   2
  -3   1   9 2432.62 161.916   5
  -3   1   9 1875.60 165.375   2
  -3   1  10 501.745 104.272   2
  -3   1  10 443.851 96.2362   4
  -3   1  10 605.596 127.854   1
  -3   1  10 702.209 99.0831   5
  -3   1  11 4263.08 293.759   2
  -3   1  11 4665.92 306.305   1
  -3   1  12 452.050 155.649   1
  -3   1  13 503.633 174.166   1
  -3   1  14 1253.15 202.177   1
  -3   2 -12 1493.69 181.112   6
  -3   2 -12 1218.87 198.535   2
  -3   2 -11 3684.72 265.828   6
  -3   2 -11 3570.10 280.734   2
  -3   2 -10 1790.09 200.005   2
  -3   2 -10 2080.94 181.395   6
  -3   2  -9 6452.17 382.937   6
  -3   2  -9 5587.12 390.848   2
  -3   2  -8 2272.96 147.015   4
  -3   2  -8 1810.96 141.918   4
  -3   2  -8 1519.30 168.344   1
  -3   2  -8 1472.06 170.492   2
  -3   2  -8 1960.64 163.211   6
  -3   2  -7 4693.48 327.548   2
  -3   2  -7 5306.13 311.397   4
  -3   2  -7 5139.04 317.719   6
  -3   2  -7 5382.45 310.815   4
  -3   2  -6 7595.10 534.922   1
  -3   2  -6 9650.97 531.930   4
  -3   2  -6 9667.91 530.059   4
  -3   2  -6 7701.31 534.106   3
  -3   2  -6 9116.99 532.651   6
  -3   2  -5 1414.42 118.360   6
  -3   2  -5 1507.57 130.842   3
  -3   2  -5 1330.14 125.467   1
  -3   2  -4 5537.08 359.865   3
  -3   2  -4 5434.95 360.173   1
  -3   2  -4 6484.07 355.909   6
  -3   2  -3 10254.9 662.927   1
  -3   2  -3 11288.6 664.182   3
  -3   2  -3 11749.6 658.207   6
  -3   2  -2 3750.46 220.094   2
  -3   2  -2 3605.81 214.326   3
  -3   2  -2 3137.81 213.613   1
  -3   2  -2 3274.64 201.648   6
  -3   2  -1 8574.75 525.010   3
  -3   2  -1 9966.01 530.419   2
  -3   2  -1 8388.02 526.361   1
  -3   2   0 5118.19 332.838   1
  -3   2   0 5800.90 334.837   2
  -3   2   0 5594.37 330.388   3
  -3   2   1 3406.14 210.151   2
  -3   2   1 3467.71 214.436   4
  -3   2   1 3219.07 204.620   3
  -3   2   2 6106.02 375.577   2
  -3   2   2 6479.72 374.198   3
  -3   2   3 37644.6 2071.51   3
  -3   2   3 34762.2 2072.48   4
  -3   2   3 34413.8 2071.61   1
  -3   2   3 35463.3 2071.76   2
  -3   2   4 4287.17 260.485   3
  -3   2   4 4168.02 262.528   1
  -3   2   4 4305.50 261.701   2
  -3   2   4 4374.18 261.612   2
  -3   2   4 3975.25 262.495   4
  -3   2   5 5053.98 248.160   3
  -3   2   5 4415.76 243.998   2
  -3   2   5 5120.76 245.867   2
  -3   2   5 5161.57 248.624   4
  -3   2   5 5153.76 247.468   1
  -3   2   6 5916.31 330.393   1
  -3   2   6 5478.28 325.753   2
  -3   2   6 6000.55 330.327   4
  -3   2   6 5502.13 331.557   3
  -3   2   6 5098.07 314.420   5
  -3   2   6 5435.53 329.394   1
  -3   2   6 4870.96 326.227   2
  -3   2   7 11865.2 661.465   5
  -3   2   7 11636.8 668.136   4
  -3   2   7 11129.5 672.342   3
  -3   2   7 11811.2 669.697   1
  -3   2   7 10976.5 667.779   2
  -3   2   7 11869.6 671.124   1
  -3   2   7 9499.62 667.871   2
  -3   2   8 4893.01 317.289   2
  -3   2   8 5398.40 320.052   1
  -3   2   8 5284.20 317.833   4
  -3   2   8 5431.00 323.785   1
  -3   2   8 5599.31 311.971   5
  -3   2   8 4199.41 317.096   2
  -3   2   8 4891.07 325.130   3
  -3   2   9 2583.15 178.620   4
  -3   2   9 2602.50 171.819   5
  -3   2   9 2550.51 181.797   2
  -3   2   9 2505.08 185.607   1
  -3   2   9 2049.27 177.017   2
  -3   2  10 233.696 110.437   2
  -3   2  10 157.253 95.6910   4
  -3   2  10 154.140 94.2831   5
  -3   2  10 79.5046 118.309   1
  -3   2  11 1275.42 152.358   1
  -3   2  12 262.886 145.112   1
  -3   2  13 713.133 165.503   1
  -3   3 -12 1451.63 184.229   6
  -3   3 -12 1476.11 210.003   2
  -3   3 -11 2134.85 219.623   2
  -3   3 -11 2251.85 201.224   6
  -3   3 -10 1546.26 155.548   6
  -3   3 -10 1137.43 168.124   2
  -3   3  -9 774.574 149.438   2
  -3   3  -9 981.017 133.135   6
  -3   3  -8 6808.80 472.640   2
  -3   3  -8 7591.01 465.334   6
  -3   3  -8 8069.35 455.921   4
  -3   3  -7 6063.07 384.702   6
  -3   3  -7 6842.93 380.135   4
  -3   3  -7 5686.81 395.632   2
  -3   3  -6 5712.41 327.607   4
  -3   3  -6 5189.38 341.329   2
  -3   3  -6 4724.46 336.607   1
  -3   3  -6 5408.92 330.369   6
  -3   3  -5 5219.29 348.851   3
  -3   3  -5 5853.43 360.337   2
  -3   3  -5 6274.10 348.539   4
  -3   3  -5 5035.43 352.808   1
  -3   3  -5 5845.10 354.784   5
  -3   3  -4 8135.92 431.921   4
  -3   3  -4 6292.89 430.130   1
  -3   3  -4 6690.31 429.096   3
  -3   3  -4 7441.90 432.566   5
  -3   3  -3 11288.2 735.810   3
  -3   3  -3 14518.7 740.147   4
  -3   3  -3 11073.8 738.798   1
  -3   3  -3 13967.2 741.155   5
  -3   3  -2 9500.36 661.238   1
  -3   3  -2 12030.2 662.505   4
  -3   3  -2 10659.2 658.618   3
  -3   3  -2 12953.5 663.318   5
  -3   3  -1 5045.29 304.542   4
  -3   3  -1 4569.05 297.986   3
  -3   3  -1 5324.88 301.703   5
  -3   3   0 11679.4 752.717   3
  -3   3   0 13446.7 753.325   5
  -3   3   0 13309.1 759.736   2
  -3   3   0 13891.1 759.326   4
  -3   3   1 3263.92 219.520   2
  -3   3   1 3614.53 210.240   5
  -3   3   1 3298.64 211.995   3
  -3   3   1 3370.87 220.861   1
  -3   3   2 2555.75 141.401   1
  -3   3   2 2313.61 128.917   3
  -3   3   2 2366.98 140.609   2
  -3   3   3 3148.81 207.812   1
  -3   3   3 3102.90 210.188   4
  -3   3   3 3323.41 201.198   6
  -3   3   3 3502.89 216.873   2
  -3   3   3 3041.44 199.553   3
  -3   3   4 11437.4 441.990   3
  -3   3   4 6495.32 428.714   5
  -3   3   4 5868.13 428.893   5
  -3   3   4 12910.5 443.355   6
  -3   3   4 12162.1 446.274   1
  -3   3   4 12614.3 449.373   4
  -3   3   4 12031.1 449.921   2
  -3   3   4 10913.6 447.614   2
  -3   3   5 2259.00 138.397   1
  -3   3   5 1555.21 113.748   5
  -3   3   5 2489.52 145.410   4
  -3   3   5 2335.51 140.434   2
  -3   3   5 2184.32 135.869   3
  -3   3   5 2032.32 141.812   2
  -3   3   5 1639.05 113.309   5
  -3   3   5 2409.51 137.646   6
  -3   3   6 902.557 101.873   4
  -3   3   6 710.124 96.0907   6
  -3   3   6 553.788 96.7579   2
  -3   3   6 692.097 92.4375   1
  -3   3   6 667.773 92.5321   3
  -3   3   6 717.535 68.8659   5
  -3   3   6 791.131 95.7658   2
  -3   3   7 6338.39 438.535   2
  -3   3   7 7880.06 436.660   4
  -3   3   7 7346.80 434.065   1
  -3   3   7 7477.44 439.907   2
  -3   3   7 7422.79 437.216   1
  -3   3   7 6948.47 437.800   3
  -3   3   7 7026.05 427.148   5
  -3   3   7 7393.52 437.544   6
  -3   3   8 3760.84 243.371   1
  -3   3   8 3409.78 227.325   5
  -3   3   8 3699.53 242.171   6
  -3   3   8 3201.75 241.290   2
  -3   3   8 3710.40 242.630   2
  -3   3   8 3854.46 237.076   1
  -3   3   8 3275.09 242.193   3
  -3   3   8 4052.04 241.357   4
  -3   3   9 4291.13 277.352   5
  -3   3   9 3857.42 288.036   2
  -3   3   9 4568.84 284.956   1
  -3   3   9 4585.56 290.107   1
  -3   3   9 5098.94 290.344   4
  -3   3  10 6749.82 398.344   4
  -3   3  10 6116.29 398.967   1
  -3   3  10 6387.08 392.593   5
  -3   3  11 331.520 123.946   1
  -3   3  12 736.690 141.129   1
  -3   3  13 69.7827 148.241   1
  -3   4 -12 1765.54 190.351   6
  -3   4 -12 1679.17 210.889   2
  -3   4 -11 491.084 161.340   2
  -3   4 -11 622.132 142.194   6
  -3   4 -10 3784.38 291.062   2
  -3   4 -10 3998.42 272.443   6
  -3   4  -9 858.802 132.438   6
  -3   4  -9 705.494 142.426   2
  -3   4  -8 1368.14 161.940   2
  -3   4  -8 1498.54 162.666   5
  -3   4  -7 4416.78 296.635   5
  -3   4  -7 3951.67 293.889   2
  -3   4  -7 4665.93 278.377   4
  -3   4  -6 6413.79 442.657   2
  -3   4  -6 7711.22 433.477   4
  -3   4  -6 7211.78 443.729   5
  -3   4  -5 3811.71 281.020   2
  -3   4  -5 4228.57 280.653   5
  -3   4  -4 6444.71 375.467   4
  -3   4  -4 6508.35 378.779   5
  -3   4  -4 5576.79 378.850   1
  -3   4  -4 5907.13 379.519   2
  -3   4  -3 5966.07 380.416   2
  -3   4  -3 6692.03 379.206   5
  -3   4  -3 5695.20 379.924   1
  -3   4  -3 6516.20 377.255   4
  -3   4  -3 6013.55 371.285   3
  -3   4  -2 3511.74 223.167   3
  -3   4  -2 3548.66 228.181   5
  -3   4  -2 3735.45 232.203   4
  -3   4  -1 10750.6 582.909   4
  -3   4  -1 11318.2 580.002   5
  -3   4   0 6280.44 398.418   3
  -3   4   0 7242.34 409.792   4
  -3   4   0 6561.41 407.111   1
  -3   4   0 7411.15 403.363   5
  -3   4   1 3680.38 199.670   5
  -3   4   1 3153.45 206.557   1
  -3   4   1 2803.99 193.120   3
  -3   4   1 3758.03 212.842   4
  -3   4   2 13327.9 750.579   1
  -3   4   2 11742.3 742.965   3
  -3   4   2 12930.4 743.809   5
  -3   4   3 3245.15 205.657   2
  -3   4   3 3148.93 198.282   1
  -3   4   3 2973.92 186.785   3
  -3   4   3 3059.76 185.490   5
  -3   4   3 2607.30 199.341   2
  -3   4   4 913.777 107.895   4
  -3   4   4 836.358 97.6591   2
  -3   4   4 844.502 94.9056   1
  -3   4   4 757.624 77.1409   3
  -3   4   4 867.942 96.4438   2
  -3   4   4 787.468 71.9242   5
  -3   4   4 782.250 93.9204   6
  -3   4   5 3205.32 198.649   4
  -3   4   5 2834.68 186.770   1
  -3   4   5 2457.76 193.318   2
  -3   4   5 2668.38 182.646   3
  -3   4   5 2764.37 193.418   2
  -3   4   5 2766.89 187.701   6
  -3   4   6 3092.74 194.318   4
  -3   4   6 2559.40 168.803   5
  -3   4   6 2372.54 183.644   2
  -3   4   6 2622.97 179.029   3
  -3   4   6 2723.11 180.587   1
  -3   4   6 2653.35 183.128   6
  -3   4   6 2169.41 185.367   2
  -3   4   7 3398.58 207.103   4
  -3   4   7 2377.54 189.960   3
  -3   4   7 2457.30 203.361   2
  -3   4   7 2940.65 198.076   6
  -3   4   7 2949.21 191.754   1
  -3   4   8 5812.17 355.893   3
  -3   4   8 5932.39 341.160   5
  -3   4   8 5338.69 344.174   1
  -3   4   8 5605.94 342.357   1
  -3   4   8 4964.34 350.953   2
  -3   4   9 3348.57 258.134   2
  -3   4   9 3962.51 247.116   5
  -3   4   9 3808.68 246.473   1
  -3   4   9 3782.62 251.026   1
  -3   4  10 232.504 120.645   2
  -3   4  10 251.409 104.935   1
  -3   4  10 368.513 112.535   1
  -3   4  11 135.013 118.571   1
  -3   4  12 364.909 150.786   3
  -3   4  12 226.495 127.617   1
  -3   4  13 99.8925 158.943   3
  -3   5 -11 3667.17 299.055   2
  -3   5 -11 4174.57 298.037   5
  -3   5 -11 3644.92 277.223   6
  -3   5 -10 877.340 166.594   2
  -3   5 -10 954.863 174.823   5
  -3   5  -9 3341.11 272.064   2
  -3   5  -9 4020.45 280.742   5
  -3   5  -8 1749.85 184.723   2
  -3   5  -8 2057.65 192.655   5
  -3   5  -7 2319.81 189.382   5
  -3   5  -7 1860.95 193.410   2
  -3   5  -6 5792.20 372.656   5
  -3   5  -6 5329.49 375.955   2
  -3   5  -6 6599.96 368.971   4
  -3   5  -5 1208.50 140.721   2
  -3   5  -5 1635.87 146.578   5
  -3   5  -5 1652.22 145.842   4
  -3   5  -4 5179.49 346.802   2
  -3   5  -4 5775.71 344.027   5
  -3   5  -3 5838.81 341.337   5
  -3   5  -3 6389.10 346.193   4
  -3   5  -2 8146.21 555.969   2
  -3   5  -2 8820.48 556.530   1
  -3   5  -2 9876.90 554.692   5
  -3   5  -2 10754.8 560.307   4
  -3   5  -1 4616.63 270.507   5
  -3   5  -1 4267.62 275.145   1
  -3   5  -1 5085.52 283.138   4
  -3   5   0 9626.89 575.559   5
  -3   5   0 8937.55 578.567   1
  -3   5   1 5299.74 330.543   1
  -3   5   1 5015.80 323.014   5
  -3   5   2 2884.97 128.622   5
  -3   5   2 2766.41 140.176   1
  -3   5   3 2233.96 141.369   1
  -3   5   3 1889.64 147.632   2
  -3   5   3 2229.98 132.015   5
  -3   5   4 2367.51 151.087   5
  -3   5   4 2010.03 165.206   2
  -3   5   4 2391.76 156.621   1
  -3   5   4 2012.10 141.006   3
  -3   5   5 940.733 105.248   1
  -3   5   5 841.493 120.026   2
  -3   5   5 963.415 95.6320   3
  -3   5   5 910.855 91.9629   5
  -3   5   5 1140.01 113.273   6
  -3   5   6 4535.42 272.439   5
  -3   5   6 3941.61 287.602   2
  -3   5   6 4120.94 272.440   3
  -3   5   6 4569.33 275.697   1
  -3   5   6 4409.70 281.733   6
  -3   5   7 121.235 87.9590   5
  -3   5   7 216.592 91.8374   1
  -3   5   7 134.976 116.682   2
  -3   5   7 103.194 89.7869   3
  -3   5   8 875.427 125.107   3
  -3   5   8 895.795 130.054   3
  -3   5   8 885.465 109.706   1
  -3   5   8 824.567 134.812   2
  -3   5   8 812.196 112.376   1
  -3   5   9 482.521 135.192   2
  -3   5   9 781.723 131.246   3
  -3   5   9 640.582 117.834   1
  -3   5  10 4485.72 293.646   1
  -3   5  10 4804.85 303.486   3
  -3   5  10 4096.77 309.989   2
  -3   5  11 540.981 141.192   3
  -3   5  11 410.836 152.038   2
  -3   5  12-6.93404 150.104   2
  -3   5  12 58.4844 156.900   3
  -3   6 -10 1934.19 217.267   5
  -3   6 -10 1702.16 213.663   2
  -3   6  -9 929.774 170.297   5
  -3   6  -9 1296.33 177.969   2
  -3   6  -8 3112.62 252.601   2
  -3   6  -8 3002.84 240.299   5
  -3   6  -7 3855.35 269.752   5
  -3   6  -7 3701.30 272.491   2
  -3   6  -6 1599.99 168.737   2
  -3   6  -6 1868.81 168.015   5
  -3   6  -5 1269.10 147.470   5
  -3   6  -5 1517.33 161.054   4
  -3   6  -5 1231.96 147.348   2
  -3   6  -4 8208.44 447.426   4
  -3   6  -4 7471.13 439.533   5
  -3   6  -3 715.175 115.282   5
  -3   6  -3 673.876 118.895   2
  -3   6  -3 844.042 134.888   4
  -3   6  -2 2157.32 178.903   2
  -3   6  -2 2523.59 176.862   5
  -3   6  -1 9585.25 518.753   5
  -3   6  -1 7697.69 518.664   2
  -3   6   0 632.715 96.9447   5
  -3   6   0 578.946 109.156   2
  -3   6   0 567.185 109.395   1
  -3   6   1 3300.73 244.193   2
  -3   6   1 3547.92 236.283   1
  -3   6   1 3665.38 230.165   5
  -3   6   2 2797.50 198.744   1
  -3   6   2 2875.46 193.758   5
  -3   6   3 561.805 103.155   1
  -3   6   3 560.235 91.0649   5
  -3   6   4 423.404 53.9668   3
  -3   6   4 603.758 99.6614   1
  -3   6   4 389.074 50.2616   3
  -3   6   4 670.113 90.8147   5
  -3   6   5 538.202 75.2271   3
  -3   6   5 574.207 99.8171   1
  -3   6   5 487.896 72.8772   3
  -3   6   5 528.303 94.9861   5
  -3   6   6 343.459 93.2455   5
  -3   6   6 573.546 128.335   2
  -3   6   6 485.819 99.7248   1
  -3   6   6 286.102 86.3981   3
  -3   6   6 476.926 85.9145   3
  -3   6   7 280.215 95.2391   3
  -3   6   7 369.442 104.953   5
  -3   6   7 287.951 97.2617   1
  -3   6   7 400.544 128.569   2
  -3   6   8-48.6499 129.396   2
  -3   6   8 93.5862 101.765   3
  -3   6   8-142.727 108.922   5
  -3   6   9 58.0557 139.454   2
  -3   6   9-84.6940 113.278   3
  -3   6   9 112.810 116.027   5
  -3   6  10 1.38343 151.481   2
  -3   6  10 102.302 121.889   3
  -3   6  11 717.899 172.692   2
  -3   6  11 673.218 142.075   3
  -3   7  -9 1204.07 183.613   5
  -3   7  -9 1049.36 190.850   2
  -3   7  -8 966.483 164.208   5
  -3   7  -8 899.163 174.173   2
  -3   7  -7 4044.95 292.397   2
  -3   7  -7 4009.04 284.987   5
  -3   7  -6 229.154 137.302   5
  -3   7  -6 67.0428 136.761   2
  -3   7  -5 2992.56 221.637   5
  -3   7  -5 2877.42 228.363   2
  -3   7  -4 1218.03 142.980   5
  -3   7  -4 1107.96 140.609   2
  -3   7  -3 2186.69 171.061   5
  -3   7  -3 1726.71 169.190   2
  -3   7  -2 2518.54 183.862   5
  -3   7  -2 2000.16 180.845   2
  -3   7  -1 674.854 120.317   2
  -3   7  -1 894.850 119.232   5
  -3   7   0 5207.91 355.497   2
  -3   7   0 5818.23 348.151   5
  -3   7   1 4044.06 291.703   2
  -3   7   1 4324.89 275.472   5
  -3   7   2 781.752 153.222   2
  -3   7   2 780.193 116.876   5
  -3   7   3 897.544 119.709   5
  -3   7   3 879.226 140.419   2
  -3   7   3 901.489 127.646   1
  -3   7   4 1279.48 132.847   1
  -3   7   4 1015.52 130.529   5
  -3   7   5 646.385 118.921   5
  -3   7   6 316.707 107.786   5
  -3   7   7 172.606 104.535   5
  -3   7   8 319.351 122.886   5
  -3   7   8 309.115 152.028   2
  -3   7   9 52.3892 156.752   2
  -3   8  -7 790.661 170.613   2
  -3   8  -7 895.969 166.937   5
  -3   8  -6 332.386 155.785   2
  -3   8  -6 586.663 150.605   5
  -3   8  -5 1629.52 185.845   2
  -3   8  -5 1713.63 180.159   5
  -3   8  -4 93.5252 134.424   2
  -3   8  -4 241.389 135.069   5
  -3   8  -3 1576.70 170.645   5
  -3   8  -3 1410.19 169.056   2
  -3   8  -2 293.936 120.484   5
  -3   8  -2 184.428 127.442   2
  -3   8  -1 558.443 130.034   2
  -3   8  -1 470.644 124.300   5
  -3   8   0 28.7040 112.916   5
  -3   8   0 172.270 129.217   2
  -3   8   1 322.808 143.989   2
  -3   8   1 327.458 121.562   5
  -3   8   2 1105.24 200.855   2
  -3   8   2 1027.93 141.346   5
  -3   8   3 1066.71 162.504   2
  -3   8   3 968.195 142.987   5
  -3   8   4-22.2031 119.907   5
  -3   8   4 94.6603 139.309   2
  -3   8   5 593.810 125.487   5
  -3   8   5 440.715 147.526   2
  -3   8   6-70.5764 125.182   5
  -3   8   7 280.566 128.659   5
  -3   9  -5 666.467 162.714   5
  -3   9  -4 917.234 167.639   5
  -3   9  -4 980.431 173.789   2
  -3   9  -3 580.407 152.579   5
  -3   9  -3 421.412 162.382   2
  -3   9  -2 123.807 145.282   2
  -3   9  -2-11.7202 134.719   5
  -3   9  -1 1156.44 157.395   5
  -3   9  -1 1290.96 170.535   2
  -3   9   0 463.921 137.221   5
  -3   9   0 438.052 156.265   2
  -3   9   1-59.8739 132.689   5
  -3   9   1 71.2166 153.117   2
  -3   9   2 310.053 137.571   5
  -3   9   2 170.901 191.248   2
  -3   9   3 379.210 169.112   2
  -3   9   3 511.794 150.555   5
  -3   9   4 88.6519 135.055   5
  -3   9   4 155.435 170.882   2
  -2  -7  -3 70.3847 192.894   4
  -2  -7  -2 105.522 186.923   4
  -2  -7   1 183.731 180.149   4
  -2  -7   2-103.371 150.228   1
  -2  -7   2-10.5200 177.744   4
  -2  -7   3 1166.36 174.052   1
  -2  -7   3 1057.01 195.292   4
  -2  -7   4 202.410 162.339   1
  -2  -7   4 62.8235 176.595   4
  -2  -7   5 1419.94 199.175   4
  -2  -7   5 1121.71 195.271   1
  -2  -7   6 525.475 183.546   4
  -2  -7   6 750.005 187.503   1
  -2  -6  -6 624.349 202.077   4
  -2  -6  -6 719.874 163.358   2
  -2  -6  -5 1026.25 193.034   4
  -2  -6  -5 783.135 153.995   2
  -2  -6  -4 1036.89 149.174   2
  -2  -6  -4 1279.03 192.298   4
  -2  -6  -3 65.2588 124.624   2
  -2  -6  -3 110.012 164.786   4
  -2  -6  -2 454.690 125.284   2
  -2  -6  -2 578.704 170.722   4
  -2  -6   0 966.639 136.924   1
  -2  -6   1 291.939 174.229   4
  -2  -6   1 361.329 134.889   1
  -2  -6   2 2538.07 215.540   1
  -2  -6   2 2696.10 239.189   4
  -2  -6   3 273.941 177.793   4
  -2  -6   3 272.052 147.852   1
  -2  -6   4 1923.96 209.751   4
  -2  -6   4 1863.12 194.723   1
  -2  -6   5 392.207 175.121   4
  -2  -6   5 700.466 165.943   1
  -2  -6   6 911.235 175.333   1
  -2  -6   6 733.875 173.530   4
  -2  -6   7 1805.60 196.764   4
  -2  -6   7 1596.45 207.480   1
  -2  -6   8 60.2292 157.734   4
  -2  -6   8 54.8928 181.587   1
  -2  -6   9 599.323 163.442   4
  -2  -6   9 766.194 197.844   1
  -2  -5  -8 65.4657 160.383   2
  -2  -5  -8 36.4862 179.288   4
  -2  -5  -7 82.9669 170.284   4
  -2  -5  -7 45.8674 149.784   2
  -2  -5  -6 332.438 141.869   2
  -2  -5  -6 197.539 162.283   4
  -2  -5  -5 245.358 157.993   4
  -2  -5  -5 220.738 129.575   2
  -2  -5  -4 1293.89 178.067   4
  -2  -5  -4 1154.36 150.353   2
  -2  -5  -3 5322.85 342.357   4
  -2  -5  -3 4592.17 322.358   2
  -2  -5  -2 206.562 105.365   2
  -2  -5  -2 179.335 90.6878   1
  -2  -5  -1 791.397 111.165   1
  -2  -5  -1 691.500 163.844   4
  -2  -5  -1 612.175 100.033   1
  -2  -5  -1 427.226 105.739   2
  -2  -5   0 762.023 109.174   2
  -2  -5   0 638.751 112.478   3
  -2  -5   1 1273.00 168.884   4
  -2  -5   1 1245.01 133.420   1
  -2  -5   1 803.053 120.294   3
  -2  -5   2 760.127 149.312   4
  -2  -5   2 354.532 106.646   3
  -2  -5   2 596.941 126.171   1
  -2  -5   3 429.812 124.484   1
  -2  -5   3 286.652 138.584   4
  -2  -5   4 323.769 130.385   1
  -2  -5   4 294.472 141.666   4
  -2  -5   5 2827.58 227.890   4
  -2  -5   5 2683.92 217.508   1
  -2  -5   6 1051.81 161.176   1
  -2  -5   6 1171.25 172.559   4
  -2  -5   7 3009.43 241.160   4
  -2  -5   7 2934.19 238.028   1
  -2  -5   8 330.844 153.965   4
  -2  -5   8 147.158 153.438   1
  -2  -5   9 1806.73 188.666   4
  -2  -5   9 1715.25 198.016   1
  -2  -5  10-31.2978 169.762   1
  -2  -5  10-107.727 142.851   4
  -2  -5  11 73.6573 185.408   1
  -2  -4 -10 451.529 168.735   2
  -2  -4  -9 44.6630 158.527   2
  -2  -4  -9 552.651 167.071   4
  -2  -4  -8 43.6772 145.872   2
  -2  -4  -8 51.9924 156.795   4
  -2  -4  -7 1118.74 160.186   2
  -2  -4  -7 1495.81 171.779   4
  -2  -4  -6 1735.90 181.815   4
  -2  -4  -6 1572.45 167.394   2
  -2  -4  -5 1920.89 185.634   4
  -2  -4  -5 1475.21 158.094   2
  -2  -4  -4 4887.61 314.444   4
  -2  -4  -4 4285.55 296.207   2
  -2  -4  -3 3887.18 237.201   3
  -2  -4  -3 4720.93 257.334   4
  -2  -4  -3 4204.92 237.611   2
  -2  -4  -2 9909.70 679.439   3
  -2  -4  -2 12377.0 672.034   1
  -2  -4  -2 11279.0 684.573   4
  -2  -4  -2 11156.8 678.768   2
  -2  -4  -2 11443.0 669.546   1
  -2  -4  -1 925.946 110.351   2
  -2  -4  -1 1049.62 113.961   1
  -2  -4  -1 867.563 132.924   4
  -2  -4  -1 901.006 95.8050   1
  -2  -4  -1 595.513 102.565   3
  -2  -4   0 1328.78 136.196   3
  -2  -4   0 1584.60 128.165   2
  -2  -4   1 2193.83 181.170   3
  -2  -4   1 2380.45 172.420   2
  -2  -4   2 1531.24 145.943   1
  -2  -4   2 1253.66 143.272   4
  -2  -4   3 1482.00 151.038   1
  -2  -4   3 1497.11 145.676   4
  -2  -4   3 1190.25 130.791   5
  -2  -4   4 3312.00 219.154   4
  -2  -4   4 3885.13 232.343   1
  -2  -4   5-22.0929 119.784   4
  -2  -4   5-57.9604 96.2652   3
  -2  -4   5 70.6920 139.062   1
  -2  -4   6 6430.71 395.525   1
  -2  -4   6 5815.72 385.631   4
  -2  -4   7 2163.40 202.322   1
  -2  -4   7 2077.62 184.510   4
  -2  -4   8 1577.56 161.726   4
  -2  -4   8 1528.87 181.917   1
  -2  -4   9 46.5330 124.456   4
  -2  -4   9 330.456 148.864   1
  -2  -4  10 4123.08 285.859   4
  -2  -4  12 400.594 178.850   1
  -2  -3 -10-73.7656 167.043   2
  -2  -3  -9 981.441 175.306   2
  -2  -3  -9 1303.42 170.449   4
  -2  -3  -8 789.390 146.178   4
  -2  -3  -8 721.847 149.215   2
  -2  -3  -7 2205.77 201.228   2
  -2  -3  -7 2657.54 204.569   4
  -2  -3  -6 935.299 151.837   4
  -2  -3  -6 584.115 128.486   2
  -2  -3  -5 2511.98 193.226   4
  -2  -3  -5 2087.07 181.836   2
  -2  -3  -4 1637.88 124.368   3
  -2  -3  -4 1996.17 137.937   2
  -2  -3  -4 1868.00 136.649   4
  -2  -3  -3 5921.44 348.635   4
  -2  -3  -3 5192.08 326.538   1
  -2  -3  -3 5547.78 344.264   3
  -2  -3  -3 6242.85 348.022   2
  -2  -3  -2 3902.64 271.495   4
  -2  -3  -2 3651.59 263.080   3
  -2  -3  -2 4006.65 262.621   2
  -2  -3  -2 4438.60 255.817   1
  -2  -3  -2 4356.93 253.031   1
  -2  -3  -1 8427.30 499.753   4
  -2  -3  -1 8277.34 486.472   1
  -2  -3  -1 8464.17 492.130   2
  -2  -3  -1 9106.86 489.262   1
  -2  -3   0 5162.41 299.907   1
  -2  -3   0 4935.81 299.025   2
  -2  -3   0 5398.63 302.351   1
  -2  -3   1 9981.27 577.439   2
  -2  -3   1 11462.9 583.395   1
  -2  -3   2 3778.47 225.162   1
  -2  -3   2 3713.52 229.805   4
  -2  -3   3 10043.9 514.719   1
  -2  -3   3 6991.46 507.034   3
  -2  -3   3 9703.99 517.039   4
  -2  -3   3 8053.44 511.544   5
  -2  -3   4 637.129 114.934   1
  -2  -3   4 489.151 93.5347   5
  -2  -3   4 600.135 115.270   4
  -2  -3   4 513.958 86.5896   3
  -2  -3   5 3547.97 223.268   1
  -2  -3   5 2735.16 209.497   3
  -2  -3   5 2685.09 206.777   5
  -2  -3   5 3539.98 219.543   4
  -2  -3   6 8598.71 457.715   4
  -2  -3   6 6418.19 452.871   3
  -2  -3   6 8866.19 466.646   1
  -2  -3   6 6384.92 451.426   5
  -2  -3   7 3505.34 230.282   4
  -2  -3   7 3489.76 242.863   1
  -2  -3   8 3880.34 282.480   1
  -2  -3   8 3663.10 254.467   4
  -2  -3   9 2320.90 182.377   4
  -2  -3  10-50.9962 111.688   4
  -2  -3  11 1218.42 177.287   1
  -2  -3  12 221.385 165.033   1
  -2  -3  13 577.432 172.960   1
  -2  -2 -12 1535.45 205.623   2
  -2  -2  -9 794.051 135.017   4
  -2  -2  -8 4163.76 261.272   4
  -2  -2  -8 3372.45 269.056   2
  -2  -2  -7 7347.73 344.540   2
  -2  -2  -7 8486.00 344.682   4
  -2  -2  -6 1089.22 122.717   4
  -2  -2  -6 1116.67 126.793   2
  -2  -2  -5 3575.15 229.621   1
  -2  -2  -5 4415.83 255.252   4
  -2  -2  -5 4421.07 259.503   2
  -2  -2  -5 3936.44 249.154   3
  -2  -2  -4 4307.69 249.775   4
  -2  -2  -4 4113.84 245.073   3
  -2  -2  -4 4075.71 250.415   2
  -2  -2  -4 3535.09 227.006   1
  -2  -2  -3 1807.35 119.959   1
  -2  -2  -3 1817.26 145.921   2
  -2  -2  -3 1891.93 140.654   3
  -2  -2  -3 1878.54 121.320   1
  -2  -2  -3 1854.88 149.697   4
  -2  -2  -2 2890.48 195.380   4
  -2  -2  -2 3027.50 180.683   1
  -2  -2  -2 2755.63 188.387   3
  -2  -2  -2 2920.54 192.642   2
  -2  -2  -2 2815.43 178.182   1
  -2  -2  -1 6634.35 365.824   1
  -2  -2  -1 6017.70 366.036   1
  -2  -2  -1 6348.89 370.322   2
  -2  -2  -1 5659.45 369.406   3
  -2  -2  -1 5900.35 375.278   4
  -2  -2   0 33498.4 1911.75   3
  -2  -2   0 33471.4 1909.00   1
  -2  -2   0 32893.6 1909.43   2
  -2  -2   0 31760.5 1908.64   1
  -2  -2   1 2146.05 147.388   1
  -2  -2   1 2161.73 145.015   1
  -2  -2   1 1962.31 144.925   3
  -2  -2   1 2268.35 138.607   2
  -2  -2   2 17939.9 953.202   4
  -2  -2   2 16671.1 949.430   1
  -2  -2   2 14497.7 948.198   3
  -2  -2   2 16329.0 943.471   2
  -2  -2   3 12337.8 680.326   4
  -2  -2   3 11425.6 677.626   5
  -2  -2   3 10650.2 676.823   3
  -2  -2   3 11723.6 677.475   1
  -2  -2   4 7360.80 438.744   1
  -2  -2   4 6898.38 435.812   5
  -2  -2   4 7070.01 437.724   3
  -2  -2   4 7922.83 440.467   4
  -2  -2   5 2269.34 152.198   4
  -2  -2   5 2190.36 158.389   1
  -2  -2   5 1752.46 143.699   3
  -2  -2   5 1831.09 140.713   5
  -2  -2   6 853.482 108.529   4
  -2  -2   6 737.759 100.208   3
  -2  -2   6 798.119 96.6397   5
  -2  -2   6 901.903 124.095   1
  -2  -2   7 6862.90 244.920   3
  -2  -2   7 7067.43 237.685   5
  -2  -2   8 1277.90 116.114   4
  -2  -2   8 1022.18 108.226   5
  -2  -2   9 2416.26 163.842   4
  -2  -2   9 2385.54 200.046   1
  -2  -2   9 2181.16 173.978   5
  -2  -2   9 1800.96 136.804   2
  -2  -2  10 5205.46 302.821   4
  -2  -2  10 5864.02 340.333   1
  -2  -2  11 100.228 99.3520   4
  -2  -2  11 288.619 157.692   1
  -2  -2  12 1099.32 172.538   1
  -2  -2  13 173.182 161.200   1
  -2  -2  14 731.451 173.095   1
  -2  -1 -12 748.232 176.066   2
  -2  -1 -11 2219.15 215.958   2
  -2  -1 -10 463.184 147.775   2
  -2  -1  -9 7425.11 451.881   4
  -2  -1  -8 18417.1 986.745   4
  -2  -1  -8 15166.1 982.109   1
  -2  -1  -7 1220.37 112.001   1
  -2  -1  -7 1409.12 126.071   4
  -2  -1  -6 3328.23 217.569   4
  -2  -1  -6 3392.51 226.050   3
  -2  -1  -6 3192.68 207.855   1
  -2  -1  -5 13205.5 702.069   4
  -2  -1  -5 11492.8 701.373   3
  -2  -1  -5 12029.6 706.213   2
  -2  -1  -5 11281.0 694.121   1
  -2  -1  -4 9380.59 533.797   4
  -2  -1  -4 9590.03 535.490   3
  -2  -1  -4 9281.10 537.635   2
  -2  -1  -4 8407.65 525.840   1
  -2  -1  -3 16472.5 1018.91   1
  -2  -1  -3 17987.6 1025.28   4
  -2  -1  -3 17475.0 1026.81   2
  -2  -1  -3 19962.7 1027.08   3
  -2  -1  -2 1990.29 146.180   4
  -2  -1  -2 2138.56 146.098   2
  -2  -1  -2 2177.29 135.183   1
  -2  -1  -2 2080.56 142.868   3
  -2  -1  -1 19076.7 1135.99   2
  -2  -1  -1 20217.3 1136.18   3
  -2  -1  -1 19096.8 1137.02   4
  -2  -1   0 6896.32 424.060   4
  -2  -1   0 8001.89 423.514   3
  -2  -1   0 6867.28 419.242   1
  -2  -1   0 6871.62 419.874   2
  -2  -1   1 23959.2 1359.86   2
  -2  -1   1 21799.4 1360.62   1
  -2  -1   1 25394.6 1362.86   3
  -2  -1   1 22780.9 1361.10   1
  -2  -1   2 9268.29 501.290   4
  -2  -1   2 7541.63 491.882   2
  -2  -1   2 9288.70 498.476   3
  -2  -1   2 9493.17 499.581   1
  -2  -1   2 9334.93 498.912   1
  -2  -1   3 10218.8 608.388   1
  -2  -1   3 10861.8 609.138   3
  -2  -1   3 9946.23 608.726   4
  -2  -1   3 10338.7 607.175   5
  -2  -1   4 16772.7 956.185   4
  -2  -1   4 15929.0 956.798   3
  -2  -1   4 16570.0 956.933   1
  -2  -1   4 16137.1 954.554   5
  -2  -1   5 28884.9 1663.06   5
  -2  -1   5 27956.0 1663.17   4
  -2  -1   5 28984.2 1666.00   3
  -2  -1   6 8583.58 414.686   4
  -2  -1   6 8932.62 421.067   3
  -2  -1   6 9245.38 415.447   5
  -2  -1   7 943.974 99.3531   5
  -2  -1   7 910.250 117.444   1
  -2  -1   7 905.213 98.6236   4
  -2  -1   7 806.080 77.2803   2
  -2  -1   7 1028.41 112.807   3
  -2  -1   8 4271.01 260.677   5
  -2  -1   8 3612.83 249.839   2
  -2  -1   8 4271.83 255.390   4
  -2  -1   8 4008.01 267.526   3
  -2  -1   8 4385.10 274.165   1
  -2  -1   9 4450.53 260.144   4
  -2  -1   9 3547.87 255.647   2
  -2  -1   9 4505.66 283.178   1
  -2  -1   9 4056.79 265.717   5
  -2  -1  10 2947.41 206.302   2
  -2  -1  10 2646.74 192.433   4
  -2  -1  10 3040.92 216.306   5
  -2  -1  10 3588.10 238.930   1
  -2  -1  10 3407.32 203.029   4
  -2  -1  11 2704.53 186.577   4
  -2  -1  11 2692.64 199.081   2
  -2  -1  11 2980.72 242.108   1
  -2  -1  12 673.203 168.967   1
  -2  -1  13 757.859 163.626   1
  -2  -1  14 732.358 172.612   1
  -2   0 -13 1306.72 202.818   2
  -2   0 -12 163.259 165.617   2
  -2   0 -11 3470.37 269.380   2
  -2   0 -10 3047.81 238.804   2
  -2   0  -9 3632.03 277.225   1
  -2   0  -9 3926.66 285.329   2
  -2   0  -9 4389.23 259.584   4
  -2   0  -8 105.647 94.7309   1
  -2   0  -8 100.457 88.5016   4
  -2   0  -8-84.4077 117.591   2
  -2   0  -7 9597.56 527.771   4
  -2   0  -7 7888.84 529.649   1
  -2   0  -6 6697.35 428.594   1
  -2   0  -6 7582.11 428.979   4
  -2   0  -5 12395.8 705.366   4
  -2   0  -5 11623.8 704.449   1
  -2   0  -4 7887.02 474.158   1
  -2   0  -4 8238.50 476.634   4
  -2   0  -3 2846.64 175.257   4
  -2   0  -3 2845.96 179.490   2
  -2   0  -3 2612.95 169.965   1
  -2   0  -2 9159.13 525.793   2
  -2   0  -2 8967.61 520.756   1
  -2   0  -2 8563.85 522.554   4
  -2   0  -1 23792.0 1356.89   2
  -2   0  -1 22467.6 1355.75   4
  -2   0  -1 23642.2 1354.71   1
  -2   0   0 12324.6 703.882   2
  -2   0   0 11790.3 702.645   1
  -2   0   1 21760.8 1265.81   2
  -2   0   1 21809.7 1267.31   1
  -2   0   2 6273.22 385.098   1
  -2   0   2 6628.50 381.489   2
  -2   0   3 22847.8 1309.76   2
  -2   0   3 22203.5 1310.44   5
  -2   0   4 1340.15 89.1136   2
  -2   0   4 1267.08 88.5449   2
  -2   0   4 1523.20 94.6295   5
  -2   0   5 19519.1 1209.58   2
  -2   0   5 22734.9 1212.00   5
  -2   0   5 20759.8 1214.39   1
  -2   0   6 8345.22 499.641   1
  -2   0   6 8761.71 494.970   5
  -2   0   6 8037.75 493.656   2
  -2   0   7 6428.09 368.360   1
  -2   0   7 5606.12 359.783   2
  -2   0   7 6088.44 360.827   5
  -2   0   8 1035.47 122.838   1
  -2   0   8 898.708 89.4948   4
  -2   0   8 949.657 100.474   2
  -2   0   8 1132.84 103.453   5
  -2   0   9 1462.81 117.681   4
  -2   0   9 1244.87 118.231   2
  -2   0   9 1269.38 122.436   5
  -2   0   9 1490.96 150.977   1
  -2   0  10 3950.80 265.277   1
  -2   0  10 3568.78 244.462   2
  -2   0  10 3701.09 249.042   5
  -2   0  10 3742.20 234.186   4
  -2   0  11 3938.62 258.159   4
  -2   0  11 4656.39 293.130   1
  -2   0  11 4110.00 272.883   2
  -2   0  12 2297.11 220.567   1
  -2   0  13 1200.17 169.517   1
  -2   0  14 114.597 149.790   1
  -2   1 -13 2020.68 233.411   2
  -2   1 -13 2218.48 215.534   6
  -2   1 -12 3173.42 249.918   6
  -2   1 -12 3136.60 262.037   2
  -2   1 -11 3067.18 246.801   2
  -2   1 -11 3182.63 237.827   6
  -2   1 -10 447.501 135.814   1
  -2   1 -10 567.716 131.085   6
  -2   1 -10 371.855 140.258   2
  -2   1  -9 16127.6 728.095   2
  -2   1  -9 14835.0 726.366   1
  -2   1  -8 13237.0 765.536   2
  -2   1  -8 14109.3 760.902   6
  -2   1  -7 2139.54 177.652   1
  -2   1  -7 2137.18 181.436   2
  -2   1  -7 2463.83 179.223   6
  -2   1  -6 19750.8 1276.13   2
  -2   1  -6 20543.9 1274.17   1
  -2   1  -6 23368.5 1269.93   4
  -2   1  -6 21474.7 1276.90   3
  -2   1  -6 22497.8 1274.60   6
  -2   1  -5 19659.8 1179.74   1
  -2   1  -5 21352.6 1179.88   6
  -2   1  -5 20181.2 1182.04   3
  -2   1  -5 19821.8 1175.88   4
  -2   1  -4 32616.1 1967.12   1
  -2   1  -4 33244.6 1968.79   3
  -2   1  -4 35424.5 1966.90   6
  -2   1  -3 16009.9 919.084   3
  -2   1  -3 16102.9 916.211   6
  -2   1  -3 14998.8 917.258   1
  -2   1  -2 17780.9 953.403   3
  -2   1  -2 16215.8 948.542   6
  -2   1  -2 15459.6 950.760   1
  -2   1  -1 5087.64 290.882   2
  -2   1  -1 4498.87 287.734   1
  -2   1  -1 4960.59 287.780   3
  -2   1   0 22326.2 1310.04   2
  -2   1   0 20017.2 1309.38   1
  -2   1   1 22895.6 1315.97   3
  -2   1   1 22359.0 1316.50   2
  -2   1   2 20525.2 1236.03   2
  -2   1   2 22189.0 1237.18   3
  -2   1   3 8912.63 494.389   2
  -2   1   3 9849.83 496.985   3
  -2   1   3 9903.92 495.418   2
  -2   1   4 13787.9 838.515   4
  -2   1   4 14376.3 838.465   1
  -2   1   4 15845.7 837.976   2
  -2   1   4 14848.3 840.163   3
  -2   1   4 13632.1 833.863   5
  -2   1   4 14410.2 838.787   1
  -2   1   4 14421.1 837.721   2
  -2   1   5 7722.20 441.069   1
  -2   1   5 6698.50 439.052   4
  -2   1   5 7222.83 436.868   5
  -2   1   5 7715.49 439.330   2
  -2   1   5 7550.68 443.129   3
  -2   1   5 7847.66 442.398   1
  -2   1   6 12764.8 745.190   1
  -2   1   6 12057.8 742.222   4
  -2   1   6 13047.6 744.458   1
  -2   1   6 12427.5 743.034   2
  -2   1   6 14759.3 752.146   3
  -2   1   6 12168.3 741.234   5
  -2   1   7 7835.74 496.995   5
  -2   1   7 8315.84 500.361   1
  -2   1   7 8752.92 500.309   2
  -2   1   7 9525.43 509.254   3
  -2   1   7 7937.86 496.433   4
  -2   1   7 8661.31 499.906   1
  -2   1   8 1872.65 147.706   5
  -2   1   8 1860.48 143.191   4
  -2   1   8 2057.92 156.468   1
  -2   1   8 2495.76 181.048   3
  -2   1   8 2067.02 152.474   1
  -2   1   8 2196.24 153.688   2
  -2   1   9 10886.3 653.026   5
  -2   1   9 11609.1 655.377   1
  -2   1   9 10712.7 654.729   2
  -2   1   9 11094.7 657.214   1
  -2   1   9 10859.7 648.353   4
  -2   1  10 6521.23 411.181   1
  -2   1  10 6362.11 409.987   5
  -2   1  10 6578.09 413.370   2
  -2   1  10 6965.19 402.975   4
  -2   1  10 6776.88 418.846   1
  -2   1  11 515.480 118.265   5
  -2   1  11 503.637 115.064   2
  -2   1  11 665.839 144.055   1
  -2   1  12 4897.86 336.567   1
  -2   1  13 2211.39 210.286   1
  -2   1  14 113.168 144.814   1
  -2   2 -13 1823.40 194.025   6
  -2   2 -13 1347.82 207.048   2
  -2   2 -12 1425.24 188.366   2
  -2   2 -12 1409.25 174.357   6
  -2   2 -11 2396.37 201.185   6
  -2   2 -11 2317.28 210.239   2
  -2   2 -10 2894.48 237.768   2
  -2   2 -10 3208.02 227.839   6
  -2   2  -9 1383.65 152.598   2
  -2   2  -9 1564.99 144.681   6
  -2   2  -8 2444.82 161.840   4
  -2   2  -8 2666.01 196.042   1
  -2   2  -8 3038.26 199.965   2
  -2   2  -7 11092.4 628.488   6
  -2   2  -7 9730.19 631.809   1
  -2   2  -7 10701.7 633.374   2
  -2   2  -7 10526.2 618.686   4
  -2   2  -6 659.699 97.8984   1
  -2   2  -6 649.730 73.6038   4
  -2   2  -6 709.299 97.5931   2
  -2   2  -6 660.834 94.5718   6
  -2   2  -5 18004.7 1036.79   2
  -2   2  -5 16547.7 1033.82   1
  -2   2  -5 18154.9 1029.14   4
  -2   2  -5 17549.8 1035.58   5
  -2   2  -4 15230.5 876.936   5
  -2   2  -4 14638.0 875.828   1
  -2   2  -4 13390.7 874.383   3
  -2   2  -4 16318.5 879.652   2
  -2   2  -4 15306.6 871.614   4
  -2   2  -3 25729.9 1528.10   1
  -2   2  -3 26264.8 1526.02   4
  -2   2  -3 27807.4 1529.88   5
  -2   2  -3 25452.2 1527.87   3
  -2   2  -2 7353.83 401.012   5
  -2   2  -2 6341.92 400.004   1
  -2   2  -2 6803.60 398.655   4
  -2   2  -2 6517.57 397.902   3
  -2   2  -1 31098.2 1782.42   5
  -2   2  -1 30739.3 1783.22   4
  -2   2  -1 30632.2 1782.13   3
  -2   2  -1 30213.9 1783.42   1
  -2   2   0 10249.3 600.250   4
  -2   2   0 10379.0 596.951   5
  -2   2   0 10083.6 596.874   3
  -2   2   1 23266.0 1264.60   2
  -2   2   1 20019.4 1259.90   5
  -2   2   1 24065.2 1261.73   3
  -2   2   2 31882.0 1874.81   2
  -2   2   2 33076.2 1872.67   3
  -2   2   2 32299.4 1874.02   1
  -2   2   2 31717.7 1872.13   6
  -2   2   3 7104.89 434.077   4
  -2   2   3 7586.66 431.727   3
  -2   2   3 7280.73 431.070   6
  -2   2   3 7562.06 433.555   2
  -2   2   3 7425.01 431.568   1
  -2   2   3 6857.67 432.541   2
  -2   2   4 3802.09 256.485   5
  -2   2   4 4999.23 266.635   2
  -2   2   4 4391.87 264.443   2
  -2   2   4 4634.24 264.260   3
  -2   2   4 4625.67 262.874   1
  -2   2   4 4234.03 263.144   6
  -2   2   4 4389.90 264.164   4
  -2   2   5 6522.47 425.087   5
  -2   2   5 6982.95 428.866   6
  -2   2   5 7759.81 428.850   1
  -2   2   5 7362.64 429.934   2
  -2   2   5 7692.17 432.924   3
  -2   2   5 7347.64 429.340   4
  -2   2   6 4776.10 338.972   5
  -2   2   6 5851.81 341.811   1
  -2   2   6 5669.38 343.781   1
  -2   2   6 6173.28 346.556   2
  -2   2   6 5202.06 344.054   6
  -2   2   6 5725.90 342.053   4
  -2   2   7 4285.84 253.609   1
  -2   2   7 4216.72 254.576   4
  -2   2   7 3591.93 252.450   5
  -2   2   7 3834.71 259.067   6
  -2   2   7 4131.53 258.635   2
  -2   2   7 4604.65 269.192   3
  -2   2   7 4013.92 257.956   1
  -2   2   8 1777.69 151.178   1
  -2   2   8 1941.97 153.915   2
  -2   2   8 1996.21 142.890   1
  -2   2   8 1983.54 162.725   3
  -2   2   8 1804.72 145.985   5
  -2   2   8 2141.01 146.967   4
  -2   2   9 2415.57 179.647   5
  -2   2   9 2240.83 185.309   1
  -2   2   9 2452.56 174.501   1
  -2   2   9 2739.09 175.688   4
  -2   2   9 2857.89 191.062   2
  -2   2  10 38.4491 98.2004   5
  -2   2  10 7.75229 89.0105   4
  -2   2  10-4.63133 84.6180   1
  -2   2  10 2.87524 111.790   1
  -2   2  11 2175.14 182.918   1
  -2   2  11 1916.79 156.474   1
  -2   2  12 383.857 143.715   1
  -2   2  13 144.788 156.592   3
  -2   2  13 383.986 149.934   1
  -2   2  14 1315.34 196.455   3
  -2   3 -13 406.434 159.533   6
  -2   3 -13 539.709 177.531   2
  -2   3 -12 3205.41 266.351   2
  -2   3 -12 3342.47 251.716   6
  -2   3 -11 2079.35 210.134   2
  -2   3 -11 2458.09 196.352   6
  -2   3 -10 5983.61 407.641   2
  -2   3 -10 6751.90 403.394   6
  -2   3  -9 9945.68 622.639   2
  -2   3  -9 10535.2 618.197   6
  -2   3  -8 9756.10 500.101   2
  -2   3  -8 7681.99 476.484   4
  -2   3  -7 1972.17 174.022   5
  -2   3  -7 2018.94 166.120   2
  -2   3  -7 1705.82 164.238   1
  -2   3  -7 2124.36 139.170   4
  -2   3  -6 11086.9 629.979   4
  -2   3  -6 9595.40 638.408   1
  -2   3  -6 11231.3 640.654   5
  -2   3  -6 10493.4 639.123   2
  -2   3  -5 3592.43 245.952   2
  -2   3  -5 4313.85 238.723   4
  -2   3  -5 3463.12 246.081   1
  -2   3  -5 3758.63 245.992   5
  -2   3  -4 28149.3 1573.36   4
  -2   3  -4 26736.0 1576.16   5
  -2   3  -4 25600.0 1576.70   1
  -2   3  -4 27156.3 1577.13   2
  -2   3  -3 16840.2 1014.78   5
  -2   3  -3 18058.8 1013.94   4
  -2   3  -3 16487.6 1016.25   1
  -2   3  -3 17954.7 1016.86   2
  -2   3  -2 14307.3 804.348   5
  -2   3  -2 13812.2 803.731   4
  -2   3  -2 12976.7 800.982   3
  -2   3  -2 14300.2 805.880   2
  -2   3  -1 3445.66 201.215   4
  -2   3  -1 3505.31 199.275   5
  -2   3  -1 2973.30 191.428   3
  -2   3   0 26572.8 1406.90   1
  -2   3   0 25844.5 1404.47   5
  -2   3   0 21766.4 1401.82   3
  -2   3   0 26977.5 1407.65   4
  -2   3   1 2797.09 168.761   4
  -2   3   1 2775.67 163.944   1
  -2   3   1 2355.58 153.873   3
  -2   3   1 2867.46 159.365   5
  -2   3   2 26479.0 1405.67   1
  -2   3   2 24068.5 1402.40   5
  -2   3   2 23235.5 1401.37   3
  -2   3   3 21471.9 1208.27   4
  -2   3   3 19684.9 1207.75   2
  -2   3   3 21276.6 1205.02   1
  -2   3   3 20006.7 1203.38   3
  -2   3   3 20926.6 1203.21   5
  -2   3   3 20965.8 1208.36   2
  -2   3   4 11004.1 639.251   4
  -2   3   4 10723.6 636.833   6
  -2   3   4 10864.7 634.624   1
  -2   3   4 11103.6 640.148   2
  -2   3   4 10984.1 635.936   3
  -2   3   4 10233.3 638.280   2
  -2   3   5 7868.59 505.191   6
  -2   3   5 8065.65 507.319   2
  -2   3   5 8475.73 501.911   1
  -2   3   5 9655.61 509.704   3
  -2   3   5 8698.06 507.689   4
  -2   3   6 5876.58 356.395   4
  -2   3   6 5648.03 355.859   6
  -2   3   6 5844.64 357.038   2
  -2   3   6 5740.90 355.310   3
  -2   3   6 5919.46 350.118   1
  -2   3   7 4794.63 330.349   3
  -2   3   7 5251.65 331.862   6
  -2   3   7 5195.19 333.338   2
  -2   3   7 5600.89 329.025   1
  -2   3   7 5438.43 324.602   1
  -2   3   7 5574.61 330.845   4
  -2   3   8 8855.38 498.139   4
  -2   3   8 7589.77 497.508   5
  -2   3   8 7927.56 499.973   6
  -2   3   8 8870.90 493.227   1
  -2   3   8 8645.05 503.680   2
  -2   3   8 8146.29 495.788   1
  -2   3   8 7628.19 500.082   3
  -2   3   9 2058.32 165.536   5
  -2   3   9 2154.72 162.940   4
  -2   3   9 2234.72 152.791   1
  -2   3   9 1663.64 157.071   1
  -2   3  10 2553.44 176.630   1
  -2   3  10 2040.61 182.001   1
  -2   3  10 2336.53 184.876   5
  -2   3  10 2648.02 198.617   3
  -2   3  10 2424.90 187.150   4
  -2   3  11 194.003 134.067   3
  -2   3  11 62.6190 121.262   1
  -2   3  12 1164.28 154.035   1
  -2   3  12 1108.58 165.902   3
  -2   3  13 435.612 156.193   3
  -2   4 -13 1029.39 194.047   2
  -2   4 -13 1100.19 173.526   6
  -2   4 -12 900.004 162.715   6
  -2   4 -12 1021.67 178.400   2
  -2   4 -11 2219.11 213.012   2
  -2   4 -11 2700.87 210.344   6
  -2   4 -10 126.985 139.796   2
  -2   4  -9 3300.51 242.302   2
  -2   4  -8 1608.31 159.396   5
  -2   4  -8 1647.40 132.171   4
  -2   4  -8 1516.49 158.120   2
  -2   4  -7 8558.30 491.457   4
  -2   4  -7 7749.58 501.435   2
  -2   4  -7 8253.40 501.189   5
  -2   4  -6 5182.59 330.292   5
  -2   4  -6 4869.65 330.277   2
  -2   4  -6 4950.88 333.879   1
  -2   4  -6 5978.70 326.975   4
  -2   4  -5 7522.23 480.948   1
  -2   4  -5 7336.61 477.785   2
  -2   4  -5 7833.28 478.439   5
  -2   4  -4 8989.08 562.211   5
  -2   4  -4 9126.68 562.760   2
  -2   4  -4 10314.9 561.114   4
  -2   4  -3 706.365 88.0641   4
  -2   4  -3 601.627 86.4977   5
  -2   4  -3 561.645 82.8258   2
  -2   4  -2 22307.6 1365.62   2
  -2   4  -2 24432.4 1365.65   5
  -2   4  -2 22926.3 1366.67   1
  -2   4  -2 23945.7 1365.69   4
  -2   4  -1 32071.3 1899.74   5
  -2   4  -1 34716.5 1902.51   4
  -2   4  -1 33212.1 1902.12   1
  -2   4  -1 31291.2 1901.64   2
  -2   4   0 456.943 83.5497   4
  -2   4   0 540.044 80.9575   2
  -2   4   0 473.904 73.9786   1
  -2   4   0 445.018 68.6080   5
  -2   4   1 28116.4 1673.68   2
  -2   4   1 28925.2 1671.05   5
  -2   4   1 28697.8 1671.64   1
  -2   4   1 29136.1 1674.03   4
  -2   4   2 1113.99 75.7652   5
  -2   4   2 1004.24 80.8537   1
  -2   4   3 1183.48 90.7112   3
  -2   4   3 1294.29 90.2430   3
  -2   4   3 1179.34 96.8153   1
  -2   4   3 1269.66 95.7705   5
  -2   4   3 1134.03 116.225   4
  -2   4   4 11599.4 718.164   1
  -2   4   4 12221.2 724.800   4
  -2   4   4 12305.0 717.682   3
  -2   4   4 11892.2 719.898   5
  -2   4   4 13395.2 720.654   3
  -2   4   5 5114.38 294.380   4
  -2   4   5 4713.26 282.969   1
  -2   4   5 4603.11 292.235   2
  -2   4   5 5116.31 286.402   3
  -2   4   5 4396.08 283.230   3
  -2   4   5 3885.34 290.662   2
  -2   4   6 772.134 113.399   4
  -2   4   6 723.287 84.1671   1
  -2   4   6 748.839 100.568   3
  -2   4   6 734.697 105.691   2
  -2   4   6 573.528 90.7706   3
  -2   4   6 675.727 101.400   6
  -2   4   7 4085.01 264.035   1
  -2   4   7 4644.28 279.252   4
  -2   4   7 4337.68 264.415   1
  -2   4   7 4573.70 274.424   3
  -2   4   7 3872.77 275.679   6
  -2   4   7 3928.84 269.938   3
  -2   4   8 3583.01 238.021   1
  -2   4   8 3744.24 235.082   1
  -2   4   8 4138.39 256.686   4
  -2   4   8 3180.57 244.696   3
  -2   4   8 3901.61 249.225   3
  -2   4   9 240.279 92.6884   1
  -2   4   9 57.0223 118.710   4
  -2   4   9 301.466 120.257   3
  -2   4  10 2014.41 163.136   1
  -2   4  10 2145.59 188.666   3
  -2   4  11 1071.76 159.432   3
  -2   4  11 684.147 129.674   1
  -2   4  12 479.742 163.242   3
  -2   4  13 532.582 164.759   3
  -2   5 -12 2466.48 227.524   2
  -2   5 -11 125.528 156.743   2
  -2   5 -10 5584.07 369.234   2
  -2   5  -9 2818.74 226.476   2
  -2   5  -9 2785.47 222.967   5
  -2   5  -8 3627.07 266.480   5
  -2   5  -8 4039.46 272.329   2
  -2   5  -7 4101.44 248.206   4
  -2   5  -7 3335.66 248.637   2
  -2   5  -7 3436.24 248.450   5
  -2   5  -6 5091.25 313.472   4
  -2   5  -6 5156.39 316.984   5
  -2   5  -6 4502.54 313.207   2
  -2   5  -5 14451.9 866.648   5
  -2   5  -5 13897.8 866.764   2
  -2   5  -5 16075.7 867.725   4
  -2   5  -4 3730.51 245.899   5
  -2   5  -4 3623.06 252.274   1
  -2   5  -4 3474.26 243.773   2
  -2   5  -3 716.190 96.7812   2
  -2   5  -3 826.321 107.337   5
  -2   5  -3 744.032 108.720   1
  -2   5  -3 840.008 118.834   4
  -2   5  -2 7777.39 390.778   4
  -2   5  -2 6777.27 385.776   1
  -2   5  -2 6632.95 380.935   5
  -2   5  -1 1935.07 149.576   1
  -2   5  -1 1795.66 143.288   2
  -2   5  -1 2308.37 160.707   4
  -2   5  -1 1910.64 142.120   5
  -2   5   0 11865.5 665.390   2
  -2   5   0 11913.7 662.125   4
  -2   5   0 10841.2 656.974   1
  -2   5   0 10415.0 654.941   5
  -2   5   1 457.385 86.7989   2
  -2   5   1 560.023 108.159   4
  -2   5   1 471.729 87.2754   2
  -2   5   1 372.584 78.8940   5
  -2   5   1 546.961 87.7111   1
  -2   5   2 7694.18 505.585   2
  -2   5   2 8860.40 503.438   5
  -2   5   2 9050.74 503.047   1
  -2   5   2 8000.89 507.490   2
  -2   5   3 4891.48 277.685   2
  -2   5   3 3839.05 256.195   3
  -2   5   3 4232.93 257.520   3
  -2   5   3 4468.50 277.653   2
  -2   5   3 5227.28 269.392   1
  -2   5   3 4797.91 270.125   5
  -2   5   4 1632.95 119.216   1
  -2   5   4 1502.15 110.195   3
  -2   5   4 1647.19 150.900   4
  -2   5   4 1382.36 110.003   3
  -2   5   4 1490.77 126.811   5
  -2   5   5 2169.54 161.276   5
  -2   5   5 2285.43 181.184   4
  -2   5   5 2065.50 147.594   3
  -2   5   5 1958.58 145.900   3
  -2   5   5 2206.80 147.733   1
  -2   5   6 4210.30 275.811   3
  -2   5   6 4696.55 273.021   1
  -2   5   6 4086.48 275.760   3
  -2   5   6 4708.67 286.772   5
  -2   5   7 482.005 79.6983   1
  -2   5   7 431.886 98.7639   3
  -2   5   7 470.685 97.5107   3
  -2   5   8 2471.66 169.554   1
  -2   5   8 2522.38 183.708   3
  -2   5   8 2206.36 182.038   3
  -2   5   8 2375.31 167.115   1
  -2   5   9 4482.83 284.435   1
  -2   5   9 4627.91 298.506   3
  -2   5  10-224.637 126.313   3
  -2   5  11 371.179 134.461   3
  -2   5  12 178.428 142.694   3
  -2   6 -11 1908.90 205.984   2
  -2   6 -10 684.384 171.785   5
  -2   6 -10 846.414 169.062   2
  -2   6  -9 2075.25 203.784   5
  -2   6  -9 2440.33 208.861   2
  -2   6  -8 1531.40 167.108   5
  -2   6  -8 1748.00 178.118   2
  -2   6  -7 1544.06 159.330   2
  -2   6  -7 1398.59 158.124   5
  -2   6  -6 3216.64 237.074   2
  -2   6  -6 3123.65 236.471   5
  -2   6  -5 6807.79 444.834   2
  -2   6  -5 6882.16 444.724   5
  -2   6  -4 30.6364 107.391   5
  -2   6  -4 53.3664 98.2906   2
  -2   6  -4 121.395 123.010   4
  -2   6  -3 8262.01 521.604   2
  -2   6  -3 8327.55 519.217   5
  -2   6  -2 3931.31 280.243   2
  -2   6  -2 4673.37 288.279   1
  -2   6  -2 4418.63 281.731   5
  -2   6  -1 5166.44 304.174   4
  -2   6  -1 4372.44 288.418   5
  -2   6  -1 4931.50 293.692   1
  -2   6  -1 4182.01 288.806   2
  -2   6   0 3108.20 212.935   2
  -2   6   0 2922.37 196.401   1
  -2   6   0 2338.31 195.379   2
  -2   6   0 2608.18 192.039   5
  -2   6   1 2151.91 160.407   1
  -2   6   1 1991.74 154.890   5
  -2   6   1 1998.27 163.000   2
  -2   6   2 695.816 107.538   2
  -2   6   2 923.543 107.452   1
  -2   6   2 781.562 103.375   5
  -2   6   3 1640.57 125.878   2
  -2   6   3 1731.20 114.859   1
  -2   6   3 756.887 60.9260   3
  -2   6   3 1595.46 115.785   5
  -2   6   3 980.619 63.6854   3
  -2   6   4 1397.82 110.401   3
  -2   6   4 1889.92 139.366   5
  -2   6   4 2065.52 134.725   1
  -2   6   4 1579.52 113.604   3
  -2   6   4 1786.64 153.537   2
  -2   6   5 1357.19 147.802   2
  -2   6   5 1337.42 112.336   3
  -2   6   5 1533.31 121.723   1
  -2   6   5 1258.65 110.407   3
  -2   6   5 1282.89 137.298   5
  -2   6   6 149.303 84.3425   3
  -2   6   6 322.671 113.620   5
  -2   6   6 373.697 85.0310   1
  -2   6   6 329.521 96.5121   3
  -2   6   7 709.012 123.790   5
  -2   6   7 538.792 113.412   3
  -2   6   8-42.7866 125.499   5
  -2   6   8 142.538 110.952   3
  -2   6   9 294.076 125.361   3
  -2   6  10 1730.37 176.233   3
  -2   6  11 617.485 153.286   3
  -2   7 -10 642.744 174.230   5
  -2   7 -10 847.510 173.225   2
  -2   7  -9 1563.03 201.742   2
  -2   7  -9 1740.27 189.832   5
  -2   7  -8 714.296 159.875   5
  -2   7  -8 720.901 152.436   2
  -2   7  -7 863.091 151.419   2
  -2   7  -7 1139.83 155.371   5
  -2   7  -6 1513.35 165.600   2
  -2   7  -6 1571.22 164.874   5
  -2   7  -5 830.712 136.214   5
  -2   7  -5 744.732 132.256   2
  -2   7  -4 2098.61 182.724   2
  -2   7  -4 2384.14 186.319   5
  -2   7  -3 649.791 119.552   2
  -2   7  -3 671.891 117.658   5
  -2   7  -2 406.856 114.483   2
  -2   7  -2 421.196 111.724   5
  -2   7  -1 3637.44 242.164   5
  -2   7  -1 3339.95 243.167   2
  -2   7   0 972.582 139.833   1
  -2   7   0 1225.70 134.709   5
  -2   7   0 1181.25 166.635   2
  -2   7   1 906.733 124.948   1
  -2   7   1 877.411 121.994   5
  -2   7   1 563.453 128.427   2
  -2   7   2 2012.60 187.316   2
  -2   7   2 2600.98 185.951   1
  -2   7   2 2506.37 185.054   5
  -2   7   3 1068.30 124.905   1
  -2   7   3 921.309 129.366   5
  -2   7   3 779.562 132.878   2
  -2   7   4 311.631 111.477   5
  -2   7   4 370.013 125.029   2
  -2   7   4 462.009 108.332   1
  -2   7   5 643.070 116.978   5
  -2   7   5 638.623 137.518   2
  -2   7   6 166.854 137.630   2
  -2   7   6 115.229 120.132   5
  -2   7   7-123.281 130.047   5
  -2   7   7-13.0207 145.654   2
  -2   7   8 696.322 147.239   5
  -2   7   9 429.148 150.552   5
  -2   8  -8 446.949 163.880   2
  -2   8  -8 435.309 162.319   5
  -2   8  -7 1780.19 191.905   2
  -2   8  -7 1917.13 198.117   5
  -2   8  -6 447.931 148.390   5
  -2   8  -6 617.268 150.853   2
  -2   8  -5 554.949 157.541   5
  -2   8  -5 484.034 136.813   2
  -2   8  -4 436.311 135.011   5
  -2   8  -4 508.760 130.173   2
  -2   8  -3 1210.01 147.989   2
  -2   8  -3 968.132 144.823   5
  -2   8  -2 1115.26 147.620   2
  -2   8  -2 1221.07 147.638   5
  -2   8  -1 288.996 127.698   5
  -2   8  -1 185.434 128.716   2
  -2   8   0 453.422 147.212   2
  -2   8   0 645.146 134.941   5
  -2   8   1 1848.59 191.753   2
  -2   8   1 2128.43 186.775   5
  -2   8   2 431.474 128.371   5
  -2   8   2 320.602 141.287   2
  -2   8   3-33.2665 129.007   2
  -2   8   3 270.392 126.759   5
  -2   8   4 898.587 144.048   5
  -2   8   4 958.377 157.905   2
  -2   8   5 402.849 133.334   5
  -2   8   5 396.736 153.810   2
  -2   8   6 37.6309 152.457   2
  -2   8   6-32.4684 125.004   5
  -2   8   7 185.287 140.109   5
  -2   8   7 190.846 159.215   2
  -2   9  -5 684.793 182.783   5
  -2   9  -5 531.630 154.901   2
  -2   9  -4 263.709 149.524   2
  -2   9  -4 283.179 149.062   5
  -2   9  -3 110.163 140.747   5
  -2   9  -3 201.528 148.112   2
  -2   9  -2 144.515 142.997   5
  -2   9  -2 275.401 135.888   2
  -2   9  -1 553.322 151.800   5
  -2   9  -1 479.505 155.690   2
  -2   9   0 72.8870 144.683   5
  -2   9   0-94.9747 158.732   2
  -2   9   1 374.286 159.347   5
  -2   9   1 490.764 215.146   2
  -2   9   2 391.314 149.192   5
  -2   9   2 159.553 164.533   2
  -2   9   3 367.461 170.499   2
  -2   9   3 542.866 155.840   5
  -2   9   4-57.4461 157.663   2
  -2   9   4-3.44578 144.134   5
  -1  -8  -2 743.179 203.449   4
  -1  -8   0 426.333 195.419   4
  -1  -8   1 1272.15 210.583   4
  -1  -8   2 351.626 184.999   4
  -1  -8   3 712.370 185.735   4
  -1  -8   3 335.392 162.134   1
  -1  -8   4 411.703 168.956   1
  -1  -8   4 502.351 186.671   4
  -1  -8   5 96.8246 178.159   4
  -1  -7  -6 334.766 183.423   4
  -1  -7  -6 64.6150 157.924   2
  -1  -7  -5 175.886 183.199   4
  -1  -7  -5 257.856 152.454   2
  -1  -7  -4 155.951 174.344   4
  -1  -7  -3 593.440 180.877   4
  -1  -7  -2 1287.99 199.665   4
  -1  -7   0 1465.64 198.910   4
  -1  -7   0 1428.04 146.639   1
  -1  -7   1 82.3792 169.746   4
  -1  -7   1 256.886 127.129   1
  -1  -7   2 957.562 185.166   4
  -1  -7   2 1146.36 153.738   1
  -1  -7   3 256.858 172.303   4
  -1  -7   3 422.712 143.357   1
  -1  -7   4 1406.94 193.012   4
  -1  -7   4 1489.67 179.043   1
  -1  -7   5 1876.65 200.273   4
  -1  -7   5 1395.89 188.315   1
  -1  -7   6 597.787 170.867   4
  -1  -7   6 474.002 169.648   1
  -1  -7   7-70.4091 172.882   1
  -1  -7   7-73.3782 158.735   4
  -1  -7   8 515.603 160.300   4
  -1  -7   8 768.401 186.745   1
  -1  -6  -8 137.247 165.470   4
  -1  -6  -8 240.952 161.610   2
  -1  -6  -7 199.677 170.761   4
  -1  -6  -7 285.787 145.840   2
  -1  -6  -6 669.701 171.936   4
  -1  -6  -6 446.788 143.567   2
  -1  -6  -5 1492.11 182.693   4
  -1  -6  -5 826.130 148.107   2
  -1  -6  -4 2610.13 223.989   2
  -1  -6  -4 3443.95 247.398   4
  -1  -6  -3 131.729 153.587   4
  -1  -6  -3 120.745 117.208   2
  -1  -6  -2 2016.18 191.728   4
  -1  -6  -2 1694.12 154.387   3
  -1  -6  -2 1750.05 132.806   1
  -1  -6  -1 589.646 101.555   1
  -1  -6  -1 818.657 115.239   3
  -1  -6   0 227.904 105.355   1
  -1  -6   0 111.595 88.0611   3
  -1  -6   1 283.192 136.893   4
  -1  -6   1 238.802 114.971   1
  -1  -6   1 111.520 93.3638   3
  -1  -6   2 1544.08 152.544   1
  -1  -6   2 1093.37 130.764   3
  -1  -6   2 1601.66 167.046   4
  -1  -6   3 943.656 141.234   1
  -1  -6   3 791.052 107.794   3
  -1  -6   3 1058.88 154.337   4
  -1  -6   4 2164.73 177.594   1
  -1  -6   4 2070.52 183.313   4
  -1  -6   5 852.908 149.848   1
  -1  -6   5 928.129 150.080   4
  -1  -6   6 1567.62 176.825   1
  -1  -6   6 1359.45 167.889   4
  -1  -6   7 2871.15 242.076   1
  -1  -6   7 3019.16 231.856   4
  -1  -6   8 177.838 157.949   1
  -1  -6   8 273.224 142.580   4
  -1  -6   9 677.146 179.568   1
  -1  -6   9 838.781 146.706   4
  -1  -6  10 1030.15 193.102   1
  -1  -5 -10 40.6250 149.638   4
  -1  -5 -10-81.1315 165.193   2
  -1  -5  -9 698.481 159.633   4
  -1  -5  -9 523.913 162.980   2
  -1  -5  -8 268.770 148.688   4
  -1  -5  -8 267.963 146.652   2
  -1  -5  -7 803.432 157.712   4
  -1  -5  -7 629.443 146.181   2
  -1  -5  -6 490.916 151.801   4
  -1  -5  -6 605.547 137.448   2
  -1  -5  -5 5579.23 345.618   4
  -1  -5  -5 4707.27 335.995   2
  -1  -5  -4 1605.20 162.832   4
  -1  -5  -4 1352.06 134.108   3
  -1  -5  -4 1364.41 147.122   2
  -1  -5  -3 1394.57 126.019   3
  -1  -5  -3 1139.87 85.6071   1
  -1  -5  -3 1245.58 129.970   2
  -1  -5  -2 4067.48 268.114   4
  -1  -5  -2 4084.77 238.487   1
  -1  -5  -2 3544.59 251.871   3
  -1  -5  -2 3479.47 254.672   2
  -1  -5  -1 3672.92 266.268   3
  -1  -5  -1 3801.29 270.470   2
  -1  -5   0 4089.11 230.023   1
  -1  -5   0 2899.91 224.328   3
  -1  -5   1 4474.48 277.860   4
  -1  -5   1 4621.37 263.184   1
  -1  -5   2 1566.62 150.282   4
  -1  -5   2 1344.00 133.714   1
  -1  -5   3 8013.71 421.625   4
  -1  -5   3 7866.52 416.018   1
  -1  -5   4 2159.64 173.030   4
  -1  -5   4 2118.65 166.941   1
  -1  -5   5 1918.01 169.417   4
  -1  -5   5 2052.53 169.941   1
  -1  -5   6 8379.06 458.513   4
  -1  -5   6 7855.27 462.082   1
  -1  -5   7 928.269 153.176   1
  -1  -5   7 1018.56 140.754   4
  -1  -5   8 4528.23 293.790   4
  -1  -5   8 4315.54 308.327   1
  -1  -5   9 75.5546 157.520   1
  -1  -5   9 296.033 124.518   4
  -1  -5  10 488.822 172.466   1
  -1  -4 -10 468.570 140.389   4
  -1  -4  -9 113.583 133.392   4
  -1  -4  -9-62.2390 142.297   2
  -1  -4  -8 3344.67 226.802   4
  -1  -4  -8 2419.10 224.697   2
  -1  -4  -7 541.391 140.538   4
  -1  -4  -7 494.366 128.700   2
  -1  -4  -6 2227.69 187.316   4
  -1  -4  -6 1897.12 175.892   2
  -1  -4  -5 6285.55 382.341   4
  -1  -4  -5 6188.01 376.634   3
  -1  -4  -5 5753.74 379.958   2
  -1  -4  -4 1808.37 153.354   4
  -1  -4  -4 1559.45 136.285   3
  -1  -4  -4 1680.25 146.720   2
  -1  -4  -3 8918.90 414.058   4
  -1  -4  -3 8292.63 406.297   3
  -1  -4  -3 9123.45 412.423   2
  -1  -4  -2 1430.90 100.434   1
  -1  -4  -2 1210.84 119.010   3
  -1  -4  -2 1319.20 121.952   2
  -1  -4  -2 1420.55 144.627   4
  -1  -4  -1 148.972 76.9719   2
  -1  -4  -1 135.819 67.9655   3
  -1  -4  -1 155.192 68.6656   1
  -1  -4   0 793.502 88.5950   3
  -1  -4   0 922.497 94.1614   2
  -1  -4   1 3465.76 204.783   4
  -1  -4   1 3109.78 182.132   1
  -1  -4   2 12043.4 577.742   4
  -1  -4   2 10689.5 568.031   1
  -1  -4   3 850.901 103.676   1
  -1  -4   3 868.484 120.591   4
  -1  -4   3 627.396 97.8173   5
  -1  -4   3 671.080 82.1191   3
  -1  -4   4 1240.46 122.395   5
  -1  -4   4 1533.46 131.219   1
  -1  -4   4 1191.86 118.430   3
  -1  -4   5 2796.91 178.679   4
  -1  -4   5 2434.98 172.706   1
  -1  -4   5 1973.65 160.868   3
  -1  -4   5 1642.55 160.829   5
  -1  -4   6 4828.76 297.109   1
  -1  -4   6 3954.77 289.051   3
  -1  -4   6 4216.77 275.892   2
  -1  -4   7 3155.15 213.121   2
  -1  -4   7 3409.04 239.167   1
  -1  -4   7 3019.22 236.764   3
  -1  -4   8 6543.90 396.495   1
  -1  -4   8 7270.34 386.582   4
  -1  -4   9 6272.11 386.450   4
  -1  -4  10 195.552 103.316   4
  -1  -4  11 987.333 178.162   1
  -1  -4  12 258.397 173.381   1
  -1  -4  13 80.3372 178.347   1
  -1  -3 -12 277.379 177.083   2
  -1  -3 -11 891.133 169.970   2
  -1  -3 -10 227.845 121.921   4
  -1  -3  -9 1854.39 170.722   4
  -1  -3  -8 242.138 123.006   4
  -1  -3  -7 3113.30 224.603   4
  -1  -3  -6 6878.91 415.806   3
  -1  -3  -6 6649.71 418.495   2
  -1  -3  -6 6761.98 414.728   4
  -1  -3  -5 2719.42 197.761   4
  -1  -3  -5 2942.28 194.814   3
  -1  -3  -5 2785.39 197.085   2
  -1  -3  -4 1292.67 124.811   4
  -1  -3  -4 1019.28 103.291   3
  -1  -3  -4 1135.47 116.066   2
  -1  -3  -3 19137.6 1185.42   3
  -1  -3  -3 20536.0 1187.21   2
  -1  -3  -3 21514.7 1189.61   4
  -1  -3  -2 39809.9 2186.32   4
  -1  -3  -2 34764.4 2182.76   3
  -1  -3  -2 39067.9 2184.19   2
  -1  -3  -2 37458.3 2177.37   1
  -1  -3  -1 24833.3 1388.96   4
  -1  -3  -1 25400.9 1382.42   1
  -1  -3  -1 25733.0 1386.60   2
  -1  -3   0 6457.28 434.924   3
  -1  -3   0 7190.12 434.830   2
  -1  -3   1 11122.2 553.031   1
  -1  -3   1 9578.85 554.220   4
  -1  -3   2 3956.08 225.129   4
  -1  -3   2 4286.89 226.098   1
  -1  -3   2 3484.91 220.530   5
  -1  -3   3 10364.7 579.012   4
  -1  -3   3 11245.8 580.772   1
  -1  -3   3 8724.38 574.654   3
  -1  -3   3 9232.12 576.497   5
  -1  -3   4 5913.84 375.213   5
  -1  -3   4 5480.61 372.482   3
  -1  -3   4 6973.94 381.339   1
  -1  -3   4 6748.99 377.166   4
  -1  -3   5 14571.9 744.578   4
  -1  -3   5 13337.2 746.682   1
  -1  -3   5 12759.5 745.424   5
  -1  -3   5 12660.4 745.124   3
  -1  -3   5 11657.9 735.797   2
  -1  -3   6 6081.62 417.627   5
  -1  -3   6 7229.61 415.164   4
  -1  -3   6 7018.44 421.614   1
  -1  -3   6 7060.23 407.969   2
  -1  -3   6 6550.16 417.896   3
  -1  -3   7 2985.99 205.914   2
  -1  -3   7 3118.64 227.117   5
  -1  -3   7 3780.65 216.646   4
  -1  -3   7 3716.67 229.991   3
  -1  -3   8 4491.92 233.665   4
  -1  -3   8 3720.18 244.476   3
  -1  -3   9 1980.47 154.755   2
  -1  -3   9 2456.02 160.024   4
  -1  -3   9 2084.75 185.454   1
  -1  -3  10 5673.81 323.090   4
  -1  -3  10 5530.97 350.242   1
  -1  -3  10 4652.55 328.569   2
  -1  -3  11 1257.26 169.924   1
  -1  -3  12 1466.75 189.877   1
  -1  -3  13 3371.85 275.640   1
  -1  -2 -13 652.999 184.951   2
  -1  -2 -12 648.115 176.015   2
  -1  -2 -11 1021.04 162.655   2
  -1  -2 -10 1438.71 135.889   4
  -1  -2 -10 1377.67 161.061   2
  -1  -2  -9 708.355 111.120   4
  -1  -2  -9 856.250 130.852   2
  -1  -2  -8 2037.31 149.305   1
  -1  -2  -8 3966.19 182.588   4
  -1  -2  -7 764.232 104.040   4
  -1  -2  -7 789.550 106.680   3
  -1  -2  -6 1304.20 119.414   4
  -1  -2  -6 1327.23 122.771   3
  -1  -2  -5 10783.4 646.394   4
  -1  -2  -5 11100.6 649.501   3
  -1  -2  -4 51.9368 76.9707   2
  -1  -2  -4 52.9340 84.1115   4
  -1  -2  -4-16.5696 62.7013   3
  -1  -2  -3 7207.25 463.833   4
  -1  -2  -3 8303.07 464.395   3
  -1  -2  -3 7970.50 465.601   2
  -1  -2  -2 35136.6 1980.77   2
  -1  -2  -2 33408.1 1980.09   4
  -1  -2  -2 37767.0 1980.53   3
  -1  -2  -2 33028.3 1974.66   1
  -1  -2  -1 13076.2 743.505   1
  -1  -2  -1 12955.4 749.058   4
  -1  -2  -1 11974.1 745.682   3
  -1  -2  -1 13022.9 747.128   2
  -1  -2   0 31518.6 1819.86   1
  -1  -2   0 31969.8 1821.16   3
  -1  -2   0 30654.1 1820.20   2
  -1  -2   1 16599.7 916.478   1
  -1  -2   1 17968.8 918.942   5
  -1  -2   1 14759.7 913.316   2
  -1  -2   1 15180.8 915.296   3
  -1  -2   2 18889.9 1080.69   1
  -1  -2   2 18714.8 1081.11   4
  -1  -2   2 17779.6 1079.31   3
  -1  -2   2 18943.2 1080.93   5
  -1  -2   3 8091.61 452.720   1
  -1  -2   3 7130.99 448.381   3
  -1  -2   3 7438.63 449.784   5
  -1  -2   3 7928.85 450.823   4
  -1  -2   4 4099.57 222.491   4
  -1  -2   4 4204.93 230.019   1
  -1  -2   4 3878.60 222.568   5
  -1  -2   4 4015.28 223.151   3
  -1  -2   5 7808.90 411.880   4
  -1  -2   5 7701.34 414.984   3
  -1  -2   5 7581.11 415.298   5
  -1  -2   6 8023.24 420.977   4
  -1  -2   6 7514.06 426.719   3
  -1  -2   6 6350.86 415.198   2
  -1  -2   6 7080.98 424.764   5
  -1  -2   7 13507.2 848.184   5
  -1  -2   7 12779.3 841.393   2
  -1  -2   7 15779.6 842.935   4
  -1  -2   7 14663.4 853.208   1
  -1  -2   7 16630.4 855.092   3
  -1  -2   8 6533.22 446.016   2
  -1  -2   8 8539.27 463.302   3
  -1  -2   8 7992.60 444.095   4
  -1  -2   8 7477.59 458.630   1
  -1  -2   8 7297.09 454.984   5
  -1  -2   9 3810.15 248.542   2
  -1  -2   9 3797.59 259.119   5
  -1  -2   9 3941.44 238.762   4
  -1  -2   9 4116.92 267.323   1
  -1  -2  10 1653.29 104.125   4
  -1  -2  10 1376.69 100.644   4
  -1  -2  11 105.001 124.881   1
  -1  -2  11 127.414 100.355   2
  -1  -2  12 4057.33 291.279   1
  -1  -2  13 633.500 167.362   1
  -1  -2  14 415.140 169.662   1
  -1  -1 -13 462.080 164.315   2
  -1  -1 -12 3184.42 252.514   2
  -1  -1 -11 2945.49 235.432   2
  -1  -1 -10 1615.12 128.712   4
  -1  -1 -10 1905.02 173.506   2
  -1  -1  -9 6704.80 453.230   1
  -1  -1  -9 7804.87 449.868   4
  -1  -1  -9 8113.04 468.401   2
  -1  -1  -8 659.260 91.3679   1
  -1  -1  -8 617.609 90.4758   4
  -1  -1  -8 728.929 120.134   2
  -1  -1  -7 9198.09 551.979   1
  -1  -1  -7 9409.80 552.313   4
  -1  -1  -7 9429.82 562.321   2
  -1  -1  -6 17272.8 1022.97   4
  -1  -1  -6 17816.7 1028.95   3
  -1  -1  -6 17266.8 1029.79   2
  -1  -1  -6 17736.0 1021.84   1
  -1  -1  -5 2090.89 142.234   4
  -1  -1  -5 2037.88 144.948   3
  -1  -1  -5 2026.27 132.848   1
  -1  -1  -4 28949.8 1749.55   4
  -1  -1  -4 29379.4 1746.85   1
  -1  -1  -4 34098.9 1753.17   3
  -1  -1  -3 18315.2 1132.57   1
  -1  -1  -3 20401.8 1136.93   4
  -1  -1  -2 8117.12 512.095   4
  -1  -1  -2 8486.56 507.727   1
  -1  -1  -2 8796.88 514.242   2
  -1  -1  -1 139962. 8163.60   1
  -1  -1  -1 138964. 8166.44   4
  -1  -1  -1 140955. 8166.38   2
  -1  -1  -1 144414. 8165.59   3
  -1  -1   0 100900. 5934.19   1
  -1  -1   0 102528. 5934.74   2
  -1  -1   0 105208. 5934.90   3
  -1  -1   0 101608. 5934.24   1
  -1  -1   1 16638.4 1004.88   2
  -1  -1   1 18949.3 1007.99   5
  -1  -1   1 18336.5 1007.25   3
  -1  -1   1 16569.7 1006.91   1
  -1  -1   2 9761.44 585.655   1
  -1  -1   2 9930.37 585.816   4
  -1  -1   2 10450.1 585.417   3
  -1  -1   2 9895.21 584.856   5
  -1  -1   3 48641.2 2952.42   4
  -1  -1   3 52790.4 2954.36   3
  -1  -1   3 51983.1 2953.16   5
  -1  -1   4 22575.9 1303.38   4
  -1  -1   4 21033.6 1301.39   2
  -1  -1   4 24433.2 1306.98   3
  -1  -1   4 23759.6 1305.55   5
  -1  -1   5 3728.90 223.859   4
  -1  -1   5 3268.60 222.144   2
  -1  -1   5 3851.92 228.341   5
  -1  -1   6 3101.92 193.738   4
  -1  -1   6 3279.67 210.387   1
  -1  -1   6 2678.17 195.744   2
  -1  -1   6 3187.78 201.436   5
  -1  -1   7 8251.35 463.947   1
  -1  -1   7 7580.34 449.381   4
  -1  -1   7 7164.68 456.843   5
  -1  -1   7 6867.92 454.230   2
  -1  -1   8 1595.74 127.739   5
  -1  -1   8 1934.99 157.905   1
  -1  -1   8 1213.22 95.2380   4
  -1  -1   8 1507.90 100.760   4
  -1  -1   8 2100.84 143.541   3
  -1  -1   8 1375.49 120.331   2
  -1  -1   9 9182.34 456.663   5
  -1  -1   9 9685.52 463.873   1
  -1  -1   9 6784.59 436.251   4
  -1  -1   9 8699.63 452.693   2
  -1  -1   9 7213.99 435.359   4
  -1  -1  10 222.159 24.5316   4
  -1  -1  10 175.681 26.4579   4
  -1  -1  11 8201.05 520.714   1
  -1  -1  11 8841.97 518.994   2
  -1  -1  12 2926.66 225.962   1
  -1  -1  13 230.618 148.267   1
  -1  -1  14 670.750 165.387   1
  -1  -1  14 846.743 179.582   3
  -1   0 -14 483.642 178.149   2
  -1   0 -13 61.7818 156.677   6
  -1   0 -13 9.69103 163.746   2
  -1   0 -12 1945.43 195.003   2
  -1   0 -12 1904.68 191.441   6
  -1   0 -11 4002.70 286.442   6
  -1   0 -11 4231.02 291.760   2
  -1   0 -10 3110.83 230.568   2
  -1   0 -10 3447.57 227.346   6
  -1   0  -9 6176.22 378.896   2
  -1   0  -9 6466.76 375.000   6
  -1   0  -8 8197.72 499.187   1
  -1   0  -8 8494.35 501.028   6
  -1   0  -8 8138.58 503.034   2
  -1   0  -7 5609.77 344.296   1
  -1   0  -7 5346.66 347.400   2
  -1   0  -7 5845.29 345.488   6
  -1   0  -6 11633.6 666.470   1
  -1   0  -6 11069.3 668.855   2
  -1   0  -6 11234.9 667.303   6
  -1   0  -5 18369.0 1035.90   4
  -1   0  -5 16798.9 1037.43   1
  -1   0  -5 17823.6 1042.31   2
  -1   0  -5 18101.5 1040.16   6
  -1   0  -4 28193.6 1649.30   6
  -1   0  -4 28292.5 1647.86   1
  -1   0  -4 28252.3 1651.73   2
  -1   0  -4 28588.5 1646.77   4
  -1   0  -3 3858.38 239.698   4
  -1   0  -3 4130.55 239.527   1
  -1   0  -3 4145.33 242.068   6
  -1   0  -2 18309.0 1098.34   4
  -1   0  -2 19411.5 1097.87   1
  -1   0  -1 5573.20 343.564   4
  -1   0  -1 6056.94 342.306   1
  -1   0   0 3924.60 230.638   1
  -1   0   0 3922.08 231.287   2
  -1   0   1 101693. 5814.85   2
  -1   0   1 100124. 5815.92   1
  -1   0   1 98999.7 5815.08   5
  -1   0   2 80393.1 4633.98   5
  -1   0   2 79979.0 4633.53   2
  -1   0   2 79663.4 4633.45   2
  -1   0   3 7008.68 404.266   2
  -1   0   3 6800.80 405.083   5
  -1   0   4 40715.8 2455.31   1
  -1   0   4 43029.1 2454.39   2
  -1   0   4 42930.8 2454.79   5
  -1   0   5 21762.8 1273.63   5
  -1   0   5 22424.0 1274.58   1
  -1   0   5 21428.6 1270.64   4
  -1   0   5 22257.6 1273.37   2
  -1   0   6 33381.1 2002.70   5
  -1   0   6 35306.9 2003.85   1
  -1   0   6 34717.3 1998.70   4
  -1   0   6 34159.5 2002.89   2
  -1   0   7 3612.21 218.079   4
  -1   0   7 3438.59 227.737   2
  -1   0   7 3526.56 229.120   5
  -1   0   7 3935.08 236.277   1
  -1   0   8 13329.7 740.540   1
  -1   0   8 11296.0 734.005   2
  -1   0   8 12821.6 726.811   4
  -1   0   8 12001.1 735.791   5
  -1   0   9 2337.27 181.850   1
  -1   0   9 2101.67 161.471   2
  -1   0   9 2086.38 133.679   4
  -1   0   9 2065.32 162.064   5
  -1   0  10 3230.72 184.671   5
  -1   0  10 3148.07 191.051   1
  -1   0  10 3195.71 184.219   2
  -1   0  11 2013.42 171.859   1
  -1   0  11 1824.91 165.755   2
  -1   0  12 455.518 127.908   1
  -1   0  13 21.7092 139.496   1
  -1   0  14 380.044 153.139   1
  -1   1 -14 1238.97 188.637   6
  -1   1 -14 1037.56 192.858   2
  -1   1 -13 2808.52 245.003   2
  -1   1 -13 2768.37 234.448   6
  -1   1 -12 205.366 154.727   2
  -1   1 -12 421.044 144.271   6
  -1   1 -11 1992.16 187.963   2
  -1   1 -11 1767.05 179.483   6
  -1   1 -10 24825.7 1358.89   2
  -1   1 -10 24500.9 1354.95   6
  -1   1  -9 6111.65 384.046   2
  -1   1  -9 6137.37 381.113   6
  -1   1  -8 7785.62 486.573   1
  -1   1  -8 8030.94 485.638   2
  -1   1  -8 8107.06 483.446   6
  -1   1  -7 12517.4 734.232   1
  -1   1  -7 12425.4 733.075   2
  -1   1  -7 12242.3 730.085   6
  -1   1  -6 22764.3 1356.82   1
  -1   1  -6 23010.6 1357.29   2
  -1   1  -6 23946.9 1357.04   6
  -1   1  -5 11810.4 580.175   1
  -1   1  -5 12602.9 582.143   2
  -1   1  -5 12466.6 580.385   6
  -1   1  -4 10241.8 616.692   4
  -1   1  -4 10862.4 623.132   2
  -1   1  -4 11060.1 622.648   1
  -1   1  -4 11098.9 621.794   6
  -1   1  -3 15063.2 847.761   2
  -1   1  -3 14115.7 846.961   3
  -1   1  -3 14403.3 846.155   1
  -1   1  -2 50707.3 2762.95   2
  -1   1  -2 46352.6 2760.38   4
  -1   1  -2 46687.2 2762.04   3
  -1   1  -2 48080.2 2761.87   1
  -1   1  -1 11023.4 633.620   1
  -1   1  -1 11082.9 633.556   5
  -1   1  -1 10815.9 633.067   4
  -1   1  -1 10649.6 632.912   3
  -1   1   0 28505.5 1706.64   5
  -1   1   0 27259.5 1706.80   3
  -1   1   1 14880.3 863.887   3
  -1   1   2 61960.4 3551.19   1
  -1   1   2 57380.2 3551.61   4
  -1   1   2 63302.5 3551.86   3
  -1   1   2 65201.0 3551.74   2
  -1   1   2 58950.3 3551.07   6
  -1   1   3 15240.0 925.021   4
  -1   1   3 18248.7 926.553   2
  -1   1   3 15037.8 924.257   1
  -1   1   3 16529.6 926.483   3
  -1   1   3 15186.5 925.664   6
  -1   1   4 12167.7 774.376   5
  -1   1   4 13065.1 773.491   4
  -1   1   4 14422.9 774.282   1
  -1   1   4 13197.3 774.237   1
  -1   1   4 13773.4 775.613   2
  -1   1   4 13581.4 776.364   3
  -1   1   4 12728.9 775.329   6
  -1   1   5 24467.0 1473.95   5
  -1   1   5 23321.0 1474.18   6
  -1   1   5 25995.7 1471.82   4
  -1   1   5 27152.5 1476.85   3
  -1   1   5 26145.6 1475.34   2
  -1   1   5 25138.5 1473.00   1
  -1   1   6 7215.55 443.388   1
  -1   1   6 8200.38 441.764   4
  -1   1   6 7933.84 447.759   2
  -1   1   6 8071.92 449.471   3
  -1   1   6 6698.37 445.922   6
  -1   1   6 6706.83 444.083   5
  -1   1   7 10626.6 603.736   4
  -1   1   7 10793.9 610.036   1
  -1   1   7 9015.63 608.273   5
  -1   1   7 10870.6 614.856   3
  -1   1   7 10084.0 610.727   2
  -1   1   8 858.138 104.232   5
  -1   1   8 865.412 110.159   1
  -1   1   8 968.497 87.1451   4
  -1   1   8 777.062 104.816   2
  -1   1   8 967.119 115.356   3
  -1   1   9 4429.57 250.807   4
  -1   1   9 3896.79 270.608   1
  -1   1   9 3891.51 267.452   2
  -1   1   9 3607.79 261.797   5
  -1   1   9 4083.99 271.995   3
  -1   1  10 1731.69 158.472   5
  -1   1  10 2119.60 137.495   4
  -1   1  10 1623.35 164.878   1
  -1   1  10 1999.63 164.000   2
  -1   1  11 7060.07 476.910   1
  -1   1  11 8667.64 486.772   3
  -1   1  12 709.603 125.976   1
  -1   1  12 677.928 147.400   3
  -1   1  13 240.765 133.288   1
  -1   1  13 315.843 148.148   3
  -1   1  14 92.4804 135.580   1
  -1   1  14 282.883 166.018   3
  -1   2 -14 1307.23 202.078   2
  -1   2 -14 1321.79 193.496   6
  -1   2 -13 1399.72 178.379   6
  -1   2 -13 1440.72 191.626   2
  -1   2 -12 2717.08 222.332   2
  -1   2 -12 2459.63 214.977   6
  -1   2 -11 1258.09 156.903   2
  -1   2 -11 1303.30 150.913   6
  -1   2 -10 671.169 128.053   2
  -1   2 -10 465.150 123.453   6
  -1   2  -9 18177.4 1062.51   2
  -1   2  -9 17623.1 1060.42   5
  -1   2  -9 17976.7 1064.11   1
  -1   2  -9 18138.2 1058.77   6
  -1   2  -8 18735.6 1069.42   5
  -1   2  -8 19380.9 1073.18   1
  -1   2  -8 16998.7 1066.77   2
  -1   2  -8 18174.9 1066.87   6
  -1   2  -7 12951.4 770.684   2
  -1   2  -7 13219.4 774.750   1
  -1   2  -6 19534.6 816.228   1
  -1   2  -6 19895.8 815.531   2
  -1   2  -5 30089.7 1775.04   4
  -1   2  -5 33201.6 1781.99   2
  -1   2  -5 29436.5 1780.97   1
  -1   2  -4 7492.36 453.115   4
  -1   2  -4 7727.35 460.563   1
  -1   2  -4 8315.04 460.306   2
  -1   2  -3 23796.9 1335.50   2
  -1   2  -3 22282.6 1332.56   4
  -1   2  -3 23205.9 1336.16   1
  -1   2  -2 115398. 6689.99   5
  -1   2  -2 118716. 6690.08   2
  -1   2  -2 112881. 6688.97   4
  -1   2  -1 31968.5 1793.14   2
  -1   2  -1 30808.7 1793.21   4
  -1   2  -1 29978.9 1792.65   5
  -1   2   0 103079. 6008.64   4
  -1   2   0 109556. 6008.90   2
  -1   2   0 101504. 6007.50   5
  -1   2   0 101979. 6007.73   1
  -1   2   1 41896.4 2502.19   3
  -1   2   1 44520.3 2503.82   1
  -1   2   1 44241.9 2503.40   5
  -1   2   2 22004.5 1198.35   1
  -1   2   2 19371.2 1197.99   3
  -1   2   3 15362.9 957.787   4
  -1   2   3 17005.5 955.158   1
  -1   2   4 5267.63 317.923   2
  -1   2   4 4855.56 315.756   4
  -1   2   4 5148.92 317.262   6
  -1   2   4 5613.52 312.510   1
  -1   2   5 11907.9 708.187   4
  -1   2   5 11960.2 710.778   2
  -1   2   5 12639.4 705.493   1
  -1   2   5 11800.3 705.919   1
  -1   2   5 11819.2 710.659   6
  -1   2   6 33759.0 1864.96   4
  -1   2   6 35209.0 1869.09   2
  -1   2   6 31298.0 1861.62   1
  -1   2   6 31342.2 1862.67   1
  -1   2   6 30146.8 1866.07   6
  -1   2   7 5478.56 344.821   1
  -1   2   7 6575.99 348.566   4
  -1   2   7 6356.98 356.170   2
  -1   2   7 5547.77 340.583   1
  -1   2   7 5451.34 350.243   6
  -1   2   7 5239.92 348.273   5
  -1   2   8 7931.41 505.703   5
  -1   2   8 8184.96 502.314   1
  -1   2   8 8832.07 500.717   4
  -1   2   8 8272.22 507.725   3
  -1   2   8 7652.07 505.129   6
  -1   2   8 8949.94 511.274   2
  -1   2   8 8724.32 498.137   1
  -1   2   9 300.130 108.596   5
  -1   2   9 125.535 85.7176   4
  -1   2   9 316.324 81.2239   1
  -1   2   9 90.5913 110.762   3
  -1   2   9 100.300 102.141   2
  -1   2   9 231.485 101.195   1
  -1   2  10 7350.87 410.847   4
  -1   2  10 6084.18 413.680   1
  -1   2  10 6533.77 406.053   1
  -1   2  10 6948.94 419.442   3
  -1   2  11 270.179 104.221   1
  -1   2  11 264.857 97.7498   1
  -1   2  11 260.255 131.225   3
  -1   2  12 2298.73 199.935   1
  -1   2  12 3201.66 228.092   3
  -1   2  13 1811.82 211.089   3
  -1   2  14 1171.46 194.111   3
  -1   3 -13 645.504 171.768   2
  -1   3 -13 778.863 160.575   6
  -1   3 -12 1834.93 197.251   2
  -1   3 -12 2276.09 194.478   6
  -1   3 -12 2117.12 204.116   5
  -1   3 -11 4057.80 288.227   5
  -1   3 -11 3967.86 282.901   2
  -1   3 -11 3951.14 277.738   6
  -1   3 -10 6257.24 383.316   5
  -1   3 -10 5559.22 374.273   2
  -1   3  -9 356.166 109.776   2
  -1   3  -9 402.724 123.860   5
  -1   3  -8 5701.79 356.372   1
  -1   3  -8 5357.37 342.470   2
  -1   3  -7 5767.02 325.540   2
  -1   3  -7 6279.27 333.932   1
  -1   3  -6 16285.4 992.411   1
  -1   3  -6 16781.7 984.283   4
  -1   3  -6 17527.7 992.030   2
  -1   3  -5 11871.9 701.040   2
  -1   3  -5 12620.6 698.117   4
  -1   3  -5 10809.3 702.419   1
  -1   3  -4 15674.8 921.099   2
  -1   3  -4 15808.1 919.477   4
  -1   3  -3 57759.7 3218.60   5
  -1   3  -3 52507.2 3216.30   2
  -1   3  -3 57017.7 3217.36   4
  -1   3  -2 4337.73 273.187   2
  -1   3  -2 4689.57 279.398   1
  -1   3  -2 4580.60 275.277   5
  -1   3  -2 4900.40 278.475   4
  -1   3  -1 13589.7 824.086   5
  -1   3  -1 14221.7 825.783   4
  -1   3  -1 14722.1 825.007   1
  -1   3  -1 14027.9 823.967   2
  -1   3   0 7162.66 434.540   2
  -1   3   0 7414.45 437.396   4
  -1   3   0 7485.22 434.642   1
  -1   3   0 7417.66 434.315   5
  -1   3   1 13824.3 795.829   2
  -1   3   1 14231.3 793.479   1
  -1   3   1 12819.4 793.726   5
  -1   3   1 13607.2 796.651   2
  -1   3   2 18593.1 1140.61   3
  -1   3   2 20627.5 1144.85   5
  -1   3   2 19026.9 1146.04   2
  -1   3   2 20203.1 1145.83   2
  -1   3   2 20556.3 1142.17   1
  -1   3   3 2463.62 163.016   4
  -1   3   3 2332.67 146.716   3
  -1   3   3 2287.35 144.203   1
  -1   3   4 8796.88 529.126   1
  -1   3   4 8780.48 537.658   4
  -1   3   4 9620.58 534.095   3
  -1   3   5 3248.83 228.831   6
  -1   3   5 3737.26 234.127   4
  -1   3   5 3689.88 218.105   1
  -1   3   5 3614.03 227.680   3
  -1   3   6 2166.04 142.662   1
  -1   3   6 2185.62 159.763   4
  -1   3   6 2427.10 159.253   3
  -1   3   6 1950.30 158.339   6
  -1   3   6 2314.49 161.936   2
  -1   3   6 2080.03 139.632   1
  -1   3   7 3418.00 224.950   1
  -1   3   7 3613.73 238.257   4
  -1   3   7 4211.21 242.727   3
  -1   3   7 3730.98 243.558   2
  -1   3   7 3523.03 222.121   1
  -1   3   7 3600.42 240.705   6
  -1   3   8 2971.58 205.056   1
  -1   3   8 3258.60 216.699   4
  -1   3   8 3535.34 225.641   3
  -1   3   8 3033.23 197.989   1
  -1   3   9 2733.76 200.493   1
  -1   3   9 3107.77 213.796   4
  -1   3   9 2877.93 190.205   1
  -1   3   9 3166.03 220.580   3
  -1   3  10 301.681 85.4031   1
  -1   3  10 344.475 93.7285   1
  -1   3  10 471.271 111.539   4
  -1   3  10 530.245 133.767   3
  -1   3  11 1851.80 157.724   1
  -1   3  11 2466.57 192.216   3
  -1   3  12 361.120 147.516   3
  -1   3  13-114.804 151.790   3
  -1   4 -13 2068.08 221.208   5
  -1   4 -13 1909.34 208.739   2
  -1   4 -13 2092.34 207.664   6
  -1   4 -12 1546.08 200.007   5
  -1   4 -12 1652.16 185.814   2
  -1   4 -12 1483.77 178.544   6
  -1   4 -11 2746.93 231.506   2
  -1   4 -11 3252.37 246.062   5
  -1   4 -10 2402.76 198.566   5
  -1   4 -10 2215.06 193.030   2
  -1   4  -9 6896.87 417.629   5
  -1   4  -9 6367.73 414.527   2
  -1   4  -8 3910.42 247.678   4
  -1   4  -8 4003.48 265.198   2
  -1   4  -7 13097.6 724.376   4
  -1   4  -7 11393.8 729.547   2
  -1   4  -6 5713.05 327.313   4
  -1   4  -6 4996.04 329.022   2
  -1   4  -5 4795.71 320.491   2
  -1   4  -5 6093.78 326.836   4
  -1   4  -4 8568.36 535.428   5
  -1   4  -4 8768.33 533.211   2
  -1   4  -4 8278.47 536.269   1
  -1   4  -3 37033.7 2139.81   2
  -1   4  -3 39409.4 2141.97   4
  -1   4  -3 36433.6 2142.44   1
  -1   4  -3 34919.7 2139.91   5
  -1   4  -2 12533.1 782.105   2
  -1   4  -2 14246.7 786.036   4
  -1   4  -2 14168.7 786.166   1
  -1   4  -2 13120.8 783.283   5
  -1   4  -1 6218.00 335.036   2
  -1   4  -1 5141.69 332.228   4
  -1   4  -1 5359.07 330.410   1
  -1   4  -1 5026.55 329.623   5
  -1   4   0 8473.96 552.058   2
  -1   4   0 9298.15 553.353   5
  -1   4   0 9995.57 558.204   4
  -1   4   0 10300.8 554.277   1
  -1   4   1 4174.94 194.363   2
  -1   4   1 3960.43 192.743   5
  -1   4   1 3636.71 194.785   2
  -1   4   2 5633.13 354.447   3
  -1   4   2 6193.25 363.519   5
  -1   4   2 6607.75 359.911   1
  -1   4   2 6166.01 366.870   2
  -1   4   2 6195.70 364.850   2
  -1   4   3 6256.78 366.734   4
  -1   4   3 6012.37 354.125   3
  -1   4   3 6187.78 353.641   1
  -1   4   3 5231.07 361.358   2
  -1   4   3 5876.65 360.440   5
  -1   4   4 17649.8 989.482   4
  -1   4   4 16605.9 981.460   3
  -1   4   4 16540.1 988.973   2
  -1   4   4 16782.0 978.548   1
  -1   4   5 6358.77 370.058   4
  -1   4   5 6039.35 359.826   3
  -1   4   5 5786.44 351.151   1
  -1   4   6 6365.12 353.639   4
  -1   4   6 5904.77 344.232   3
  -1   4   6 5561.96 332.131   1
  -1   4   6 5313.60 330.590   1
  -1   4   6 5749.15 348.823   6
  -1   4   7 216.451 51.8286   1
  -1   4   7 205.562 56.6708   1
  -1   4   7 143.684 93.5182   3
  -1   4   8 1067.20 93.0190   1
  -1   4   8 985.145 83.2379   1
  -1   4   8 1088.30 127.645   3
  -1   4   9 2307.92 179.517   4
  -1   4   9 1695.24 134.012   1
  -1   4   9 2111.93 170.767   3
  -1   4  10 342.324 121.459   4
  -1   4  10 652.246 130.868   3
  -1   4  11 470.691 141.571   3
  -1   4  12 566.527 150.750   3
  -1   4  13-88.1154 159.553   3
  -1   5 -12 1248.86 187.679   5
  -1   5 -12 872.582 162.855   2
  -1   5 -11 1635.27 185.503   5
  -1   5 -11 1417.89 168.760   2
  -1   5 -10 1926.12 191.353   5
  -1   5 -10 2045.52 186.514   2
  -1   5  -9 686.266 138.911   2
  -1   5  -8 769.567 129.864   2
  -1   5  -7 3077.11 234.562   2
  -1   5  -7 3960.96 237.294   4
  -1   5  -6 2106.50 169.486   2
  -1   5  -6 2691.03 182.391   4
  -1   5  -5 4252.21 267.141   5
  -1   5  -5 3657.21 258.231   2
  -1   5  -5 4410.91 266.061   4
  -1   5  -5 3857.04 268.825   1
  -1   5  -4 2616.35 187.443   2
  -1   5  -4 2982.49 200.859   1
  -1   5  -4 2550.13 190.882   5
  -1   5  -3 1944.42 148.045   5
  -1   5  -3 2072.17 153.969   1
  -1   5  -3 1713.47 137.359   2
  -1   5  -2 4364.99 301.141   2
  -1   5  -2 5037.30 308.116   1
  -1   5  -2 5009.92 305.983   5
  -1   5  -1 9597.98 570.087   2
  -1   5  -1 10596.7 576.475   4
  -1   5  -1 9441.64 568.195   1
  -1   5  -1 9007.10 567.803   5
  -1   5   0 3994.30 236.234   2
  -1   5   0 5055.76 241.986   1
  -1   5   0 3279.03 218.724   3
  -1   5   0 3841.81 239.730   2
  -1   5   0 4375.70 238.964   5
  -1   5   0 5232.63 254.918   4
  -1   5   1 5912.36 324.386   2
  -1   5   1 7233.50 338.869   4
  -1   5   1 7159.11 323.284   1
  -1   5   1 4474.27 306.208   3
  -1   5   1 5558.87 324.794   2
  -1   5   1 6208.90 324.718   5
  -1   5   2 1294.60 103.275   1
  -1   5   2 1003.25 76.9868   3
  -1   5   2 1116.66 110.320   2
  -1   5   2 1064.36 105.795   5
  -1   5   2 1076.53 107.718   2
  -1   5   3 1162.78 138.300   4
  -1   5   3 1262.89 102.581   1
  -1   5   3 1199.95 114.986   5
  -1   5   3 1065.13 88.8796   3
  -1   5   3 1137.08 114.741   2
  -1   5   3 1098.24 116.321   2
  -1   5   4 3009.38 200.698   4
  -1   5   4 2663.52 161.832   1
  -1   5   4 2107.77 158.976   3
  -1   5   4 2230.28 181.590   2
  -1   5   4 2689.93 179.668   5
  -1   5   5 7640.21 425.895   4
  -1   5   5 6433.05 394.982   1
  -1   5   5 6824.63 404.608   3
  -1   5   5 6590.22 412.753   5
  -1   5   6 266.170 46.9679   1
  -1   5   6 346.052 51.8048   1
  -1   5   6 257.563 101.139   3
  -1   5   7 1309.81 86.0240   1
  -1   5   7 1185.24 84.9511   1
  -1   5   8 1683.44 160.293   3
  -1   5   9 826.648 138.730   3
  -1   5  10 346.415 140.703   3
  -1   5  11 300.135 151.663   3
  -1   5  12-19.7165 155.368   3
  -1   6 -11 1073.15 184.138   5
  -1   6 -10 961.174 157.774   2
  -1   6  -9 4520.86 309.417   2
  -1   6  -8 4473.40 304.663   2
  -1   6  -7 2752.14 214.319   2
  -1   6  -7 3111.49 221.190   4
  -1   6  -6 754.135 131.492   5
  -1   6  -6 872.743 142.197   4
  -1   6  -6 620.665 119.102   2
  -1   6  -5 2221.53 178.696   2
  -1   6  -5 2286.62 184.746   5
  -1   6  -4 2097.04 173.739   2
  -1   6  -4 2374.82 178.710   5
  -1   6  -3 3271.47 206.114   4
  -1   6  -3 3051.44 201.698   1
  -1   6  -3 2642.47 190.765   5
  -1   6  -2 1869.15 159.107   2
  -1   6  -2 2379.24 172.846   1
  -1   6  -2 1970.89 165.957   2
  -1   6  -2 2146.30 168.495   5
  -1   6  -1 2294.49 158.163   1
  -1   6  -1 2308.13 166.611   2
  -1   6  -1 2051.70 155.734   2
  -1   6  -1 2470.90 158.826   5
  -1   6   0 1891.19 158.937   2
  -1   6   0 2223.60 164.765   5
  -1   6   0 2361.44 161.164   1
  -1   6   0 2047.12 131.294   3
  -1   6   0 1770.98 159.801   2
  -1   6   1 1724.67 140.010   2
  -1   6   1 1816.91 142.315   5
  -1   6   1 2098.22 137.282   1
  -1   6   1 1780.01 145.747   2
  -1   6   2 912.768 102.298   1
  -1   6   2 762.128 110.675   5
  -1   6   2 719.178 67.4250   3
  -1   6   2 895.044 114.172   2
  -1   6   3 1789.49 149.348   5
  -1   6   3 1823.83 135.054   1
  -1   6   3 1589.67 119.476   3
  -1   6   3 1740.49 153.033   2
  -1   6   4 1291.41 111.793   1
  -1   6   4 1303.95 111.764   3
  -1   6   4 1257.15 140.624   5
  -1   6   4 1235.19 138.698   2
  -1   6   5 1019.80 136.716   2
  -1   6   5 885.907 89.1819   1
  -1   6   5 1058.54 107.179   3
  -1   6   5 1283.10 138.824   5
  -1   6   6 1360.03 127.879   3
  -1   6   6 1554.83 159.497   5
  -1   6   7 780.108 147.216   5
  -1   6   7 649.593 112.600   3
  -1   6   8-49.9055 116.063   3
  -1   6   9 2077.70 191.809   3
  -1   6  10 155.005 155.828   3
  -1   7  -8 252.679 132.333   2
  -1   7  -7 1393.75 167.874   5
  -1   7  -7 1531.96 157.386   2
  -1   7  -6 2561.73 208.872   5
  -1   7  -6 2470.43 203.143   2
  -1   7  -5 1104.53 139.320   5
  -1   7  -5 911.488 131.491   2
  -1   7  -4 1101.29 136.061   2
  -1   7  -4 1226.61 141.665   5
  -1   7  -3 1169.39 132.305   2
  -1   7  -3 1327.65 144.060   5
  -1   7  -2 1597.50 154.929   2
  -1   7  -2 1829.41 161.690   5
  -1   7  -1 574.554 133.510   1
  -1   7  -1 550.864 157.565   2
  -1   7  -1 403.764 131.116   5
  -1   7   0 1910.40 152.923   2
  -1   7   0 1993.20 153.744   1
  -1   7   0 1769.13 153.226   5
  -1   7   1 1625.38 153.125   2
  -1   7   1 1702.65 155.698   5
  -1   7   1 1490.02 104.598   3
  -1   7   2 337.571 109.309   1
  -1   7   2 387.264 119.395   5
  -1   7   2 397.172 120.912   2
  -1   7   2 260.041 53.3906   3
  -1   7   3 199.803 120.963   2
  -1   7   3 228.649 65.0353   3
  -1   7   3 483.650 117.172   5
  -1   7   4 350.495 121.181   5
  -1   7   4 396.760 133.124   2
  -1   7   4 292.711 73.6345   3
  -1   7   5 133.448 130.182   5
  -1   7   5 200.846 129.510   2
  -1   7   5 57.1990 78.2950   3
  -1   7   6 723.411 152.320   2
  -1   7   6 774.013 147.808   5
  -1   7   6 650.203 111.861   3
  -1   7   7 246.066 150.820   2
  -1   7   7 529.479 148.829   5
  -1   7   8-49.0456 150.046   5
  -1   7   9-92.9392 171.029   5
  -1   8  -8 1565.07 195.148   5
  -1   8  -7 444.780 163.901   5
  -1   8  -6 351.425 149.040   5
  -1   8  -6 286.042 136.553   2
  -1   8  -5 121.499 138.537   5
  -1   8  -5 146.313 125.457   2
  -1   8  -4 1045.33 153.329   5
  -1   8  -4 1083.07 147.627   2
  -1   8  -3 872.568 137.130   2
  -1   8  -3 1141.71 154.395   5
  -1   8  -2 229.490 134.476   5
  -1   8  -2 245.857 129.404   2
  -1   8  -1 368.450 144.931   5
  -1   8  -1 418.000 156.379   2
  -1   8   0 237.378 136.243   2
  -1   8   0 166.476 133.496   5
  -1   8   1 589.935 141.141   2
  -1   8   1 677.347 143.574   5
  -1   8   2 479.205 143.969   5
  -1   8   2 558.062 141.373   2
  -1   8   3 990.952 153.400   5
  -1   8   3 691.173 156.422   2
  -1   8   4 475.340 141.765   5
  -1   8   4 369.624 153.301   2
  -1   8   5 138.362 134.878   5
  -1   8   5 100.522 158.094   2
  -1   8   6 7.22238 149.889   5
  -1   8   6 104.329 160.270   2
  -1   9  -4 143.225 155.595   5
  -1   9  -4 94.2698 145.421   2
  -1   9  -3 137.173 154.929   5
  -1   9  -3 108.817 128.220   2
  -1   9  -2 996.211 166.785   5
  -1   9  -2 847.960 165.814   2
  -1   9  -1-58.5811 155.937   5
  -1   9  -1-33.9238 145.482   2
  -1   9   0 977.052 180.426   5
  -1   9   1 273.575 153.045   5
  -1   9   1 363.994 164.499   2
  -1   9   2 125.957 156.152   2
  -1   9   2 183.798 153.318   5
   0  -8  -5-67.2663 170.154   4
   0  -8  -4 213.600 169.678   4
   0  -8  -3 1045.71 183.990   4
   0  -8   0 1037.96 175.590   4
   0  -8   1-35.0356 118.221   1
   0  -8   1 61.4599 159.926   4
   0  -8   2 551.860 159.963   4
   0  -8   2 462.380 133.971   1
   0  -8   3 632.534 156.803   4
   0  -8   3 392.354 144.904   1
   0  -8   4 60.0420 151.245   4
   0  -8   5 793.407 161.140   4
   0  -8   5 711.327 168.265   1
   0  -8   6 278.901 148.893   4
   0  -8   6 89.8031 167.841   1
   0  -8   7 195.896 145.983   4
   0  -8   7 242.653 178.173   1
   0  -7  -8 422.480 187.044   4
   0  -7  -8 411.295 169.010   2
   0  -7  -7 419.783 171.621   4
   0  -7  -7 208.646 161.823   2
   0  -7  -6 903.642 169.496   4
   0  -7  -6 571.996 156.590   2
   0  -7  -5 407.760 156.910   4
   0  -7  -4 243.971 148.856   4
   0  -7  -3 259.741 148.424   4
   0  -7  -1-28.8323 95.2647   1
   0  -7   0 3118.86 233.837   4
   0  -7   0 2803.06 205.946   1
   0  -7   1 1113.20 165.391   4
   0  -7   1 1068.07 135.878   1
   0  -7   2 2848.88 227.683   4
   0  -7   2 2703.07 210.015   1
   0  -7   3 1152.83 161.263   4
   0  -7   3 1051.64 148.245   1
   0  -7   4 1666.32 179.772   4
   0  -7   4 1743.76 177.183   1
   0  -7   5 1372.39 161.407   4
   0  -7   5 1304.60 167.564   1
   0  -7   6 442.829 135.727   4
   0  -7   6 574.960 155.487   1
   0  -7   7 1357.32 153.591   4
   0  -7   7 1153.92 177.449   1
   0  -7   8 2965.65 226.004   4
   0  -7   8 3009.57 252.482   1
   0  -7   9 110.782 174.405   1
   0  -6 -10 177.570 166.771   4
   0  -6  -9 5.58847 167.471   4
   0  -6  -9 188.391 146.241   2
   0  -6  -8 679.479 156.423   4
   0  -6  -8 433.504 150.627   2
   0  -6  -7 64.9464 140.699   4
   0  -6  -7 165.107 133.996   2
   0  -6  -6 427.876 140.051   4
   0  -6  -6 408.549 131.711   2
   0  -6  -5 457.612 137.925   4
   0  -6  -5 360.633 131.636   2
   0  -6  -4 2351.76 190.848   4
   0  -6  -4 2410.03 168.292   3
   0  -6  -3 1970.71 139.075   1
   0  -6  -3 2336.83 187.301   4
   0  -6  -3 2160.03 160.636   3
   0  -6  -2 247.819 134.734   4
   0  -6  -2 266.285 77.9265   1
   0  -6  -2 278.856 82.9398   3
   0  -6  -1 815.923 101.743   3
   0  -6  -1 1006.01 103.176   1
   0  -6   0 676.554 135.055   4
   0  -6   0 629.382 91.1780   3
   0  -6   0 770.701 101.498   1
   0  -6   1 5729.12 313.796   1
   0  -6   1 6082.33 329.148   4
   0  -6   2 1576.90 151.286   4
   0  -6   2 1266.66 134.912   1
   0  -6   3 1171.57 141.738   4
   0  -6   3 971.584 129.435   1
   0  -6   3 706.441 94.8952   3
   0  -6   4 3037.55 202.351   4
   0  -6   4 2877.13 199.139   1
   0  -6   5 1546.53 157.711   4
   0  -6   5 1619.92 157.275   1
   0  -6   5 1141.75 128.062   3
   0  -6   6 1481.07 145.127   4
   0  -6   6 1239.76 156.002   1
   0  -6   6 1034.74 127.406   3
   0  -6   6 995.909 118.204   2
   0  -6   7-49.6754 117.394   4
   0  -6   7-67.2702 140.441   1
   0  -6   7-174.551 104.908   3
   0  -6   8 1206.38 139.512   4
   0  -6   8 1321.51 171.287   1
   0  -6   9 1534.86 152.282   4
   0  -6   9 1788.03 193.104   1
   0  -6  10 926.230 180.422   1
   0  -5 -11-80.7861 178.273   2
   0  -5 -10 242.708 147.116   4
   0  -5  -9 1460.06 176.951   4
   0  -5  -8 1781.79 176.701   4
   0  -5  -7 1910.51 168.306   4
   0  -5  -7 1479.57 170.958   2
   0  -5  -6 1071.37 136.370   4
   0  -5  -6 806.349 132.219   2
   0  -5  -5 497.664 122.971   4
   0  -5  -5 516.002 105.816   3
   0  -5  -5 392.178 105.928   2
   0  -5  -4 2107.83 145.215   4
   0  -5  -4 2017.16 121.301   3
   0  -5  -4 1723.07 130.288   2
   0  -5  -3 3290.40 218.192   4
   0  -5  -3 2897.28 199.287   3
   0  -5  -3 2971.79 212.839   2
   0  -5  -2 4110.44 256.074   4
   0  -5  -2 3738.73 236.314   3
   0  -5  -2 3666.28 230.116   1
   0  -5  -1 2992.34 206.388   3
   0  -5  -1 3378.43 203.917   1
   0  -5   0 2189.61 166.425   3
   0  -5   0 3200.62 176.686   1
   0  -5   1 4216.95 245.003   4
   0  -5   1 4172.89 230.540   1
   0  -5   1 2983.69 220.242   3
   0  -5   1 3197.37 236.227   5
   0  -5   2 6873.53 346.014   4
   0  -5   2 6540.89 336.225   1
   0  -5   2 4467.46 324.164   3
   0  -5   2 4696.03 336.337   5
   0  -5   3 5517.99 292.173   4
   0  -5   3 4088.26 283.579   5
   0  -5   3 5290.64 283.915   1
   0  -5   3 3594.52 269.567   3
   0  -5   4 3849.86 263.873   2
   0  -5   4 5022.56 278.989   4
   0  -5   4 4813.63 277.686   1
   0  -5   4 3633.36 265.104   3
   0  -5   5 6005.29 318.940   4
   0  -5   5 5634.45 320.332   1
   0  -5   5 4265.63 307.500   3
   0  -5   5 4382.40 305.760   2
   0  -5   6 4438.61 256.051   4
   0  -5   6 4266.75 264.257   1
   0  -5   6 3325.19 243.650   2
   0  -5   6 3499.97 253.242   3
   0  -5   7 3987.85 303.938   2
   0  -5   7 5681.03 312.043   4
   0  -5   7 5560.42 325.108   1
   0  -5   7 4575.03 318.306   3
   0  -5   8 627.132 104.727   2
   0  -5   8 750.055 107.382   4
   0  -5   8 843.863 149.225   1
   0  -5   9 166.260 92.4723   4
   0  -5  11 842.084 174.269   1
   0  -5  12 1240.61 192.984   1
   0  -4 -12 139.118 164.960   2
   0  -4 -11 717.336 160.632   2
   0  -4 -10 86.9515 143.222   2
   0  -4 -10 94.1154 125.005   4
   0  -4  -9 613.371 132.537   4
   0  -4  -9 279.086 135.386   2
   0  -4  -8 3715.64 256.267   4
   0  -4  -7 1212.49 135.246   4
   0  -4  -6 1165.12 127.556   4
   0  -4  -5 2951.43 203.273   4
   0  -4  -5 3000.74 196.212   3
   0  -4  -5 2578.82 203.925   2
   0  -4  -4 3213.41 214.065   4
   0  -4  -4 3220.85 205.066   3
   0  -4  -4 2965.23 213.425   2
   0  -4  -3 2887.69 185.270   4
   0  -4  -3 2615.48 170.444   3
   0  -4  -3 2377.65 175.892   2
   0  -4  -2-25.1850 45.7060   1
   0  -4  -2 49.9554 92.6684   4
   0  -4  -2 47.4802 73.6809   2
   0  -4  -2 44.2014 59.7243   3
   0  -4  -1 4029.02 257.463   3
   0  -4  -1 4402.71 255.765   1
   0  -4   0 11200.4 562.446   1
   0  -4   0 8409.57 559.076   3
   0  -4   1 8650.84 432.229   4
   0  -4   1 8417.77 425.880   1
   0  -4   2 3058.64 180.392   4
   0  -4   2 3041.06 174.450   1
   0  -4   2 2602.18 175.443   5
   0  -4   3 11007.8 591.676   4
   0  -4   3 10782.4 590.217   1
   0  -4   3 10018.5 586.658   2
   0  -4   4 8018.38 506.874   2
   0  -4   4 8869.81 512.552   1
   0  -4   4 7885.44 508.063   3
   0  -4   5 3921.15 269.876   2
   0  -4   5 4479.57 280.963   1
   0  -4   5 4189.50 274.866   3
   0  -4   6 9256.79 517.848   2
   0  -4   6 8724.77 512.217   4
   0  -4   6 8451.37 518.771   1
   0  -4   6 7902.41 515.663   3
   0  -4   7 10417.8 566.290   4
   0  -4   7 10697.9 579.351   3
   0  -4   8 4584.61 269.401   4
   0  -4   8 5387.66 302.328   3
   0  -4   9 2146.77 143.198   4
   0  -4   9 2343.68 187.385   1
   0  -4  10 1520.17 145.546   2
   0  -4  10 1972.95 182.215   1
   0  -4  11 1385.43 173.552   1
   0  -4  12 1214.14 177.999   1
   0  -4  13-14.9235 166.637   1
   0  -3 -13 628.987 175.050   2
   0  -3 -12 166.911 153.263   2
   0  -3 -11-53.8144 137.566   2
   0  -3 -10 2046.22 162.388   4
   0  -3 -10 1751.40 180.111   2
   0  -3  -9 902.099 127.341   4
   0  -3  -9 928.619 133.241   2
   0  -3  -8 1866.11 146.760   4
   0  -3  -8 1383.30 150.859   2
   0  -3  -7 13223.2 761.271   4
   0  -3  -7 12468.5 765.755   2
   0  -3  -6 4338.22 272.995   4
   0  -3  -5 5512.98 337.534   4
   0  -3  -4 5284.80 342.702   4
   0  -3  -4 5948.13 340.524   3
   0  -3  -3 26765.6 1598.21   4
   0  -3  -3 27642.8 1596.33   3
   0  -3  -3 27852.9 1599.36   2
   0  -3  -2 7026.53 413.009   4
   0  -3  -2 6782.19 409.810   2
   0  -3  -1 9228.48 575.989   3
   0  -3  -1 10136.1 575.009   1
   0  -3  -1 10285.4 580.313   2
   0  -3   0 1799.99 106.526   1
   0  -3   0 1765.06 115.742   5
   0  -3   1 4055.38 214.711   4
   0  -3   1 3841.93 209.285   1
   0  -3   1 3816.18 211.767   5
   0  -3   2 12649.0 719.647   4
   0  -3   2 12153.4 716.544   2
   0  -3   2 12071.3 717.873   1
   0  -3   3 5559.17 345.148   2
   0  -3   3 6077.30 349.771   4
   0  -3   3 6075.17 350.719   1
   0  -3   3 5729.14 347.650   3
   0  -3   4 3112.98 188.337   2
   0  -3   4 2884.71 188.928   4
   0  -3   4 3093.04 196.108   1
   0  -3   4 2742.25 187.624   3
   0  -3   5 23381.3 1301.95   4
   0  -3   5 25224.7 1307.00   3
   0  -3   6 3377.00 243.657   2
   0  -3   6 4113.36 243.957   4
   0  -3   6 3725.21 253.048   5
   0  -3   7 6424.38 439.530   2
   0  -3   7 7537.47 435.184   4
   0  -3   7 6892.28 447.995   5
   0  -3   8 6400.34 433.062   2
   0  -3   8 6890.85 421.801   4
   0  -3   9 8881.93 329.659   1
   0  -3   9 7117.41 311.824   2
   0  -3  10 1618.60 157.365   2
   0  -3  10 2172.01 180.044   1
   0  -3  11 2579.06 206.628   2
   0  -3  11 2970.95 223.433   1
   0  -3  12 219.298 146.232   1
   0  -3  13 908.669 169.630   1
   0  -3  13 804.112 168.540   3
   0  -3  14 344.024 166.993   1
   0  -3  14 226.918 175.571   3
   0  -2 -13 276.451 166.682   2
   0  -2 -12 2024.41 200.654   2
   0  -2 -11 2717.69 216.519   2
   0  -2 -10 610.862 99.7363   4
   0  -2 -10 797.976 132.657   2
   0  -2  -9 1366.88 124.796   4
   0  -2  -9 1543.05 149.291   2
   0  -2  -8 157.750 83.4028   4
   0  -2  -8 155.650 103.608   2
   0  -2  -7 494.617 86.1027   4
   0  -2  -7 588.012 100.823   2
   0  -2  -6 18935.9 1120.88   4
   0  -2  -6 19654.4 1126.76   2
   0  -2  -5 3303.43 206.620   4
   0  -2  -5 3246.58 211.401   2
   0  -2  -4 31169.8 1811.90   4
   0  -2  -3 10413.7 626.411   4
   0  -2  -3 10892.7 625.327   3
   0  -2  -2 36623.1 2076.22   4
   0  -2  -2 35187.5 2074.21   3
   0  -2  -1 61088.6 3554.70   4
   0  -2  -1 60322.8 3552.69   3
   0  -2  -1 63009.2 3554.51   2
   0  -2   0 36099.5 2132.72   1
   0  -2   0 36575.9 2132.24   3
   0  -2   0 38332.9 2134.78   5
   0  -2   1 66231.3 3866.01   4
   0  -2   1 66129.5 3865.31   1
   0  -2   1 66280.6 3864.03   3
   0  -2   1 68059.4 3865.03   2
   0  -2   2 14219.8 778.058   2
   0  -2   2 12557.5 778.615   4
   0  -2   2 13302.2 779.615   1
   0  -2   2 13182.0 778.085   3
   0  -2   3 3511.92 211.012   4
   0  -2   3 3308.03 208.460   2
   0  -2   3 3324.67 214.501   1
   0  -2   3 4015.37 215.308   3
   0  -2   4 48573.5 2858.82   2
   0  -2   4 47978.7 2857.34   4
   0  -2   4 52870.4 2861.25   3
   0  -2   5 16104.5 983.212   2
   0  -2   5 16861.6 979.482   4
   0  -2   5 17750.1 985.484   3
   0  -2   6 25769.4 1517.69   2
   0  -2   6 24762.6 1511.27   4
   0  -2   6 27076.4 1520.28   1
   0  -2   6 28791.9 1520.61   3
   0  -2   6 27981.1 1519.87   5
   0  -2   7 6986.00 315.760   1
   0  -2   7 6443.95 307.509   2
   0  -2   7 7559.14 315.401   3
   0  -2   7 7033.33 312.431   5
   0  -2   8 5817.64 397.148   2
   0  -2   8 6803.17 405.041   1
   0  -2   8 6670.58 402.958   5
   0  -2   8 7130.95 404.225   3
   0  -2   9 6943.00 447.877   2
   0  -2   9 7808.26 454.895   1
   0  -2  10 7835.33 506.606   2
   0  -2  10 8821.75 512.459   1
   0  -2  11 3249.37 242.145   1
   0  -2  12 338.164 140.380   1
   0  -2  12 295.127 140.565   3
   0  -2  13 2178.33 210.201   3
   0  -2  13 2086.92 200.604   1
   0  -2  14 759.203 165.528   1
   0  -2  14 1097.44 184.014   3
   0  -1 -14 150.213 166.361   2
   0  -1 -13 1099.68 175.591   2
   0  -1 -12 20.5299 144.954   2
   0  -1 -11 3161.11 238.787   2
   0  -1 -10 5080.09 349.874   1
   0  -1 -10 6141.75 359.738   2
   0  -1  -9 3845.68 254.669   1
   0  -1  -9 3927.33 242.936   4
   0  -1  -9 4194.49 264.041   2
   0  -1  -8 9367.69 554.466   4
   0  -1  -8 9429.77 559.874   1
   0  -1  -8 9634.27 566.354   2
   0  -1  -7 12639.0 751.447   1
   0  -1  -7 12789.1 748.273   4
   0  -1  -7 13105.8 756.995   2
   0  -1  -6 16656.1 965.138   4
   0  -1  -6 16850.8 971.144   2
   0  -1  -6 16265.8 966.280   1
   0  -1  -5 14509.8 866.089   1
   0  -1  -5 15163.7 866.090   4
   0  -1  -5 14972.4 871.023   2
   0  -1  -4 23454.9 1357.39   4
   0  -1  -4 24289.6 1360.99   2
   0  -1  -4 22903.1 1356.58   1
   0  -1  -3 32736.2 1896.28   1
   0  -1  -3 32609.6 1898.19   4
   0  -1  -3 32794.4 1900.13   2
   0  -1  -2 128669. 7582.20   4
   0  -1  -2 133162. 7582.36   3
   0  -1  -1 37568.0 2159.09   4
   0  -1  -1 37019.3 2158.14   3
   0  -1   1 31735.4 428.780   1
   0  -1   1 30642.6 425.681   3
   0  -1   2 9284.77 524.438   2
   0  -1   2 9139.45 524.238   4
   0  -1   2 8482.34 525.064   3
   0  -1   3 34646.7 2059.76   2
   0  -1   3 35074.3 2057.51   4
   0  -1   3 37990.7 2061.34   3
   0  -1   4 19782.2 1079.75   2
   0  -1   4 17343.5 1078.94   1
   0  -1   5 3908.25 227.458   5
   0  -1   5 3694.78 227.017   2
   0  -1   5 3384.35 226.443   1
   0  -1   6 11274.2 686.022   1
   0  -1   6 12158.0 687.285   2
   0  -1   6 11588.2 687.235   5
   0  -1   7 5808.91 338.968   5
   0  -1   7 5685.23 338.293   2
   0  -1   7 5101.85 338.667   1
   0  -1   8 10231.8 599.595   5
   0  -1   8 9796.24 598.876   2
   0  -1   8 9180.03 598.154   1
   0  -1   8 11322.0 603.334   3
   0  -1   9 10184.6 602.671   5
   0  -1   9 10091.2 602.649   2
   0  -1   9 9876.96 602.513   1
   0  -1  10 2426.67 186.524   2
   0  -1  10 2388.12 187.269   1
   0  -1  10 2239.95 189.776   3
   0  -1  11 6413.86 401.477   3
   0  -1  11 6142.28 396.893   1
   0  -1  12 1054.06 150.183   1
   0  -1  12 1054.24 156.374   3
   0  -1  13 575.411 143.075   1
   0  -1  13 459.479 153.754   3
   0  -1  14 575.548 152.094   1
   0  -1  14 543.375 183.472   3
   0   0 -14 1588.87 199.840   2
   0   0 -14 2039.45 209.837   6
   0   0 -13 1248.47 172.925   6
   0   0 -13 961.258 161.462   2
   0   0 -12 5980.63 395.293   6
   0   0 -12 6264.85 396.121   2
   0   0 -11 1605.24 170.878   1
   0   0 -11 2287.88 183.078   2
   0   0 -10 5987.85 425.567   1
   0   0 -10 7809.12 433.844   2
   0   0  -9 889.111 111.875   1
   0   0  -9 962.958 118.752   2
   0   0  -8 15795.7 987.817   1
   0   0  -8 17951.7 991.858   2
   0   0  -7 4367.79 288.303   1
   0   0  -7 5001.94 293.187   2
   0   0  -6 23962.9 1419.67   1
   0   0  -6 24882.6 1422.23   2
   0   0  -5 26974.8 1589.69   1
   0   0  -5 27772.4 1591.32   2
   0   0  -4 38918.4 2301.12   1
   0   0  -4 40568.9 2302.45   2
   0   0  -3 62695.9 3714.40   1
   0   0  -3 65815.9 3715.34   2
   0   0  -2 13382.9 769.492   5
   0   0  -2 12747.3 768.904   1
   0   0  -2 13671.5 769.612   2
   0   0   2 11607.2 674.984   1
   0   0   3 56500.4 3364.52   1
   0   0   3 60057.6 3365.73   2
   0   0   4 44431.1 2543.91   5
   0   0   4 41550.4 2541.97   1
   0   0   4 46486.4 2544.13   2
   0   0   5 23652.5 1277.96   5
   0   0   5 21596.7 1274.89   1
   0   0   5 24874.9 1277.98   2
   0   0   5 21134.6 1270.39   4
   0   0   6 17629.4 889.427   5
   0   0   6 16177.8 885.852   1
   0   0   6 18816.5 890.140   2
   0   0   7 6474.19 248.574   5
   0   0   7 6424.92 248.887   2
   0   0   8 12984.0 797.878   1
   0   0   8 14505.6 802.454   2
   0   0   8 13405.0 800.559   5
   0   0   9 1667.40 143.096   2
   0   0   9 1558.70 142.217   1
   0   0   9 1588.38 141.616   5
   0   0  10 5445.75 343.788   1
   0   0  11 2533.02 197.041   1
   0   0  12 4216.09 284.544   1
   0   0  13 870.144 142.189   1
   0   0  14 937.099 151.461   1
   0   1 -14 530.391 162.498   2
   0   1 -14 759.242 173.622   6
   0   1 -13 951.429 160.208   2
   0   1 -13 665.340 162.232   6
   0   1 -12 543.120 142.456   6
   0   1 -12 883.149 148.548   2
   0   1 -11 8069.15 499.485   2
   0   1 -10 2126.35 184.529   1
   0   1 -10 2512.19 190.082   2
   0   1  -9 10825.8 680.501   1
   0   1  -9 11904.4 682.927   2
   0   1  -8 10443.9 573.577   5
   0   1  -8 9081.03 570.937   1
   0   1  -8 9160.14 570.401   2
   0   1  -7 6263.16 346.241   5
   0   1  -7 5596.45 343.999   1
   0   1  -7 5133.34 340.279   2
   0   1  -6 11158.5 653.169   1
   0   1  -6 10397.0 650.193   2
   0   1  -6 11741.4 652.427   5
   0   1  -5 5779.46 333.385   1
   0   1  -5 4918.47 328.476   2
   0   1  -5 6074.22 331.295   5
   0   1  -4 20692.8 1153.16   5
   0   1  -4 20602.8 1155.03   1
   0   1  -4 18610.2 1152.03   2
   0   1  -3 26325.8 1631.07   4
   0   1  -3 31921.2 1634.54   5
   0   1  -3 31072.2 1635.93   1
   0   1  -3 27985.5 1633.37   2
   0   1  -2 10437.2 563.252   5
   0   1  -2 9089.51 561.274   4
   0   1  -2 9751.55 561.663   2
   0   1  -1 18767.5 440.198   4
   0   1  -1 3005.72 436.402   3
   0   1   0 64.2710 14.2609   2
   0   1   1 24814.4 1502.33   3
   0   1   1 27579.0 1503.44   2
   0   1   2 150421. 8747.39   4
   0   1   2 151434. 8746.81   3
   0   1   3 45447.2 2711.09   1
   0   1   3 46806.8 2713.40   4
   0   1   3 50149.0 2714.60   3
   0   1   4 23638.4 1338.21   4
   0   1   4 21310.6 1336.58   1
   0   1   4 24072.9 1339.99   3
   0   1   4 24310.5 1340.21   6
   0   1   5 16407.9 952.228   4
   0   1   5 14876.3 951.266   1
   0   1   5 16943.0 957.885   2
   0   1   5 17985.4 956.555   3
   0   1   5 16991.9 955.937   6
   0   1   6 23374.4 1330.67   5
   0   1   6 23031.0 1325.54   4
   0   1   6 20751.4 1325.49   1
   0   1   6 24120.1 1332.90   2
   0   1   6 24309.2 1331.03   3
   0   1   6 22893.9 1329.92   6
   0   1   7 14270.4 810.724   5
   0   1   7 13537.0 808.594   6
   0   1   7 13566.1 802.153   4
   0   1   7 12908.5 803.754   1
   0   1   7 14126.9 812.212   2
   0   1   7 14717.7 810.586   3
   0   1   8 10278.9 588.175   5
   0   1   8 9941.27 575.234   4
   0   1   8 9058.02 579.733   1
   0   1   8 9822.58 586.604   2
   0   1   8 10254.8 586.531   3
   0   1   8 9518.19 584.455   6
   0   1   9 3392.46 227.144   5
   0   1   9 3173.28 204.815   4
   0   1   9 3050.97 215.427   1
   0   1   9 3226.15 224.865   2
   0   1   9 3574.80 231.176   3
   0   1  10 6467.24 359.950   1
   0   1  10 7374.87 378.624   3
   0   1  11 1886.65 167.797   1
   0   1  11 2312.59 195.392   3
   0   1  12 298.108 113.063   1
   0   1  12 313.776 140.383   3
   0   1  13 794.473 133.804   1
   0   1  13 1157.85 166.739   3
   0   1  14 129.088 161.920   3
   0   2 -14 944.523 173.678   6
   0   2 -14 868.511 169.521   2
   0   2 -13 2572.38 225.974   2
   0   2 -13 2664.29 225.056   6
   0   2 -12 469.679 146.672   2
   0   2 -12 501.867 140.763   6
   0   2 -11 2368.38 204.461   5
   0   2 -11 2412.64 201.096   2
   0   2 -11 2544.05 199.930   6
   0   2 -10 10368.2 588.587   5
   0   2 -10 9050.74 582.216   2
   0   2  -9 8734.53 495.133   5
   0   2  -9 7522.61 493.452   1
   0   2  -9 7869.45 490.591   2
   0   2  -8 6811.22 434.936   1
   0   2  -8 6921.36 431.729   2
   0   2  -8 7454.41 432.543   5
   0   2  -7 7403.61 402.754   5
   0   2  -7 7153.30 407.039   1
   0   2  -6 33809.2 1864.09   5
   0   2  -6 33304.1 1866.95   1
   0   2  -6 29768.6 1862.56   2
   0   2  -5 13579.8 773.939   4
   0   2  -5 14084.3 783.256   1
   0   2  -5 12339.8 777.297   2
   0   2  -5 13415.4 779.068   5
   0   2  -4 52666.0 3114.99   2
   0   2  -4 53858.5 3114.09   4
   0   2  -4 54755.2 3116.42   5
   0   2  -3 2083.84 127.815   2
   0   2  -3 1929.16 132.603   4
   0   2  -3 1961.11 132.334   3
   0   2  -3 2176.02 132.333   5
   0   2  -2 15815.9 897.424   2
   0   2  -2 14777.6 899.592   4
   0   2  -2 15388.0 898.604   3
   0   2  -1 61035.4 3803.13   4
   0   2  -1 65686.0 3801.72   2
   0   2  -1 68707.9 3803.36   1
   0   2  -1 66417.6 3801.36   3
   0   2   0 32265.3 1849.62   4
   0   2   0 32237.4 1847.01   1
   0   2   0 32440.4 1845.80   3
   0   2   0 29440.7 1847.35   2
   0   2   0 32484.4 1847.38   2
   0   2   1 52850.3 3089.12   1
   0   2   1 53561.9 3089.69   3
   0   2   1 53819.3 3091.86   2
   0   2   2 37122.1 2210.46   4
   0   2   2 38740.0 2207.91   3
   0   2   2 37814.6 2210.15   2
   0   2   3 13549.3 789.538   4
   0   2   3 13612.6 786.801   3
   0   2   3 13195.2 789.221   2
   0   2   4 33508.9 1975.90   4
   0   2   4 34347.3 1974.97   3
   0   2   5 1856.44 117.836   4
   0   2   5 1417.20 94.8195   1
   0   2   5 1443.13 95.9300   1
   0   2   5 1829.98 119.976   6
   0   2   5 2124.45 118.605   3
   0   2   6 20164.8 1131.02   4
   0   2   6 19046.8 1125.15   1
   0   2   6 22305.4 1133.68   3
   0   2   6 17795.5 1124.19   1
   0   2   6 22648.0 1135.16   6
   0   2   7 534.275 66.8587   1
   0   2   7 603.365 89.2701   4
   0   2   7 477.232 93.4672   3
   0   2   7 518.143 63.3586   1
   0   2   7 619.780 101.468   2
   0   2   7 578.322 96.0097   6
   0   2   8 425.383 74.3937   1
   0   2   8 396.709 91.9392   4
   0   2   8 498.272 103.466   6
   0   2   8 442.121 102.707   3
   0   2   8 347.160 108.550   2
   0   2   9 1608.84 127.903   4
   0   2   9 1340.46 118.443   1
   0   2   9 1535.36 145.954   3
   0   2  10 902.733 108.970   4
   0   2  10 628.880 99.3626   1
   0   2  10 804.740 129.657   3
   0   2  11 2582.93 201.387   3
   0   2  11 2229.85 171.890   1
   0   2  12 2325.30 207.411   3
   0   2  13 205.372 154.509   3
   0   3 -14 699.341 169.931   6
   0   3 -13 1051.09 178.776   5
   0   3 -13 850.558 165.215   6
   0   3 -13 885.570 162.373   2
   0   3 -12 283.546 161.057   5
   0   3 -12 355.915 142.072   2
   0   3 -12 179.222 141.939   6
   0   3 -11 3888.98 278.565   5
   0   3 -11 3905.58 270.540   2
   0   3 -10 1045.69 145.238   5
   0   3 -10 1245.67 138.193   2
   0   3  -9 7727.49 458.424   5
   0   3  -9 7211.37 453.730   2
   0   3  -8 7582.26 451.923   5
   0   3  -8 7290.16 448.476   2
   0   3  -7 8485.95 501.915   4
   0   3  -7 8990.30 517.928   1
   0   3  -7 8011.22 506.778   2
   0   3  -7 8973.28 511.629   5
   0   3  -6 2780.10 195.031   5
   0   3  -6 3184.82 189.711   4
   0   3  -6 3053.21 208.352   1
   0   3  -6 2791.84 189.183   2
   0   3  -5 25747.0 1367.18   4
   0   3  -5 22077.3 1364.72   2
   0   3  -5 23258.2 1368.57   5
   0   3  -4 4239.10 254.914   2
   0   3  -4 4652.30 261.880   4
   0   3  -4 4050.99 258.819   3
   0   3  -4 4034.76 259.329   5
   0   3  -3 5129.93 312.633   2
   0   3  -3 5692.30 319.940   4
   0   3  -3 5960.70 324.808   1
   0   3  -3 4924.73 314.099   3
   0   3  -2 13571.1 829.054   4
   0   3  -2 16037.4 833.006   1
   0   3  -2 14075.6 826.074   3
   0   3  -2 13830.2 825.705   2
   0   3  -1 4655.81 286.796   2
   0   3  -1 4830.67 293.831   4
   0   3  -1 5560.36 295.022   1
   0   3  -1 4998.69 285.729   3
   0   3  -1 4384.02 288.414   2
   0   3   0 3575.49 222.132   4
   0   3   0 4081.31 218.816   1
   0   3   0 3494.10 211.394   3
   0   3   0 3506.09 217.222   2
   0   3   0 3280.34 214.554   2
   0   3   1 12636.3 692.424   1
   0   3   1 11397.2 691.009   3
   0   3   1 11737.8 695.456   2
   0   3   2 7540.13 462.342   4
   0   3   2 7666.92 453.177   1
   0   3   2 8117.25 455.886   3
   0   3   2 7441.43 459.707   2
   0   3   3 24623.1 1253.68   4
   0   3   3 25570.1 1248.87   3
   0   3   3 24604.3 1252.92   2
   0   3   4 6415.81 420.484   4
   0   3   4 7576.21 419.294   3
   0   3   4 6718.63 422.055   2
   0   3   5 5062.42 336.210   4
   0   3   5 5685.05 333.936   3
   0   3   5 5437.66 339.985   2
   0   3   6 5700.48 355.788   4
   0   3   6 6202.68 356.567   3
   0   3   6 5253.14 356.423   6
   0   3   7 14244.3 842.901   4
   0   3   7 15011.3 844.886   3
   0   3   7 13381.7 843.985   6
   0   3   8 2082.80 123.949   4
   0   3   8 2117.03 132.190   3
   0   3   9 1262.55 124.464   4
   0   3   9 1368.00 138.658   3
   0   3   9 631.753 55.1144   1
   0   3   9 596.884 52.1675   1
   0   3  10 1681.93 161.099   4
   0   3  10 1944.89 176.920   3
   0   3  11 81.6572 143.200   3
   0   3  12 397.616 157.405   3
   0   3  13 553.790 172.392   3
   0   4 -13 10.0071 180.800   5
   0   4 -12 1098.60 158.785   2
   0   4 -12 1348.03 176.191   5
   0   4 -11 1306.76 168.928   5
   0   4 -11 1227.97 153.006   2
   0   4 -10 2327.04 204.260   5
   0   4 -10 2877.20 200.633   2
   0   4  -9 1313.89 145.186   5
   0   4  -9 1445.74 137.381   2
   0   4  -8 3030.13 219.303   5
   0   4  -8 3227.25 203.834   4
   0   4  -8 3016.37 211.313   2
   0   4  -7 9157.93 586.341   5
   0   4  -7 10776.1 583.711   4
   0   4  -7 9605.09 583.091   2
   0   4  -6 8300.90 503.642   5
   0   4  -6 9287.97 501.146   4
   0   4  -6 7803.81 496.924   2
   0   4  -5 3711.66 247.197   2
   0   4  -5 4553.31 257.835   4
   0   4  -5 4315.96 265.509   1
   0   4  -5 3856.15 252.781   5
   0   4  -4 9049.02 486.992   4
   0   4  -4 8831.87 491.349   1
   0   4  -4 7606.41 478.532   2
   0   4  -4 7865.61 480.943   3
   0   4  -3 9157.16 593.703   2
   0   4  -3 11691.5 603.433   4
   0   4  -3 11623.0 604.556   1
   0   4  -3 9935.29 594.949   3
   0   4  -2 4544.38 253.735   2
   0   4  -2 3959.74 256.281   4
   0   4  -2 4285.16 257.307   1
   0   4  -2 4154.40 246.436   3
   0   4  -1 6933.25 460.081   2
   0   4  -1 8401.28 468.831   4
   0   4  -1 8071.47 458.479   3
   0   4  -1 7013.58 461.686   2
   0   4   0 10289.5 568.732   4
   0   4   0 9170.28 557.751   3
   0   4   0 8822.88 563.046   2
   0   4   0 9050.79 561.808   2
   0   4   1 3132.70 196.006   5
   0   4   1 2686.16 182.339   3
   0   4   1 2833.21 192.745   2
   0   4   2 197.786 55.3990   3
   0   4   2 238.731 79.0779   5
   0   4   2 317.936 62.5449   1
   0   4   2 198.248 74.2563   2
   0   4   3 2545.55 160.871   1
   0   4   3 2845.38 190.054   4
   0   4   3 2671.93 170.557   3
   0   4   3 2649.46 182.623   2
   0   4   3 2712.57 185.126   5
   0   4   4 2552.32 176.632   4
   0   4   4 2216.60 155.415   3
   0   4   4 2360.35 170.929   2
   0   4   5 3153.87 220.871   4
   0   4   5 3143.78 211.156   3
   0   4   5 3242.14 221.386   2
   0   4   6 557.356 117.698   4
   0   4   6 605.373 109.263   3
   0   4   7 743.024 128.088   4
   0   4   7 873.226 128.147   3
   0   4   8 4564.66 303.954   4
   0   4   8 4513.15 302.173   3
   0   4   9 389.941 132.876   4
   0   4   9 312.294 136.382   3
   0   4  10 479.089 147.484   3
   0   4  11 772.000 160.680   3
   0   4  12 494.787 168.682   3
   0   5 -12 1257.37 192.238   5
   0   5 -11 786.460 158.396   5
   0   5 -10 2193.72 180.106   2
   0   5 -10 2107.63 195.967   5
   0   5  -9 538.833 134.458   5
   0   5  -9 551.406 112.697   2
   0   5  -8 1620.44 146.177   2
   0   5  -8 1484.52 155.365   5
   0   5  -7 5052.32 288.663   4
   0   5  -7 4481.49 281.585   2
   0   5  -6 2876.79 201.835   2
   0   5  -6 2734.05 210.725   5
   0   5  -5 5271.12 324.595   2
   0   5  -4 3221.79 224.744   2
   0   5  -4 4144.46 244.065   4
   0   5  -4 4086.06 245.777   1
   0   5  -4 3400.14 225.745   3
   0   5  -3 4134.96 289.861   2
   0   5  -3 5803.71 310.278   4
   0   5  -3 5559.23 306.131   1
   0   5  -3 4818.69 289.355   3
   0   5  -3 4392.96 293.424   2
   0   5  -2 6280.09 386.593   2
   0   5  -2 6904.44 396.235   4
   0   5  -2 7195.48 393.013   1
   0   5  -2 6831.65 381.317   3
   0   5  -1 3456.38 253.071   2
   0   5  -1 4733.90 272.502   4
   0   5  -1 5309.81 267.663   1
   0   5  -1 3950.55 249.519   3
   0   5  -1 4111.74 260.976   2
   0   5   0 3773.06 205.137   1
   0   5   0 3556.48 215.851   4
   0   5   0 2734.89 186.619   3
   0   5   0 2849.13 201.022   2
   0   5   0 2937.94 201.937   5
   0   5   0 2793.29 196.071   2
   0   5   1 3384.30 221.057   3
   0   5   1 3509.70 234.083   2
   0   5   1 3386.17 233.316   5
   0   5   1 3540.19 231.360   2
   0   5   2 4098.26 219.919   1
   0   5   2 3654.44 232.215   2
   0   5   2 3647.84 231.410   5
   0   5   3 3200.39 191.144   1
   0   5   3 3463.73 227.594   4
   0   5   3 3216.31 217.170   5
   0   5   3 2722.03 197.707   3
   0   5   3 3277.69 215.991   2
   0   5   4 1949.61 119.199   3
   0   5   4 2272.27 148.440   5
   0   5   5 358.592 96.2262   3
   0   5   6 990.480 116.288   3
   0   5   7 1886.33 160.299   3
   0   5   8 1090.18 139.376   3
   0   5   9 1301.24 161.556   3
   0   5  10 431.404 156.020   3
   0   5  11-37.0210 171.709   3
   0   6 -11 1724.91 199.331   5
   0   6 -10 737.884 157.254   5
   0   6  -9 1386.05 168.929   5
   0   6  -8 971.043 134.946   2
   0   6  -8 923.812 146.224   5
   0   6  -7 20.3349 131.502   5
   0   6  -7 122.445 107.709   2
   0   6  -6 831.812 117.194   2
   0   6  -6 1310.97 159.741   4
   0   6  -5 1165.13 121.865   2
   0   6  -4 2035.16 159.321   2
   0   6  -4 2178.51 156.206   3
   0   6  -4 2117.81 167.085   2
   0   6  -3 508.373 99.3524   2
   0   6  -3 639.990 129.849   1
   0   6  -3 518.586 102.923   2
   0   6  -3 600.468 90.2514   3
   0   6  -2 1530.52 159.555   2
   0   6  -2 1686.10 152.888   1
   0   6  -2 1313.89 140.624   2
   0   6  -2 1391.73 124.671   3
   0   6  -1 4116.25 293.092   2
   0   6  -1 4706.76 299.149   2
   0   6  -1 4644.18 286.154   3
   0   6  -1 4569.28 300.442   5
   0   6   0 733.528 119.496   5
   0   6   0 999.706 118.247   1
   0   6   0 700.871 112.038   2
   0   6   0 861.816 118.126   2
   0   6   0 800.912 88.2344   3
   0   6   1 573.802 115.177   5
   0   6   1 761.383 117.217   2
   0   6   1 810.973 104.585   1
   0   6   1 657.001 109.992   2
   0   6   1 546.464 83.6200   3
   0   6   2 632.896 116.773   5
   0   6   2 552.359 112.387   2
   0   6   2 564.733 89.9579   1
   0   6   2 505.498 79.1370   3
   0   6   3 2353.99 146.664   1
   0   6   3 2328.05 180.680   5
   0   6   3 1853.72 151.021   3
   0   6   4 1584.30 118.596   3
   0   6   4 1772.19 155.738   5
   0   6   5 422.287 131.407   5
   0   6   5 688.394 114.721   3
   0   6   6 337.986 145.524   5
   0   6   6 626.240 112.437   3
   0   6   7 61.5824 115.206   3
   0   6   8 787.780 135.416   3
   0   6   9-38.6801 126.368   3
   0   7  -9 207.221 156.234   5
   0   7  -8 3259.73 259.501   5
   0   7  -6 783.103 126.273   2
   0   7  -5 838.896 121.651   2
   0   7  -4 1130.43 128.956   2
   0   7  -4 1220.17 124.647   3
   0   7  -3 1282.35 142.686   2
   0   7  -3 1432.52 124.345   3
   0   7  -2 1846.64 183.498   2
   0   7  -2 1745.21 171.909   2
   0   7  -2 1627.19 180.606   5
   0   7  -1 642.181 136.710   5
   0   7  -1 743.838 129.179   2
   0   7  -1 866.964 99.5082   3
   0   7   0 2026.03 184.158   2
   0   7   0 2430.89 164.084   3
   0   7   0 2119.42 189.596   5
   0   7   1 46.7148 124.763   5
   0   7   1 116.889 119.654   2
   0   7   1 140.521 78.1493   3
   0   7   2 2028.48 181.839   5
   0   7   2 1969.49 153.439   3
   0   7   2 2216.79 187.454   2
   0   7   3 235.371 122.442   5
   0   7   3 237.906 130.381   2
   0   7   3 241.432 84.4247   3
   0   7   4 157.759 89.5672   3
   0   7   4-76.0012 138.320   5
   0   7   4 218.671 133.227   2
   0   7   5 317.156 150.194   5
   0   7   5 200.593 102.582   3
   0   7   6 729.549 164.409   5
   0   7   6 651.470 113.057   3
   0   7   7 266.362 161.104   5
   0   7   7 275.727 126.244   3
   0   7   8 558.947 175.499   5
   0   8  -3 101.982 146.604   5
   0   8  -3 221.645 127.737   2
   0   8  -2 659.697 163.180   5
   0   8  -2 566.807 145.183   2
   0   8  -1 151.689 139.591   5
   0   8  -1 131.252 134.337   2
   0   8   0 542.926 150.673   5
   0   8   0 609.501 141.813   2
   0   8   1 193.288 140.103   5
   0   8   2 1220.48 173.788   2
   0   8   2 1244.66 171.061   5
   0   8   3 443.328 153.059   5
   0   8   3 621.244 159.030   2
   0   8   4 266.585 144.726   5
   0   8   4 411.740 161.037   2
   0   8   5 42.1036 156.547   5
   0   8   5-150.854 162.110   2
   1  -9  -1 514.214 185.775   4
   1  -9   0 1499.03 205.391   4
   1  -9   1 108.281 173.175   4
   1  -9   1-27.7431 132.178   1
   1  -9   2 977.564 157.771   1
   1  -9   2 1233.72 190.611   4
   1  -9   3-35.4862 148.801   1
   1  -9   3-86.5608 171.238   4
   1  -9   4 560.310 174.044   4
   1  -8  -6 258.384 173.940   4
   1  -8  -5 233.755 171.678   4
   1  -8  -4 503.491 171.109   4
   1  -8  -3 1218.57 186.474   4
   1  -8  -1 521.286 157.790   4
   1  -8  -1 571.241 112.259   1
   1  -8   0 121.719 150.698   4
   1  -8   0 39.1134 113.714   1
   1  -8   1 352.411 121.642   1
   1  -8   1 469.432 152.757   4
   1  -8   2 561.163 135.274   1
   1  -8   2 394.627 153.610   4
   1  -8   3 1114.27 171.250   4
   1  -8   3 1342.80 158.893   1
   1  -8   4 1666.36 174.978   4
   1  -8   4 1177.59 165.227   1
   1  -8   5 212.239 145.892   4
   1  -8   5 329.084 145.072   1
   1  -8   6 252.345 142.253   4
   1  -8   6 309.885 154.568   1
   1  -8   7 343.423 137.466   4
   1  -8   7 179.153 162.793   1
   1  -8   8 1806.56 212.684   1
   1  -7  -9-51.0189 160.843   4
   1  -7  -8-138.899 163.769   4
   1  -7  -7 334.755 160.770   4
   1  -7  -6 935.977 172.568   4
   1  -7  -5 127.122 145.788   4
   1  -7  -4 330.104 147.292   4
   1  -7  -3 556.914 93.3187   1
   1  -7  -3 570.312 141.400   4
   1  -7  -2 417.451 93.6180   1
   1  -7  -1 1829.80 147.272   1
   1  -7   0 2588.65 199.958   4
   1  -7   0 2270.10 177.739   1
   1  -7   1 523.422 114.165   1
   1  -7   1 426.379 129.533   4
   1  -7   2 1708.88 169.838   4
   1  -7   2 1647.44 152.838   1
   1  -7   3 1829.00 166.621   4
   1  -7   3 1490.67 154.038   1
   1  -7   4 1608.92 167.559   4
   1  -7   4 1620.54 161.163   1
   1  -7   5 1214.20 152.326   4
   1  -7   5 1053.08 148.821   1
   1  -7   6 3050.26 229.402   4
   1  -7   6 3193.55 239.661   1
   1  -7   7 1108.22 143.256   4
   1  -7   7 1310.38 169.455   1
   1  -7   8 88.6397 112.608   4
   1  -7   8 18.6113 150.231   1
   1  -7   9 818.322 173.498   1
   1  -7  10 442.208 176.649   1
   1  -6 -10 252.216 156.348   4
   1  -6 -10 127.670 163.502   2
   1  -6  -9 1916.80 190.472   4
   1  -6  -8 144.479 141.786   4
   1  -6  -7 791.602 152.515   4
   1  -6  -6 1782.66 168.381   4
   1  -6  -6 1053.66 158.828   2
   1  -6  -5 1586.06 167.209   4
   1  -6  -4 1877.52 166.340   4
   1  -6  -4 1506.57 118.369   1
   1  -6  -3 1521.80 148.038   4
   1  -6  -3 1289.36 112.839   1
   1  -6  -2 817.004 93.7678   1
   1  -6  -1 2033.94 136.400   1
   1  -6  -1 1649.06 114.668   3
   1  -6   0 2138.37 142.573   4
   1  -6   0 1944.23 121.837   1
   1  -6   1 2858.87 168.512   4
   1  -6   1 2035.79 162.829   5
   1  -6   1 1664.17 124.416   3
   1  -6   1 2701.15 155.773   1
   1  -6   2 3862.46 212.591   4
   1  -6   2 3664.19 204.773   1
   1  -6   3 3293.19 194.328   4
   1  -6   3 2066.42 163.155   3
   1  -6   3 3102.97 190.118   1
   1  -6   3 2466.49 183.075   2
   1  -6   4 2670.41 182.854   4
   1  -6   4 2132.80 159.579   3
   1  -6   4 2510.89 183.770   1
   1  -6   4 2141.10 172.809   2
   1  -6   5 3309.26 211.187   4
   1  -6   5 3095.18 212.094   1
   1  -6   5 2783.71 193.315   3
   1  -6   6 846.540 118.600   2
   1  -6   6 1222.69 130.521   4
   1  -6   6 1167.20 140.332   1
   1  -6   6 1014.58 121.923   3
   1  -6   7 3451.69 220.979   4
   1  -6   7 3586.36 238.929   1
   1  -6   8 3896.09 265.369   4
   1  -6   8 4445.73 291.116   1
   1  -6  10 486.826 146.598   3
   1  -6  11 1120.03 173.397   3
   1  -6  11 1183.46 187.347   1
   1  -5 -12-167.889 166.093   2
   1  -5 -11 38.9285 141.758   4
   1  -5 -11 274.744 155.390   2
   1  -5 -10 565.124 146.939   2
   1  -5 -10 503.050 143.252   4
   1  -5  -9 883.343 138.999   4
   1  -5  -9 470.742 135.609   2
   1  -5  -8 1848.68 167.049   4
   1  -5  -8 1563.14 170.223   2
   1  -5  -7 2209.16 184.907   4
   1  -5  -6 214.830 117.002   4
   1  -5  -5 6789.81 420.518   4
   1  -5  -4 3349.69 219.594   4
   1  -5  -4 3036.49 193.860   1
   1  -5  -3 1483.74 138.179   4
   1  -5  -3 1551.55 113.824   1
   1  -5  -2 1285.06 100.859   1
   1  -5  -2 1310.54 128.134   4
   1  -5  -1 6502.51 318.455   1
   1  -5  -1 4792.46 309.628   3
   1  -5   0 4113.21 196.003   4
   1  -5   0 4140.69 183.992   1
   1  -5   0 3592.40 192.908   5
   1  -5   1 8709.33 356.563   4
   1  -5   1 8298.69 349.214   1
   1  -5   2 5255.09 260.068   4
   1  -5   2 3269.89 238.756   3
   1  -5   2 4653.46 256.512   2
   1  -5   2 5145.98 255.682   1
   1  -5   2 3911.55 254.222   5
   1  -5   3 2518.24 180.329   2
   1  -5   3 3064.55 186.707   4
   1  -5   3 2434.12 167.698   3
   1  -5   3 2912.50 185.919   1
   1  -5   3 2556.35 184.201   5
   1  -5   4 2375.89 184.602   2
   1  -5   4 3180.21 194.261   4
   1  -5   4 2880.33 191.479   1
   1  -5   4 2909.93 183.071   3
   1  -5   4 2248.74 189.925   5
   1  -5   5 2758.73 218.995   2
   1  -5   5 3640.09 222.073   4
   1  -5   5 3368.04 227.667   1
   1  -5   5 3370.90 216.896   3
   1  -5   6 3404.89 224.181   4
   1  -5   6 3139.66 238.255   2
   1  -5   6 3354.94 238.144   1
   1  -5   6 3938.52 242.209   3
   1  -5   7 2305.69 163.646   4
   1  -5   7 2110.60 180.655   2
   1  -5   8 708.475 93.2619   4
   1  -5   8 559.042 110.335   2
   1  -5   8 751.596 147.082   3
   1  -5   9 764.847 98.8407   4
   1  -5  10 2284.35 203.308   3
   1  -5  10 2352.40 209.313   1
   1  -5  11 1657.43 187.180   3
   1  -5  11 1723.03 194.958   1
   1  -5  12 997.320 181.482   1
   1  -5  12 1191.41 180.283   3
   1  -4 -13 99.0730 176.483   2
   1  -4 -12 290.236 165.173   2
   1  -4 -11 544.266 141.930   4
   1  -4 -11 459.493 155.443   2
   1  -4 -10 320.701 137.039   2
   1  -4 -10 226.652 119.277   4
   1  -4  -9 1861.49 162.932   4
   1  -4  -9 1647.20 168.595   2
   1  -4  -8 1634.34 147.363   4
   1  -4  -8 1413.04 152.830   2
   1  -4  -7 386.197 103.424   4
   1  -4  -7 272.763 103.080   2
   1  -4  -6 5485.25 302.496   4
   1  -4  -6 4127.41 300.336   2
   1  -4  -5 7641.39 475.032   4
   1  -4  -5 7965.24 463.067   1
   1  -4  -4 15366.6 889.703   1
   1  -4  -4 15017.5 897.601   4
   1  -4  -3 6083.84 364.032   4
   1  -4  -3 5915.54 352.730   1
   1  -4  -2 7642.89 451.344   1
   1  -4  -2 7746.73 459.855   4
   1  -4  -1 4231.76 254.303   1
   1  -4   0 8318.20 471.079   4
   1  -4   0 7937.30 465.911   1
   1  -4   0 7423.79 469.707   5
   1  -4   1 5025.91 201.310   4
   1  -4   1 4728.65 194.166   1
   1  -4   1 4754.61 198.711   2
   1  -4   2 13294.7 739.135   2
   1  -4   2 14427.9 738.956   4
   1  -4   2 11493.2 731.150   3
   1  -4   2 13355.2 737.558   1
   1  -4   2 12120.4 738.370   5
   1  -4   3 36864.3 2191.76   2
   1  -4   3 41712.0 2191.24   4
   1  -4   3 38286.2 2190.74   1
   1  -4   3 36397.5 2187.25   3
   1  -4   3 35645.6 2192.27   5
   1  -4   4 8462.96 480.484   2
   1  -4   4 7791.95 472.128   4
   1  -4   4 7206.78 473.774   1
   1  -4   4 7089.17 476.423   5
   1  -4   5 5624.34 394.441   2
   1  -4   5 6652.29 392.232   4
   1  -4   5 6326.20 399.629   5
   1  -4   5 6553.69 399.828   1
   1  -4   6 4846.72 328.347   2
   1  -4   6 5349.49 321.214   4
   1  -4   6 4926.97 333.627   5
   1  -4   7 12089.9 689.688   4
   1  -4   7 13907.0 702.991   3
   1  -4   8 2883.11 212.132   2
   1  -4   8 2920.24 193.635   4
   1  -4   8 3525.66 225.991   1
   1  -4   8 3629.90 223.799   3
   1  -4   9 4497.51 333.166   2
   1  -4   9 5568.30 340.036   3
   1  -4   9 5562.28 342.062   1
   1  -4  10 1623.23 169.754   3
   1  -4  10 1670.98 172.384   1
   1  -4  11 2650.48 219.955   3
   1  -4  11 2785.45 227.596   1
   1  -4  12 934.942 168.313   1
   1  -4  12 984.970 167.611   3
   1  -4  13 2136.40 217.846   3
   1  -4  13 1607.78 202.246   1
   1  -3 -13-30.5638 159.414   2
   1  -3 -12 363.168 151.103   2
   1  -3 -11 2225.27 181.431   4
   1  -3 -11 2404.39 204.236   2
   1  -3 -10 34.5881 112.516   4
   1  -3 -10 188.995 123.907   2
   1  -3  -9 2856.55 193.826   4
   1  -3  -9 2426.94 201.506   2
   1  -3  -8 2972.93 197.727   4
   1  -3  -8 2700.78 205.421   2
   1  -3  -7 3331.40 206.037   4
   1  -3  -7 2786.62 212.225   2
   1  -3  -6 3230.80 200.729   4
   1  -3  -6 2834.51 205.514   2
   1  -3  -5 3063.92 191.962   4
   1  -3  -5 2861.83 193.772   2
   1  -3  -4 7121.93 412.027   4
   1  -3  -4 6816.56 404.627   1
   1  -3  -4 6888.43 413.941   2
   1  -3  -3 3177.92 207.094   4
   1  -3  -3 3338.80 198.045   1
   1  -3  -2 21855.1 1298.54   4
   1  -3  -2 22506.3 1294.86   1
   1  -3  -1 12056.2 681.090   1
   1  -3  -1 11065.2 683.932   5
   1  -3   0 8224.00 484.004   1
   1  -3   0 7704.63 485.942   5
   1  -3   0 9024.20 488.130   2
   1  -3   1 11609.6 528.095   2
   1  -3   1 11279.4 527.772   4
   1  -3   1 10413.0 525.083   1
   1  -3   1 9874.12 526.707   5
   1  -3   2 8032.06 451.125   2
   1  -3   2 7667.19 449.532   4
   1  -3   2 7448.66 449.258   1
   1  -3   2 7496.48 445.176   3
   1  -3   2 7540.10 450.985   5
   1  -3   3 45751.1 2759.34   4
   1  -3   3 47905.4 2761.19   1
   1  -3   3 48763.0 2759.53   3
   1  -3   3 49619.5 2762.09   2
   1  -3   3 45997.6 2762.08   5
   1  -3   4 12667.0 832.736   2
   1  -3   4 14292.7 830.256   4
   1  -3   4 15934.9 833.897   3
   1  -3   4 14178.8 835.130   5
   1  -3   5 15559.2 950.414   2
   1  -3   5 16517.2 944.502   4
   1  -3   5 14864.8 950.312   5
   1  -3   5 17551.8 950.649   3
   1  -3   6 13839.8 862.319   2
   1  -3   6 14624.7 854.397   4
   1  -3   6 14364.9 863.050   1
   1  -3   6 16067.7 864.004   3
   1  -3   6 14628.2 864.300   5
   1  -3   7 5192.45 358.141   2
   1  -3   7 5813.20 360.466   3
   1  -3   7 5844.20 362.670   1
   1  -3   8 6295.71 432.689   2
   1  -3   8 7073.25 435.350   3
   1  -3   8 6981.69 436.544   1
   1  -3   9 837.169 121.221   2
   1  -3   9 985.602 131.429   3
   1  -3   9 1014.48 132.589   1
   1  -3  10 6153.01 389.012   3
   1  -3  10 6049.53 388.357   1
   1  -3  11 2773.57 223.100   3
   1  -3  11 2869.32 223.486   1
   1  -3  12 1833.70 197.442   3
   1  -3  12 1760.15 184.921   1
   1  -3  13 572.143 158.953   1
   1  -3  13 764.809 183.467   3
   1  -2 -14 881.076 177.469   2
   1  -2 -13 1306.91 176.654   2
   1  -2 -12 2798.71 227.982   2
   1  -2 -11 357.839 133.553   2
   1  -2 -10 6486.15 383.400   4
   1  -2 -10 5954.12 394.997   2
   1  -2  -9 601.265 90.5376   4
   1  -2  -9 629.097 113.635   2
   1  -2  -8 6466.52 397.088   4
   1  -2  -8 6786.73 405.114   2
   1  -2  -7 6180.01 357.846   4
   1  -2  -7 5569.27 359.893   2
   1  -2  -6 31989.7 1861.26   4
   1  -2  -6 32066.7 1864.97   2
   1  -2  -5 9328.79 541.434   4
   1  -2  -5 9036.87 544.439   2
   1  -2  -4 4830.24 285.919   4
   1  -2  -4 4681.32 287.781   2
   1  -2  -3 15957.6 968.258   4
   1  -2  -3 16860.8 966.304   1
   1  -2  -3 16972.2 970.068   2
   1  -2  -2 16745.6 1013.26   4
   1  -2  -2 17813.3 1011.42   1
   1  -2  -1 51455.8 3034.86   1
   1  -2  -1 53446.2 3035.46   5
   1  -2   0 82444.2 4769.59   1
   1  -2   0 82150.7 4769.89   5
   1  -2   1 37541.4 2193.84   4
   1  -2   1 38591.7 2193.99   1
   1  -2   1 37313.2 2194.02   5
   1  -2   2 108765. 6074.67   2
   1  -2   2 104322. 6072.90   4
   1  -2   2 101504. 6072.78   3
   1  -2   2 106695. 6074.43   5
   1  -2   3 18741.0 1048.01   5
   1  -2   3 18557.0 1047.86   2
   1  -2   3 18882.3 1044.40   4
   1  -2   3 16146.5 1044.85   3
   1  -2   4 7035.92 413.087   5
   1  -2   4 7363.59 413.995   2
   1  -2   4 6765.45 405.893   4
   1  -2   4 6740.54 410.348   3
   1  -2   4 7127.56 413.137   1
   1  -2   5 27167.0 1579.68   5
   1  -2   5 28612.9 1580.46   2
   1  -2   5 25727.1 1577.60   3
   1  -2   5 27368.1 1579.03   1
   1  -2   6 21537.7 1224.17   2
   1  -2   6 19966.4 1221.78   3
   1  -2   6 21457.6 1222.81   1
   1  -2   7 12147.2 716.248   2
   1  -2   7 11558.5 713.596   3
   1  -2   7 12606.1 714.847   1
   1  -2   8 13579.9 805.488   2
   1  -2   8 13467.0 804.377   3
   1  -2   8 13721.6 804.276   1
   1  -2   9 18495.2 1060.51   2
   1  -2   9 17990.0 1059.14   3
   1  -2   9 17519.3 1056.70   1
   1  -2  10 318.673 120.833   1
   1  -2  10 492.378 131.594   3
   1  -2  11 466.271 131.858   1
   1  -2  11 757.978 150.436   3
   1  -2  12 1789.98 185.471   3
   1  -2  12 1346.38 164.999   1
   1  -2  13 1397.75 180.713   3
   1  -2  13 927.381 156.851   1
   1  -2  14 725.100 174.750   3
   1  -2  14 676.396 155.992   1
   1  -1 -14 214.201 158.175   2
   1  -1 -14 241.622 171.640   6
   1  -1 -13 81.4772 154.183   6
   1  -1 -13 294.394 140.859   2
   1  -1 -12 1028.26 153.749   2
   1  -1 -12 1362.54 170.398   6
   1  -1 -11 8369.93 509.659   2
   1  -1 -11 8966.61 510.024   6
   1  -1 -11 7293.20 500.658   1
   1  -1 -10 2582.26 193.841   2
   1  -1 -10 2732.01 198.646   6
   1  -1 -10 2218.61 184.789   1
   1  -1  -9 3362.59 223.054   6
   1  -1  -9 3258.11 220.858   2
   1  -1  -9 2979.67 214.200   1
   1  -1  -8 980.437 105.721   2
   1  -1  -8 1038.79 114.730   6
   1  -1  -8 848.977 100.235   1
   1  -1  -7 8259.34 484.877   2
   1  -1  -7 8149.88 485.800   6
   1  -1  -7 7921.46 481.986   1
   1  -1  -6 6534.93 395.957   2
   1  -1  -6 6704.80 397.461   6
   1  -1  -5 27179.2 1567.52   4
   1  -1  -5 26404.1 1569.69   2
   1  -1  -5 27327.1 1570.29   6
   1  -1  -4 15713.3 924.646   4
   1  -1  -4 15845.2 926.309   2
   1  -1  -4 16175.5 926.453   6
   1  -1  -3 14531.4 875.432   4
   1  -1  -3 15375.6 876.422   2
   1  -1  -3 15352.8 876.326   6
   1  -1  -2 57385.6 3389.28   4
   1  -1  -2 60050.9 3388.80   1
   1  -1  -2 57644.2 3389.33   3
   1  -1  -1 12284.3 661.722   2
   1  -1  -1 10602.3 660.262   3
   1  -1  -1 11617.1 660.848   1
   1  -1   0 52794.3 2900.13   2
   1  -1   0 50426.1 2898.57   3
   1  -1   0 48192.8 2898.64   5
   1  -1   1 12143.0 706.890   5
   1  -1   1 12155.6 706.310   3
   1  -1   2 43184.8 2500.99   3
   1  -1   2 43048.3 2501.52   5
   1  -1   3 10251.4 599.237   5
   1  -1   3 9628.26 597.554   3
   1  -1   3 10852.1 597.900   1
   1  -1   4 12283.8 723.946   5
   1  -1   4 13502.8 725.945   2
   1  -1   4 11504.8 722.317   3
   1  -1   4 12479.1 721.941   1
   1  -1   5 12828.9 691.881   2
   1  -1   5 11644.5 688.441   3
   1  -1   5 11071.4 686.140   1
   1  -1   6 26589.2 1453.72   2
   1  -1   6 25173.6 1450.74   3
   1  -1   6 23493.3 1448.45   1
   1  -1   7 9843.86 574.136   2
   1  -1   7 9808.22 571.649   3
   1  -1   7 9155.76 567.970   1
   1  -1   8 9558.32 548.917   2
   1  -1   8 9535.63 546.331   3
   1  -1   8 8348.68 540.940   1
   1  -1   9 7098.18 411.968   2
   1  -1   9 6612.26 407.890   3
   1  -1   9 6164.99 402.186   1
   1  -1  10 21559.7 1214.58   3
   1  -1  10 19762.2 1210.04   1
   1  -1  11 2391.12 194.645   3
   1  -1  11 2202.85 185.790   1
   1  -1  12 321.315 124.443   1
   1  -1  12 489.926 145.207   3
   1  -1  13 1594.53 178.511   3
   1  -1  13 1311.62 162.404   1
   1  -1  14 1172.15 178.497   3
   1  -1  14 731.492 151.076   1
   1   0 -14 876.340 175.407   6
   1   0 -14 830.977 165.332   2
   1   0 -13-4.42570 148.791   6
   1   0 -13 252.291 143.487   2
   1   0 -12 424.132 129.848   2
   1   0 -12 381.201 144.868   6
   1   0 -11 2084.92 179.081   2
   1   0 -11 2104.61 185.200   6
   1   0 -10 3298.29 238.259   1
   1   0 -10 3469.13 236.793   2
   1   0 -10 3497.96 238.264   6
   1   0  -9 3146.16 215.619   1
   1   0  -9 3072.87 216.322   6
   1   0  -9 3188.63 213.107   2
   1   0  -8 13678.7 795.131   1
   1   0  -8 13609.2 795.570   6
   1   0  -8 13221.2 793.901   2
   1   0  -7 4782.00 293.453   1
   1   0  -7 4596.52 292.834   5
   1   0  -7 4812.66 291.295   2
   1   0  -7 4859.68 294.641   6
   1   0  -6 30037.2 1714.27   1
   1   0  -6 29239.4 1712.80   2
   1   0  -6 29443.6 1714.00   5
   1   0  -6 29194.1 1714.11   6
   1   0  -5 18897.3 1077.09   1
   1   0  -5 17665.6 1075.92   5
   1   0  -5 19067.0 1075.83   2
   1   0  -5 18288.8 1076.74   6
   1   0  -4 43937.1 2559.88   1
   1   0  -4 41365.0 2558.51   5
   1   0  -4 43717.2 2558.04   2
   1   0  -4 49882.2 2561.74   3
   1   0  -3 6167.66 370.891   1
   1   0  -3 6390.91 369.022   5
   1   0  -3 6131.74 367.860   2
   1   0  -3 6653.62 371.702   3
   1   0  -2 72919.0 4226.75   3
   1   0  -1 116275. 6738.94   2
   1   0  -1 116457. 6740.19   3
   1   0   0 6661.28 388.647   2
   1   0   1 4600.24 278.392   2
   1   0   1 4771.97 276.016   1
   1   0   2 20146.5 1143.33   1
   1   0   2 20088.7 1146.84   2
   1   0   2 18917.0 1143.96   6
   1   0   3 4630.37 285.532   6
   1   0   3 4925.52 283.346   1
   1   0   4 21157.0 1262.05   6
   1   0   4 22020.1 1259.94   1
   1   0   5 20336.8 1166.39   1
   1   0   5 19577.6 1169.12   6
   1   0   6 9096.98 545.510   2
   1   0   6 9156.40 538.607   1
   1   0   7 4294.38 288.691   2
   1   0   7 4654.42 278.725   1
   1   0   8 7798.24 478.473   5
   1   0   8 8625.41 482.755   2
   1   0   8 7581.93 469.539   1
   1   0   9 3940.17 252.943   1
   1   0  10 2696.61 193.708   1
   1   0  11 3378.03 233.267   1
   1   0  12 1728.55 157.766   1
   1   0  13-24.2441 116.345   1
   1   1 -14 1010.68 176.933   6
   1   1 -14 866.256 157.695   2
   1   1 -13 699.634 148.745   2
   1   1 -13 644.531 155.071   6
   1   1 -12 4778.33 312.914   2
   1   1 -12 4605.59 316.828   6
   1   1 -11 8126.51 503.132   5
   1   1 -11 8264.85 498.140   2
   1   1 -11 8103.97 501.430   6
   1   1 -10 196.079 113.917   5
   1   1 -10 127.111 114.083   6
   1   1 -10 248.521 100.487   2
   1   1  -9 9998.46 570.599   5
   1   1  -9 9404.87 567.617   1
   1   1  -9 9121.56 563.501   2
   1   1  -9 9359.50 566.874   6
   1   1  -8 2221.14 160.243   5
   1   1  -8 2091.73 160.420   1
   1   1  -8 2006.64 149.690   2
   1   1  -7 7039.94 394.861   5
   1   1  -7 6658.08 395.895   1
   1   1  -7 6102.61 389.305   2
   1   1  -6 5052.43 299.215   5
   1   1  -6 5130.20 303.297   1
   1   1  -6 4752.84 296.738   2
   1   1  -5 4487.76 250.904   5
   1   1  -5 4266.36 254.510   1
   1   1  -5 3822.39 246.373   2
   1   1  -4 22268.5 1270.47   5
   1   1  -4 21227.8 1271.89   1
   1   1  -3 46175.4 2678.43   5
   1   1  -2 12613.4 790.607   4
   1   1  -2 14335.5 790.070   5
   1   1  -1 14225.5 797.027   1
   1   1  -1 13559.8 797.775   4
   1   1  -1 13114.2 794.570   2
   1   1  -1 14502.3 796.730   5
   1   1   0 103646. 6005.88   2
   1   1   1 142803. 8275.23   2
   1   1   2 12614.9 740.611   4
   1   1   2 12608.7 736.002   1
   1   1   2 12972.8 742.078   2
   1   1   3 17839.1 966.380   4
   1   1   3 16944.1 968.469   2
   1   1   3 16142.3 960.965   1
   1   1   4 35707.5 2097.92   1
   1   1   4 39221.5 2102.72   4
   1   1   4 34707.6 2104.88   2
   1   1   4 35827.8 2102.55   6
   1   1   5 1169.37 99.5201   6
   1   1   5 1292.48 97.5001   4
   1   1   5 1099.57 81.5076   1
   1   1   6 17416.1 961.262   4
   1   1   6 16136.8 957.815   1
   1   1   6 15934.6 964.444   6
   1   1   7 8759.06 479.875   4
   1   1   7 7772.30 477.078   1
   1   1   7 7781.56 485.387   6
   1   1   8 1350.49 106.799   4
   1   1   8 1162.41 104.159   1
   1   1   8 1331.29 129.223   6
   1   1   9 6935.94 405.603   4
   1   1   9 6149.78 406.618   1
   1   1  10 1327.45 157.424   3
   1   1  10 1182.18 115.763   1
   1   1  11 2718.51 206.018   3
   1   1  11 2087.32 169.971   1
   1   1  12 3037.19 249.491   3
   1   1  13 483.392 172.791   3
   1   2 -14 332.686 165.221   6
   1   2 -13 1090.95 176.235   5
   1   2 -13 1094.14 168.069   6
   1   2 -12 4220.34 290.717   5
   1   2 -12 4028.01 274.367   2
   1   2 -12 3833.30 283.078   6
   1   2 -11 366.385 127.857   6
   1   2 -11 389.441 142.524   5
   1   2 -11 312.689 114.454   2
   1   2 -10 2980.80 219.287   5
   1   2 -10 2949.08 209.356   2
   1   2  -9 4540.95 297.531   5
   1   2  -9 4651.52 292.061   2
   1   2  -8 8055.08 487.548   5
   1   2  -8 7725.44 490.417   1
   1   2  -8 8333.03 484.214   2
   1   2  -7 13454.1 742.474   5
   1   2  -7 12288.7 743.749   1
   1   2  -7 12107.6 737.299   2
   1   2  -6 5447.11 313.514   5
   1   2  -6 5131.27 318.190   1
   1   2  -6 4749.58 306.851   2
   1   2  -6 5595.51 319.514   3
   1   2  -5 8215.65 478.105   5
   1   2  -5 8183.73 476.340   4
   1   2  -5 7728.46 479.155   3
   1   2  -4 2512.71 173.191   4
   1   2  -4 2587.38 171.266   5
   1   2  -3 5709.83 292.378   1
   1   2  -3 5642.74 291.580   4
   1   2  -3 6008.24 290.844   3
   1   2  -3 6104.22 290.010   5
   1   2  -2 17554.1 989.893   1
   1   2  -2 17556.5 990.841   4
   1   2  -2 15728.7 985.235   2
   1   2  -2 19087.6 989.761   3
   1   2  -2 17080.6 988.912   5
   1   2  -1 13670.6 784.871   1
   1   2  -1 13386.2 787.084   4
   1   2  -1 12904.1 782.557   2
   1   2  -1 14788.4 785.300   3
   1   2  -1 12826.2 784.514   5
   1   2   0 25383.4 1484.88   1
   1   2   0 25740.0 1486.20   2
   1   2   0 25366.3 1485.50   3
   1   2   0 25880.1 1487.11   5
   1   2   1 13901.6 794.987   2
   1   2   1 13380.3 791.914   3
   1   2   2 42304.1 2511.22   4
   1   2   2 42842.8 2511.23   2
   1   2   2 44092.0 2509.09   3
   1   2   3 10715.0 615.551   4
   1   2   3 9993.54 615.253   2
   1   2   3 10492.6 611.720   3
   1   2   4 651.969 91.1369   4
   1   2   4 565.871 88.9490   2
   1   2   4 587.650 80.4286   3
   1   2   5 9722.60 616.243   6
   1   2   5 10326.3 616.082   4
   1   2   5 9725.88 619.622   2
   1   2   5 11680.4 619.400   3
   1   2   6 2139.57 161.559   4
   1   2   6 2097.16 174.463   2
   1   2   6 2539.15 172.526   3
   1   2   6 2125.35 163.563   6
   1   2   7 1247.34 112.925   6
   1   2   7 1468.21 106.623   4
   1   2   7 1443.76 125.167   3
   1   2   8 3418.34 163.966   4
   1   2   8 3445.74 179.708   3
   1   2   9 977.976 107.231   4
   1   2   9 1101.70 136.299   3
   1   2  10 1721.27 159.562   3
   1   2  10 923.843 85.3361   1
   1   2  11 955.756 160.555   3
   1   2  12 250.213 162.160   3
   1   2  13 571.985 183.290   3
   1   3 -13 3880.34 288.061   5
   1   3 -13 3312.74 271.423   6
   1   3 -12 1305.27 174.044   5
   1   3 -11 990.419 152.075   5
   1   3 -11 1044.86 130.470   2
   1   3 -10 5125.72 342.065   5
   1   3 -10 5472.11 335.077   2
   1   3  -9 3025.44 227.529   5
   1   3  -9 3286.67 213.988   2
   1   3  -8 3578.04 240.174   5
   1   3  -8 3575.61 228.592   2
   1   3  -7 3280.33 205.424   5
   1   3  -7 2811.40 189.144   2
   1   3  -6 8951.76 519.405   5
   1   3  -6 9308.98 517.847   4
   1   3  -6 8422.22 510.755   2
   1   3  -6 8380.12 520.439   3
   1   3  -5 13475.5 789.639   1
   1   3  -5 13977.6 786.388   4
   1   3  -5 13045.1 787.004   3
   1   3  -5 13116.8 786.009   5
   1   3  -4 5520.03 353.682   1
   1   3  -4 5898.93 353.694   4
   1   3  -4 6240.45 355.928   3
   1   3  -4 5603.56 350.456   5
   1   3  -3 10181.2 630.264   2
   1   3  -3 11510.6 638.580   1
   1   3  -3 12223.3 640.036   4
   1   3  -3 10370.1 631.254   2
   1   3  -3 11052.9 635.763   3
   1   3  -3 11471.6 637.781   5
   1   3  -2 2885.25 187.687   2
   1   3  -2 3445.00 200.016   1
   1   3  -2 3478.76 204.955   4
   1   3  -2 2943.19 189.552   2
   1   3  -2 3315.84 195.775   3
   1   3  -2 3130.63 196.565   5
   1   3  -1 10129.5 584.881   1
   1   3  -1 10637.1 589.975   4
   1   3  -1 9822.19 583.744   2
   1   3  -1 10294.7 584.621   3
   1   3  -1 9124.94 585.119   5
   1   3   0 9350.49 521.150   1
   1   3   0 8913.65 523.030   2
   1   3   0 8469.60 520.788   3
   1   3   0 8741.25 524.740   5
   1   3   1 25187.0 1453.83   1
   1   3   1 25440.6 1459.14   2
   1   3   1 24530.6 1456.00   3
   1   3   2 36717.4 2128.55   4
   1   3   2 36521.6 2127.34   2
   1   3   2 36447.2 2123.83   3
   1   3   3 23120.9 1322.77   4
   1   3   3 22515.8 1321.88   2
   1   3   3 22349.6 1317.39   3
   1   3   4 1971.06 154.477   4
   1   3   4 1856.26 148.883   2
   1   3   4 1747.19 135.374   3
   1   3   5 3732.62 232.185   4
   1   3   5 3329.73 231.165   2
   1   3   5 3236.14 219.425   3
   1   3   6 7907.14 445.310   4
   1   3   6 7306.56 441.932   3
   1   3   6 6611.05 441.183   6
   1   3   7 2342.97 182.879   4
   1   3   7 2445.78 190.947   3
   1   3   8 443.731 115.122   4
   1   3   8 369.967 130.352   3
   1   3   9 2025.40 169.851   4
   1   3   9 1864.70 182.486   3
   1   3  10 309.023 149.495   3
   1   3  11 1089.63 180.797   3
   1   3  12 57.8321 175.104   3
   1   4 -13 257.502 168.429   5
   1   4 -12 500.486 161.075   5
   1   4 -11 835.650 147.964   5
   1   4 -10 247.508 132.510   5
   1   4  -9 4660.08 323.999   5
   1   4  -9 5228.66 311.405   2
   1   4  -8 5458.31 348.626   5
   1   4  -8 5789.96 341.803   4
   1   4  -8 5322.88 333.393   2
   1   4  -7 4289.00 284.739   5
   1   4  -7 4345.94 277.257   4
   1   4  -7 4270.04 264.499   2
   1   4  -7 4274.68 283.103   3
   1   4  -6 3885.83 243.169   4
   1   4  -6 3710.56 227.079   2
   1   4  -6 3454.21 239.785   3
   1   4  -6 3494.09 239.835   5
   1   4  -5 2454.78 173.731   1
   1   4  -5 2131.25 148.396   2
   1   4  -5 2615.25 175.822   4
   1   4  -5 2451.61 170.261   3
   1   4  -5 2278.24 151.179   2
   1   4  -5 2144.55 166.187   5
   1   4  -4 1339.21 107.565   2
   1   4  -4 1779.25 134.915   1
   1   4  -4 1946.66 144.267   4
   1   4  -4 1440.95 110.906   2
   1   4  -4 1804.91 132.662   3
   1   4  -4 1407.20 127.515   5
   1   4  -3 1101.45 93.0363   2
   1   4  -3 1280.32 115.261   1
   1   4  -3 1277.47 124.774   4
   1   4  -3 1235.04 97.5015   2
   1   4  -3 1129.49 106.322   3
   1   4  -3 1099.46 110.979   5
   1   4  -2 8165.33 555.861   2
   1   4  -2 10421.6 562.958   1
   1   4  -2 11078.9 568.608   4
   1   4  -2 9968.72 559.566   2
   1   4  -2 9212.83 562.488   5
   1   4  -2 9756.84 560.565   3
   1   4  -1 1967.41 129.477   1
   1   4  -1 1667.68 122.292   2
   1   4  -1 2074.64 151.256   4
   1   4  -1 1876.46 129.980   2
   1   4  -1 1545.65 122.749   3
   1   4  -1 1477.57 130.488   5
   1   4   0 2099.82 136.761   1
   1   4   0 2182.51 164.548   4
   1   4   0 1884.41 141.641   2
   1   4   0 1740.17 136.486   3
   1   4   1 379.805 66.4742   1
   1   4   1 357.233 86.5525   2
   1   4   1 304.580 68.5974   3
   1   4   2 1933.75 160.513   4
   1   4   2 1840.96 148.304   2
   1   4   2 1731.61 133.618   3
   1   4   3 9402.21 522.800   4
   1   4   3 9400.37 521.811   2
   1   4   3 7904.05 510.279   3
   1   4   4 2208.86 176.781   4
   1   4   4 2119.15 171.737   2
   1   4   4 1943.54 155.092   3
   1   4   5 8238.84 468.927   4
   1   4   5 7241.63 458.441   3
   1   4   6 1485.76 142.424   3
   1   4   7 932.770 125.294   3
   1   4   8 2834.32 215.190   3
   1   4   9-4.93859 126.805   3
   1   4  10 636.548 153.365   3
   1   4  11 246.994 159.951   3
   1   5 -12 504.129 163.822   5
   1   5 -11 693.407 161.148   5
   1   5 -10 393.294 143.069   5
   1   5  -9 146.383 128.178   5
   1   5  -8 3045.84 228.098   5
   1   5  -7 996.452 136.535   4
   1   5  -7 830.399 102.422   2
   1   5  -7 913.258 127.293   5
   1   5  -7 1166.09 138.611   3
   1   5  -6 7013.05 423.687   2
   1   5  -6 6837.11 424.300   2
   1   5  -6 7190.96 434.463   3
   1   5  -6 6510.07 434.822   5
   1   5  -5 1561.22 124.344   2
   1   5  -5 1964.50 163.405   4
   1   5  -5 1669.57 127.838   2
   1   5  -5 1726.16 147.665   3
   1   5  -5 1478.30 147.381   5
   1   5  -4 1272.66 113.172   2
   1   5  -4 1704.65 145.858   1
   1   5  -4 1999.31 159.657   4
   1   5  -4 1687.74 126.444   2
   1   5  -4 1613.47 141.321   3
   1   5  -4 1468.00 141.662   5
   1   5  -3 6397.81 406.818   2
   1   5  -3 7589.03 415.100   1
   1   5  -3 7924.67 423.382   4
   1   5  -3 6824.55 407.468   2
   1   5  -3 6377.81 407.148   3
   1   5  -3 6405.93 413.520   5
   1   5  -2 648.674 85.0971   2
   1   5  -2 713.061 98.3424   2
   1   5  -2 691.299 105.779   1
   1   5  -2 797.951 102.046   3
   1   5  -2 666.338 105.907   5
   1   5  -1 4985.00 281.071   1
   1   5  -1 4967.20 284.634   2
   1   5  -1 4090.89 277.065   3
   1   5  -1 4528.19 286.225   5
   1   5  -1 4119.03 277.175   2
   1   5   0 3423.38 208.456   1
   1   5   0 3339.30 216.869   2
   1   5   0 3022.71 209.117   3
   1   5   0 3009.04 210.905   2
   1   5   1 4389.59 248.430   1
   1   5   1 3616.08 250.485   3
   1   5   2 3535.11 214.443   2
   1   5   2 3023.71 183.974   1
   1   5   3 1316.31 149.165   2
   1   5   3 1198.45 120.838   3
   1   5   4 1079.91 115.010   3
   1   5   4 1134.82 148.079   5
   1   5   5 4878.29 316.093   3
   1   5   6 169.136 114.460   3
   1   5   7 569.522 124.659   3
   1   5   8 118.603 127.757   3
   1   5   9 721.489 148.333   3
   1   5  10-177.664 144.909   3
   1   6 -10 868.325 166.083   5
   1   6  -9 562.027 145.870   5
   1   6  -8 341.222 141.558   5
   1   6  -7 1998.94 175.395   3
   1   6  -7 1557.40 169.760   5
   1   6  -6 968.382 136.952   5
   1   6  -6 895.544 126.882   3
   1   6  -5 468.212 92.5589   2
   1   6  -5 509.217 128.053   5
   1   6  -5 556.332 114.267   3
   1   6  -4 1621.16 139.383   2
   1   6  -4 1937.22 171.353   5
   1   6  -3 715.250 107.507   2
   1   6  -3 676.586 131.592   5
   1   6  -3 979.702 120.164   3
   1   6  -3 584.238 109.245   2
   1   6  -2 1248.84 129.828   2
   1   6  -2 1318.18 136.163   1
   1   6  -2 1598.34 141.329   2
   1   6  -2 1226.87 129.341   3
   1   6  -2 1360.11 148.769   5
   1   6  -1 106.534 92.4516   3
   1   6  -1 329.409 100.987   2
   1   6  -1 490.797 108.349   2
   1   6  -1 362.679 103.426   1
   1   6   0 419.675 117.791   2
   1   6   0 288.531 108.573   2
   1   6   0 588.094 100.762   1
   1   6   0 361.079 92.7258   3
   1   6   1 1181.97 110.209   1
   1   6   1 1147.68 139.080   2
   1   6   1 905.449 116.894   3
   1   6   1 952.919 129.502   2
   1   6   2 1585.34 133.639   3
   1   6   3 31.5473 131.605   5
   1   6   3 42.1634 91.3214   3
   1   6   4 2906.62 212.224   3
   1   6   4 3213.19 242.320   5
   1   6   5 782.428 155.207   5
   1   6   5 689.335 118.892   3
   1   6   6 731.917 167.010   5
   1   6   6 510.528 118.337   3
   1   6   7 401.600 171.656   5
   1   6   7 484.978 138.636   3
   1   6   8 41.6124 141.808   3
   1   7  -8 388.907 160.923   5
   1   7  -7 36.1787 146.449   5
   1   7  -7 17.5100 130.465   3
   1   7  -6 227.890 138.837   5
   1   7  -6 170.992 121.942   3
   1   7  -5 946.782 156.643   5
   1   7  -5 1041.75 132.467   3
   1   7  -4 761.879 153.289   5
   1   7  -4 1192.35 145.608   3
   1   7  -3 114.531 141.466   5
   1   7  -3 188.101 101.577   2
   1   7  -3 344.387 124.426   3
   1   7  -2 771.959 125.134   2
   1   7  -2 693.056 115.126   3
   1   7  -1-4.23107 110.295   2
   1   7  -1 22.3310 104.092   3
   1   7   0 1203.39 149.757   2
   1   7   0 1243.59 130.290   3
   1   7   1 732.295 143.418   2
   1   7   1 862.181 117.011   3
   1   7   2 894.457 150.794   5
   1   7   2 801.488 149.547   2
   1   7   2 865.096 122.177   3
   1   7   3 507.360 152.229   5
   1   7   3 523.972 144.843   2
   1   7   3 345.416 109.808   3
   1   7   4-25.4678 158.246   5
   1   7   4 25.8453 108.003   3
   1   7   5 190.142 165.574   5
   1   7   5 103.096 114.148   3
   1   7   6 62.6861 170.221   5
   1   7   6-68.5131 124.620   3
   1   8  -5 279.140 161.277   5
   1   8  -4 212.151 164.039   5
   1   8   0 314.055 137.207   2
   1   8   1-51.2137 161.096   5
   1   8   1 152.915 141.746   2
   1   8   2 580.047 169.025   5
   1   8   2 494.519 155.760   2
   2  -9  -4 143.864 170.510   4
   2  -9  -1 534.114 164.310   4
   2  -9   0 183.516 129.335   1
   2  -9   0 70.4568 155.430   4
   2  -9   1 569.250 158.603   4
   2  -9   1 397.986 135.141   1
   2  -9   2 406.096 152.583   4
   2  -9   2 389.746 138.493   1
   2  -9   3 264.073 151.633   4
   2  -9   3 111.105 144.892   1
   2  -9   4 115.943 152.000   4
   2  -9   4 127.731 147.213   1
   2  -9   5 552.940 163.285   1
   2  -9   5 494.509 155.712   4
   2  -8  -7 578.510 176.558   4
   2  -8  -6-35.5899 159.294   4
   2  -8  -5 251.391 154.792   4
   2  -8  -4 1071.27 164.204   4
   2  -8  -3-128.280 106.325   1
   2  -8  -2 515.801 115.521   1
   2  -8  -1 2174.03 180.634   1
   2  -8  -1 2256.57 200.251   4
   2  -8   0 712.397 127.591   1
   2  -8   0 697.924 146.801   4
   2  -8   1 695.223 142.497   4
   2  -8   1 395.397 119.086   1
   2  -8   2 1382.92 156.323   1
   2  -8   2 1470.05 162.968   4
   2  -8   3 1274.59 154.279   4
   2  -8   3 1099.55 150.928   1
   2  -8   4 674.169 142.749   1
   2  -8   4 784.800 141.482   4
   2  -8   5 265.711 149.259   1
   2  -8   5 681.959 135.389   4
   2  -8   6 672.882 161.539   1
   2  -8   6 913.946 144.967   4
   2  -8   7 1771.91 175.512   4
   2  -8   7 2135.66 205.258   1
   2  -8   8 415.843 167.439   1
   2  -7  -9 905.648 176.422   4
   2  -7  -8 906.572 172.109   4
   2  -7  -7 22.8422 150.198   4
   2  -7  -6 84.2653 141.068   4
   2  -7  -5 603.205 105.053   1
   2  -7  -5 663.118 142.529   4
   2  -7  -4 752.563 135.475   4
   2  -7  -4 722.639 103.063   1
   2  -7  -3 766.549 140.458   4
   2  -7  -3 733.354 109.995   1
   2  -7  -2 2663.12 189.837   1
   2  -7  -1 638.043 111.223   1
   2  -7  -1 814.768 135.918   4
   2  -7   0 776.989 113.342   1
   2  -7   0 846.114 135.591   4
   2  -7   1 4369.18 290.009   1
   2  -7   1 4681.64 298.488   4
   2  -7   2 655.873 124.167   4
   2  -7   2 595.599 116.611   1
   2  -7   3 412.942 117.057   1
   2  -7   3 493.354 122.620   4
   2  -7   4 2892.59 210.824   4
   2  -7   4 2647.82 211.793   1
   2  -7   5 1548.96 153.376   4
   2  -7   5 1438.18 162.741   1
   2  -7   6 1842.64 158.893   4
   2  -7   6 1601.25 172.575   1
   2  -7   7 583.434 143.442   1
   2  -7   7 666.927 123.365   4
   2  -7   8 936.623 134.966   4
   2  -7   8 1145.90 165.465   1
   2  -6 -11 640.502 175.936   4
   2  -6 -11 632.102 178.792   2
   2  -6 -10 1928.03 209.128   4
   2  -6  -9 143.100 145.227   4
   2  -6  -8 351.794 138.679   4
   2  -6  -7 895.230 147.990   4
   2  -6  -6 416.854 129.899   4
   2  -6  -6 280.912 81.1303   1
   2  -6  -5 1770.38 137.839   1
   2  -6  -5 1604.52 160.682   4
   2  -6  -4 1409.73 145.890   4
   2  -6  -4 1350.82 118.619   1
   2  -6  -3 2101.19 167.434   4
   2  -6  -3 1935.73 149.147   1
   2  -6  -2 844.073 99.8816   1
   2  -6  -1 1776.22 141.187   1
   2  -6   0 3262.69 212.982   1
   2  -6   0 3592.91 222.273   4
   2  -6   1 5303.52 316.358   1
   2  -6   1 5747.17 321.324   4
   2  -6   1 4322.21 320.008   5
   2  -6   1 4522.76 318.635   2
   2  -6   2 3337.54 239.280   2
   2  -6   2 4008.16 240.751   4
   2  -6   2 3838.79 236.512   1
   2  -6   3 9528.23 409.712   4
   2  -6   3 8843.54 407.090   1
   2  -6   4 264.509 106.205   1
   2  -6   4 180.081 105.679   4
   2  -6   4 260.566 65.9973   3
   2  -6   4 60.2677 68.9851   3
   2  -6   5 7581.09 460.341   4
   2  -6   5 7562.71 453.474   3
   2  -6   5 7904.59 456.812   3
   2  -6   5 7282.15 464.797   1
   2  -6   6 3526.89 234.271   4
   2  -6   6 3386.43 229.960   3
   2  -6   6 3850.06 240.559   3
   2  -6   6 3294.56 244.145   1
   2  -6   7 1446.04 137.476   4
   2  -6   7 1487.27 140.678   3
   2  -6   7 1343.53 158.639   1
   2  -6   8 1315.75 128.124   4
   2  -6   8 1380.43 145.618   3
   2  -6   9 1955.05 178.470   3
   2  -6  10 871.045 165.029   1
   2  -6  10 990.539 152.650   3
   2  -6  11 1454.74 178.144   3
   2  -6  11 1462.34 190.885   1
   2  -5 -12 393.830 173.795   2
   2  -5 -11 284.629 143.392   4
   2  -5 -11 158.710 156.990   2
   2  -5 -10 87.7319 142.186   4
   2  -5 -10-24.0088 143.724   2
   2  -5  -9 5926.02 332.629   4
   2  -5  -9 3921.87 329.803   2
   2  -5  -8 3154.86 212.926   4
   2  -5  -8 2327.25 211.534   2
   2  -5  -7 369.730 116.007   4
   2  -5  -6 4952.92 319.170   4
   2  -5  -6 4981.54 306.224   1
   2  -5  -5 3120.02 204.401   1
   2  -5  -5 3239.90 221.314   4
   2  -5  -4 1911.27 155.202   4
   2  -5  -4 1875.14 135.933   1
   2  -5  -3 5715.44 349.562   4
   2  -5  -3 5559.23 339.877   1
   2  -5  -2 8290.50 492.858   1
   2  -5  -1 174.379 80.8285   5
   2  -5  -1 292.828 76.4250   1
   2  -5   0 10380.9 598.123   1
   2  -5   0 11230.3 603.724   4
   2  -5   0 9292.18 600.705   5
   2  -5   0 9442.13 602.096   2
   2  -5   1 1225.06 105.909   1
   2  -5   1 1316.30 114.704   4
   2  -5   1 942.188 102.311   5
   2  -5   1 1067.37 107.812   2
   2  -5   2 6502.53 343.615   2
   2  -5   2 6835.02 343.963   5
   2  -5   2 7422.03 340.693   1
   2  -5   3 415.757 95.7683   5
   2  -5   3 362.509 88.6110   2
   2  -5   3 381.063 90.4969   1
   2  -5   3 436.622 89.8909   4
   2  -5   3 475.334 70.9703   3
   2  -5   4 3916.01 275.338   2
   2  -5   4 4436.84 270.008   4
   2  -5   4 4109.63 260.836   3
   2  -5   4 4775.32 266.182   3
   2  -5   4 4059.39 273.712   1
   2  -5   4 4276.34 279.118   5
   2  -5   5 13429.5 888.020   2
   2  -5   5 14325.0 888.069   5
   2  -5   5 16782.0 882.498   4
   2  -5   5 13933.5 877.283   3
   2  -5   5 16725.9 881.847   3
   2  -5   5 14465.4 883.654   1
   2  -5   6 3236.82 207.882   4
   2  -5   6 3206.35 209.613   3
   2  -5   6 3567.66 215.905   3
   2  -5   7 4891.42 297.685   3
   2  -5   7 5536.37 306.300   3
   2  -5   8 4446.63 281.574   3
   2  -5   8 3808.07 284.658   1
   2  -5   8 4645.99 287.212   3
   2  -5   9 3474.73 237.374   3
   2  -5   9 3039.74 240.633   1
   2  -5  10 5269.88 342.552   3
   2  -5  10 5121.60 344.836   1
   2  -5  11 227.943 147.096   1
   2  -5  12 2481.51 225.064   1
   2  -4 -13 381.447 169.374   2
   2  -4 -12 190.289 149.449   2
   2  -4 -11 835.002 143.115   4
   2  -4 -11 616.409 148.576   2
   2  -4 -10 1503.47 150.272   4
   2  -4 -10 1216.64 162.690   2
   2  -4  -9 44.4699 117.248   4
   2  -4  -9 102.614 117.746   2
   2  -4  -8 3596.26 221.919   4
   2  -4  -8 2525.65 221.626   2
   2  -4  -7 6320.28 332.144   4
   2  -4  -7 4155.57 326.461   2
   2  -4  -6 836.247 93.1304   1
   2  -4  -6 807.454 114.404   4
   2  -4  -5 3590.87 229.640   4
   2  -4  -5 3464.99 217.979   1
   2  -4  -4 14075.0 794.652   1
   2  -4  -4 12868.6 797.679   4
   2  -4  -3 2337.03 163.671   4
   2  -4  -3 2328.53 151.782   1
   2  -4  -2 464.831 68.0578   1
   2  -4  -1 28324.3 1624.51   1
   2  -4  -1 27443.0 1625.59   5
   2  -4   0 143.880 53.8388   5
   2  -4   0 134.316 63.6653   1
   2  -4   0 113.605 75.0350   4
   2  -4   1 30014.3 1481.05   2
   2  -4   1 30383.3 1477.28   1
   2  -4   1 31610.4 1479.02   5
   2  -4   1 34051.1 1480.24   4
   2  -4   2 19725.2 1148.83   2
   2  -4   2 20380.1 1145.41   4
   2  -4   2 18614.2 1144.64   1
   2  -4   2 19912.4 1147.16   5
   2  -4   3 1873.79 138.649   2
   2  -4   3 2062.65 138.039   4
   2  -4   3 1696.25 118.363   3
   2  -4   3 1622.74 131.095   1
   2  -4   3 1710.34 134.395   5
   2  -4   4 8807.70 554.599   2
   2  -4   4 10299.9 550.568   4
   2  -4   4 8782.48 546.753   3
   2  -4   4 9343.80 554.054   5
   2  -4   5 5251.12 343.218   2
   2  -4   5 5579.27 334.899   4
   2  -4   5 5620.80 337.174   3
   2  -4   5 5764.24 344.400   5
   2  -4   6 4016.02 279.017   2
   2  -4   6 4662.27 276.549   3
   2  -4   6 4117.53 282.278   1
   2  -4   6 4739.24 283.579   5
   2  -4   7 6192.57 395.136   2
   2  -4   7 6537.56 390.617   3
   2  -4   7 6261.70 393.763   1
   2  -4   8 1424.37 138.224   3
   2  -4   8 1282.72 141.179   1
   2  -4   9 2961.55 211.483   3
   2  -4   9 2691.35 212.084   1
   2  -4  10 302.157 126.489   3
   2  -4  10 185.471 125.226   1
   2  -4  11 2391.75 205.472   3
   2  -4  11 2170.48 198.737   1
   2  -4  12 1332.41 175.100   3
   2  -4  12 1192.96 169.817   1
   2  -4  13 536.538 159.840   1
   2  -4  13 716.352 172.547   3
   2  -3 -13 184.439 153.764   2
   2  -3 -12 969.362 156.319   2
   2  -3 -11-27.8371 124.273   2
   2  -3 -10 2637.13 205.375   2
   2  -3  -9 2546.71 166.823   4
   2  -3  -9 1434.61 158.516   2
   2  -3  -8 8873.54 478.958   4
   2  -3  -8 6897.35 480.918   2
   2  -3  -7 3993.76 232.854   4
   2  -3  -7 3112.68 237.053   2
   2  -3  -6 6802.75 381.224   4
   2  -3  -6 5709.73 382.699   2
   2  -3  -5 8362.31 500.473   4
   2  -3  -5 8434.85 497.141   1
   2  -3  -4 11072.9 651.643   4
   2  -3  -4 11045.5 648.527   1
   2  -3  -3 20079.8 1176.45   1
   2  -3  -3 20372.7 1178.94   4
   2  -3  -2 27194.8 1545.79   4
   2  -3  -2 25959.6 1543.13   1
   2  -3  -2 27030.6 1541.58   3
   2  -3  -2 25722.5 1546.48   2
   2  -3  -1 4523.12 259.661   1
   2  -3  -1 4255.56 262.377   2
   2  -3  -1 4147.60 255.988   5
   2  -3   0 25591.6 1494.34   1
   2  -3   0 25816.6 1495.55   4
   2  -3   1 2413.79 157.382   1
   2  -3   1 2634.28 160.334   4
   2  -3   1 2322.68 156.187   5
   2  -3   2 13300.9 757.691   4
   2  -3   2 12272.5 754.635   3
   2  -3   2 14015.2 759.324   5
   2  -3   3 17897.6 1121.49   2
   2  -3   3 21251.2 1120.07   4
   2  -3   3 18938.1 1118.17   3
   2  -3   3 18465.8 1120.65   5
   2  -3   4 30022.3 1669.45   5
   2  -3   4 28251.2 1669.94   2
   2  -3   4 28007.9 1665.42   3
   2  -3   5 2186.11 167.873   2
   2  -3   5 2418.20 162.618   3
   2  -3   5 2290.47 169.251   1
   2  -3   6 9824.32 545.833   5
   2  -3   6 8770.48 544.060   2
   2  -3   6 9167.84 539.583   3
   2  -3   6 8656.40 541.331   1
   2  -3   7 3126.11 209.097   5
   2  -3   7 2951.09 208.027   2
   2  -3   7 2943.65 202.698   3
   2  -3   7 2869.91 205.056   1
   2  -3   8 10265.8 592.913   3
   2  -3   8 9456.38 591.943   1
   2  -3   9 9414.86 550.764   3
   2  -3   9 8720.80 549.387   1
   2  -3  10 4545.53 294.323   3
   2  -3  10 4133.26 289.653   1
   2  -3  11 2393.77 202.918   3
   2  -3  11 2251.14 193.652   1
   2  -3  12 2627.52 225.243   3
   2  -3  12 2516.24 210.666   1
   2  -3  13 369.883 145.319   1
   2  -3  13 405.407 164.068   3
   2  -2 -14 853.811 174.219   2
   2  -2 -12 208.115 138.390   2
   2  -2 -11 1952.80 178.947   2
   2  -2 -10 191.661 112.512   2
   2  -2  -9 2199.35 171.897   2
   2  -2  -8 938.210 109.546   2
   2  -2  -7 4716.99 293.769   2
   2  -2  -6 4399.54 273.549   2
   2  -2  -4 3560.50 225.095   3
   2  -2  -4 3736.35 224.314   1
   2  -2  -3 5995.20 340.868   1
   2  -2  -3 5485.26 340.378   3
   2  -2  -2 37378.3 2161.42   1
   2  -2  -2 36647.3 2161.02   3
   2  -2  -2 37901.5 2163.22   2
   2  -2  -1 23280.7 1294.91   2
   2  -2  -1 22445.9 1291.73   3
   2  -2  -1 24387.0 1293.81   1
   2  -2  -1 21124.0 1290.07   5
   2  -2   0 11147.6 658.691   3
   2  -2   0 10636.3 658.349   5
   2  -2   1 28210.0 1773.54   5
   2  -2   1 32187.8 1776.41   2
   2  -2   1 31736.9 1773.31   3
   2  -2   2 4563.39 267.845   5
   2  -2   2 4374.73 264.393   3
   2  -2   3 21805.1 1293.91   5
   2  -2   3 21296.7 1292.54   1
   2  -2   3 23499.6 1293.19   3
   2  -2   4 15595.8 866.164   3
   2  -2   4 14874.9 867.632   5
   2  -2   4 13984.6 865.073   1
   2  -2   5 18111.4 1051.29   5
   2  -2   5 17766.8 1052.82   2
   2  -2   5 18306.3 1049.28   3
   2  -2   5 17552.1 1048.16   1
   2  -2   6 190.818 92.0564   5
   2  -2   6 273.797 83.0589   1
   2  -2   6 326.138 87.0147   2
   2  -2   6 327.301 83.9377   3
   2  -2   7 9675.64 545.030   5
   2  -2   7 8945.22 544.528   2
   2  -2   7 9162.73 541.216   3
   2  -2   7 8547.82 539.028   1
   2  -2   8 3498.99 228.926   3
   2  -2   8 3151.34 225.032   1
   2  -2   9 1375.26 142.179   3
   2  -2   9 1063.16 132.279   1
   2  -2  10 2734.73 208.556   3
   2  -2  10 2580.97 200.320   1
   2  -2  11 2284.18 192.707   3
   2  -2  11 1767.49 176.539   1
   2  -2  12 1300.46 171.732   3
   2  -2  12 952.472 148.823   1
   2  -2  13 940.552 156.980   1
   2  -2  13 1546.64 193.305   3
   2  -1 -14 302.200 170.972   6
   2  -1 -14 90.1862 156.713   2
   2  -1 -13 2287.40 214.786   2
   2  -1 -13 2762.18 226.616   6
   2  -1 -12 4716.84 337.479   2
   2  -1 -12 5403.31 340.225   6
   2  -1 -11 331.735 121.899   2
   2  -1 -11 351.725 127.430   6
   2  -1 -10 7321.94 475.821   2
   2  -1 -10 8283.96 479.198   6
   2  -1  -9 10424.4 646.932   2
   2  -1  -9 11290.7 649.096   6
   2  -1  -8 1607.10 134.082   2
   2  -1  -8 1872.34 144.242   6
   2  -1  -7 6575.87 408.989   2
   2  -1  -7 7183.29 413.117   6
   2  -1  -6 13117.1 788.804   2
   2  -1  -6 13842.7 789.816   6
   2  -1  -5 7274.57 457.229   3
   2  -1  -5 8045.52 455.569   6
   2  -1  -4 12671.9 736.024   3
   2  -1  -4 12476.0 733.526   6
   2  -1  -3 7793.27 453.651   1
   2  -1  -3 8352.71 455.537   3
   2  -1  -3 7265.67 450.756   6
   2  -1  -2 19381.8 1096.04   2
   2  -1  -2 18528.2 1095.81   1
   2  -1  -2 18324.4 1096.00   3
   2  -1  -2 18978.8 1093.51   6
   2  -1  -1 20359.1 1130.50   2
   2  -1  -1 18736.2 1128.90   3
   2  -1   0 23321.1 1354.88   2
   2  -1   0 23287.5 1353.64   3
   2  -1   1 4440.97 286.731   5
   2  -1   1 4648.69 289.093   2
   2  -1   1 5440.37 287.900   3
   2  -1   1 4717.54 287.569   1
   2  -1   2 15451.0 961.965   5
   2  -1   2 16748.8 963.947   2
   2  -1   2 16702.3 960.660   1
   2  -1   2 16886.7 960.807   3
   2  -1   3 16829.2 955.745   5
   2  -1   3 16715.8 955.894   2
   2  -1   3 16330.3 952.045   1
   2  -1   3 15776.5 952.359   3
   2  -1   4 31145.7 1764.28   5
   2  -1   4 28484.9 1759.69   1
   2  -1   4 32295.8 1763.07   3
   2  -1   5 17077.1 1055.08   1
   2  -1   5 17793.2 1059.84   5
   2  -1   5 19770.2 1059.53   3
   2  -1   6 20035.1 1230.25   5
   2  -1   6 22310.6 1230.36   3
   2  -1   6 20648.0 1226.12   1
   2  -1   7 3166.89 218.943   5
   2  -1   7 3438.71 223.848   2
   2  -1   7 3293.50 216.672   3
   2  -1   7 2955.68 206.673   1
   2  -1   8 12872.4 708.799   3
   2  -1   8 11121.3 701.626   1
   2  -1   9 14954.8 815.508   3
   2  -1   9 12744.8 806.828   1
   2  -1  10 615.704 115.454   1
   2  -1  10 878.360 138.894   3
   2  -1  11 1772.35 175.000   3
   2  -1  11 1226.89 143.326   1
   2  -1  12 2318.12 199.127   3
   2  -1  12 1400.84 162.176   1
   2  -1  13 1308.76 162.057   1
   2  -1  13 2128.91 210.026   3
   2   0 -14 278.847 168.147   6
   2   0 -13 1543.46 167.021   2
   2   0 -13 1733.84 188.099   6
   2   0 -12 1546.72 158.731   2
   2   0 -12 1726.83 176.743   6
   2   0 -11 5585.44 345.271   2
   2   0 -11 5272.73 350.622   6
   2   0 -10 3956.44 259.507   2
   2   0 -10 4018.88 268.185   6
   2   0  -9 908.064 121.310   5
   2   0  -9 1110.69 107.194   2
   2   0  -9 994.405 123.885   6
   2   0  -9 1094.07 120.253   1
   2   0  -8 1887.56 142.206   5
   2   0  -8 1630.20 128.138   2
   2   0  -8 1598.05 139.912   6
   2   0  -8 1556.58 140.093   1
   2   0  -7 5432.09 333.542   5
   2   0  -7 5729.37 337.678   6
   2   0  -7 5512.11 330.538   2
   2   0  -7 5256.39 339.373   3
   2   0  -7 5582.37 337.362   1
   2   0  -6 7912.19 471.278   5
   2   0  -6 8024.44 468.977   2
   2   0  -6 7900.05 475.812   3
   2   0  -5 19196.6 1160.17   5
   2   0  -5 21291.4 1165.27   3
   2   0  -4 704.291 79.1569   3
   2   0  -4 585.429 57.7759   5
   2   0  -3 26989.4 1588.32   5
   2   0  -3 28210.6 1592.38   3
   2   0  -2 8403.73 484.069   2
   2   0  -2 7882.02 486.957   3
   2   0  -2 8403.88 483.893   5
   2   0  -1 19619.5 1175.68   2
   2   0  -1 20551.6 1177.67   3
   2   0  -1 19685.7 1177.76   1
   2   0  -1 21019.1 1175.90   5
   2   0   0 12613.8 748.411   2
   2   0   0 12733.2 748.454   1
   2   0   0 13084.2 748.233   3
   2   0   1 24933.5 1435.04   1
   2   0   1 24311.1 1436.91   2
   2   0   1 24722.5 1435.53   3
   2   0   2 7091.06 390.645   2
   2   0   2 6667.90 386.428   3
   2   0   2 6301.88 384.144   1
   2   0   2 6321.71 383.172   6
   2   0   3 2300.47 157.345   2
   2   0   3 2338.52 149.675   3
   2   0   3 2281.10 145.819   1
   2   0   3 2144.61 145.508   6
   2   0   4 9619.52 568.679   6
   2   0   4 9819.67 575.131   2
   2   0   4 9472.93 566.547   1
   2   0   4 9873.18 570.962   3
   2   0   5 9063.68 563.397   1
   2   0   5 9698.06 573.397   2
   2   0   5 11127.5 573.549   3
   2   0   5 9114.37 566.445   6
   2   0   6 6379.14 391.426   5
   2   0   6 5992.01 380.676   1
   2   0   6 6343.43 386.679   6
   2   0   6 7121.16 393.202   3
   2   0   7 8779.44 501.545   5
   2   0   7 9625.32 500.860   3
   2   0   8 383.452 79.4579   1
   2   0   8 139.200 117.138   3
   2   0   9 3578.31 254.533   1
   2   0   9 4752.21 279.826   3
   2   0  10 3554.85 243.956   3
   2   0  10 2886.33 210.954   1
   2   0  11 4182.17 269.876   3
   2   0  11 3156.03 236.541   1
   2   1 -14 983.573 178.473   6
   2   1 -13 946.762 164.784   6
   2   1 -12 153.867 143.357   5
   2   1 -12 259.134 136.177   6
   2   1 -12 182.357 110.557   2
   2   1 -11 3091.77 224.799   5
   2   1 -11 2687.26 200.255   2
   2   1 -11 2866.87 219.970   6
   2   1 -10 3095.02 222.504   5
   2   1 -10 3018.91 204.942   2
   2   1 -10 2935.29 220.532   6
   2   1  -9 4731.43 296.812   5
   2   1  -9 4582.73 288.045   2
   2   1  -8 3323.73 222.561   1
   2   1  -8 3258.43 216.354   5
   2   1  -8 3282.53 206.134   2
   2   1  -7 1600.73 134.303   1
   2   1  -7 1625.38 128.322   5
   2   1  -6 8500.73 517.992   1
   2   1  -6 8786.86 514.527   5
   2   1  -5 23911.3 1392.04   5
   2   1  -4 18575.2 1082.51   5
   2   1  -3 11121.5 651.154   5
   2   1  -2 5261.34 319.284   2
   2   1  -2 6047.47 324.788   5
   2   1  -1 25912.8 1492.45   2
   2   1  -1 25385.0 1494.34   5
   2   1   1 15232.8 923.875   4
   2   1   1 16622.9 924.243   2
   2   1   1 15617.9 920.526   1
   2   1   2 2960.54 181.778   4
   2   1   2 2892.12 180.688   2
   2   1   2 2631.15 170.535   1
   2   1   3 18803.5 1091.22   4
   2   1   3 18743.7 1086.60   1
   2   1   3 18357.8 1092.88   2
   2   1   4 6979.57 405.545   4
   2   1   4 6654.34 408.806   2
   2   1   4 6616.34 398.098   1
   2   1   4 6900.52 404.683   6
   2   1   5 11398.1 628.745   4
   2   1   5 11065.3 634.696   2
   2   1   5 9863.05 621.963   1
   2   1   5 11458.9 630.793   6
   2   1   6 2669.61 168.505   4
   2   1   6 2531.32 180.117   2
   2   1   6 2228.23 155.230   1
   2   1   6 2436.09 172.991   6
   2   1   7 962.734 91.9387   1
   2   1   7 1068.02 118.909   6
   2   1   8 11901.9 698.594   1
   2   1   9 4208.63 262.004   1
   2   1  10 61.1080 83.8648   1
   2   2 -14 519.021 174.627   5
   2   2 -14 620.423 171.049   6
   2   2 -13 349.520 164.301   5
   2   2 -13 283.676 154.706   6
   2   2 -12 1576.81 178.943   5
   2   2 -12 1181.49 168.014   6
   2   2 -11 234.351 128.506   5
   2   2 -10 4714.99 303.031   5
   2   2 -10 4526.93 283.690   2
   2   2  -9 1784.24 155.992   5
   2   2  -8 1236.04 122.063   5
   2   2  -8 1154.64 136.857   3
   2   2  -7 7905.00 271.293   5
   2   2  -7 7007.07 276.699   3
   2   2  -6 343.480 79.7334   5
   2   2  -6 439.555 98.7353   3
   2   2  -5 2227.54 163.899   1
   2   2  -5 2433.00 166.474   3
   2   2  -5 2194.17 155.481   5
   2   2  -4 6098.59 367.174   1
   2   2  -4 6019.63 366.832   3
   2   2  -4 6043.59 364.200   5
   2   2  -3 12632.3 753.809   1
   2   2  -3 12813.6 755.056   4
   2   2  -3 13022.2 754.877   3
   2   2  -3 12820.4 752.916   5
   2   2  -2 16227.2 877.949   4
   2   2  -2 13916.0 869.872   2
   2   2  -2 16181.3 875.888   3
   2   2  -2 15257.5 874.668   5
   2   2  -1 3858.19 238.588   4
   2   2  -1 3812.74 229.377   2
   2   2  -1 3723.54 233.080   3
   2   2  -1 3673.22 233.592   5
   2   2   0 31823.7 1861.49   2
   2   2   0 31391.4 1861.86   3
   2   2   0 33008.4 1863.58   5
   2   2   1 7394.27 461.080   4
   2   2   1 7880.36 458.861   2
   2   2   1 7728.40 457.852   3
   2   2   2 4440.41 265.242   4
   2   2   2 4314.32 263.421   2
   2   2   2 4010.10 258.004   3
   2   2   3 1312.54 117.929   4
   2   2   3 1207.72 116.125   2
   2   2   3 1312.39 113.946   3
   2   2   4 4850.73 301.135   4
   2   2   4 4889.64 304.019   2
   2   2   4 4717.04 300.059   3
   2   2   5 4016.43 276.104   6
   2   2   5 4413.11 276.407   4
   2   2   5 4309.46 282.454   2
   2   2   5 4517.96 276.857   3
   2   2   6 235.090 98.1405   4
   2   2   6 276.173 39.1895   1
   2   2   6 431.736 101.035   3
   2   2   6 386.028 99.7094   6
   2   2   7 7997.76 315.570   4
   2   2   7 7851.05 323.399   3
   2   2   8 2864.09 155.042   4
   2   2   8 2673.88 168.633   3
   2   2   9 1237.74 133.884   4
   2   2   9 1169.50 157.208   3
   2   2  10 2568.32 228.051   3
   2   2  11 1936.34 212.720   3
   2   2  12 1431.16 209.681   3
   2   3 -13 417.818 168.937   5
   2   3 -12 350.304 155.883   5
   2   3 -11 1375.37 161.413   5
   2   3 -10 114.073 124.231   5
   2   3  -9 1652.00 157.516   5
   2   3  -9 1659.42 162.565   3
   2   3  -8 2534.47 189.887   5
   2   3  -8 2527.20 195.135   3
   2   3  -7 4144.29 255.174   5
   2   3  -7 3534.96 257.004   3
   2   3  -6 7397.11 418.608   3
   2   3  -6 6228.14 402.711   5
   2   3  -5 3384.68 222.009   1
   2   3  -5 3390.58 222.036   4
   2   3  -5 3387.81 225.730   3
   2   3  -5 3056.01 215.961   5
   2   3  -4 445.170 91.9754   5
   2   3  -4 365.828 98.0369   4
   2   3  -4 502.571 96.4511   1
   2   3  -4 332.512 86.1790   3
   2   3  -3 7109.24 345.219   1
   2   3  -3 7086.00 348.440   4
   2   3  -3 6718.54 345.201   3
   2   3  -3 6364.34 343.809   5
   2   3  -2 3790.34 235.894   1
   2   3  -2 3833.77 242.732   4
   2   3  -2 3905.61 229.896   2
   2   3  -2 3503.36 236.098   3
   2   3  -2 3589.84 236.516   5
   2   3  -1 10799.5 618.604   4
   2   3  -1 11095.8 613.084   2
   2   3  -1 10231.0 614.275   3
   2   3  -1 9592.47 614.079   5
   2   3   0 3246.30 219.245   3
   2   3   0 3243.13 225.953   5
   2   3   1 8590.15 452.869   2
   2   3   1 7724.27 453.133   5
   2   3   2 5274.33 308.544   4
   2   3   2 5290.75 306.398   2
   2   3   2 4352.55 297.961   3
   2   3   3 7986.42 439.209   4
   2   3   3 7791.04 440.086   2
   2   3   4 1480.55 139.569   4
   2   3   4 1227.01 135.866   2
   2   3   4 1314.37 131.582   3
   2   3   5 1352.34 144.471   4
   2   3   5 1366.46 135.166   3
   2   3   6 1324.10 143.366   4
   2   3   6 1340.27 141.180   3
   2   3   7 2081.55 178.086   3
   2   3   8 250.657 118.724   3
   2   3   9 671.752 138.213   3
   2   3  10 79.4336 143.489   3
   2   3  11 264.161 156.907   3
   2   4 -12 587.180 158.325   5
   2   4 -11 700.682 155.180   5
   2   4 -10 3127.39 239.285   5
   2   4  -9 72.3521 124.525   5
   2   4  -9 326.901 130.516   3
   2   4  -8 1812.12 167.903   5
   2   4  -8 1432.76 157.478   3
   2   4  -7 875.642 127.779   3
   2   4  -7 865.797 124.725   5
   2   4  -6 6296.28 375.496   4
   2   4  -6 6701.21 386.154   3
   2   4  -5 254.953 105.131   5
   2   4  -5 143.373 114.048   4
   2   4  -5 368.288 113.514   3
   2   4  -4 2887.36 171.598   1
   2   4  -4 2800.07 176.836   4
   2   4  -4 2424.48 167.887   3
   2   4  -4 2465.71 170.635   5
   2   4  -3 1672.46 136.933   1
   2   4  -3 1499.89 107.799   2
   2   4  -3 1666.12 150.028   4
   2   4  -3 1569.88 115.944   2
   2   4  -3 1480.32 138.016   3
   2   4  -3 1364.02 135.635   5
   2   4  -2 1154.79 108.317   1
   2   4  -2 1027.09 130.758   4
   2   4  -2 994.719 101.401   2
   2   4  -2 918.136 105.764   3
   2   4  -2 874.684 114.242   5
   2   4  -2 935.865 89.2761   2
   2   4  -1 2625.71 166.176   2
   2   4  -1 2083.38 165.053   3
   2   4  -1 2026.50 165.957   5
   2   4  -1 2407.83 160.135   1
   2   4   0 1853.43 141.562   2
   2   4   0 1639.33 135.403   3
   2   4   0 1488.28 142.100   5
   2   4   1 1253.62 123.830   2
   2   4   1 900.457 106.582   3
   2   4   1 1042.57 125.215   5
   2   4   2 8512.41 545.290   3
   2   4   2 10008.0 554.464   5
   2   4   3 5365.62 309.971   2
   2   4   3 4345.35 297.101   3
   2   4   4 3509.67 234.352   3
   2   4   5 1821.21 169.550   3
   2   4   6 1801.67 167.397   3
   2   4   7 988.369 143.377   3
   2   4   8 108.657 138.002   3
   2   4   9 224.418 148.819   3
   2   4  10 194.981 159.061   3
   2   5 -11 62.5176 154.332   5
   2   5 -10 178.390 148.378   5
   2   5  -9 1374.22 178.802   5
   2   5  -9 1700.85 182.004   3
   2   5  -8 117.512 130.934   5
   2   5  -8 339.013 125.879   3
   2   5  -7 2650.13 199.313   3
   2   5  -7 2326.11 199.533   5
   2   5  -6 737.027 131.938   5
   2   5  -6 1023.09 158.630   3
   2   5  -5 1738.51 167.993   3
   2   5  -5 1752.25 164.912   5
   2   5  -4 401.158 122.310   5
   2   5  -4 384.658 109.412   3
   2   5  -3 270.284 115.284   5
   2   5  -3 316.071 76.8555   2
   2   5  -3 290.892 110.169   1
   2   5  -3 299.078 106.829   3
   2   5  -2 384.552 115.665   5
   2   5  -2 433.154 88.1266   2
   2   5  -2 636.371 105.617   1
   2   5  -2 500.487 103.954   2
   2   5  -2 463.848 106.482   3
   2   5  -1 1120.10 123.646   2
   2   5  -1 790.699 111.470   3
   2   5  -1 826.333 125.152   5
   2   5  -1 1015.52 110.093   2
   2   5  -1 1036.14 110.077   1
   2   5   0 596.752 114.124   5
   2   5   0 726.014 119.522   2
   2   5   0 573.289 110.188   3
   2   5   1 350.610 122.343   5
   2   5   1 386.050 119.549   2
   2   5   1 277.086 103.150   3
   2   5   2 381.619 133.253   5
   2   5   2 574.796 129.823   2
   2   5   2 452.289 104.688   3
   2   5   3 3438.19 237.012   3
   2   5   3 3528.43 255.985   5
   2   5   4 1382.11 146.351   3
   2   5   5 181.149 113.732   3
   2   5   6 319.414 124.470   3
   2   5   7-162.393 148.716   3
   2   5   8 97.8268 151.540   3
   2   6  -9 221.569 172.182   5
   2   6  -9 317.184 151.592   3
   2   6  -8-62.5865 145.024   5
   2   6  -8 13.0026 134.419   3
   2   6  -7 1251.00 153.363   3
   2   6  -7 1223.76 162.386   5
   2   6  -6 497.878 140.952   5
   2   6  -6 590.965 147.178   3
   2   6  -5 465.476 141.355   5
   2   6  -5 651.812 142.552   3
   2   6  -4 1598.48 166.298   3
   2   6  -4 1549.00 176.704   5
   2   6  -3 140.445 130.776   5
   2   6  -3 107.232 118.921   3
   2   6  -2 1398.75 139.224   2
   2   6  -2 1937.59 160.769   3
   2   6  -2 1812.73 170.057   5
   2   6  -1 242.467 135.177   5
   2   6  -1 235.857 102.191   2
   2   6  -1 149.656 110.919   3
   2   6   0 651.102 138.096   5
   2   6   0 849.998 125.436   2
   2   6   0 733.612 119.905   3
   2   6   1 1211.94 141.914   3
   2   6   1 1144.05 154.509   5
   2   6   2 264.410 141.386   5
   2   6   2 264.507 112.323   3
   2   6   3 63.8656 113.773   3
   2   6   4 1059.03 134.949   3
   2   6   5 868.894 143.357   3
   2   6   6 548.288 145.385   3
   2   7  -6 278.548 160.620   5
   2   7  -6 245.444 142.218   3
   2   7  -5 1373.26 203.184   3
   2   7  -5 1120.24 178.288   5
   2   7  -4 316.396 170.586   5
   2   7  -4 307.856 149.450   3
   2   7  -3 504.171 161.589   5
   2   7  -3 792.514 132.489   3
   2   7  -2 189.062 155.433   5
   2   7  -2-155.763 125.345   3
   2   7  -1 156.063 146.930   5
   2   7  -1 109.041 122.204   3
   2   7   0 50.0181 153.641   5
   2   7   0-83.1880 116.931   3
   2   7   1 281.903 154.595   5
   2   7   1 25.4095 137.452   2
   2   7   1 16.1219 121.833   3
   2   7   2 423.944 147.150   2
   2   7   2 365.009 132.141   3
   2   7   3 88.9641 127.983   3
   3  -9  -4 93.4857 165.019   4
   3  -9  -2 239.279 163.507   4
   3  -9  -2 345.136 132.592   1
   3  -9  -1 179.007 134.099   1
   3  -9  -1 320.037 157.964   4
   3  -9   0 299.702 138.766   1
   3  -9   0 356.628 157.318   4
   3  -9   1 1433.99 166.546   1
   3  -9   1 1223.02 175.643   4
   3  -9   2-87.7865 143.131   1
   3  -9   2 78.4599 144.885   4
   3  -9   3 768.326 162.884   4
   3  -9   3 731.640 155.070   1
   3  -9   4 1062.75 171.662   4
   3  -9   4 850.362 159.456   1
   3  -9   5 720.703 174.565   4
   3  -9   5 663.240 162.704   1
   3  -8  -7 534.884 178.794   4
   3  -8  -6-85.3235 163.148   4
   3  -8  -5 449.026 157.007   4
   3  -8  -4 180.784 148.724   4
   3  -8  -4 140.829 114.262   1
   3  -8  -3 1031.62 138.459   1
   3  -8  -2 1189.14 144.162   1
   3  -8  -1 783.631 130.705   1
   3  -8  -1 667.922 149.159   4
   3  -8   0 0.80927 121.893   1
   3  -8   0 276.151 135.819   4
   3  -8   1 539.587 128.986   1
   3  -8   1 549.867 136.057   4
   3  -8   2 425.260 128.701   1
   3  -8   2 443.889 137.543   4
   3  -8   3 1365.66 156.721   1
   3  -8   3 1461.12 168.167   4
   3  -8   4 188.718 147.127   4
   3  -8   4 382.066 135.403   1
   3  -8   5 1655.69 182.709   1
   3  -8   5 1791.72 177.728   4
   3  -8   6 909.133 143.273   4
   3  -8   6 899.596 165.608   1
   3  -8   7 950.133 141.231   4
   3  -8   7 1175.52 170.182   1
   3  -7  -9 50.6140 166.865   4
   3  -7  -8 210.071 162.531   4
   3  -7  -7 348.331 169.035   4
   3  -7  -6 397.635 158.972   4
   3  -7  -6 282.933 108.561   1
   3  -7  -5 913.391 126.289   1
   3  -7  -5 880.319 155.430   4
   3  -7  -4 1237.72 160.486   4
   3  -7  -4 1168.85 128.126   1
   3  -7  -3 1402.39 138.552   1
   3  -7  -2 523.337 113.649   1
   3  -7  -1 5150.81 321.197   4
   3  -7  -1 4614.92 311.194   1
   3  -7   0 7117.03 406.680   4
   3  -7   0 6685.21 398.710   1
   3  -7   1 1467.99 148.107   1
   3  -7   1 1528.76 156.382   4
   3  -7   2 2013.68 169.097   1
   3  -7   2 2016.74 182.723   4
   3  -7   3 2498.97 199.221   1
   3  -7   3 3013.88 216.921   4
   3  -7   4 1232.46 152.751   1
   3  -7   4 1801.03 158.361   4
   3  -7   5 2477.73 204.776   1
   3  -7   5 2583.24 198.020   4
   3  -7   6 130.555 111.804   4
   3  -7   6 103.677 133.729   1
   3  -7   7 4293.02 284.692   4
   3  -7   7 4224.74 297.494   1
   3  -6 -11 1263.02 187.940   4
   3  -6 -10 299.200 144.636   4
   3  -6  -9 152.277 145.416   4
   3  -6  -8 62.6316 141.514   4
   3  -6  -7 597.244 147.685   4
   3  -6  -7 605.906 114.708   1
   3  -6  -6 295.365 139.522   4
   3  -6  -6 477.437 102.181   1
   3  -6  -5 665.210 110.278   1
   3  -6  -5 598.281 143.691   4
   3  -6  -4 685.274 141.235   4
   3  -6  -4 697.261 104.944   1
   3  -6  -3 617.940 132.146   4
   3  -6  -3 364.682 98.0028   1
   3  -6  -2 3154.35 213.861   1
   3  -6  -1 3733.89 236.814   4
   3  -6  -1 3351.77 221.978   1
   3  -6   0 1422.23 146.198   4
   3  -6   0 1200.71 124.187   1
   3  -6   1 9413.69 550.268   1
   3  -6   1 10931.3 556.639   4
   3  -6   2 3411.13 238.731   1
   3  -6   2 4081.22 247.328   4
   3  -6   2 3275.65 240.431   5
   3  -6   3 816.576 112.949   1
   3  -6   3 1070.62 125.256   4
   3  -6   3 846.701 76.5082   3
   3  -6   3 856.307 119.888   5
   3  -6   4 5435.59 355.129   1
   3  -6   4 6316.89 354.746   4
   3  -6   4 5149.47 337.833   3
   3  -6   4 6140.86 343.078   3
   3  -6   5 1880.49 177.238   1
   3  -6   5 2243.42 170.014   4
   3  -6   5 2207.89 156.689   3
   3  -6   6 2536.36 195.418   4
   3  -6   6 2615.98 190.240   3
   3  -6   7 3284.38 231.863   3
   3  -6   8 2973.11 216.402   3
   3  -6   8 2709.84 225.159   1
   3  -6   9 588.776 149.356   1
   3  -6   9 729.949 146.306   3
   3  -6  10 1879.89 191.738   3
   3  -6  10 2002.02 198.626   1
   3  -5 -10 6060.39 396.564   4
   3  -5  -9 1060.92 161.146   4
   3  -5  -8 692.198 127.797   4
   3  -5  -7 246.609 123.669   4
   3  -5  -7 385.257 108.796   1
   3  -5  -6 5612.76 330.175   4
   3  -5  -6 4796.21 315.721   1
   3  -5  -5 512.879 114.353   4
   3  -5  -5 437.062 96.1648   1
   3  -5  -4 2537.39 183.018   1
   3  -5  -4 2781.96 194.775   4
   3  -5  -3 2444.49 177.046   4
   3  -5  -3 2206.06 163.090   1
   3  -5  -2 2242.90 157.149   1
   3  -5  -2 2053.67 162.910   2
   3  -5  -1 6083.00 349.577   1
   3  -5  -1 5266.24 345.389   5
   3  -5   0 7163.13 427.476   1
   3  -5   0 6056.08 423.303   5
   3  -5   1 5357.58 335.205   1
   3  -5   1 5911.99 339.022   4
   3  -5   1 5039.01 333.808   5
   3  -5   2 7445.42 511.449   2
   3  -5   2 8241.64 507.513   1
   3  -5   2 9363.02 508.396   4
   3  -5   2 8452.52 508.251   5
   3  -5   3 5749.63 360.241   2
   3  -5   3 5377.82 345.083   1
   3  -5   3 6416.66 347.598   4
   3  -5   3 5138.70 333.690   3
   3  -5   3 6204.58 352.212   5
   3  -5   4 4752.81 314.905   3
   3  -5   4 5230.89 330.247   5
   3  -5   5 1735.83 145.338   3
   3  -5   6 5796.57 331.469   3
   3  -5   6 4637.83 333.351   1
   3  -5   7 2895.44 196.874   3
   3  -5   7 2162.65 194.275   1
   3  -5   8 1383.50 150.387   3
   3  -5   8 1250.25 153.162   1
   3  -5   9 3395.11 236.344   3
   3  -5   9 2770.70 234.085   1
   3  -5  10 904.045 160.273   1
   3  -5  10 1509.40 170.988   3
   3  -5  11 3860.43 279.222   3
   3  -5  11 3441.44 271.784   1
   3  -4  -8 9011.39 549.313   4
   3  -4  -7 4317.17 288.070   4
   3  -4  -6 2504.00 180.163   4
   3  -4  -6 2156.01 168.934   1
   3  -4  -5 4147.94 254.315   4
   3  -4  -5 3671.12 245.227   1
   3  -4  -4 1699.57 133.683   1
   3  -4  -4 1802.92 143.055   4
   3  -4  -3 3166.46 213.728   1
   3  -4  -3 3347.24 222.628   4
   3  -4  -3 3494.00 209.410   3
   3  -4  -2 15565.8 872.160   3
   3  -4  -2 14916.5 876.234   1
   3  -4  -2 13550.0 879.394   2
   3  -4  -1 1814.25 141.994   2
   3  -4  -1 1944.40 138.348   1
   3  -4  -1 2077.71 123.828   3
   3  -4  -1 1684.06 127.406   5
   3  -4   0 6756.17 445.633   2
   3  -4   0 7705.84 443.954   1
   3  -4   0 7134.91 434.953   3
   3  -4   0 7259.87 439.702   5
   3  -4   1 8749.06 496.495   1
   3  -4   1 10539.7 501.087   4
   3  -4   1 9687.94 497.003   5
   3  -4   2 3274.93 206.933   3
   3  -4   2 3507.35 215.429   5
   3  -4   3 4946.20 301.718   3
   3  -4   3 5113.79 310.071   5
   3  -4   4 6509.41 408.922   2
   3  -4   4 6543.03 398.408   3
   3  -4   4 7014.16 406.406   5
   3  -4   5 3089.50 232.384   1
   3  -4   5 3929.97 230.858   3
   3  -4   5 3423.61 234.496   5
   3  -4   6 6097.75 411.026   1
   3  -4   6 7254.81 411.908   3
   3  -4   7 4278.27 264.191   3
   3  -4   7 3514.55 259.828   1
   3  -4   8 1515.58 155.018   3
   3  -4   8 1261.84 143.779   1
   3  -4   9 1385.86 155.735   3
   3  -4   9 1010.65 143.689   1
   3  -4  10 3754.56 256.876   3
   3  -4  10 2966.31 241.810   1
   3  -4  11 493.064 142.680   1
   3  -4  11 507.525 164.653   3
   3  -4  12 1994.67 210.080   3
   3  -4  12 1436.55 182.650   1
   3  -3 -13 72.5111 150.669   2
   3  -3 -12 479.363 147.915   2
   3  -3  -6 1173.65 115.920   1
   3  -3  -5 1917.54 142.638   3
   3  -3  -5 1859.68 142.925   1
   3  -3  -4 12242.3 706.684   1
   3  -3  -4 11794.3 705.654   3
   3  -3  -3 5076.28 311.093   1
   3  -3  -3 5576.13 311.367   3
   3  -3  -3 4558.20 311.909   2
   3  -3  -2 1353.94 111.216   2
   3  -3  -2 1355.27 101.641   3
   3  -3  -2 1439.34 110.747   1
   3  -3  -1 2627.11 173.988   2
   3  -3  -1 2685.97 165.095   3
   3  -3  -1 2811.37 174.225   1
   3  -3  -1 2565.75 160.945   5
   3  -3   0 13847.0 816.908   1
   3  -3   0 13023.9 812.669   3
   3  -3   0 14010.6 812.847   5
   3  -3   1 3732.63 244.780   2
   3  -3   1 3828.38 236.706   3
   3  -3   1 4141.89 238.993   5
   3  -3   2 11721.2 655.218   5
   3  -3   2 10131.8 657.455   2
   3  -3   2 11237.6 652.284   3
   3  -3   3 13517.2 762.013   5
   3  -3   3 12048.7 760.693   1
   3  -3   3 13241.5 758.328   3
   3  -3   4 5113.15 309.221   5
   3  -3   4 4860.99 308.297   1
   3  -3   4 4943.51 303.058   3
   3  -3   5 4565.83 294.276   5
   3  -3   5 4328.73 290.884   1
   3  -3   5 4990.17 291.746   3
   3  -3   6 4637.86 297.291   5
   3  -3   6 5228.13 296.615   3
   3  -3   7 5310.43 366.842   1
   3  -3   7 6608.05 373.387   3
   3  -3   8 5762.71 403.638   1
   3  -3   8 7366.94 411.326   3
   3  -3   9 501.889 122.439   1
   3  -3   9 562.448 143.011   3
   3  -3  10 1248.36 152.209   1
   3  -3  10 1368.26 173.452   3
   3  -3  11 1902.73 194.023   3
   3  -3  11 1248.77 166.845   1
   3  -3  12 800.448 155.912   1
   3  -3  12 1341.83 189.354   3
   3  -2 -13 734.211 151.792   2
   3  -2 -12 737.199 158.924   6
   3  -2 -12 656.841 145.410   2
   3  -2 -11 1204.74 153.061   2
   3  -2 -11 1689.90 172.192   6
   3  -2 -10 257.825 127.423   6
   3  -2  -9 3895.43 265.326   6
   3  -2  -8 6756.23 415.998   6
   3  -2  -7 11690.5 693.065   6
   3  -2  -6 5824.07 387.056   3
   3  -2  -6 6906.79 386.879   6
   3  -2  -5 5696.45 340.029   1
   3  -2  -5 5455.11 338.947   3
   3  -2  -4 6665.10 388.063   3
   3  -2  -4 6227.33 386.448   1
   3  -2  -3 35675.4 2103.79   1
   3  -2  -3 35517.9 2104.06   3
   3  -2  -3 37641.0 2105.45   2
   3  -2  -2 6781.73 415.051   2
   3  -2  -2 7297.56 416.132   1
   3  -2  -2 6846.50 412.693   3
   3  -2  -1 3243.93 206.514   5
   3  -2  -1 3762.94 215.279   3
   3  -2   0 5541.00 316.819   5
   3  -2   0 5559.74 324.179   2
   3  -2   0 5023.72 317.737   3
   3  -2   1 7915.49 459.062   5
   3  -2   1 7423.89 462.365   2
   3  -2   1 7875.86 459.401   3
   3  -2   1 7757.88 462.228   1
   3  -2   2 3400.62 216.502   5
   3  -2   2 3203.40 219.615   2
   3  -2   2 3565.66 220.581   1
   3  -2   2 3577.62 216.496   3
   3  -2   3 12681.1 739.630   5
   3  -2   3 11968.9 741.893   2
   3  -2   3 12199.2 738.737   1
   3  -2   3 13161.1 738.125   3
   3  -2   4 6562.62 398.028   5
   3  -2   4 6549.45 400.330   2
   3  -2   4 6362.48 395.855   1
   3  -2   4 6690.43 394.164   3
   3  -2   5 1420.29 127.430   5
   3  -2   5 1433.99 125.153   1
   3  -2   5 1351.04 121.740   3
   3  -2   6 8330.80 512.637   5
   3  -2   6 8017.12 506.985   1
   3  -2   6 9133.89 513.072   3
   3  -2   7 3056.95 227.987   1
   3  -2   7 3894.55 241.458   3
   3  -2   8 1870.02 163.125   1
   3  -2   8 2353.93 183.166   3
   3  -2   9 4472.76 324.371   1
   3  -2   9 6230.56 347.604   3
   3  -2  10 1890.87 178.965   1
   3  -2  10 2793.66 212.974   3
   3  -2  11 1994.90 188.224   1
   3  -2  11 3122.14 233.550   3
   3  -2  12 1296.11 198.193   3
   3  -2  12 828.420 140.432   1
   3  -1 -14 962.254 187.969   6
   3  -1 -13 647.609 165.373   6
   3  -1 -12 483.472 151.503   6
   3  -1 -12 440.785 125.983   2
   3  -1 -11 4079.78 295.229   2
   3  -1 -11 5017.27 307.818   6
   3  -1 -10 570.103 133.844   6
   3  -1  -9 2040.65 171.073   6
   3  -1  -8 932.923 123.354   3
   3  -1  -8 934.605 117.016   6
   3  -1  -7 740.223 104.748   3
   3  -1  -7 711.111 101.327   6
   3  -1  -6 5286.58 346.789   5
   3  -1  -6 5925.12 358.662   3
   3  -1  -5 2115.64 157.300   3
   3  -1  -5 2099.10 143.818   6
   3  -1  -4 8605.34 529.744   3
   3  -1  -4 9207.10 526.577   6
   3  -1  -3 5250.50 320.922   2
   3  -1  -3 5524.11 324.840   3
   3  -1  -3 5339.76 317.490   6
   3  -1  -2 4566.55 257.985   2
   3  -1  -2 3951.31 256.639   3
   3  -1  -1 21141.2 1178.65   2
   3  -1  -1 19821.3 1178.65   1
   3  -1  -1 19746.7 1177.39   3
   3  -1   0 4340.22 261.581   2
   3  -1   0 4490.81 263.296   1
   3  -1   0 4062.53 257.764   3
   3  -1   1 5363.59 321.863   2
   3  -1   1 5409.98 319.243   3
   3  -1   1 5131.83 320.754   1
   3  -1   2 17643.6 985.455   2
   3  -1   2 17151.1 982.324   3
   3  -1   2 15916.2 981.008   1
   3  -1   3 20635.0 1221.68   5
   3  -1   3 21177.5 1223.84   2
   3  -1   3 21130.3 1220.21   3
   3  -1   3 20669.9 1219.61   1
   3  -1   4 4267.24 260.164   5
   3  -1   4 3835.21 257.533   2
   3  -1   4 3991.14 251.851   1
   3  -1   4 3990.72 253.493   3
   3  -1   5 12081.0 660.352   5
   3  -1   5 11691.1 658.761   2
   3  -1   5 10516.9 649.943   1
   3  -1   5 10650.5 651.934   3
   3  -1   6 202.622 113.003   5
   3  -1   6 310.313 89.3958   1
   3  -1   6 347.502 97.1358   3
   3  -1   7 4419.35 294.292   1
   3  -1   7 4961.75 302.553   3
   3  -1   8 4878.77 329.312   1
   3  -1   8 5813.77 346.013   3
   3  -1   9 562.427 110.575   1
   3  -1   9 699.261 150.863   3
   3  -1  10 2025.94 178.475   1
   3  -1  10 2607.48 214.245   3
   3  -1  11 1273.78 153.098   1
   3  -1  11 2096.07 202.149   3
   3  -1  12 140.760 184.164   3
   3   0 -14 220.850 179.882   6
   3   0 -13 961.738 171.581   6
   3   0 -12 2360.54 208.304   6
   3   0 -11 1327.58 160.975   6
   3   0 -10 766.273 127.200   5
   3   0 -10 802.577 132.766   6
   3   0  -9 5713.33 346.843   5
   3   0  -9 4823.55 350.784   3
   3   0  -9 5859.78 348.198   6
   3   0  -8 7276.64 454.160   5
   3   0  -8 7168.50 462.092   3
   3   0  -8 8257.13 459.300   6
   3   0  -7 5801.69 364.943   5
   3   0  -7 5879.75 374.453   3
   3   0  -7 6594.74 371.965   6
   3   0  -6 1372.82 110.083   5
   3   0  -6 1739.98 146.421   3
   3   0  -5 5532.00 340.290   5
   3   0  -5 6103.83 354.473   3
   3   0  -4 6779.08 402.462   3
   3   0  -4 6611.04 393.589   5
   3   0  -3 11449.0 688.235   2
   3   0  -3 11510.2 693.541   3
   3   0  -3 12323.4 689.056   5
   3   0  -2 20761.5 1149.38   2
   3   0  -2 20393.5 1153.37   1
   3   0  -2 19822.8 1152.35   3
   3   0  -2 18360.2 1149.03   5
   3   0  -1 20708.0 1174.15   2
   3   0  -1 19577.8 1175.20   3
   3   0  -1 20089.2 1176.16   1
   3   0   0 3745.20 215.313   2
   3   0   0 3200.36 214.453   1
   3   0   0 3381.02 213.879   3
   3   0   1 6954.41 398.105   2
   3   0   1 6529.00 396.878   1
   3   0   1 6460.96 396.236   3
   3   0   2 5137.32 304.168   1
   3   0   2 5379.22 307.996   2
   3   0   2 4513.09 301.006   3
   3   0   2 5079.48 297.816   6
   3   0   3 2496.63 168.840   2
   3   0   3 2354.98 163.830   3
   3   0   3 2247.26 153.051   6
   3   0   3 2196.76 157.149   1
   3   0   4 7976.91 458.379   2
   3   0   4 7645.37 452.926   3
   3   0   4 7059.82 447.004   1
   3   0   4 7718.12 448.738   6
   3   0   5 11775.9 614.704   2
   3   0   5 9981.41 605.490   3
   3   0   5 9483.62 599.246   1
   3   0   5 10387.0 601.847   6
   3   0   6 6561.70 402.658   3
   3   0   6 6213.78 395.118   1
   3   0   6 7128.30 401.750   6
   3   0   7 4409.79 288.321   1
   3   0   7 4864.74 300.412   3
   3   0   8 646.438 106.050   1
   3   0   8 687.362 128.956   3
   3   0   9 9552.49 621.222   1
   3   0   9 11859.2 637.500   3
   3   0  10 2098.96 178.448   1
   3   0  10 2781.02 215.061   3
   3   0  11 538.808 170.827   3
   3   0  12 642.890 187.628   3
   3   1 -13 168.472 146.939   5
   3   1 -13 214.873 156.575   6
   3   1 -12 941.766 160.643   5
   3   1 -12 939.621 160.250   6
   3   1 -11 1373.14 158.799   5
   3   1 -11 1161.37 156.417   6
   3   1 -10 1436.48 146.169   5
   3   1 -10 1288.80 153.609   6
   3   1  -9 967.138 121.285   5
   3   1  -8 66.5974 96.8884   5
   3   1  -7 3095.93 204.892   5
   3   1  -6 1038.03 100.923   5
   3   1  -5 5237.02 317.896   5
   3   1  -4 1655.50 124.594   5
   3   1  -3 593.544 50.0847   2
   3   1  -3 641.986 73.5108   5
   3   1  -2 11548.2 639.290   2
   3   1  -2 10086.9 642.112   5
   3   1  -1 150.904 66.7785   5
   3   1  -1 207.519 61.7583   2
   3   1   0 17898.9 1047.17   2
   3   1   1 12002.9 755.907   1
   3   1   1 14139.4 760.051   2
   3   1   2 3308.27 203.652   2
   3   1   2 2743.39 191.730   1
   3   1   3 7308.03 381.143   2
   3   1   3 5669.22 365.738   1
   3   1   4 577.986 84.5504   1
   3   1   4 701.203 113.792   2
   3   1   4 561.967 95.1156   6
   3   1   5 160.997 77.9065   1
   3   1   5 367.475 99.4516   6
   3   1   6 7448.74 469.074   1
   3   1   6 8731.63 478.790   6
   3   1   7 1368.29 138.767   6
   3   1   7 1195.33 112.374   1
   3   1   8 266.910 83.6519   1
   3   2 -13 515.920 172.239   5
   3   2 -13 282.294 167.234   6
   3   2 -12 123.172 151.328   6
   3   2 -12 223.906 141.768   5
   3   2 -11 1550.01 168.636   5
   3   2 -10 1191.74 146.042   5
   3   2 -10 1062.26 164.129   3
   3   2  -9 2657.42 191.416   5
   3   2  -9 2227.96 197.945   3
   3   2  -8 7884.30 456.927   5
   3   2  -8 6985.68 461.290   3
   3   2  -7 276.942 95.4972   5
   3   2  -7 167.258 136.036   3
   3   2  -6 4903.42 311.204   3
   3   2  -6 4646.12 295.567   5
   3   2  -5 504.328 90.4778   5
   3   2  -5 364.586 98.9718   3
   3   2  -4 7564.97 471.092   3
   3   2  -4 7979.15 468.098   5
   3   2  -3 5298.82 244.267   3
   3   2  -3 5648.34 241.422   5
   3   2  -2 809.954 71.3739   2
   3   2  -2 585.644 95.1513   3
   3   2  -2 614.469 88.3800   5
   3   2  -1 2400.31 184.124   3
   3   2  -1 2590.84 185.367   5
   3   2   0 1104.98 103.848   2
   3   2   0 738.989 96.3024   3
   3   2   0 906.463 105.594   5
   3   2   1 2143.65 163.091   4
   3   2   1 2485.88 159.843   2
   3   2   2 3891.55 250.377   4
   3   2   2 3336.45 242.813   3
   3   2   3 11238.0 641.779   4
   3   2   3 12235.9 647.021   2
   3   2   4 1725.76 153.141   4
   3   2   4 2073.43 164.650   2
   3   2   4 1563.13 152.245   3
   3   2   5 4774.07 303.395   3
   3   2   5 4373.29 296.836   6
   3   2   6 2059.47 175.670   3
   3   2   7 85.1471 63.0890   1
   3   2   7 254.890 126.875   3
   3   2   8 2569.89 212.605   3
   3   2   9 2684.20 226.657   3
   3   2  10 984.271 174.248   3
   3   3 -12 386.305 156.529   5
   3   3 -11 46.1832 139.176   5
   3   3 -10 236.940 128.876   5
   3   3 -10 443.127 147.582   3
   3   3  -9 962.215 139.740   5
   3   3  -9 992.871 146.024   3
   3   3  -8 1615.40 158.681   5
   3   3  -8 1150.69 154.137   3
   3   3  -7 2373.21 207.803   3
   3   3  -7 1570.85 156.059   5
   3   3  -6 1311.59 154.364   3
   3   3  -6 1357.56 135.596   5
   3   3  -5 125.442 100.676   5
   3   3  -5-28.7191 102.759   3
   3   3  -4 4134.50 276.685   3
   3   3  -4 4264.87 271.342   5
   3   3  -3 1928.61 139.679   3
   3   3  -3 1999.21 143.420   5
   3   3  -2 2851.12 219.661   3
   3   3  -2 2981.76 219.728   5
   3   3  -1 2314.52 187.098   3
   3   3  -1 2513.45 188.666   5
   3   3   0 1999.39 166.133   3
   3   3   0 2084.20 172.993   5
   3   3   1 996.698 115.207   2
   3   3   1 765.181 109.052   3
   3   3   1 834.823 124.633   5
   3   3   2 3738.43 227.898   2
   3   3   2 2924.77 217.734   3
   3   3   3 1836.47 154.610   2
   3   3   3 1395.22 143.198   3
   3   3   4 2228.47 176.789   3
   3   3   5 30.0914 117.454   3
   3   3   6 464.635 139.402   3
   3   3   7 266.213 139.645   3
   3   3   8 222.255 143.766   3
   3   3   9 9.99648 154.979   3
   3   4 -10 97.4428 142.356   5
   3   4 -10 6.34865 150.924   3
   3   4  -9 48.0845 141.042   5
   3   4  -9 173.988 137.292   3
   3   4  -8 2179.82 204.589   3
   3   4  -8 2499.99 195.455   5
   3   4  -7 1570.71 203.597   3
   3   4  -7 1272.14 149.658   5
   3   4  -6 585.653 127.983   5
   3   4  -6 765.302 144.729   3
   3   4  -5 3224.72 237.795   3
   3   4  -5 3435.53 238.835   5
   3   4  -4 1266.72 136.803   3
   3   4  -4 985.206 132.330   5
   3   4  -3-19.0996 110.915   5
   3   4  -3 160.476 109.365   3
   3   4  -2 4363.85 299.843   3
   3   4  -2 4871.34 302.383   5
   3   4  -1 1144.31 117.815   2
   3   4  -1 1027.11 130.913   3
   3   4  -1 1019.90 127.584   5
   3   4   0 824.101 130.463   5
   3   4   0 1101.37 122.800   2
   3   4   0 699.719 118.922   3
   3   4   1 1579.21 158.247   3
   3   4   1 1866.44 173.906   5
   3   4   2 1058.85 135.433   3
   3   4   2 1326.27 155.043   5
   3   4   3 1663.60 159.848   3
   3   4   3 2004.84 183.370   5
   3   4   4 8.34223 116.833   3
   3   4   5 538.493 132.939   3
   3   4   6 259.339 125.297   3
   3   4   7 208.887 150.193   3
   3   4   8 95.9926 166.162   3
   3   5  -9 165.951 155.153   5
   3   5  -9 5.98452 145.534   3
   3   5  -8 279.842 146.888   5
   3   5  -8 450.069 146.704   3
   3   5  -7 372.431 140.980   5
   3   5  -7 734.607 175.146   3
   3   5  -6 1303.94 174.294   3
   3   5  -6 1430.69 168.013   5
   3   5  -5 614.304 144.311   5
   3   5  -5 584.677 134.161   3
   3   5  -4 280.201 131.314   5
   3   5  -4 338.056 131.459   3
   3   5  -3 765.438 140.188   5
   3   5  -3 659.509 132.928   3
   3   5  -2 629.553 139.380   5
   3   5  -2 397.439 122.021   3
   3   5  -1 980.698 137.451   3
   3   5  -1 1246.84 148.325   5
   3   5   0 639.122 135.875   3
   3   5   0 1000.14 138.028   5
   3   5   1 100.628 140.258   5
   3   5   1 113.315 116.495   3
   3   5   2 406.690 151.173   5
   3   5   2 352.587 119.500   3
   3   5   3 577.334 158.727   5
   3   5   3 544.249 127.186   3
   3   5   4 801.830 171.796   5
   3   5   4 626.870 135.871   3
   3   5   5 161.262 176.038   5
   3   5   5 350.601 138.814   3
   3   5   6 338.278 150.917   3
   3   6  -7 243.155 154.237   5
   3   6  -7-167.978 164.172   3
   3   6  -6-6.16706 153.216   5
   3   6  -6 249.577 166.567   3
   3   6  -5 370.450 161.751   5
   3   6  -5 654.259 173.003   3
   3   6  -4 338.150 159.432   5
   3   6  -4 192.229 136.846   3
   3   6  -3 140.186 151.469   5
   3   6  -3 19.0261 128.252   3
   3   6  -2 43.6892 145.288   5
   3   6  -2 29.9845 129.476   3
   3   6  -1 277.937 153.386   5
   3   6  -1 222.596 127.235   3
   3   6   0 253.331 147.928   5
   3   6   0 280.626 131.107   3
   3   6   1 85.0758 146.091   5
   3   6   1 56.3452 137.788   3
   3   6   2 21.1963 164.959   5
   3   6   2 27.2228 134.342   3
   3   6   3 488.852 178.186   5
   3   6   3 411.619 142.210   3
   4  -9  -3 693.054 145.573   1
   4  -9  -2-112.022 170.891   4
   4  -9  -2 54.2612 142.360   1
   4  -9  -1 1024.25 178.878   4
   4  -9  -1 740.628 157.701   1
   4  -9   0 772.577 164.528   1
   4  -9   0 989.797 175.279   4
   4  -9   1 962.450 162.630   1
   4  -9   1 885.196 172.890   4
   4  -9   2 427.668 159.438   1
   4  -9   2 419.943 160.511   4
   4  -9   3 704.959 165.952   1
   4  -9   3 730.990 163.559   4
   4  -8  -7 82.1043 170.442   4
   4  -8  -6 197.955 165.493   4
   4  -8  -5 346.184 138.595   1
   4  -8  -5 541.700 165.469   4
   4  -8  -4-1.11635 158.281   4
   4  -8  -4 130.242 127.509   1
   4  -8  -3 461.226 132.914   1
   4  -8  -2 300.424 150.062   4
   4  -8  -2 498.456 131.311   1
   4  -8  -1 729.652 158.885   4
   4  -8  -1 756.143 141.843   1
   4  -8   0 1984.18 199.155   4
   4  -8   0 2188.14 192.355   1
   4  -8   1 1026.09 149.346   1
   4  -8   1 850.223 156.034   4
   4  -8   2 1403.54 169.582   1
   4  -8   2 1634.90 169.986   4
   4  -8   3 706.125 151.443   1
   4  -8   3 915.387 150.845   4
   4  -8   4 838.190 153.097   1
   4  -8   4 777.854 151.236   4
   4  -8   5 2033.25 201.429   1
   4  -8   5 2013.64 197.495   4
   4  -8   6 1566.62 185.376   1
   4  -7  -9 479.405 184.099   4
   4  -7  -8 54.4025 165.865   4
   4  -7  -7 497.832 132.824   1
   4  -7  -7 645.051 163.942   4
   4  -7  -6 1580.55 170.503   4
   4  -7  -6 1474.89 158.987   1
   4  -7  -5 553.843 133.362   1
   4  -7  -5 710.821 145.852   4
   4  -7  -4 2161.51 175.851   1
   4  -7  -4 1912.91 188.695   4
   4  -7  -3 959.583 131.717   1
   4  -7  -2 1463.48 150.453   1
   4  -7  -1 3480.75 256.122   4
   4  -7  -1 3724.65 251.547   1
   4  -7   0 325.472 127.062   1
   4  -7   0 470.355 125.419   4
   4  -7   1 938.628 145.712   4
   4  -7   1 1169.34 138.350   1
   4  -7   2 717.476 132.927   1
   4  -7   2 809.310 141.109   4
   4  -7   3 1649.40 170.387   1
   4  -7   3 1875.52 175.465   4
   4  -7   4 1960.59 187.118   1
   4  -7   4 2345.49 191.318   4
   4  -7   5 1075.30 155.386   1
   4  -7   8 912.104 166.558   1
   4  -6  -8 1056.87 178.613   4
   4  -6  -7 1050.67 172.287   4
   4  -6  -7 847.002 140.776   1
   4  -6  -6 641.722 152.622   4
   4  -6  -6 742.524 124.201   1
   4  -6  -5 1082.55 135.665   1
   4  -6  -5 1121.16 153.193   4
   4  -6  -4 3093.23 226.926   1
   4  -6  -4 3302.49 237.875   4
   4  -6  -3 539.587 115.026   1
   4  -6  -2 995.506 121.928   1
   4  -6  -1 1641.98 159.903   4
   4  -6  -1 1554.99 143.542   1
   4  -6  -1 1283.07 127.338   5
   4  -6   0 18203.5 632.787   4
   4  -6   0 16003.8 625.750   1
   4  -6   0 8891.35 599.319   3
   4  -6   0 12172.0 616.683   5
   4  -6   1 382.556 99.5199   5
   4  -6   1 608.521 113.875   1
   4  -6   1 319.141 130.929   4
   4  -6   2 456.301 107.995   5
   4  -6   2 675.782 120.116   1
   4  -6   3 2641.95 185.638   1
   4  -6   3 2075.84 149.529   3
   4  -6   3 2379.88 180.128   5
   4  -6   4 3498.99 224.138   3
   4  -6   5 432.634 93.9353   3
   4  -6   6 5268.22 332.870   3
   4  -6   7 1267.90 161.708   1
   4  -6   7 1206.89 133.698   3
   4  -6   8 543.086 143.883   1
   4  -6   9 1698.23 183.847   1
   4  -5  -7 682.357 127.593   1
   4  -5  -6 230.411 103.185   1
   4  -5  -5 2674.07 196.761   1
   4  -5  -4 654.054 115.022   1
   4  -5  -3 1555.29 145.023   1
   4  -5  -3 1734.02 128.017   3
   4  -5  -2 3626.41 213.638   3
   4  -5  -2 2872.20 220.163   1
   4  -5  -1 2607.31 164.344   3
   4  -5  -1 2677.14 183.058   1
   4  -5  -1 2228.16 168.280   5
   4  -5   0 2130.34 167.293   1
   4  -5   0 2184.53 144.264   3
   4  -5   0 2125.90 155.224   5
   4  -5   1 2317.92 166.720   1
   4  -5   1 1860.49 139.125   3
   4  -5   1 2087.03 152.152   5
   4  -5   2 6940.84 414.483   1
   4  -5   2 6215.01 399.870   3
   4  -5   3 650.108 109.916   5
   4  -5   3 664.042 84.6847   3
   4  -5   4 1031.47 111.472   3
   4  -5   4 942.527 127.358   5
   4  -5   5 3640.67 260.128   1
   4  -5   5 3916.76 249.849   3
   4  -5   6 960.731 138.297   1
   4  -5   6 1016.26 126.545   3
   4  -5   7 1200.46 153.586   1
   4  -5   7 1375.27 142.067   3
   4  -5   8 2867.17 237.570   1
   4  -5   8 3385.56 234.377   3
   4  -5   9 1979.71 201.539   1
   4  -5   9 2528.08 204.204   3
   4  -5  10 1749.21 187.364   1
   4  -5  10 1981.31 200.196   3
   4  -4  -7-31.0930 114.956   1
   4  -4  -6 2408.36 183.787   1
   4  -4  -5 2126.53 165.002   1
   4  -4  -5 2260.60 163.942   3
   4  -4  -4 4427.03 282.850   1
   4  -4  -4 4401.54 277.647   3
   4  -4  -3 1841.20 146.657   1
   4  -4  -3 1824.81 139.670   3
   4  -4  -3 1489.42 141.439   2
   4  -4  -2 1970.97 164.382   2
   4  -4  -2 2155.97 162.837   1
   4  -4  -2 2359.38 154.228   3
   4  -4  -1 6937.37 436.296   2
   4  -4  -1 7533.54 427.823   3
   4  -4  -1 7733.92 433.716   1
   4  -4  -1 6674.02 423.448   5
   4  -4   0 5948.76 404.030   2
   4  -4   0 6238.68 392.922   3
   4  -4   0 6505.40 401.484   1
   4  -4   0 7458.51 395.702   5
   4  -4   1 7529.86 413.825   2
   4  -4   1 6946.40 391.453   5
   4  -4   2 6630.63 417.017   3
   4  -4   2 7548.20 421.869   5
   4  -4   3 4616.30 311.095   1
   4  -4   3 4730.27 301.081   3
   4  -4   3 5552.88 309.333   5
   4  -4   4 1012.98 128.837   5
   4  -4   4 837.548 121.048   1
   4  -4   4 783.841 105.226   3
   4  -4   5 3101.47 229.031   1
   4  -4   5 3372.09 222.498   3
   4  -4   6 5440.21 361.867   1
   4  -4   6 5907.47 358.584   3
   4  -4   7 137.692 118.136   1
   4  -4   7 15.4417 110.732   3
   4  -4   8 1708.03 173.840   1
   4  -4   8 1877.51 169.112   3
   4  -4   9 1152.83 161.759   1
   4  -4   9 1479.07 163.049   3
   4  -4  10 1372.71 176.924   1
   4  -4  10 1842.18 190.076   3
   4  -4  11 1194.38 193.622   3
   4  -3  -7 2258.29 183.517   3
   4  -3  -6 1596.05 150.869   1
   4  -3  -6 1674.20 143.538   3
   4  -3  -5 6008.08 356.265   3
   4  -3  -5 5349.86 350.785   1
   4  -3  -4 202.009 86.2863   1
   4  -3  -4 172.446 82.2519   2
   4  -3  -4 147.528 93.0683   3
   4  -3  -3 1087.78 114.387   1
   4  -3  -3 1048.78 107.032   3
   4  -3  -3 972.368 104.923   2
   4  -3  -2 6433.54 413.591   2
   4  -3  -2 7376.47 415.883   1
   4  -3  -2 6670.49 409.495   3
   4  -3  -1 2097.37 152.568   2
   4  -3  -1 2025.30 143.225   3
   4  -3  -1 2009.30 127.717   5
   4  -3   0 1216.12 125.701   2
   4  -3   0 899.306 96.1304   3
   4  -3   0 1162.59 92.3132   5
   4  -3   1 3700.86 210.235   5
   4  -3   1 3411.89 218.940   2
   4  -3   1 3007.43 207.299   3
   4  -3   1 3079.69 217.460   1
   4  -3   2 8464.82 454.014   5
   4  -3   2 6772.31 456.556   2
   4  -3   2 7425.30 451.711   3
   4  -3   2 7412.99 455.947   1
   4  -3   3 4510.68 268.344   5
   4  -3   3 3739.72 269.749   2
   4  -3   3 4201.95 270.728   1
   4  -3   3 4146.32 262.979   3
   4  -3   4 6548.37 394.518   5
   4  -3   4 6020.41 393.765   1
   4  -3   4 6607.71 392.528   3
   4  -3   5 4662.44 287.759   5
   4  -3   5 4151.86 283.883   1
   4  -3   5 4398.31 282.454   3
   4  -3   6 222.884 114.432   1
   4  -3   6 321.629 111.985   3
   4  -3   7 4572.00 319.160   1
   4  -3   7 5155.60 317.067   3
   4  -3   8 877.889 140.453   1
   4  -3   8 1168.50 141.957   3
   4  -3   9 1057.48 151.854   1
   4  -3   9 1273.92 161.086   3
   4  -3  10 3033.91 250.758   1
   4  -3  10 3750.04 262.988   3
   4  -3  11 19.2239 140.679   1
   4  -3  11 366.357 163.194   3
   4  -2 -12-111.157 160.192   6
   4  -2 -11 2526.67 217.717   6
   4  -2 -10 239.451 137.323   6
   4  -2  -9 3504.00 248.183   6
   4  -2  -8 6284.46 445.175   3
   4  -2  -8 8030.26 443.734   6
   4  -2  -7 2705.29 216.315   3
   4  -2  -7 3506.95 216.547   6
   4  -2  -6 5828.80 387.537   3
   4  -2  -6 6404.81 377.148   6
   4  -2  -5 571.642 108.369   1
   4  -2  -5 647.114 112.471   3
   4  -2  -4 3924.71 253.328   3
   4  -2  -4 4152.09 256.050   1
   4  -2  -4 3770.72 249.860   2
   4  -2  -3 6618.74 400.762   2
   4  -2  -3 6630.94 402.146   3
   4  -2  -2 129.798 27.6110   5
   4  -2  -2 163.710 74.2728   2
   4  -2  -2 167.857 71.7613   3
   4  -2  -1 10610.8 610.433   5
   4  -2  -1 11065.7 621.974   2
   4  -2  -1 9713.21 616.703   3
   4  -2   0 4285.37 235.675   5
   4  -2   0 3931.07 244.452   2
   4  -2   0 3743.71 244.921   1
   4  -2   0 3334.52 235.296   3
   4  -2   1 7071.31 385.972   5
   4  -2   1 6301.26 388.742   2
   4  -2   1 6024.94 384.098   3
   4  -2   1 6298.20 389.195   1
   4  -2   2 2182.62 150.056   5
   4  -2   2 1990.02 155.022   2
   4  -2   2 1917.40 145.522   3
   4  -2   2 1896.10 150.646   1
   4  -2   3 4525.31 267.489   5
   4  -2   3 4164.89 270.306   2
   4  -2   3 3971.86 263.374   3
   4  -2   3 3988.66 266.238   1
   4  -2   4 7775.19 446.137   5
   4  -2   4 7240.67 444.120   3
   4  -2   4 6980.59 442.372   1
   4  -2   5 4181.16 259.133   5
   4  -2   5 3575.51 249.675   1
   4  -2   5 3657.99 248.405   3
   4  -2   6 1294.85 141.843   1
   4  -2   6 1468.77 145.343   3
   4  -2   7 2201.44 181.999   1
   4  -2   7 2313.15 187.123   3
   4  -2   8 2466.04 198.966   1
   4  -2   8 2712.17 205.044   3
   4  -2   9 2483.30 205.083   1
   4  -2   9 2804.15 216.510   3
   4  -2  10 9.81524 125.453   1
   4  -2  10 76.0234 147.867   3
   4  -2  11 919.767 153.270   1
   4  -2  11 1265.15 181.299   3
   4  -1 -13 223.657 168.562   6
   4  -1 -12 1739.60 194.189   6
   4  -1 -11 469.232 148.900   6
   4  -1 -10 627.396 140.893   6
   4  -1  -9 376.606 122.817   6
   4  -1  -9 254.741 126.737   3
   4  -1  -8 540.915 113.714   6
   4  -1  -8 479.663 118.688   3
   4  -1  -7 6091.40 413.907   3
   4  -1  -7 6990.94 404.650   6
   4  -1  -6 5862.54 391.470   3
   4  -1  -6 6538.38 381.643   6
   4  -1  -5 2960.21 222.806   3
   4  -1  -5 3583.20 213.935   6
   4  -1  -4 1092.71 116.364   3
   4  -1  -4 1275.50 100.222   6
   4  -1  -4 1290.70 104.431   2
   4  -1  -3 3136.62 196.788   2
   4  -1  -3 2975.43 203.508   3
   4  -1  -2 5656.69 409.601   3
   4  -1  -2 6201.80 413.446   1
   4  -1  -1 2851.16 178.574   2
   4  -1  -1 2584.92 182.053   1
   4  -1  -1 2494.74 178.619   3
   4  -1   0 4149.53 241.292   2
   4  -1   0 3934.37 245.079   1
   4  -1   0 3380.71 237.306   3
   4  -1   1 1873.06 140.640   2
   4  -1   1 1971.93 148.006   1
   4  -1   1 1618.40 133.020   3
   4  -1   2 4965.92 312.684   1
   4  -1   2 5427.02 314.532   2
   4  -1   2 4730.57 309.910   3
   4  -1   3 1687.68 138.489   5
   4  -1   3 1619.34 142.518   2
   4  -1   3 1291.53 123.340   3
   4  -1   3 1529.60 132.598   1
   4  -1   4 4757.77 282.315   5
   4  -1   4 4265.70 278.984   3
   4  -1   4 3993.42 274.159   1
   4  -1   5 872.472 121.789   3
   4  -1   5 847.826 115.070   1
   4  -1   6 2915.99 212.813   3
   4  -1   6 2869.67 205.604   1
   4  -1   7 2517.78 197.461   3
   4  -1   7 2276.74 183.336   1
   4  -1   8 2279.38 196.157   3
   4  -1   8 2122.25 178.605   1
   4  -1   9 2280.19 193.698   1
   4  -1   9 2649.41 212.543   3
   4  -1  10 119.332 124.256   1
   4  -1  10 191.033 147.315   3
   4  -1  11 356.563 164.806   3
   4   0 -13 444.581 169.322   6
   4   0 -12-76.1089 150.136   6
   4   0 -11 1051.53 161.141   6
   4   0 -10 1044.42 135.679   5
   4   0 -10 1206.56 148.083   6
   4   0 -10 939.978 160.260   3
   4   0  -9 2600.60 192.114   5
   4   0  -9 2235.68 205.589   3
   4   0  -8 4470.49 289.349   5
   4   0  -8 4090.23 303.619   3
   4   0  -7 155.785 82.4395   5
   4   0  -7 273.119 102.762   6
   4   0  -7 343.551 151.439   3
   4   0  -6 2544.11 171.870   5
   4   0  -6 2561.50 200.206   3
   4   0  -5 5231.72 337.376   3
   4   0  -5 5446.37 324.079   5
   4   0  -4 4008.12 263.150   3
   4   0  -4 4386.25 250.670   5
   4   0  -4 3698.72 247.222   2
   4   0  -3 1106.53 94.7737   2
   4   0  -3 997.018 109.685   3
   4   0  -3 1040.02 93.2867   5
   4   0  -2 4365.67 243.453   2
   4   0  -2 3563.48 249.292   3
   4   0  -2 3729.80 242.624   5
   4   0  -1 3977.17 267.338   1
   4   0  -1 4521.78 260.860   2
   4   0  -1 3643.91 263.081   3
   4   0  -1 4407.96 260.256   5
   4   0   0 747.874 92.2126   2
   4   0   0 607.136 102.206   1
   4   0   0 540.618 88.5204   3
   4   0   1 1718.33 140.121   3
   4   0   1 1701.86 139.751   1
   4   0   2 160.944 97.7307   2
   4   0   2 69.0940 93.7564   1
   4   0   2 150.910 90.1399   3
   4   0   2 249.341 74.5814   6
   4   0   3 7905.19 485.188   1
   4   0   3 7078.43 485.380   3
   4   0   3 8405.49 479.546   6
   4   0   4 869.681 119.066   1
   4   0   4 949.943 121.854   3
   4   0   4 1088.41 106.490   6
   4   0   5 2760.64 205.564   1
   4   0   5 2873.90 219.002   3
   4   0   5 3223.35 204.916   6
   4   0   6 323.460 124.747   3
   4   0   6 290.656 104.277   1
   4   0   7 239.735 132.773   3
   4   0   7 354.719 104.097   1
   4   0   8 3095.97 230.597   3
   4   0   8 2620.79 200.063   1
   4   0   9 229.845 151.750   3
   4   0  10 32.7937 162.216   3
   4   1 -12 492.227 157.933   6
   4   1 -11 103.426 145.022   6
   4   1 -10 548.778 124.825   5
   4   1 -10 462.838 139.382   6
   4   1  -9 167.135 108.042   5
   4   1  -8 4742.68 302.087   5
   4   1  -7 285.143 100.446   5
   4   1  -6 1761.50 139.490   5
   4   1  -5 1517.62 127.895   5
   4   1  -4 4637.95 244.310   5
   4   1  -4 3571.95 226.103   2
   4   1  -3 1893.27 126.738   2
   4   1  -3 1634.16 138.186   5
   4   1  -2 10668.8 581.508   2
   4   1  -2 8928.61 583.878   5
   4   1  -1 6515.76 377.389   2
   4   1  -1 5918.39 380.643   5
   4   1   0 4249.34 262.601   2
   4   1   0 3913.66 264.189   5
   4   1   1 764.508 110.068   2
   4   1   2 3409.89 247.069   1
   4   1   2 4332.11 254.997   2
   4   1   3 1558.09 148.164   2
   4   1   3 1230.80 128.834   1
   4   1   3 1306.47 125.824   6
   4   1   4 2741.15 200.577   1
   4   1   4 3133.36 205.255   6
   4   1   5 1617.41 135.493   1
   4   1   5 1794.61 150.198   6
   4   1   6 2190.92 164.357   1
   4   1   7 18.7240 97.0267   1
   4   2 -10 956.414 145.606   5
   4   2  -9 937.398 137.213   5
   4   2  -8 299.057 118.872   5
   4   2  -7 273.146 107.401   5
   4   2  -6 1790.42 153.405   5
   4   2  -5 3229.99 224.117   5
   4   2  -4 1629.65 144.143   5
   4   2  -3 3259.49 201.032   2
   4   2  -3 3406.08 225.001   5
   4   2  -2 439.862 97.0011   5
   4   2  -2 722.252 81.5425   2
   4   2  -2 426.492 110.820   3
   4   2  -1 523.259 112.743   5
   4   2  -1 452.766 90.9594   2
   4   2  -1 383.503 111.807   3
   4   2   0 3098.10 188.446   2
   4   2   0 2686.14 196.670   5
   4   2   1 1946.09 147.188   2
   4   2   1 1536.06 152.115   5
   4   2   2 6720.84 338.778   2
   4   2   2 4414.46 326.327   3
   4   2   3 2826.85 210.871   3
   4   2   4 849.317 131.756   3
   4   2   5 278.333 123.289   3
   4   2   6 79.8155 136.309   3
   4   2   7 1817.34 203.696   3
   4   2   8 669.788 172.305   3
   4   3 -10 279.596 142.074   5
   4   3 -10 345.313 152.963   3
   4   3  -9 447.152 141.050   5
   4   3  -9 578.497 154.216   3
   4   3  -8 1010.99 146.784   5
   4   3  -8 1366.42 195.256   3
   4   3  -7 665.718 127.629   5
   4   3  -7 501.672 150.890   3
   4   3  -6 2475.22 213.902   3
   4   3  -6 2779.41 204.690   5
   4   3  -5 864.563 138.493   5
   4   3  -5 632.705 139.775   3
   4   3  -4 1038.74 147.338   3
   4   3  -4 1249.58 139.632   5
   4   3  -3 446.718 123.816   5
   4   3  -3 400.443 117.879   3
   4   3  -2 1564.60 158.274   3
   4   3  -2 1991.67 161.225   5
   4   3  -1 776.919 133.721   3
   4   3  -1 1065.43 135.919   5
   4   3   0 82.8173 128.575   5
   4   3   0 32.7953 115.586   3
   4   3   1 425.297 120.848   3
   4   3   1 983.460 141.559   5
   4   3   2 993.874 153.984   5
   4   3   2 632.261 130.037   3
   4   3   3 342.700 119.874   3
   4   3   4 713.164 138.534   3
   4   3   5 227.417 139.192   3
   4   3   6 1059.70 159.669   3
   4   3   7 166.202 140.150   3
   4   4  -9 929.915 175.440   5
   4   4  -9 658.658 170.967   3
   4   4  -8 359.168 143.971   5
   4   4  -8 417.676 192.589   3
   4   4  -7 562.849 167.048   3
   4   4  -6-59.6544 135.026   5
   4   4  -6 330.449 154.117   3
   4   4  -5 35.9896 148.358   5
   4   4  -5 190.694 138.304   3
   4   4  -4 45.6507 130.829   5
   4   4  -4 143.419 130.546   3
   4   4  -3 736.245 140.067   5
   4   4  -3 851.828 144.915   3
   4   4  -2 226.728 131.406   5
   4   4  -2 191.106 122.658   3
   4   4  -1 131.895 127.882   5
   4   4  -1 82.2791 128.127   3
   4   4   0 309.898 144.239   5
   4   4   0 152.747 127.940   3
   4   4   1 467.239 154.648   5
   4   4   1 472.549 133.869   3
   4   4   2 295.972 156.940   5
   4   4   2 264.719 126.896   3
   4   4   3 686.596 170.503   5
   4   4   3 289.997 136.679   3
   4   4   4 86.1113 172.765   5
   4   4   4 202.015 136.088   3
   4   4   5 214.921 141.972   3
   4   5  -6 13.1708 152.988   5
   4   5  -6 217.948 180.112   3
   4   5  -5 174.509 154.670   5
   4   5  -5 40.5308 144.143   3
   4   5  -4 129.108 150.640   5
   4   5  -4 62.9177 144.846   3
   4   5  -3 215.939 153.398   5
   4   5  -3-47.1547 149.909   3
   4   5  -2 577.378 161.000   5
   4   5  -2 517.429 146.472   3
   4   5  -1 242.559 153.286   5
   4   5  -1 229.388 136.728   3
   4   5   0 248.220 150.088   5
   4   5   0 273.007 145.252   3
   4   5   1 44.0971 163.700   5
   4   5   1 43.4634 144.577   3
   4   5   2-22.1475 173.108   5
   4   5   2 39.9045 141.803   3
   5  -8  -6 1348.20 207.519   4
   5  -8  -6 860.000 161.906   1
   5  -8  -5 151.537 148.892   1
   5  -8  -5 123.126 183.065   4
   5  -8  -4-3.01880 147.520   1
   5  -8  -3 739.348 153.317   1
   5  -8  -2 620.455 181.035   4
   5  -8  -2 825.068 152.241   1
   5  -8  -1 883.833 183.954   4
   5  -8  -1 1075.21 160.846   1
   5  -8   0 1401.39 175.410   1
   5  -8   1 122.420 150.251   1
   5  -8   2 1820.80 195.809   1
   5  -8   3 833.461 168.050   1
   5  -8   4 768.236 165.149   1
   5  -7  -8 380.486 158.030   1
   5  -7  -7 140.134 142.166   1
   5  -7  -5 207.828 137.181   1
   5  -7  -4 540.576 151.656   1
   5  -7  -3 928.912 146.570   1
   5  -7  -2 144.084 126.243   1
   5  -7  -1 234.657 129.647   1
   5  -7   0 217.206 134.617   1
   5  -7   1 1175.09 158.420   1
   5  -7   2 2796.17 226.249   1
   5  -7   3 295.093 143.438   1
   5  -7   4 1603.29 181.794   1
   5  -6  -7 749.091 149.363   1
   5  -6  -6 1393.30 153.525   1
   5  -6  -5 482.209 133.481   1
   5  -6  -4 1775.40 174.301   1
   5  -6  -3 180.037 125.130   1
   5  -6  -2 2573.32 201.635   1
   5  -6  -1 2447.67 194.026   1
   5  -6   0 228.197 122.205   1
   5  -6   1 1417.13 157.533   1
   5  -6   2 945.840 148.008   1
   5  -6   5 2213.43 200.054   1
   5  -6   6 356.921 149.966   1
   5  -6   7 1159.50 176.020   1
   5  -6   8 1903.41 205.250   1
   5  -5  -7 377.600 138.609   1
   5  -5  -6 92.6061 124.855   1
   5  -5  -6-84.8564 118.100   3
   5  -5  -5 942.786 135.521   1
   5  -5  -5 1086.87 127.657   3
   5  -5  -4 479.930 126.968   1
   5  -5  -4 772.479 114.230   3
   5  -5  -3 2173.33 188.997   1
   5  -5  -3 2488.04 180.704   3
   5  -5  -2 522.706 118.196   1
   5  -5  -2 554.593 98.8938   3
   5  -5  -1-51.1473 113.175   1
   5  -5  -1-62.4505 89.8928   3
   5  -5   0 4165.99 267.905   3
   5  -5   0 4325.07 281.765   1
   5  -5   1 4714.55 296.957   3
   5  -5   2 244.591 89.2730   3
   5  -5   3 2627.31 206.125   1
   5  -5   3 2467.02 180.101   3
   5  -5   4 3029.41 232.088   1
   5  -5   4 3033.73 213.364   3
   5  -5   5 470.246 140.311   1
   5  -5   5 400.780 112.667   3
   5  -5   6 2060.75 202.264   1
   5  -5   6 2602.93 197.528   3
   5  -5   7 3618.47 269.939   1
   5  -5   7 3681.19 264.289   3
   5  -5   8 285.771 151.586   1
   5  -5   8 289.785 141.096   3
   5  -4  -7 1223.43 151.770   3
   5  -4  -7 995.385 153.294   1
   5  -4  -6 2307.05 180.827   3
   5  -4  -6 2079.37 187.266   1
   5  -4  -5 664.926 120.276   1
   5  -4  -5 594.713 133.258   3
   5  -4  -4 477.586 115.219   1
   5  -4  -4 630.880 123.710   3
   5  -4  -3 2961.98 213.617   1
   5  -4  -3 2869.93 206.238   3
   5  -4  -2 3133.59 227.405   1
   5  -4  -2 3204.66 217.681   3
   5  -4  -1 4165.50 245.000   3
   5  -4  -1 3599.98 228.281   5
   5  -4   0 1592.40 143.904   3
   5  -4   0 1802.86 129.148   5
   5  -4   1 1191.49 119.328   3
   5  -4   1 1123.64 111.736   5
   5  -4   2 1776.72 154.189   3
   5  -4   2 2099.28 171.921   1
   5  -4   2 2314.45 160.840   5
   5  -4   3 308.435 112.632   5
   5  -4   3 223.926 117.396   1
   5  -4   3 234.489 100.324   3
   5  -4   4 895.727 121.620   3
   5  -4   4 1049.67 139.202   1
   5  -4   5 2543.54 210.000   1
   5  -4   5 2663.03 199.948   3
   5  -4   6 966.351 156.409   1
   5  -4   6 1130.22 149.011   3
   5  -4   7 220.695 142.680   1
   5  -4   7 307.296 134.923   3
   5  -4   8 2166.62 206.499   1
   5  -4   8 2348.15 207.300   3
   5  -4   9 434.778 152.248   1
   5  -3  -9 542.297 152.302   3
   5  -3  -8 87.5018 127.036   3
   5  -3  -7 139.489 120.718   3
   5  -3  -6 2251.70 194.617   3
   5  -3  -6 1749.08 174.328   1
   5  -3  -5 263.040 117.940   1
   5  -3  -5 85.3950 122.972   3
   5  -3  -4 1706.12 149.900   3
   5  -3  -4 1701.99 152.428   1
   5  -3  -4 1552.53 144.939   2
   5  -3  -3 3485.51 248.848   2
   5  -3  -3 3806.98 250.563   1
   5  -3  -3 3794.86 249.886   3
   5  -3  -2 584.937 104.638   2
   5  -3  -2 813.847 107.474   3
   5  -3  -1 4635.85 308.552   2
   5  -3  -1 4737.11 302.016   3
   5  -3  -1 4784.14 284.783   5
   5  -3   0 1935.49 135.269   5
   5  -3   0 1803.81 159.784   1
   5  -3   0 1629.14 146.553   3
   5  -3   1 7628.19 514.068   3
   5  -3   1 8442.34 520.419   1
   5  -3   2 7848.02 517.552   3
   5  -3   2 8263.66 521.903   1
   5  -3   3 3321.02 213.303   5
   5  -3   3 2760.81 207.366   3
   5  -3   3 2786.04 214.891   1
   5  -3   4 369.328 124.301   5
   5  -3   4 282.977 120.581   1
   5  -3   4 304.414 107.275   3
   5  -3   5 457.526 128.773   1
   5  -3   5 728.548 126.733   3
   5  -3   6 2440.73 198.580   3
   5  -3   6 2177.39 193.006   1
   5  -3   7 3005.99 231.938   3
   5  -3   7 2783.90 226.168   1
   5  -3   8 131.176 140.635   1
   5  -3   8 129.504 143.720   3
   5  -3   9 1485.07 181.581   1
   5  -3   9 1670.92 193.516   3
   5  -2 -11 107.750 149.664   6
   5  -2 -10 318.604 143.488   6
   5  -2 -10 389.647 158.023   3
   5  -2  -9 1922.28 193.498   3
   5  -2  -9 2367.28 188.155   6
   5  -2  -8 1144.24 151.355   3
   5  -2  -8 1227.08 144.623   6
   5  -2  -7 2916.72 232.686   3
   5  -2  -6 766.990 136.616   3
   5  -2  -5 1540.52 145.425   3
   5  -2  -4 1069.39 128.936   3
   5  -2  -4 1194.78 119.031   2
   5  -2  -3-21.1267 87.9924   2
   5  -2  -3 3.80644 100.037   3
   5  -2  -2 7838.65 465.103   5
   5  -2  -2 9080.49 483.193   2
   5  -2  -2 7789.08 479.606   1
   5  -2  -2 7492.00 478.040   3
   5  -2  -1 1024.26 94.8720   5
   5  -2  -1 794.904 123.628   2
   5  -2  -1 819.279 114.742   3
   5  -2  -1 878.409 124.795   1
   5  -2   0 262.987 90.2067   5
   5  -2   0 168.641 101.189   2
   5  -2   0 152.624 112.965   1
   5  -2   0 11.5087 97.0235   3
   5  -2   1 2135.85 183.181   1
   5  -2   1 1799.58 166.689   3
   5  -2   2 1746.96 143.763   5
   5  -2   2 1503.24 148.917   1
   5  -2   3 3031.45 201.207   5
   5  -2   3 2421.95 195.308   3
   5  -2   3 2652.38 200.963   1
   5  -2   4 3499.54 243.482   3
   5  -2   4 3562.73 244.959   1
   5  -2   5 414.982 120.085   1
   5  -2   5 255.292 118.298   3
   5  -2   6 440.588 127.787   1
   5  -2   6 414.918 140.080   3
   5  -2   7 182.747 126.326   1
   5  -2   7 345.074 146.262   3
   5  -2   8 1083.00 154.671   1
   5  -2   8 1182.94 172.130   3
   5  -2   9 258.734 137.824   1
   5  -2   9 446.498 162.458   3
   5  -1 -11 584.738 156.251   6
   5  -1 -11 619.107 173.584   3
   5  -1 -10 1064.44 158.964   6
   5  -1 -10 802.578 161.869   3
   5  -1  -9 5.75498 129.123   6
   5  -1  -9 19.8516 136.037   3
   5  -1  -8 3249.86 268.466   3
   5  -1  -8 3979.93 253.556   6
   5  -1  -7 2101.46 203.977   3
   5  -1  -7 2155.17 170.914   6
   5  -1  -6 676.238 102.648   6
   5  -1  -6 498.536 150.713   3
   5  -1  -5 737.524 95.2445   6
   5  -1  -5 644.377 125.990   3
   5  -1  -4 598.327 99.0285   2
   5  -1  -4 813.133 127.928   3
   5  -1  -3 2518.53 177.980   2
   5  -1  -3 2587.81 199.198   1
   5  -1  -3 2264.30 188.226   3
   5  -1  -3 2664.31 164.638   5
   5  -1  -2 2412.16 200.968   3
   5  -1  -2 2853.43 186.776   5
   5  -1  -2 2753.75 212.133   1
   5  -1  -1 789.208 109.464   2
   5  -1  -1 967.607 125.809   1
   5  -1  -1 700.664 116.126   3
   5  -1  -1 855.300 102.715   5
   5  -1   0 8085.82 459.569   2
   5  -1   0 7565.29 460.488   1
   5  -1   0 7149.37 461.874   3
   5  -1   1 6194.31 336.276   2
   5  -1   1 5434.56 333.587   1
   5  -1   2 1793.71 149.207   5
   5  -1   2 1534.10 152.163   1
   5  -1   2 1362.92 142.550   3
   5  -1   3 3071.81 221.811   1
   5  -1   3 2726.86 216.249   3
   5  -1   4 1094.05 140.298   1
   5  -1   4 921.866 134.563   3
   5  -1   5 5027.75 313.699   1
   5  -1   5 4542.39 312.119   3
   5  -1   6 326.740 123.377   1
   5  -1   6 340.978 142.084   3
   5  -1   7 190.137 153.331   3
   5  -1   7 116.048 118.965   1
   5  -1   8 804.102 174.046   3
   5  -1   8 835.939 137.043   1
   5  -1   9 77.5433 170.065   3
   5   0 -11 185.030 150.759   6
   5   0 -11 197.479 168.719   3
   5   0 -10 220.989 139.739   6
   5   0 -10 141.530 147.050   3
   5   0  -9 166.167 132.311   6
   5   0  -9 318.103 144.350   3
   5   0  -8 427.102 125.557   6
   5   0  -8 314.824 171.350   3
   5   0  -7 1450.81 175.101   3
   5   0  -7 1502.35 149.764   6
   5   0  -6 3908.20 271.138   3
   5   0  -5-51.4516 78.2395   5
   5   0  -5 13.2614 117.793   3
   5   0  -4 2560.63 214.094   3
   5   0  -4 3100.55 195.689   5
   5   0  -3 4207.73 298.028   3
   5   0  -3 4917.19 289.674   5
   5   0  -2 180.496 91.1251   5
   5   0  -2 173.200 85.8800   2
   5   0  -2 151.359 104.518   3
   5   0  -1 685.881 95.5441   2
   5   0  -1 769.791 129.247   1
   5   0  -1 689.623 118.958   3
   5   0  -1 792.223 114.104   5
   5   0   0 777.732 112.194   2
   5   0   0 831.240 130.082   1
   5   0   0 611.289 117.485   3
   5   0   1 271.631 108.990   2
   5   0   1 185.586 100.893   3
   5   0   1 124.411 119.575   1
   5   0   2 2414.55 197.482   3
   5   0   2 2958.39 202.805   1
   5   0   3 12.5460 104.443   1
   5   0   3-4.39992 113.430   3
   5   0   4 3023.89 214.850   1
   5   0   4 2902.56 224.094   3
   5   0   5 817.147 131.750   1
   5   0   5 829.282 140.096   3
   5   0   6 1348.27 145.109   1
   5   0   6 989.782 146.834   3
   5   0   7 506.794 163.294   3
   5   0   8 441.119 178.838   3
   5   1 -10 111.128 146.756   6
   5   1 -10-81.3393 156.714   3
   5   1  -9 413.134 157.324   3
   5   1  -8 585.607 188.633   3
   5   1  -7 435.166 156.681   3
   5   1  -6 905.072 146.843   3
   5   1  -6 1128.80 118.722   5
   5   1  -5 1196.38 152.973   3
   5   1  -5 1406.30 132.155   5
   5   1  -4 2493.30 207.500   3
   5   1  -4 2748.49 191.464   5
   5   1  -3 211.426 104.674   5
   5   1  -3 195.012 115.323   3
   5   1  -2 239.219 100.399   5
   5   1  -2 60.9203 115.400   3
   5   1  -1 594.412 130.219   3
   5   1  -1 809.336 127.152   5
   5   1   0 1450.37 154.526   3
   5   1   0 1680.58 159.727   5
   5   1   1 1903.38 156.936   2
   5   1   1 1422.15 151.425   3
   5   1   4 682.576 130.632   1
   5   1   5 271.879 123.096   1
   5   2  -6-33.1928 115.074   5
   5   2  -5 730.594 129.646   5
   5   2  -4 1483.52 153.378   5
   5   2  -3 306.145 122.247   5
   5   2  -2 443.987 119.055   5
   5   2  -1 1051.18 148.394   5
   5   2   0 822.440 148.327   5
   5   2   1-49.7085 140.871   5
   5   2   2 348.258 154.032   5
   5   2   6 847.482 175.560   3
   5   3  -8 499.524 189.769   3
   5   3  -7 127.315 180.641   3
   5   3  -6 178.596 134.644   5
   5   3  -6 260.954 147.766   3
   5   3  -5-83.0497 145.635   5
   5   3  -5 95.6993 148.839   3
   5   3  -4 595.091 137.914   5
   5   3  -4 327.343 151.256   3
   5   3  -3 485.958 138.159   5
   5   3  -3 656.362 146.919   3
   5   3  -2 540.113 140.716   5
   5   3  -2 314.280 137.421   3
   5   3  -1 80.2174 140.245   3
   5   3   0 454.496 150.799   5
   5   3   0 445.281 148.706   3
   5   3   1 743.369 159.294   3
   5   3   1 1258.35 175.880   5
   5   3   2 301.248 166.736   5
   5   3   2 499.744 148.858   3
   5   3   3-80.9971 174.572   5
   5   3   3 235.044 146.923   3
   5   3   4 89.6356 147.338   3
   5   4  -4 143.033 149.516   5
   5   4  -4-5.35735 157.862   3
   5   4  -3 308.230 153.203   5
   5   4  -3 78.0954 153.682   3
   5   4  -2 13.7273 148.839   3
   5   4  -1 529.846 158.428   5
   5   4  -1 421.696 152.066   3
   5   4   0 323.109 155.030   5
   5   4   0-85.1534 156.381   3
   6  -8  -1 127.971 157.189   1
   6  -7  -6 552.420 150.723   1
   6  -7  -5-5.38266 154.755   1
   6  -7  -4 414.471 160.211   1
   6  -7  -3 517.618 165.272   1
   6  -7  -2 182.399 151.238   1
   6  -7  -1 847.799 159.518   1
   6  -7   0 407.614 151.468   1
   6  -7   1 490.526 154.042   1
   6  -7   2 215.680 157.292   1
   6  -6  -7 980.362 176.475   1
   6  -6  -6 87.8951 147.157   1
   6  -6  -5 263.768 144.942   1
   6  -6  -4 194.594 150.479   1
   6  -6  -3 95.5248 147.369   1
   6  -6  -2 686.597 155.253   1
   6  -6  -1 291.494 143.062   1
   6  -6   0 1110.48 160.655   1
   6  -6   3 426.669 157.013   1
   6  -6   4 547.752 162.404   1
   6  -6   5 707.909 172.235   1
   6  -5  -7 373.321 164.518   1
   6  -5  -7 115.403 146.155   3
   6  -5  -6 867.406 164.083   1
   6  -5  -6 843.284 144.207   3
   6  -5  -5 949.740 149.716   1
   6  -5  -5 1069.67 147.884   3
   6  -5  -4 898.860 150.727   1
   6  -5  -4 994.570 148.635   3
   6  -5  -3 400.443 143.419   1
   6  -5  -3 466.605 122.225   3
   6  -5  -2 111.825 140.339   1
   6  -5  -2-119.172 113.634   3
   6  -5  -1 2840.27 227.115   1
   6  -5  -1 2689.36 205.127   3
   6  -5   0 515.351 112.920   3
   6  -5   1 2279.01 183.943   3
   6  -5   2 124.602 138.817   1
   6  -5   2 219.137 112.042   3
   6  -5   3 2511.47 198.494   3
   6  -5   3 2712.85 218.437   1
   6  -5   4 1243.48 148.933   3
   6  -5   4 1446.26 175.817   1
   6  -5   5 1603.01 165.628   3
   6  -5   5 1558.19 187.653   1
   6  -5   6 617.113 164.414   1
   6  -5   6 651.925 143.583   3
   6  -4  -9 117.590 160.016   3
   6  -4  -8 915.692 163.881   3
   6  -4  -7 953.627 154.532   3
   6  -4  -6 75.4288 152.277   1
   6  -4  -6 92.9127 156.143   3
   6  -4  -5 140.265 144.233   1
   6  -4  -5 307.338 145.043   3
   6  -4  -4 1318.41 151.963   1
   6  -4  -4 1245.95 153.017   3
   6  -4  -3 1100.58 152.079   1
   6  -4  -3 971.982 140.544   3
   6  -4  -2 489.060 122.361   3
   6  -4  -1 249.980 110.757   3
   6  -4   0 1485.59 171.860   1
   6  -4   0 1402.10 149.509   3
   6  -4   1-5.72306 137.032   1
   6  -4   1 192.697 114.330   3
   6  -4   2 548.901 117.771   3
   6  -4   2 464.641 140.125   1
   6  -4   3 729.236 127.030   3
   6  -4   3 678.587 147.487   1
   6  -4   4 1981.50 180.533   3
   6  -4   4 2159.22 194.681   1
   6  -4   5 420.755 151.181   1
   6  -4   5 496.583 138.280   3
   6  -4   6 775.820 158.497   1
   6  -4   6 487.030 149.938   3
   6  -3  -9 238.540 156.620   3
   6  -3  -8 257.664 150.026   3
   6  -3  -7 437.645 167.167   3
   6  -3  -6 136.948 149.670   3
   6  -3  -5 2238.17 208.339   1
   6  -3  -5 2256.99 194.587   3
   6  -3  -4 204.424 131.909   3
   6  -3  -3 1271.75 152.021   3
   6  -3  -2 873.151 140.764   1
   6  -3  -2 893.273 128.777   3
   6  -3  -1 3645.18 253.832   1
   6  -3  -1 3303.72 243.098   3
   6  -3   0 4272.94 286.363   1
   6  -3   0 3985.52 279.734   3
   6  -3   1 740.619 148.556   1
   6  -3   1 537.948 125.963   3
   6  -3   2 1649.35 175.125   1
   6  -3   2 1481.40 151.208   3
   6  -3   3 1100.00 154.243   1
   6  -3   3 988.133 136.708   3
   6  -3   4-106.038 128.411   3
   6  -3   4 98.1317 141.032   1
   6  -3   5 2498.65 211.457   3
   6  -3   5 2338.88 208.126   1
   6  -3   6 253.010 143.600   1
   6  -3   6 196.496 147.925   3
   6  -2  -9 134.031 154.992   3
   6  -2  -8 300.218 165.634   3
   6  -2  -7 53.9135 169.107   3
   6  -2  -6 1255.33 186.804   3
   6  -2  -5 481.232 138.263   3
   6  -2  -4 1918.15 191.146   1
   6  -2  -4 1874.02 177.982   3
   6  -2  -3 349.293 139.445   1
   6  -2  -3 277.588 125.970   3
   6  -2  -2 1125.07 142.436   3
   6  -2  -2 1400.01 160.191   1
   6  -2  -1 1402.12 152.497   3
   6  -2  -1 1254.35 152.801   1
   6  -2   0 262.612 122.559   3
   6  -2   0 246.303 127.994   1
   6  -2   1 2747.87 216.385   1
   6  -2   1 2584.60 207.561   3
   6  -2   2 3432.65 242.689   1
   6  -2   2 3034.33 234.141   3
   6  -2   3 2367.08 198.677   1
   6  -2   3 1929.27 184.504   3
   6  -2   4 221.296 146.231   1
   6  -2   4 67.4308 131.930   3
   6  -2   5 447.259 149.214   1
   6  -2   5 440.041 149.190   3
   6  -2   6 1869.90 188.247   1
   6  -2   6 1763.96 196.259   3
   6  -1  -9 189.655 164.786   3
   6  -1  -8 198.000 214.796   3
   6  -1  -7 634.604 167.693   3
   6  -1  -6 172.314 141.263   3
   6  -1  -5 1515.60 175.839   3
   6  -1  -4 32.5649 138.806   3
   6  -1  -3 156.571 127.109   3
   6  -1  -2 477.516 143.992   1
   6  -1  -2 332.255 123.553   3
   6  -1  -1 2697.08 207.922   1
   6  -1  -1 2172.65 199.662   3
   6  -1   0 630.102 137.946   3
   6  -1   0 813.646 149.027   1
   6  -1   1 783.742 143.926   1
   6  -1   1 400.737 134.306   3
   6  -1   2 296.508 125.342   1
   6  -1   2 455.281 129.163   3
   6  -1   3 537.588 138.251   3
   6  -1   3 548.351 136.723   1
   6  -1   4 613.324 142.128   1
   6  -1   4 413.732 142.413   3
   6  -1   5 115.902 143.707   1
   6  -1   5 29.9245 148.692   3
   6  -1   6 24.2157 142.539   1
   6  -1   6-235.745 162.556   3
   6   0  -8 153.079 184.909   3
   6   0  -7 232.120 174.367   3
   6   0  -6 92.8530 142.191   3
   6   0  -5 106.606 138.717   3
   6   0  -4 414.918 146.049   3
   6   0  -3 55.1856 129.314   3
   6   0  -2 526.792 128.313   3
   6   0  -1 103.455 134.714   3
   6   0   0 606.020 132.463   5
   6   0   0 573.131 143.842   3
   6   0   1 1058.36 161.359   1
   6   0   1 1138.70 156.335   3
   6   0   2 1355.46 165.769   1
   6   0   2 1094.95 154.729   3
   6   0   3 1014.73 157.777   1
   6   0   3 842.410 154.811   3
   6   0   4 1123.10 156.660   1
   6   0   4 757.686 159.932   3
   6   0   5 873.657 161.641   3
   6   1  -7 790.576 200.657   3
   6   1  -6 304.632 155.570   3
   6   1  -5 478.780 157.808   3
   6   1  -4 302.443 156.848   3
   6   1  -3-74.4190 143.147   3
   6   1  -2 13.5007 133.766   3
   6   1  -1 222.902 146.782   3
   6   1   0 417.298 148.426   5
   6   1   0 403.619 153.721   3
   6   1   1 655.978 154.938   5
   6   1   1 462.242 152.070   3
   6   1   2 370.471 162.229   5
   6   1   2 205.168 144.558   3
   6   1   3 65.1065 151.422   3
   6   2   0 198.515 155.790   5
   7  -6  -2 520.602 175.811   1
   7  -6  -1 467.669 177.934   1
   7  -5  -5 179.979 171.169   1
   7  -5  -4 217.847 152.389   1
   7  -5  -3 97.6207 156.951   1
   7  -5   0 72.2664 171.305   1
   7  -5   1 778.035 181.387   1
   7  -4  -6 440.647 180.574   1
   7  -4  -5 268.285 173.431   1
   7  -4  -5 289.378 175.168   3
   7  -4  -4 911.314 157.774   3
   7  -4  -3 313.916 142.865   3
   7  -4  -2 1214.81 168.500   1
   7  -4  -2 880.056 158.037   3
   7  -4  -1 225.822 158.938   1
   7  -4  -1 223.492 137.908   3
   7  -4   0 353.939 164.083   1
   7  -4   0 273.288 141.402   3
   7  -4   1 1407.83 185.951   1
   7  -4   1 854.864 162.291   3
   7  -4   2 353.318 171.083   1
   7  -4   2 10.0042 142.844   3
   7  -3  -6-199.414 180.998   3
   7  -3  -5 461.995 154.582   3
   7  -3  -4 461.921 183.048   1
   7  -3  -4 605.560 161.097   3
   7  -3  -3 394.975 167.602   1
   7  -3  -3 216.110 154.197   3
   7  -3  -2 718.073 165.985   1
   7  -3  -2 340.597 149.015   3
   7  -3  -1-21.1364 146.240   1
   7  -3  -1 70.5127 134.978   3
   7  -3   0 186.200 147.017   3
   7  -3   0 311.387 153.930   1
   7  -3   1 343.106 160.845   1
   7  -3   1 406.266 149.630   3
   7  -3   2 743.662 170.308   1
   7  -3   2 364.647 152.247   3
   7  -2  -5 725.755 172.646   3
   7  -2  -4 134.677 154.584   3
   7  -2  -3 250.156 170.681   1
   7  -2  -3 297.734 153.268   3
   7  -2  -2 1427.16 194.119   1
   7  -2  -2 1251.71 172.217   3
   7  -2  -1 279.071 165.401   1
   7  -2  -1 196.364 144.562   3
   7  -2   0-166.341 164.855   1
   7  -2   0-41.3093 154.728   3
   7  -2   1 533.177 159.317   1
   7  -2   1 510.883 159.423   3
   7  -1  -4 351.870 166.976   3
   7  -1  -3 338.808 159.638   3
   7  -1  -2 164.395 151.731   3
   7  -1  -1 583.281 160.464   3
   7  -1   0 95.1519 169.507   1
   7  -1   0 54.6580 164.352   3
   0   0   0    0.00    0.00   0

TITL lou123R in P1
REM P1 (#1 in standard setting)
CELL 0.71073   6.167081   8.027401  12.386848  91.4930  97.3052 111.4500
ZERR    1.00   0.000452   0.000567   0.000949   0.0060   0.0062   0.0067
LATT -1
SFAC C H N O Br
UNIT 27.00 25.00 2.00 1.00 1.00
TREF
HKLF 4
END
;
_shelx_hkl_checksum              28792
loop_
_space_group_symop_operation_xyz
'x, y, z'
loop_
_atom_site_label
_atom_site_type_symbol
_atom_site_fract_x
_atom_site_fract_y
_atom_site_fract_z
_atom_site_U_iso_or_equiv
_atom_site_adp_type
_atom_site_occupancy
_atom_site_site_symmetry_order
_atom_site_calc_flag
_atom_site_refinement_flags_posn
_atom_site_refinement_flags_adp
Br1 Br 0.04545(6) 0.88102(6) 0.62131(5) 0.0670(4) Uani 1 1 d . .
N1 N 0.6015(9) 0.2719(7) 1.1961(4) 0.0309(12) Uani 1 1 d . .
N2 N 0.8955(9) 0.4247(7) 1.1086(4) 0.0311(12) Uani 1 1 d . .
O1 O 0.4327(10) 0.4740(7) 0.9431(4) 0.0422(12) Uani 1 1 d . .
C1 C 0.5269(12) 0.2180(10) 0.9902(6) 0.0366(15) Uani 1 1 d . .
C2 C 0.6318(14) 0.0894(11) 0.9467(7) 0.0465(18) Uani 1 1 d . .
H2A H 0.544981 0.034607 0.874675 0.070 Uiso 1 1 calc R U
H2B H 0.620110 -0.004753 0.997015 0.070 Uiso 1 1 calc R U
H2C H 0.797776 0.155725 0.940290 0.070 Uiso 1 1 calc R U
C3 C 0.6765(11) 0.3108(9) 1.0984(5) 0.0312(14) Uani 1 1 d . .
C4 C 0.3662(13) 0.1490(10) 1.2119(6) 0.0402(16) Uani 1 1 d . .
H4A H 0.265845 0.218223 1.223223 0.048 Uiso 1 1 calc R U
H4B H 0.378262 0.083175 1.277526 0.048 Uiso 1 1 calc R U
C5 C 0.2557(13) 0.0164(10) 1.1120(6) 0.0433(17) Uani 1 1 d . .
H5A H 0.339940 -0.067164 1.108092 0.052 Uiso 1 1 calc R U
H5B H 0.088862 -0.055026 1.117602 0.052 Uiso 1 1 calc R U
C6 C 0.2702(12) 0.1178(10) 1.0099(6) 0.0398(16) Uani 1 1 d . .
H6A H 0.193155 0.205706 1.016392 0.048 Uiso 1 1 calc R U
H6B H 0.182917 0.032135 0.946010 0.048 Uiso 1 1 calc R U
C7 C 0.9691(11) 0.4643(9) 1.2199(5) 0.0316(14) Uani 1 1 d . .
C8 C 0.7895(11) 0.3704(9) 1.2754(6) 0.0324(14) Uani 1 1 d . .
C9 C 1.2070(11) 0.5938(9) 1.2608(5) 0.0317(14) Uani 1 1 d . .
C10 C 1.2578(12) 0.7042(9) 1.3578(6) 0.0347(15) Uani 1 1 d . .
H10 H 1.135950 0.696295 1.399670 0.042 Uiso 1 1 calc R U
C11 C 1.4845(13) 0.8241(10) 1.3924(6) 0.0411(17) Uani 1 1 d . .
H11 H 1.517146 0.897483 1.458471 0.049 Uiso 1 1 calc R U
C12 C 1.6646(13) 0.8395(10) 1.3329(6) 0.0430(18) Uani 1 1 d . .
H12 H 1.819551 0.922869 1.357913 0.052 Uiso 1 1 calc R U
C13 C 1.6187(13) 0.7331(10) 1.2366(6) 0.0425(18) Uani 1 1 d . .
H13 H 1.741777 0.742598 1.195185 0.051 Uiso 1 1 calc R U
C14 C 1.3915(12) 0.6125(9) 1.2012(6) 0.0334(14) Uani 1 1 d . .
H14 H 1.360214 0.540568 1.134611 0.040 Uiso 1 1 calc R U
C15 C 0.7734(11) 0.3544(9) 1.3931(6) 0.0332(14) Uani 1 1 d . .
C16 C 0.5946(13) 0.3851(10) 1.4384(6) 0.0395(16) Uani 1 1 d . .
H16 H 0.485580 0.422356 1.394161 0.047 Uiso 1 1 calc R U
C17 C 0.5745(14) 0.3615(12) 1.5482(6) 0.0480(19) Uani 1 1 d . .
H17 H 0.450011 0.379887 1.578451 0.058 Uiso 1 1 calc R U
C18 C 0.7353(14) 0.3116(11) 1.6127(6) 0.0470(18) Uani 1 1 d . .
H18 H 0.721704 0.295465 1.687588 0.056 Uiso 1 1 calc R U
C19 C 0.9156(13) 0.2848(10) 1.5697(6) 0.0417(17) Uani 1 1 d . .
H19 H 1.027847 0.252693 1.615395 0.050 Uiso 1 1 calc R U
C20 C 0.9346(12) 0.3043(9) 1.4603(6) 0.0355(15) Uani 1 1 d . .
H20 H 1.058267 0.283503 1.430794 0.043 Uiso 1 1 calc R U
C21 C 0.5343(13) 0.3541(10) 0.9060(5) 0.0387(16) Uani 1 1 d . .
H21A H 0.699497 0.421910 0.895665 0.046 Uiso 1 1 calc R U
H21B H 0.445372 0.291228 0.834941 0.046 Uiso 1 1 calc R U
C22 C 0.3548(13) 0.5681(10) 0.8669(6) 0.0373(15) Uani 1 1 d . .
C23 C 0.4405(13) 0.6060(11) 0.7692(6) 0.0403(16) Uani 1 1 d . .
H23 H 0.560989 0.566886 0.751953 0.048 Uiso 1 1 calc R U
C24 C 0.3510(13) 0.7016(10) 0.6956(6) 0.0404(16) Uani 1 1 d . .
H24 H 0.411891 0.730506 0.628878 0.049 Uiso 1 1 calc R U
C25 C 0.1726(13) 0.7535(10) 0.7213(6) 0.0429(17) Uani 1 1 d . .
C26 C 0.0873(12) 0.7180(9) 0.8192(6) 0.0396(16) Uani 1 1 d . .
H26 H -0.032741 0.757496 0.836613 0.048 Uiso 1 1 calc R U
C27 C 0.1796(12) 0.6235(9) 0.8922(6) 0.0360(15) Uani 1 1 d . .
H27 H 0.121382 0.597140 0.959779 0.043 Uiso 1 1 calc R U
loop_
_atom_site_aniso_label
_atom_site_aniso_U_11
_atom_site_aniso_U_22
_atom_site_aniso_U_33
_atom_site_aniso_U_23
_atom_site_aniso_U_13
_atom_site_aniso_U_12
Br1 0.0781(7) 0.0813(6) 0.0486(5) 0.0200(4) -0.0015(4) 0.0402(5)
N1 0.025(3) 0.040(3) 0.026(3) 0.006(2) 0.003(2) 0.009(2)
N2 0.026(3) 0.042(3) 0.022(3) 0.004(2) 0.001(2) 0.009(2)
O1 0.057(3) 0.055(3) 0.020(2) 0.003(2) 0.003(2) 0.030(3)
C1 0.029(3) 0.049(4) 0.025(3) 0.002(3) -0.003(3) 0.009(3)
C2 0.038(4) 0.057(4) 0.039(4) -0.010(3) -0.008(3) 0.016(3)
C3 0.029(3) 0.044(3) 0.023(3) 0.004(3) 0.002(3) 0.016(3)
C4 0.034(4) 0.046(4) 0.038(4) 0.012(3) 0.003(3) 0.012(3)
C5 0.032(4) 0.044(4) 0.046(4) 0.010(3) 0.003(3) 0.005(3)
C6 0.033(4) 0.044(4) 0.034(4) -0.001(3) -0.007(3) 0.008(3)
C7 0.027(3) 0.043(4) 0.023(3) 0.004(3) 0.001(3) 0.012(3)
C8 0.024(3) 0.044(4) 0.027(3) 0.005(3) -0.001(3) 0.011(3)
C9 0.031(3) 0.043(3) 0.020(3) 0.010(3) 0.005(3) 0.011(3)
C10 0.033(4) 0.042(4) 0.026(3) 0.006(3) 0.005(3) 0.010(3)
C11 0.042(4) 0.045(4) 0.028(4) 0.001(3) -0.005(3) 0.010(3)
C12 0.031(4) 0.043(4) 0.042(4) 0.005(3) -0.006(3) 0.003(3)
C13 0.031(4) 0.053(4) 0.044(5) 0.020(4) 0.011(3) 0.014(3)
C14 0.033(4) 0.041(3) 0.026(3) 0.006(3) 0.003(3) 0.013(3)
C15 0.028(3) 0.041(4) 0.028(3) 0.006(3) 0.002(3) 0.010(3)
C16 0.035(4) 0.056(4) 0.030(4) 0.004(3) 0.004(3) 0.021(3)
C17 0.038(4) 0.074(5) 0.034(4) 0.004(4) 0.011(3) 0.021(4)
C18 0.050(4) 0.064(5) 0.023(4) 0.008(3) 0.006(3) 0.016(4)
C19 0.042(4) 0.049(4) 0.027(4) 0.005(3) -0.005(3) 0.013(3)
C20 0.030(4) 0.046(4) 0.026(3) 0.005(3) 0.003(3) 0.009(3)
C21 0.035(4) 0.057(4) 0.019(3) 0.003(3) 0.000(3) 0.013(3)
C22 0.040(4) 0.046(4) 0.022(3) 0.002(3) -0.003(3) 0.014(3)
C23 0.035(4) 0.058(4) 0.024(4) 0.001(3) 0.003(3) 0.014(3)
C24 0.038(4) 0.050(4) 0.028(3) 0.007(3) 0.001(3) 0.012(3)
C25 0.041(4) 0.045(4) 0.033(4) 0.006(3) -0.006(3) 0.009(3)
C26 0.030(3) 0.041(4) 0.042(4) -0.002(3) -0.003(3) 0.009(3)
C27 0.032(4) 0.045(4) 0.024(3) 0.002(3) 0.000(3) 0.009(3)
loop_
_atom_type_symbol
_atom_type_description
_atom_type_scat_dispersion_real
_atom_type_scat_dispersion_imag
_atom_type_scat_source
C C 0.0033 0.0016 'International Tables Vol C Tables 4.2.6.8 and 6.1.1.4'
H H 0.0000 0.0000 'International Tables Vol C Tables 4.2.6.8 and 6.1.1.4'
N N 0.0061 0.0033 'International Tables Vol C Tables 4.2.6.8 and 6.1.1.4'
O O 0.0106 0.0060 'International Tables Vol C Tables 4.2.6.8 and 6.1.1.4'
Br Br -0.2901 2.4595 'International Tables Vol C Tables 4.2.6.8 and 6.1.1.4'
loop_
_geom_angle_atom_site_label_1
_geom_angle_atom_site_label_2
_geom_angle_atom_site_label_3
_geom_angle
C3 N1 C8 106.5(5)
C3 N1 C4 125.4(6)
C8 N1 C4 128.1(6)
C3 N2 C7 105.7(5)
C22 O1 C21 117.6(5)
C21 C1 C2 107.5(6)
C21 C1 C3 110.8(6)
C2 C1 C3 108.1(6)
C21 C1 C6 109.9(6)
C2 C1 C6 111.6(6)
C3 C1 C6 109.0(6)
C1 C2 H2A 109.5
C1 C2 H2B 109.5
H2A C2 H2B 109.5
C1 C2 H2C 109.5
H2A C2 H2C 109.5
H2B C2 H2C 109.5
N2 C3 N1 112.3(6)
N2 C3 C1 124.7(6)
N1 C3 C1 122.7(6)
N1 C4 C5 109.6(6)
N1 C4 H4A 109.8
C5 C4 H4A 109.8
N1 C4 H4B 109.8
C5 C4 H4B 109.8
H4A C4 H4B 108.2
C6 C5 C4 109.5(6)
C6 C5 H5A 109.8
C4 C5 H5A 109.8
C6 C5 H5B 109.8
C4 C5 H5B 109.8
H5A C5 H5B 108.2
C5 C6 C1 112.4(6)
C5 C6 H6A 109.1
C1 C6 H6A 109.1
C5 C6 H6B 109.1
C1 C6 H6B 109.1
H6A C6 H6B 107.8
C8 C7 N2 109.5(6)
C8 C7 C9 130.2(6)
N2 C7 C9 120.2(5)
C7 C8 N1 105.9(6)
C7 C8 C15 132.7(6)
N1 C8 C15 121.3(5)
C14 C9 C10 117.8(6)
C14 C9 C7 119.8(6)
C10 C9 C7 122.4(6)
C11 C10 C9 120.1(7)
C11 C10 H10 120.0
C9 C10 H10 120.0
C12 C11 C10 121.2(7)
C12 C11 H11 119.4
C10 C11 H11 119.4
C11 C12 C13 119.8(7)
C11 C12 H12 120.1
C13 C12 H12 120.1
C12 C13 C14 119.3(7)
C12 C13 H13 120.3
C14 C13 H13 120.3
C13 C14 C9 121.7(7)
C13 C14 H14 119.1
C9 C14 H14 119.1
C16 C15 C20 118.7(6)
C16 C15 C8 120.9(6)
C20 C15 C8 120.3(6)
C17 C16 C15 120.4(7)
C17 C16 H16 119.8
C15 C16 H16 119.8
C18 C17 C16 119.7(7)
C18 C17 H17 120.2
C16 C17 H17 120.2
C19 C18 C17 120.6(7)
C19 C18 H18 119.7
C17 C18 H18 119.7
C18 C19 C20 120.3(7)
C18 C19 H19 119.9
C20 C19 H19 119.9
C19 C20 C15 120.3(7)
C19 C20 H20 119.9
C15 C20 H20 119.9
O1 C21 C1 109.0(5)
O1 C21 H21A 109.9
C1 C21 H21A 109.9
O1 C21 H21B 109.9
C1 C21 H21B 109.9
H21A C21 H21B 108.3
O1 C22 C27 116.1(6)
O1 C22 C23 123.6(7)
C27 C22 C23 120.3(7)
C22 C23 C24 120.2(7)
C22 C23 H23 119.9
C24 C23 H23 119.9
C25 C24 C23 118.9(7)
C25 C24 H24 120.6
C23 C24 H24 120.6
C26 C25 C24 121.4(7)
C26 C25 Br1 119.0(6)
C24 C25 Br1 119.5(6)
C25 C26 C27 119.0(7)
C25 C26 H26 120.5
C27 C26 H26 120.5
C22 C27 C26 120.2(7)
C22 C27 H27 119.9
C26 C27 H27 119.9
loop_
_geom_bond_atom_site_label_1
_geom_bond_atom_site_label_2
_geom_bond_distance
Br1 C25 1.896(7)
N1 C3 1.353(9)
N1 C8 1.390(9)
N1 C4 1.466(9)
N2 C3 1.312(9)
N2 C7 1.385(8)
O1 C22 1.370(9)
O1 C21 1.421(9)
C1 C21 1.522(10)
C1 C2 1.523(11)
C1 C3 1.526(10)
C1 C6 1.545(10)
C2 H2A 0.9800
C2 H2B 0.9800
C2 H2C 0.9800
C4 C5 1.521(12)
C4 H4A 0.9900
C4 H4B 0.9900
C5 C6 1.516(11)
C5 H5A 0.9900
C5 H5B 0.9900
C6 H6A 0.9900
C6 H6B 0.9900
C7 C8 1.370(10)
C7 C9 1.468(10)
C8 C15 1.479(10)
C9 C14 1.399(10)
C9 C10 1.404(10)
C10 C11 1.380(10)
C10 H10 0.9500
C11 C12 1.379(11)
C11 H11 0.9500
C12 C13 1.384(12)
C12 H12 0.9500
C13 C14 1.386(11)
C13 H13 0.9500
C14 H14 0.9500
C15 C16 1.392(10)
C15 C20 1.393(10)
C16 C17 1.392(11)
C16 H16 0.9500
C17 C18 1.373(12)
C17 H17 0.9500
C18 C19 1.372(12)
C18 H18 0.9500
C19 C20 1.383(10)
C19 H19 0.9500
C20 H20 0.9500
C21 H21A 0.9900
C21 H21B 0.9900
C22 C27 1.376(11)
C22 C23 1.378(10)
C23 C24 1.392(11)
C23 H23 0.9500
C24 C25 1.378(11)
C24 H24 0.9500
C25 C26 1.378(11)
C26 C27 1.391(10)
C26 H26 0.9500
C27 H27 0.9500
loop_
_geom_torsion_atom_site_label_1
_geom_torsion_atom_site_label_2
_geom_torsion_atom_site_label_3
_geom_torsion_atom_site_label_4
_geom_torsion
C7 N2 C3 N1 -0.4(7)
C7 N2 C3 C1 -175.2(6)
C8 N1 C3 N2 0.2(8)
C4 N1 C3 N2 -179.8(6)
C8 N1 C3 C1 175.2(6)
C4 N1 C3 C1 -4.9(10)
C21 C1 C3 N2 -50.4(9)
C2 C1 C3 N2 67.1(9)
C6 C1 C3 N2 -171.4(6)
C21 C1 C3 N1 135.2(7)
C2 C1 C3 N1 -107.2(7)
C6 C1 C3 N1 14.2(9)
C3 N1 C4 C5 23.3(9)
C8 N1 C4 C5 -156.7(6)
N1 C4 C5 C6 -51.2(8)
C4 C5 C6 C1 64.9(8)
C21 C1 C6 C5 -165.3(6)
C2 C1 C6 C5 75.6(8)
C3 C1 C6 C5 -43.7(8)
C3 N2 C7 C8 0.4(7)
C3 N2 C7 C9 -178.2(6)
N2 C7 C8 N1 -0.3(8)
C9 C7 C8 N1 178.1(7)
N2 C7 C8 C15 176.6(7)
C9 C7 C8 C15 -4.9(13)
C3 N1 C8 C7 0.1(7)
C4 N1 C8 C7 -179.9(6)
C3 N1 C8 C15 -177.3(6)
C4 N1 C8 C15 2.7(10)
C8 C7 C9 C14 151.1(7)
N2 C7 C9 C14 -30.6(9)
C8 C7 C9 C10 -30.2(11)
N2 C7 C9 C10 148.1(6)
C14 C9 C10 C11 -1.0(10)
C7 C9 C10 C11 -179.8(6)
C9 C10 C11 C12 0.5(11)
C10 C11 C12 C13 -0.1(11)
C11 C12 C13 C14 0.1(11)
C12 C13 C14 C9 -0.7(11)
C10 C9 C14 C13 1.1(10)
C7 C9 C14 C13 179.9(7)
C7 C8 C15 C16 127.6(9)
N1 C8 C15 C16 -55.8(9)
C7 C8 C15 C20 -53.8(11)
N1 C8 C15 C20 122.7(7)
C20 C15 C16 C17 -1.6(11)
C8 C15 C16 C17 177.0(7)
C15 C16 C17 C18 1.5(12)
C16 C17 C18 C19 0.0(12)
C17 C18 C19 C20 -1.3(12)
C18 C19 C20 C15 1.1(11)
C16 C15 C20 C19 0.3(10)
C8 C15 C20 C19 -178.3(7)
C22 O1 C21 C1 -159.8(6)
C2 C1 C21 O1 178.7(6)
C3 C1 C21 O1 -63.3(7)
C6 C1 C21 O1 57.1(7)
C21 O1 C22 C27 154.7(6)
C21 O1 C22 C23 -24.6(10)
O1 C22 C23 C24 179.6(7)
C27 C22 C23 C24 0.3(11)
C22 C23 C24 C25 -1.4(11)
C23 C24 C25 C26 2.2(11)
C23 C24 C25 Br1 -179.2(5)
C24 C25 C26 C27 -1.7(11)
Br1 C25 C26 C27 179.6(5)
O1 C22 C27 C26 -179.2(6)
C23 C22 C27 C26 0.1(11)
C25 C26 C27 C22 0.6(10)
