#------------------------------------------------------------------------------
#$Date: 2020-05-08 15:45:35 +0300 (Fri, 08 May 2020) $
#$Revision: 251919 $
#$URL: file:///home/coder/svn-repositories/cod/cif/4/13/49/4134932.cif $
#------------------------------------------------------------------------------
#
# This file is available in the Crystallography Open Database (COD),
# http://www.crystallography.net/
#
# All data on this site have been placed in the public domain by the
# contributors.
#
data_4134932
loop_
_publ_author_name
'Santos Hurtado, Carina'
'Bastien, Guillaume'
'Ma\<s\'at, Milan'
'Sto\<cek, Jakub Radek'
'Dracinsky, Martin'
'Ron\<cevi\'c, Igor'
'C\'isa\<rov\'a, Ivana'
'Rogers, Charles T.'
'Kaleta, Ji\<r\'i'
_publ_section_title
;
 Regular 2-D Arrays of Surface-Mounted Molecular Switches: Switching
 Monitored by UV-vis and NMR Spectroscopy.
;
_journal_name_full               'Journal of the American Chemical Society'
_journal_paper_doi               10.1021/jacs.0c01753
_journal_year                    2020
_chemical_compound_source        'synthesized by Dr. Carina Santos Hurtado'
_chemical_formula_moiety         'C12 H6 Cl4 N2 O2'
_chemical_formula_sum            'C12 H6 Cl4 N2 O2'
_chemical_formula_weight         351.99
_space_group_crystal_system      monoclinic
_space_group_IT_number           14
_space_group_name_Hall           '-P 2ybc'
_space_group_name_H-M_alt        'P 1 21/c 1'
_atom_sites_solution_hydrogens   geom
_atom_sites_solution_primary     direct
_audit_creation_method           SHELXL-2018/3
_cell_angle_alpha                90
_cell_angle_beta                 100.577(5)
_cell_angle_gamma                90
_cell_formula_units_Z            2
_cell_length_a                   7.2162(10)
_cell_length_b                   7.3078(11)
_cell_length_c                   12.8297(15)
_cell_measurement_reflns_used    4298
_cell_measurement_temperature    150(2)
_cell_measurement_theta_max      27.5107
_cell_measurement_theta_min      3.2218
_cell_volume                     665.07(16)
_computing_cell_refinement       'SAINT V8.37A (Bruker AXS Inc., 2015)'
_computing_data_collection       'Bruker Instrument Service vV6.2.4'
_computing_data_reduction        'SAINT V8.37A (Bruker AXS Inc., 2015)'
_computing_structure_refinement  'SHELXL-2018/3 (Sheldrick, 2018)'
_computing_structure_solution    'XT, VERSION 2014/5'
_diffrn_ambient_temperature      150(2)
_diffrn_measured_fraction_theta_full 0.999
_diffrn_measured_fraction_theta_max 0.996
_diffrn_measurement_device_type  'Bruker D8 VENTURE Kappa Duo PHOTON 100 CMOS'
_diffrn_measurement_method       '\f and \w scans'
_diffrn_radiation_monochromator  'Quazar Mo multilayer optic'
_diffrn_radiation_type           MoK\a
_diffrn_radiation_wavelength     0.71073
_diffrn_reflns_av_R_equivalents  0.0369
_diffrn_reflns_av_unetI/netI     0.0315
_diffrn_reflns_Laue_measured_fraction_full 0.999
_diffrn_reflns_Laue_measured_fraction_max 0.996
_diffrn_reflns_limit_h_max       9
_diffrn_reflns_limit_h_min       -9
_diffrn_reflns_limit_k_max       9
_diffrn_reflns_limit_k_min       -8
_diffrn_reflns_limit_l_max       15
_diffrn_reflns_limit_l_min       -16
_diffrn_reflns_number            6960
_diffrn_reflns_point_group_measured_fraction_full 0.999
_diffrn_reflns_point_group_measured_fraction_max 0.996
_diffrn_reflns_theta_full        25.242
_diffrn_reflns_theta_max         27.569
_diffrn_reflns_theta_min         2.872
_diffrn_source                   'I\mS  micro-focus sealed tube'
_exptl_absorpt_coefficient_mu    0.890
_exptl_absorpt_correction_T_max  0.94
_exptl_absorpt_correction_T_min  0.85
_exptl_absorpt_correction_type   multi-scan
_exptl_absorpt_process_details
;
SADABS-2016/2 - Bruker AXS area detector scaling and absorption correction
;
_exptl_crystal_colour            yellow-colourless
_exptl_crystal_density_diffrn    1.758
_exptl_crystal_description       plate
_exptl_crystal_F_000             352
_exptl_crystal_size_max          0.219
_exptl_crystal_size_mid          0.154
_exptl_crystal_size_min          0.072
_refine_diff_density_max         0.658
_refine_diff_density_min         -0.249
_refine_diff_density_rms         0.066
_refine_ls_extinction_method     none
_refine_ls_goodness_of_fit_ref   1.078
_refine_ls_hydrogen_treatment    constr
_refine_ls_matrix_type           full
_refine_ls_number_parameters     91
_refine_ls_number_reflns         1538
_refine_ls_number_restraints     0
_refine_ls_restrained_S_all      1.078
_refine_ls_R_factor_all          0.0434
_refine_ls_R_factor_gt           0.0311
_refine_ls_shift/su_max          0.001
_refine_ls_shift/su_mean         0.000
_refine_ls_structure_factor_coef Fsqd
_refine_ls_weighting_details
'w=1/[\s^2^(Fo^2^)+(0.0262P)^2^+0.5751P] where P=(Fo^2^+2Fc^2^)/3'
_refine_ls_weighting_scheme      calc
_refine_ls_wR_factor_gt          0.0714
_refine_ls_wR_factor_ref         0.0760
_reflns_Friedel_coverage         0.000
_reflns_number_gt                1259
_reflns_number_total             1538
_reflns_threshold_expression     'I > 2\s(I)'
_cod_data_source_file            ja0c01753_si_003.cif
_cod_data_source_block           07_mo_jk_5f_kaleta
_cod_original_sg_symbol_H-M      'P 21/c'
_cod_database_code               4134932
_shelx_shelxl_version_number     2018/3
_shelx_space_group_comment
;
The symmetry employed for this shelxl refinement is uniquely defined
by the following loop, which should always be used as a source of
symmetry information in preference to the above space-group names.
They are only intended as comments.
;
_shelx_estimated_absorpt_t_min   0.829
_shelx_estimated_absorpt_t_max   0.939
_shelx_res_file
;
TITL mo_jk_5f_kaleta_0m_a.res in P2(1)/c
    mo_jk_5f_kaleta.res
    created by SHELXL-2018/3 at 13:54:47 on 05-Sep-2019
REM Old TITL mo_jk_5f_kaleta_0m in P2(1)/c
REM SHELXT solution in P2(1)/c
REM R1 0.112,  Rweak 0.003,  Alpha 0.023,  Orientation as input
REM Formula found by SHELXT:  C7 Cl2 O
CELL  0.71073   7.2162   7.3078  12.8297   90.000  100.577   90.000
ZERR    2.000   0.0010   0.0011   0.0015    0.000    0.005    0.000
LATT  1
SYMM -X, 1/2+Y, 1/2-Z
SFAC  C   H   CL  N   O
UNIT   24   12   8   4   4
TEMP -123.150
SIZE 0.072 0.154 0.219
L.S. 10
BOND $H
LIST 4
ACTA
FMAP 2
PLAN 20
REM #####
WGHT    0.026200    0.575100
FVAR       0.81610
N1    4    0.486281    0.429789    0.529411    11.00000    0.02008    0.01672 =
         0.01495    0.00080   -0.00227   -0.00359
O1    5    0.391997    0.291980    0.491566    11.00000    0.04834    0.02402 =
         0.01969    0.00110   -0.00746   -0.01775
C1    1    0.561702    0.443145    0.641960    11.00000    0.02020    0.01495 =
         0.01275    0.00164   -0.00316   -0.00247
C2    1    0.438681    0.483591    0.709328    11.00000    0.01829    0.01867 =
         0.02104    0.00120    0.00100    0.00053
AFIX  43
H2    2    0.309267    0.506462    0.682063    11.00000   -1.20000
AFIX   0
C3    1    0.507269    0.490240    0.817390    11.00000    0.02303    0.01890 =
         0.01968   -0.00086    0.00512    0.00063
AFIX  43
H3    2    0.425016    0.520102    0.864803    11.00000   -1.20000
AFIX   0
C4    1    0.695911    0.453383    0.856632    11.00000    0.02684    0.01933 =
         0.01280    0.00049   -0.00164   -0.00081
AFIX  43
H4    2    0.742763    0.459294    0.930756    11.00000   -1.20000
AFIX   0
C5    1    0.815759    0.408060    0.787948    11.00000    0.01802    0.01539 =
         0.01673    0.00161   -0.00346   -0.00017
C6    1    0.751222    0.404541    0.678713    11.00000    0.02008    0.01564 =
         0.01527   -0.00013    0.00294   -0.00203
CL1   3    1.046316    0.349141    0.839860    11.00000    0.01874    0.03344 =
         0.02517   -0.00023   -0.00627    0.00523
CL2   3    0.896684    0.350696    0.590648    11.00000    0.02293    0.03083 =
         0.02011   -0.00286    0.00567    0.00200
HKLF 4




REM  mo_jk_5f_kaleta_0m_a.res in P2(1)/c
REM wR2 = 0.0760, GooF = S = 1.078, Restrained GooF = 1.078 for all data
REM R1 = 0.0311 for 1259 Fo > 4sig(Fo) and 0.0434 for all 1538 data
REM 91 parameters refined using 0 restraints

END

WGHT      0.0258      0.5778

REM Highest difference peak  0.658,  deepest hole -0.249,  1-sigma level  0.066
Q1    1   0.2550  0.4948  0.6608  11.00000  0.05    0.66
Q2    1   0.5136  0.4729  0.6842  11.00000  0.05    0.28
Q3    1   0.7576  0.4547  0.8173  11.00000  0.05    0.28
Q4    1   0.6015  0.4749  0.8256  11.00000  0.05    0.28
Q5    1   0.7981  0.4323  0.7370  11.00000  0.05    0.26
Q6    1   0.4802  0.5048  0.7600  11.00000  0.05    0.24
Q7    1   0.9594  0.3663  0.4825  11.00000  0.05    0.23
Q8    1   0.6526  0.4275  0.6582  11.00000  0.05    0.22
Q9    1   0.1638  0.6148  0.8143  11.00000  0.05    0.22
Q10   1   0.8148  0.4092  0.6577  11.00000  0.05    0.21
Q11   1   0.9682  0.2473  0.9631  11.00000  0.05    0.21
Q12   1   0.5352  0.4390  0.5981  11.00000  0.05    0.21
Q13   1   0.7022  0.3940  0.9387  11.00000  0.05    0.21
Q14   1   0.8847  0.1914  0.5659  11.00000  0.05    0.20
Q15   1   1.0885  0.2971  0.7563  11.00000  0.05    0.18
Q16   1   0.6647  0.3261  0.5187  11.00000  0.05    0.18
Q17   1   0.9789  0.3868  0.9525  11.00000  0.05    0.18
Q18   1   0.5229  0.2868  0.4815  11.00000  0.05    0.17
Q19   1   0.8906  0.0897  0.5881  11.00000  0.05    0.17
Q20   1   0.1817  0.3702  0.6388  11.00000  0.05    0.17
;
_shelx_res_checksum              56232
_shelx_hkl_file
;
  -1   0   0    5.10    0.60
   1   0   0    1.60    0.50
   2   0   0 4329.37  154.78
  -2   0   0 4225.18  154.68
   3   0   0  275.77   10.60
  -3   0   0  280.07   10.70
  -4   0   0   35.40    3.70
   4   0   0   36.30    3.00
  -5   0   0  489.05   18.80
   5   0   0  485.75   18.50
   6   0   0  287.27   12.50
  -6   0   0  300.47   13.00
  -7   0   0   77.39    9.70
   7   0   0   76.39    7.60
  -8   0   0   23.20    8.70
   8   0   0   39.70    6.10
   8   0   0   24.60    6.00
  -9   0   0    8.50   10.00
   9   0   0    2.40    6.60
   9   0   0    3.40    7.10
   0  -1   0    0.00    1.00
   0   1   0   -0.90    1.00
   1  -1   0  495.65   19.00
  -1  -1   0  576.74   19.40
   1  -1   0  521.95   19.10
   1   1   0  594.04   19.30
  -1   1   0  518.35   18.90
  -1   1   0  505.65   19.00
  -1   1   0  515.45   19.10
   2  -1   0 1105.49   38.80
  -2  -1   0 1149.98   39.30
   2  -1   0 1084.59   38.90
   2   1   0 1084.79   39.10
  -2   1   0 1052.69   38.90
  -3  -1   0  295.67   11.80
   3  -1   0  301.57   11.10
   3  -1   0  295.97   11.30
  -3   1   0  298.87   11.40
   3   1   0  303.87   11.50
  -4  -1   0   78.39    5.10
   4  -1   0   75.09    4.30
   4  -1   0   76.89    3.80
   4   1   0   73.89    4.40
  -4   1   0   80.29    4.50
   5  -1   0  307.77   11.80
  -5  -1   0  299.07   13.30
   5  -1   0  306.87   12.10
  -5   1   0  308.97   12.60
   5   1   0  292.47   12.30
   6  -1   0  855.71   30.80
  -6  -1   0  824.22   32.10
  -6   1   0  834.02   31.50
   7  -1   0  445.26   17.80
   7  -1   0  443.96   18.50
  -7  -1   0  464.05   20.30
  -7   1   0  498.15   20.70
   7   1   0  435.26   18.60
   8  -1   0  296.77   13.70
   8  -1   0  310.37   19.90
   8  -1   0  324.77   16.00
  -8  -1   0  279.67   19.20
  -8   1   0  288.27   16.40
   8   1   0  296.47   14.70
   9  -1   0   93.79   15.80
   9  -1   0   77.59    8.20
  -9  -1   0   69.99   13.50
   9  -1   0   91.49    8.90
  -9   1   0   70.39   11.20
   9   1   0   90.19   11.60
   0   2   0 1311.57   47.30
  -1  -2   0 3372.56  119.79
   1   2   0 3386.26  119.69
  -2  -2   0   -1.00    2.00
   2  -2   0   -1.10    1.10
   2  -2   0    2.80    1.60
   2   2   0   -0.60    1.80
  -2   2   0    0.40    1.30
  -2   2   0    0.60    0.90
   3  -2   0  690.93   25.30
   3  -2   0  712.83   25.10
  -3  -2   0  697.13   26.30
   3  -2   0  720.43   25.80
   3   2   0  670.63   25.60
  -3   2   0  674.33   25.30
  -3   2   0  715.53   25.20
   4  -2   0  720.93   25.90
  -4  -2   0  721.63   27.30
   4  -2   0  711.33   26.90
   4  -2   0  714.63   26.20
  -4   2   0  715.13   26.30
   4   2   0  716.33   26.50
   5  -2   0   81.29    5.60
  -5  -2   0   89.29    7.30
   5  -2   0   88.39    7.10
   5  -2   0   77.19    4.50
   5   2   0   80.19    5.90
  -5   2   0   78.39    5.40
   6  -2   0   81.19    6.10
   6  -2   0   83.59    8.70
   6  -2   0   70.69    4.80
   6   2   0   70.59    6.20
  -7  -2   0   24.30    7.60
   7  -2   0   17.00    5.30
   7  -2   0   11.00    3.80
   7   2   0   13.50    5.20
  -7   2   0   19.40    6.00
  -8  -2   0   13.20   10.30
   8  -2   0   17.70    6.20
   8  -2   0   19.10   10.40
   8  -2   0   18.40    4.80
   8   2   0   14.10    5.90
  -8   2   0    4.00    7.20
   9  -2   0    0.80    6.10
  -9  -2   0   11.00   12.60
   9  -2   0  -11.30   13.50
  -9   2   0    2.60    7.40
   0   3   0   -2.70    1.40
   0   3   0   -0.80    2.90
  -1  -3   0 1583.84   57.99
   1  -3   0 1598.84   56.69
   1   3   0 1634.94   57.59
  -1   3   0 1632.74   56.99
  -1   3   0 1526.55   56.69
   2  -3   0   27.00    3.00
  -2  -3   0   26.40    4.00
   2  -3   0   29.70    4.00
  -2   3   0   32.60    2.70
   2   3   0   32.20    3.70
  -2   3   0   28.70    3.30
  -2   3   0   26.00    2.20
   3  -3   0    9.10    2.60
  -3  -3   0    5.20    3.50
   3  -3   0    7.70    2.20
   3   3   0    5.80    2.60
  -3   3   0    5.90    1.90
  -3   3   0    8.60    1.70
  -4  -3   0   72.29    8.60
   4  -3   0   75.79    6.10
   4  -3   0   82.09    5.30
  -4   3   0   81.99    5.00
  -4   3   0   81.59    4.90
   4   3   0   84.19    5.60
   5  -3   0    9.30    3.00
   5  -3   0    9.90    4.60
  -5  -3   0   11.00    5.80
   5   3   0    9.20    3.20
  -5   3   0   11.90    3.00
   6  -3   0   29.50    3.10
   6  -3   0   33.00    6.70
  -6  -3   0   33.90    7.50
   6  -3   0   33.80    4.80
   6   3   0   32.80    4.60
   7  -3   0   81.69    7.00
  -7  -3   0   89.49   10.20
   7  -3   0   92.29    8.60
  -7   3   0   71.09    8.80
   7   3   0   86.89    9.70
   8  -3   0    4.00   10.70
  -8  -3   0    6.70   12.00
   8  -3   0    6.30    7.10
   8   3   0   -6.80    6.90
  -8   3   0   -1.40    6.60
   0   4   0  847.12   30.50
   0   4   0  829.12   32.20
  -1  -4   0 3579.14  129.39
  -1   4   0 3659.73  129.39
   1   4   0 3734.93  128.89
  -1   4   0 3485.15  127.59
  -1   4   0 3589.04  127.99
   2  -4   0   15.50    2.50
  -2  -4   0   17.00    5.60
  -2   4   0   15.30    3.10
  -2   4   0   13.00    2.30
   2   4   0   15.00    3.40
  -3  -4   0   16.70    5.20
   3  -4   0   16.40    3.00
   3  -4   0   19.30    4.10
  -3   4   0   24.30    2.60
   3   4   0   15.30    3.50
  -3   4   0   21.30    3.10
  -4  -4   0   52.29    7.40
   4  -4   0   47.60    7.10
   4  -4   0   53.59    4.90
   4   4   0   48.60    5.80
  -4   4   0   53.79    4.00
  -4   4   0   46.60    5.40
   5  -4   0   95.09    9.60
   5  -4   0   88.59    6.70
   5   4   0   92.09    7.50
   6  -4   0  113.99   11.20
   6  -4   0  130.39    9.80
  -6  -4   0  126.09   13.20
  -6   4   0  144.29    9.50
   6   4   0  122.19   10.20
  -7  -4   0  106.69   12.20
   7  -4   0  110.69   12.60
   7  -4   0  120.79   10.50
  -7   4   0  118.49   11.10
   7   4   0  112.29   11.50
  -8  -4   0   14.10   14.30
   8  -4   0   -6.40   12.70
   8  -4   0   -0.90    6.30
  -8   4   0    7.70    8.40
   8   4   0    7.10    6.90
   0   5   0   -1.30    4.70
   0   5   0    3.00    2.70
  -1   5   0    5.50    2.50
   1   5   0    3.40    4.90
  -1   5   0   -4.20    5.30
  -1   5   0    5.90    4.10
  -2  -5   0  112.99   11.30
   2  -5   0  119.29    6.40
   2   5   0  111.09    9.20
  -2   5   0  116.99    6.70
  -2   5   0  114.79    7.20
   3  -5   0   54.09    5.90
  -3  -5   0   54.79    8.60
  -3   5   0   61.19    4.40
   3   5   0   61.99    6.90
  -3   5   0   59.09    6.30
  -3   5   0   67.49    5.30
   4  -5   0  105.59    8.40
   4   5   0  107.49   10.50
  -4   5   0  116.79    6.30
   5  -5   0  235.88   12.40
   5  -5   0  245.38   13.70
  -5  -5   0  237.38   18.50
  -5   5   0  232.18   11.30
   5   5   0  229.08   12.60
  -5   5   0  245.88   11.50
  -6  -5   0  335.27   22.70
   6  -5   0  389.46   17.90
   6  -5   0  393.96   20.30
   6   5   0  371.16   18.70
  -6   5   0  384.76   16.90
   7  -5   0  549.45   27.50
  -7  -5   0  528.25   32.20
   7  -5   0  549.95   23.10
   7   5   0  519.45   24.30
  -7   5   0  516.35   23.90
   0   6   0  379.56   19.70
   0   6   0  372.96   15.50
   1   6   0  471.55   23.00
  -1   6   0  535.05   25.70
  -1   6   0  521.55   19.90
   1   6   0  499.65   20.00
  -1   6   0  513.05   20.90
  -2  -6   0  423.26   24.60
  -2   6   0  487.75   18.90
  -3  -6   0   49.40   11.30
   3  -6   0   83.59    7.10
   3   6   0   67.39    8.20
  -3   6   0   74.09    5.50
  -3   6   0   78.79    7.80
   4  -6   0   67.49    7.80
  -4  -6   0   68.89   13.70
   4   6   0   77.19   10.00
  -4   6   0   63.59    8.10
   5  -6   0  102.49   10.80
  -5  -6   0  100.69   13.50
   5   6   0   82.69   10.90
  -5   6   0  109.69    9.10
  -6  -6   0   27.20   15.70
   6  -6   0   41.80    8.40
  -6   6   0   42.60    6.80
   6   6   0   36.50    8.70
   7  -6   0   30.70   15.40
  -7  -6   0   31.40   18.10
   7  -6   0   16.60    8.80
  -7   6   0    1.70    7.70
   0   7   0   -7.60    9.70
   0   7   0    5.50    4.10
  -1   7   0    5.50    9.40
   1   7   0   15.60    9.10
  -1   7   0   16.10    4.40
  -1   7   0    7.80    7.90
   1   7   0   10.30    4.50
  -2   7   0    4.50    4.40
  -2   7   0    1.90   13.40
   2   7   0   -2.70    7.20
  -2   7   0   -2.50    6.80
  -3  -7   0   -7.40   11.50
  -3   7   0    0.80    6.70
  -3   7   0    4.30   13.60
   3   7   0   -1.30    7.40
  -3   7   0    3.60    5.00
  -3   7   0    2.30    4.90
  -4  -7   0   -1.30   14.60
   4  -7   0   10.40    6.50
  -4   7   0   10.80    5.00
   4   7   0    3.70    7.50
  -4   7   0    9.10   18.80
  -4   7   0    4.30    5.70
  -5  -7   0   37.20   17.40
   5  -7   0    5.40    8.50
   5   7   0   11.90    8.90
  -5   7   0   16.20    6.80
  -5   7   0   28.80    6.90
   6  -7   0  117.89   12.40
  -6  -7   0   92.89   20.10
  -6   7   0   97.09   12.20
   6   7   0   88.09   11.00
   0   8   0    3.20    5.60
   0   8   0    5.50   11.40
   0   8   0   -8.10   11.00
  -1   8   0   59.69   14.10
   1   8   0   93.49   11.00
  -1   8   0   92.89    9.20
   1   8   0   86.89   12.50
  -1   8   0   95.29   13.50
  -2   8   0   13.40   17.70
  -2   8   0    9.10    6.90
   2   8   0   16.70   10.00
   2   8   0    1.60    6.40
  -2   8   0   -2.40    8.40
   3   8   0   16.90   10.70
  -3   8   0    7.10    8.80
  -3   8   0   29.20   20.40
  -3   8   0    0.50    6.60
  -3   8   0    3.20    7.60
  -4   8   0   -3.60    8.00
  -4   8   0   -2.80   20.20
   4   8   0    4.30    8.80
  -4   8   0    7.70    6.50
  -5   8   0    3.10    7.70
   0   9   0   15.30   13.50
   0   9   0    5.40    8.30
   0   9   0  -10.30   14.70
  -1   9   0    7.70   17.10
  -1   9   0   -1.60   12.40
   1   9   0    2.10   13.70
   1   9   0   -7.90    7.90
  -1   9   0   10.50    8.00
  -2   9   0   -2.60   10.40
   2   9   0   26.80    8.30
  -2   9   0    2.70    6.70
  -2   9   0  -34.60   14.80
  -3   9   0   19.70    9.00
   9   0  -1   -3.80    5.70
  -9   0   1  -21.00   11.10
   9   0  -1   -1.50    6.30
  -8   0   1   -4.60    7.00
   8   0  -1   -7.40    5.80
   8   0  -1    2.00    4.90
   7   0  -1   -3.20    3.40
   6   0  -1   -2.60    2.90
  -6   0   1    1.00    3.70
  -5   0   1   -2.70    2.50
   5   0  -1    1.20    1.80
  -4   0   1   -0.70    1.70
   4   0  -1   -0.20    1.50
   3   0  -1   -0.50    1.10
  -3   0   1    0.60    1.20
  -2   0   1    0.10    0.90
   2   0  -1    0.40    0.80
  -1   0   1    0.40    0.40
   1   0  -1    0.30    0.40
  -1   0  -1    0.40    0.50
   1   0   1    0.00    0.50
  -2   0  -1   -0.80    0.90
   2   0   1    2.20    0.90
  -3   0  -1   -3.00    1.30
   3   0   1   -0.50    1.20
  -4   0  -1    1.00    1.90
   4   0   1   -1.20    1.50
  -5   0  -1    0.90    2.60
   5   0   1    0.90    2.10
  -6   0  -1   -1.10    4.40
  -7   0  -1   -2.30    4.60
   7   0   1   -2.10    3.90
   8   0   1    2.10    5.40
   8   0   1   -3.20    4.40
  -8   0  -1   -3.70    6.90
   9   0   1    4.40   14.00
  -9   0  -1  -12.80    9.80
   9   0   1   -2.00    6.80
  -9  -1   1  214.28   21.70
   9  -1  -1  200.48   12.70
   9  -1  -1  201.78   12.00
   9  -1  -1  204.98   20.50
   9   1  -1  188.18   12.00
  -9   1   1  204.98   18.70
   8  -1  -1  258.37   12.20
   8  -1  -1  267.67   13.50
  -8  -1   1  243.68   18.20
   8   1  -1  241.48   14.00
  -8   1   1  258.57   14.10
   7  -1  -1   98.79    8.10
   7  -1  -1  110.69    7.10
   7   1  -1  103.29    7.60
  -6  -1   1   18.40    5.10
   6  -1  -1   13.10    3.40
   6  -1  -1   10.10    3.20
  -6   1   1   13.40    3.40
   6   1  -1   13.90    3.10
   5  -1  -1    1.20    1.90
  -5  -1   1   -0.20    3.30
   5  -1  -1    2.90    2.00
  -5   1   1    1.40    2.30
   5   1  -1    0.80    2.40
   4  -1  -1    9.40    1.70
   4  -1  -1    7.50    1.70
  -4  -1   1    7.60    2.40
  -4   1   1    5.10    2.10
   4   1  -1    7.00    1.90
   3  -1  -1   20.20    2.10
   3  -1  -1   23.50    1.90
  -3  -1   1   23.00    2.40
  -3   1   1   22.10    2.40
   3   1  -1   22.20    2.40
   2  -1  -1   82.89    3.40
  -2  -1   1   81.69    4.00
   2  -1  -1   78.19    3.40
  -2   1   1   81.09    3.40
   2   1  -1   81.29    3.70
   1  -1  -1 3031.10  109.79
  -1  -1   1 2974.50  108.09
  -1   1   1 2975.60  111.89
   1   1  -1 2942.71  108.49
   0  -1  -1  963.00   34.10
   0   1   1  949.01   34.10
   1  -1   1  209.68    8.30
  -1  -1  -1  217.38    8.20
   1  -1   1  213.58    7.90
  -1   1  -1  213.38    8.30
   1   1   1  211.58    8.10
  -1   1  -1  222.28    7.70
  -1   1  -1  219.18    7.90
   2  -1   1  448.36   16.30
   2  -1   1  440.16   16.50
   2  -1   1  443.46   17.00
   2   1   1  506.45   16.80
  -2   1  -1  445.86   16.60
  -3  -1  -1 1968.60   64.99
   3  -1   1 1694.53   65.09
   3  -1   1 1732.13   64.59
   3  -1   1 1721.63   64.39
  -3   1  -1 1710.83   64.69
   3   1   1 2099.49   64.89
  -4  -1  -1  385.56   15.30
   4  -1   1  381.66   14.80
   4  -1   1  380.26   14.50
  -4   1  -1  383.26   14.90
   4   1   1  425.86   15.10
   5  -1   1  479.75   18.20
   5  -1   1  477.85   17.80
  -5  -1  -1  474.55   18.90
  -5   1  -1  465.95   18.40
   5   1   1  485.55   18.30
   6  -1   1  459.25   17.30
   6  -1   1  441.26   19.80
   7  -1   1   84.69    6.00
   7  -1   1   78.19    7.60
   7  -1   1   73.59   10.50
  -7  -1  -1   97.99   11.10
   7   1   1   78.29    7.30
  -7   1  -1   70.29    8.80
   8  -1   1   -9.40    4.50
  -8  -1  -1    8.80    8.10
   8  -1   1    2.20   10.90
   8  -1   1    3.20    5.40
   8   1   1    2.40    5.20
  -8   1  -1    3.60    6.20
   9  -1   1   14.30    6.50
   9  -1   1    3.50   14.70
  -9  -1  -1    6.80    9.40
  -9   1  -1   21.50    9.50
   9  -2  -1    9.30   14.60
   9  -2  -1    1.20    6.60
  -9  -2   1    9.80   13.60
  -9   2   1   13.90    9.20
   8  -2  -1  141.69   11.70
   8  -2  -1  155.58   15.30
  -8  -2   1  120.59   12.90
   8  -2  -1  110.99    9.00
   8   2  -1  124.79   10.30
  -8   2   1  139.99   12.20
   7  -2  -1  184.48   10.80
   7  -2  -1  175.78   12.40
  -7  -2   1  175.18   13.10
   7   2  -1  176.38   10.90
  -7   2   1  182.98   10.30
   6  -2  -1  148.09    6.90
  -6  -2   1  141.19   11.10
   6  -2  -1  140.89    9.60
  -6   2   1  133.69    8.10
   5  -2  -1   38.70    3.60
   5  -2  -1   47.10    5.10
   5  -2  -1   38.50    4.00
  -5  -2   1   41.20    5.30
  -5   2   1   35.30    4.60
   5   2  -1   34.50    3.90
   4  -2  -1  801.62   29.20
   4  -2  -1  824.82   29.70
   4  -2  -1  804.42   29.00
  -4  -2   1  797.92   30.20
  -4   2   1  781.22   29.20
   4   2  -1  804.12   29.50
   3  -2  -1  857.71   31.70
   3  -2  -1  907.91   31.60
  -3  -2   1  898.91   32.70
   3  -2  -1  888.51   31.90
   3   2  -1  860.61   32.10
  -3   2   1  900.61   31.70
  -3   2   1  853.11   31.70
  -2  -2   1 3927.11  140.09
  -2   2   1 3980.90  139.29
   2   2  -1 3951.40  139.79
  -1  -2   1 3182.58  114.79
   1   2  -1 3287.47  114.69
   0  -2   1 9999.00  354.66
   0  -2  -1 9876.61  354.26
   0   2  -1 9776.52  354.76
   0   2   1 9868.41  354.86
   1  -2   1  492.55   18.10
  -1  -2  -1  495.75   18.40
   1  -2   1  470.65   17.50
  -1   2  -1  470.95   17.60
   1   2   1  493.25   18.10
  -1   2  -1  491.75   18.00
   2  -2   1  820.52   29.40
   2  -2   1  804.32   28.90
  -2  -2  -1  823.22   29.70
  -2   2  -1  805.02   29.30
  -2   2  -1  814.22   28.70
   2   2   1  802.92   29.30
  -2   2  -1  768.52   28.90
   3  -2   1  829.62   29.60
  -3  -2  -1  839.22   30.70
   3  -2   1  807.62   29.90
   3  -2   1  832.72   30.60
   3   2   1  837.42   30.30
  -3   2  -1  825.22   30.00
   4  -2   1  292.07   11.80
   4  -2   1  306.47   11.30
   4  -2   1  284.67   12.90
  -4  -2  -1  305.97   13.00
  -4   2  -1  303.07   12.00
   4   2   1  307.77   12.10
   5  -2   1  389.46   17.10
   5  -2   1  411.36   15.80
   5  -2   1  401.06   15.10
  -5  -2  -1  399.76   17.10
  -5   2  -1  409.06   16.10
   5   2   1  401.86   16.00
   6  -2   1   92.09    6.90
   6  -2   1   91.79    5.40
  -6  -2  -1   99.69   10.20
   6  -2   1   89.89    9.30
   6   2   1  100.39    7.60
  -6   2  -1   97.99    7.30
   7  -2   1    2.80    4.60
  -7  -2  -1    9.70    7.60
   7  -2   1   -0.10    3.10
   7  -2   1    7.80    7.80
  -7   2  -1    2.50    5.30
   7   2   1   -0.70    4.30
   8  -2   1   30.00    7.20
   8  -2   1   12.00   12.40
  -8  -2  -1    6.10   10.50
   8  -2   1   17.10    5.10
   8   2   1   24.80    6.00
  -8   2  -1   14.10    7.50
  -8  -3   1  525.55   28.10
   8  -3  -1  555.54   22.20
   8  -3  -1  577.94   24.10
   8  -3  -1  560.14   27.10
  -8   3   1  557.24   24.60
   8   3  -1  560.34   24.50
   7  -3  -1  327.87   13.90
  -7  -3   1  357.86   20.50
   7  -3  -1  336.97   15.40
   7  -3  -1  362.66   17.60
  -7   3   1  343.57   16.30
   7   3  -1  331.17   16.20
   6  -3  -1  132.89    8.20
   6  -3  -1  118.89    6.70
   6  -3  -1  135.99    9.70
   6   3  -1  122.69    8.90
  -6   3   1  116.59    8.10
   5  -3  -1   11.00    4.10
   5  -3  -1    6.80    2.60
   5  -3  -1    6.30    2.10
  -5  -3   1    1.30    4.60
  -5   3   1    5.00    2.70
   5   3  -1    5.30    2.90
   4  -3  -1   52.99    5.10
  -4  -3   1   58.39    7.30
   4  -3  -1   51.69    4.50
  -4   3   1   50.69    4.50
   4   3  -1   50.49    5.10
  -4   3   1   54.59    3.90
   3  -3  -1   86.19    5.10
  -3  -3   1   91.99    7.00
   3  -3  -1   95.69    4.90
   3   3  -1   86.49    5.60
  -3   3   1   83.49    4.60
  -3   3   1   87.39    4.30
  -2  -3   1  145.79    9.00
   2  -3  -1  167.28    6.80
  -2   3   1  152.88    6.60
  -2   3   1  157.58    6.70
   2   3  -1  161.58    7.90
  -2   3   1  164.58    6.50
  -1  -3   1   44.70    4.80
   1  -3  -1   49.30    3.10
  -1   3   1   49.99    3.10
  -1   3   1   52.69    3.60
  -1   3   1   49.70    4.90
   1   3  -1   45.10    5.20
   0  -3  -1  518.35   21.00
   0   3   1  533.15   19.30
   0   3  -1  518.85   19.20
   0   3   1  526.45   20.40
   0   3  -1  539.25   21.00
  -1  -3  -1   13.50    3.50
   1  -3   1   18.60    1.90
  -1   3  -1   17.90    3.20
   1   3   1   16.50    3.20
  -1   3  -1   19.60    2.10
   2  -3   1  117.59    6.60
   2  -3   1  111.69    5.20
  -2  -3  -1  108.99    7.40
  -2   3  -1  115.99    5.20
   2   3   1  114.09    6.40
  -2   3  -1  113.49    4.80
  -2   3  -1  116.19    6.20
   3  -3   1  102.09    5.10
  -3  -3  -1  104.49    7.90
   3  -3   1   91.59    6.20
  -3   3  -1  104.29    5.20
  -3   3  -1  101.29    4.60
   3   3   1  104.09    6.20
   4  -3   1 1765.92   62.29
  -4  -3  -1 1685.73   62.69
   4  -3   1 1720.33   61.39
   4   3   1 1696.73   61.89
  -4   3  -1 1711.63   61.49
  -5  -3  -1  883.11   34.50
   5  -3   1  892.01   32.70
   5  -3   1  884.31   33.70
  -5   3  -1  879.01   32.70
   5   3   1  877.01   33.00
   6  -3   1  673.03   26.30
  -6  -3  -1  605.14   27.40
   6  -3   1  630.44   24.50
   6   3   1  622.14   24.80
  -6   3  -1  648.74   25.00
   7  -3   1  429.56   20.30
  -7  -3  -1  367.26   20.50
   7  -3   1  390.66   17.70
   7   3   1  373.46   17.40
  -7   3  -1  368.66   17.30
   8  -3   1    4.10   11.50
   8  -3   1   12.00    6.70
  -8  -3  -1   -5.10   10.50
  -8   3  -1   -7.60    6.90
   8   3   1   12.40    7.20
   8  -4  -1    5.50    6.40
  -8  -4   1   14.10   14.00
   8  -4  -1    7.80   11.00
   8   4  -1    1.00    6.00
  -8   4   1   -2.10    7.90
   7  -4  -1    7.30    8.70
   7  -4  -1    0.20    5.50
  -7  -4   1   -1.50   10.70
  -7   4   1    4.40    5.30
   7   4  -1   -0.10    6.50
   6  -4  -1   59.79    8.10
   6  -4  -1   72.09    9.90
  -6  -4   1   70.39   11.80
   6   4  -1   59.89    7.70
  -6   4   1   60.49    7.90
   5  -4  -1   -3.70    3.60
   5  -4  -1    5.10    5.00
  -5  -4   1   -5.70    6.70
  -5   4   1   -4.00    4.10
   4  -4  -1   57.09    6.30
   4  -4  -1   62.89    5.00
  -4  -4   1   59.09    7.50
  -4   4   1   65.19    5.50
   4   4  -1   53.69    6.00
  -4   4   1   56.69    4.80
  -3  -4   1  312.57   15.70
   3  -4  -1  337.47   13.20
  -3   4   1  328.57   12.70
   3   4  -1  327.47   14.20
  -3   4   1  341.07   13.10
   2  -4  -1 1579.74   56.59
  -2  -4   1 1549.94   58.39
   2   4  -1 1581.54   57.79
  -2   4   1 1610.54   56.59
  -2   4   1 1589.44   56.39
  -1   4   1 1412.06   51.19
  -1   4   1 1473.65   51.39
   1   4  -1 1442.56   52.79
  -1   4   1 1397.76   52.89
   0   4  -1   71.89    4.30
   0   4  -1   67.69    8.70
   0   4   1   69.89    4.50
   0   4   1   82.89    7.60
  -1  -4  -1  622.84   25.10
  -1   4  -1  633.24   23.70
   1   4   1  611.24   24.00
  -1   4  -1  613.04   22.80
   2  -4   1   64.79    4.40
  -2  -4  -1   91.39    9.60
  -2   4  -1   69.09    5.60
   2   4   1   73.59    6.50
  -2   4  -1   67.59    4.30
   3  -4   1   24.70    3.20
   3  -4   1   21.50    4.50
  -3  -4  -1   23.30    5.20
  -3   4  -1   21.50    4.20
   3   4   1   24.70    4.00
  -3   4  -1   20.90    2.80
  -3   4  -1   23.50    2.50
   4  -4   1  446.46   17.20
  -4  -4  -1  427.56   19.70
   4  -4   1  433.66   18.60
   4   4   1  421.46   17.50
  -4   4  -1  442.06   16.60
  -4   4  -1  439.96   17.20
  -5  -4  -1   61.19    7.90
   5  -4   1   60.39    7.50
   5  -4   1   68.39    6.30
   5   4   1   65.99    6.90
  -5   4  -1   72.49    6.90
   6  -4   1   -1.10    5.30
  -6  -4  -1   20.10    8.90
   6  -4   1    2.50    6.80
  -6   4  -1    3.90    4.30
   6   4   1    7.90    5.40
   7  -4   1   93.49   12.40
  -7  -4  -1   88.09   11.70
   7  -4   1  114.69   11.50
   7   4   1  100.19   10.20
  -7   4  -1  108.19   10.40
   8  -4   1   16.20   13.50
   8  -4   1   19.30    7.40
  -8  -4  -1   20.60   13.00
   8   4   1   32.70    6.30
  -8   4  -1   26.20    8.30
   7  -5  -1   13.00    6.70
  -7  -5   1   -1.70   14.10
   7  -5  -1   28.20   10.40
   7   5  -1    5.50    7.50
  -7   5   1   12.80    7.50
  -6  -5   1    4.20   11.60
   6  -5  -1    8.80    5.50
   6  -5  -1   -8.10    8.30
   6   5  -1    8.90    5.90
  -6   5   1    1.90    4.90
   5  -5  -1  190.18   10.20
   5  -5  -1  182.28   12.30
  -5   5   1  185.98   10.00
   5   5  -1  177.58   11.10
  -5   5   1  179.38    9.70
  -4  -5   1  354.06   20.20
  -4   5   1  413.06   16.80
  -4   5   1  406.06   15.80
   3  -5  -1   20.30    3.30
  -3  -5   1   15.80    6.70
  -3   5   1   14.40    3.00
  -3   5   1   19.30    3.60
   3   5  -1   12.80    4.40
  -2  -5   1    5.30    6.90
   2  -5  -1   15.60    3.00
  -2   5   1   13.80    3.30
   2   5  -1   13.50    5.20
  -2   5   1    9.20    2.70
  -2   5   1   14.30    7.30
  -1   5   1  160.68    7.50
   1   5  -1  158.68   10.70
  -1   5   1  157.78    8.90
  -1   5   1  162.18   11.70
   0   5  -1   -6.20    5.80
   0   5   1   -0.20    2.40
   0   5  -1   -1.60    2.30
   0   5   1    2.20    4.40
  -1  -5  -1  168.68   13.60
  -1   5  -1  162.78   12.90
  -1   5  -1  171.18    7.90
   1   5   1  169.58   10.00
  -1   5  -1  175.88    9.90
  -2  -5  -1   19.10    7.50
   2   5   1   20.10    4.50
  -2   5  -1   21.90    4.60
  -2   5  -1   19.70    3.10
  -3  -5  -1   80.09    8.90
   3  -5   1   81.79    6.40
  -3   5  -1   80.59    6.20
  -3   5  -1   71.29    4.60
   3   5   1   82.79    7.40
  -3   5  -1   78.69    7.20
  -4  -5  -1   11.80    7.70
   4  -5   1   19.40    4.20
  -4   5  -1   16.70    3.50
  -4   5  -1   16.60    4.50
   4   5   1   14.60    4.50
   5  -5   1    0.10    5.30
   5  -5   1    3.40    8.10
  -5  -5  -1  -17.00    9.30
   5   5   1    7.80    5.00
  -5   5  -1    4.90    4.90
  -5   5  -1    3.40    3.70
   6  -5   1   16.70    5.90
  -6  -5  -1   21.90   11.60
   6  -5   1   12.60    9.50
  -6   5  -1   12.00    6.30
   6   5   1   16.70    6.00
  -7  -5  -1   15.30   14.50
   7  -5   1    2.30    7.00
   7  -5   1  -11.70   12.40
   7   5   1    0.40    6.50
  -7   5  -1   15.10    7.10
   7  -6  -1  123.49   14.20
  -7  -6   1   78.59   20.00
   7   6  -1  142.99   14.90
  -7   6   1  129.09   12.00
   6  -6  -1   19.80    7.90
  -6  -6   1   24.30   15.30
  -6   6   1   24.70    7.20
   6   6  -1   27.40    7.30
  -5  -6   1   11.50   11.00
   5  -6  -1   11.40    5.80
  -5   6   1    6.20    4.80
  -5   6   1   15.10    5.80
   5   6  -1    4.50    7.30
   4  -6  -1   40.50    6.20
  -4  -6   1   28.00   11.60
  -4   6   1   27.10    5.00
   4   6  -1   33.30    6.80
  -4   6   1   41.90    5.20
   3  -6  -1  247.98   12.20
   3   6  -1  229.38   14.20
  -3   6   1  229.78   10.70
  -3   6   1  260.57   11.70
  -3   6   1  239.48   21.50
  -2   6   1   45.40   10.70
  -2   6   1   27.70    4.80
  -2   6   1   23.00    5.30
   1   6  -1 1278.17   49.20
  -1   6   1 1319.37   46.80
   1   6  -1 1275.57   46.80
  -1   6   1 1281.67   47.30
  -1   6   1 1276.57   49.60
   0   6  -1   20.10    9.00
   0   6   1   35.60    7.70
   0   6   1   31.90    4.40
   0   6  -1   31.90    4.60
  -1   6  -1   45.90    7.20
  -1   6  -1   47.00    5.50
  -1   6  -1   44.10    9.50
   1   6   1   41.10    7.50
   1   6   1   42.60    4.90
  -2   6  -1   10.20    5.80
   3  -6   1  114.69    8.00
  -3   6  -1  106.69    6.40
  -3   6  -1  127.09    9.40
  -3   6  -1  111.89    9.80
   3   6   1  112.89   10.00
  -4  -6  -1  153.68   19.20
   4  -6   1  158.28    9.80
  -4   6  -1  158.88    9.30
   4   6   1  136.79   11.40
  -4   6  -1  153.98    8.00
   5  -6   1   11.60    6.90
  -5  -6  -1   26.30   11.50
  -5   6  -1   12.90    5.60
  -5   6  -1   23.90    6.50
   5   6   1   12.90    6.20
   6  -6   1   24.20    8.30
  -6  -6  -1   30.10   14.10
  -6   6  -1   12.90    7.50
   6   6   1   21.40    7.30
  -7  -6  -1    0.90   16.70
   7  -6   1   10.00   14.90
   6  -7  -1    8.30    7.10
  -6  -7   1   10.00   16.70
   6   7  -1   14.00    8.40
  -6   7   1   14.10    7.90
  -6   7   1   20.20    9.60
  -5  -7   1   29.30   16.80
   5  -7  -1   14.80    7.30
   5   7  -1   10.20    8.10
  -5   7   1    4.40    5.90
  -5   7   1   -6.20    7.30
  -5   7   1    3.90   19.00
   4  -7  -1  140.19   12.50
  -4  -7   1  115.79   16.80
  -4   7   1  128.59   11.00
   4   7  -1  132.59   13.90
  -4   7   1  132.19    8.90
  -4   7   1  131.69   20.50
  -3   7   1    3.80    4.80
   3   7  -1    6.00    7.70
  -3   7   1   -1.20    4.30
  -3   7   1    2.80   13.30
  -2   7   1  207.18   11.30
   2   7  -1  199.68   17.50
  -2   7   1  213.08   11.50
  -2   7   1  217.48   20.70
  -1   7   1  456.95   24.50
  -1   7   1  441.26   18.00
   1   7  -1  405.16   17.70
   1   7  -1  411.96   22.30
  -1   7   1  427.36   19.40
   0   7   1   54.29    7.00
   0   7   1   46.40    8.90
   0   7  -1   39.10    5.60
   0   7  -1   37.00    9.90
  -1   7  -1   54.09    5.90
   1   7   1   47.80    8.30
  -1   7  -1   40.70   11.90
  -1   7  -1   66.89    9.10
   1   7   1   58.79    5.60
  -2   7  -1   49.60    5.50
  -2   7  -1   48.80    7.50
  -2   7  -1   37.60   13.20
   2   7   1   55.49    8.40
  -3  -7  -1   21.70   12.00
  -3   7  -1   24.70   14.90
   3   7   1   17.80    7.50
  -3   7  -1   41.50    8.40
  -3   7  -1   26.30    5.50
  -4  -7  -1  140.69   18.40
  -4   7  -1  142.29    9.00
  -4   7  -1  170.48   12.00
   4   7   1  150.98   13.70
   5  -7   1  387.96   19.40
  -5  -7  -1  376.06   30.40
  -5   7  -1  389.36   19.00
   5   7   1  346.77   19.20
  -5   7  -1  364.26   16.40
   6  -7   1  184.48   15.70
  -6  -7  -1  131.39   20.00
  -5  -8   1   16.20   18.00
  -5   8   1   14.70    8.20
  -5   8   1   36.20   22.80
  -5   8   1    9.60    9.20
  -4   8   1    0.50    7.10
  -4   8   1  -19.20   18.60
  -4   8   1    0.90    6.70
   4   8  -1   16.00   10.50
  -3   8   1  447.46   37.00
  -3   8   1  454.85   19.40
  -3   8   1  472.25   20.20
   3   8  -1  445.96   24.60
  -2   8   1  634.14   37.00
   2   8  -1  651.63   27.00
  -2   8   1  638.84   26.10
  -2   8   1  655.43   26.50
   2   8  -1  666.63   32.40
  -1   8   1  194.98   14.70
  -1   8   1  213.78   12.80
  -1   8   1  220.78   24.60
   1   8  -1  198.38   20.40
   1   8  -1  175.38   12.20
   0   8   1  209.98   20.00
   0   8  -1  222.38   19.30
   0   8  -1  183.98   12.00
   0   8  -1  206.58   22.10
   0   8   1  223.98   13.00
  -1   8  -1   36.60   16.10
  -1   8  -1   -3.90   10.30
  -1   8  -1    5.30    5.70
   1   8   1    8.90    5.90
   1   8   1    0.60    9.90
   2   8   1   20.30    7.40
  -2   8  -1   42.70    9.50
   2   8   1   29.30    9.80
  -2   8  -1   37.20    6.70
  -2   8  -1   27.60   19.70
  -3   8  -1  116.59   10.70
  -3   8  -1  121.79   22.60
  -3   8  -1  103.79    9.60
  -3   8  -1  110.59   13.00
   3   8   1   86.39   11.90
  -4  -8  -1   29.30   20.60
  -4   8  -1    7.70   22.30
   4   8   1   46.60   10.30
  -4   8  -1   43.20    7.90
  -4   8  -1   39.70    7.60
  -3   9   1  116.69   11.30
  -2   9   1   49.10    8.60
   2   9  -1   54.19    8.70
   2   9  -1   53.79   13.00
  -2   9   1    5.70    8.60
  -2   9   1   29.60   15.20
   1   9  -1    4.60    8.20
  -1   9   1    3.50    7.00
  -1   9   1    8.20   11.70
  -1   9   1  -13.00   14.00
   1   9  -1   38.10   12.70
   0   9   1   17.10   13.30
   0   9   1  -14.00   13.60
   0   9  -1    7.00    7.40
   0   9  -1   -8.60   16.20
   0   9  -1   20.70   17.30
   0   9   1    7.50    7.30
  -1   9  -1   17.20    8.10
  -1   9  -1   11.80   17.70
   1   9   1   -9.90   11.20
  -1   9  -1    3.70   15.00
   1   9   1    4.80    8.10
   2   9   1   12.60   11.10
   2   9   1    3.60    8.00
  -2   9  -1   32.80   17.80
  -2   9  -1   -6.00    7.50
  -2   9  -1    4.90   11.40
  -9   0   2   38.70   11.30
   9   0  -2   -2.50    6.50
   9   0  -2    8.10    6.10
   8   0  -2  242.68   12.70
  -8   0   2  244.88   16.80
   8   0  -2  249.48   12.70
  -7   0   2   42.10    7.80
   7   0  -2   53.99    6.70
  -6   0   2  118.89    8.90
   6   0  -2  129.69    7.20
  -5   0   2 1367.46   49.60
   5   0  -2 1372.16   49.30
  -4   0   2 2880.21  102.39
   4   0  -2 2893.41  102.19
  -3   0   2 3957.20  145.49
   3   0  -2 3978.50  145.69
  -2   0   2 2377.36   86.49
   2   0  -2 2337.47   86.49
   1   0  -2 2090.79   74.89
   0   0   2  344.47   12.70
   0   0   2  353.66   12.30
   0   0  -2  344.77   12.30
   0   0  -2  341.87   12.70
   1   0   2  176.18    6.50
  -1   0  -2  171.98    6.50
   1   0   2  180.88    7.10
   2   0   2 3894.61  140.79
  -2   0  -2 3804.42  140.59
  -3   0  -2 3483.75  121.49
   3   0   2 3386.86  121.29
  -4   0  -2   30.70    3.40
   4   0   2   25.00    3.20
   5   0   2  228.68   10.20
  -5   0  -2  258.57   10.70
  -6   0  -2   59.19    6.00
  -7   0  -2   70.69    8.30
   7   0   2   82.49    7.60
   8   0   2  167.18   11.30
   8   0   2  172.98   10.10
  -8   0  -2  167.58   14.90
   8   0   2  137.09   17.70
   9  -1  -2  218.98   13.90
  -9  -1   2  241.78   21.90
   9  -1  -2  247.38   15.40
  -9   1   2  228.08   19.50
   9   1  -2  256.97   14.70
  -8  -1   2  131.59   15.50
   8  -1  -2  122.59    9.80
   8  -1  -2  117.29    9.60
  -8   1   2  145.09   11.60
   8   1  -2  128.49   10.10
  -7  -1   2   12.40    7.80
   7  -1  -2   28.90    4.30
   7  -1  -2   23.90    5.20
   7   1  -2   23.50    4.20
  -7   1   2   21.20    5.20
  -6  -1   2  183.98   10.50
   6  -1  -2  182.48    8.50
   6  -1  -2  190.08    8.70
   6   1  -2  163.28    8.60
  -6   1   2  174.38    9.50
   5  -1  -2  152.08    6.90
  -5  -1   2  136.99    8.40
   5  -1  -2  140.49    6.60
  -5   1   2  142.79    7.00
   5   1  -2  131.99    7.00
   4  -1  -2    3.90    1.80
  -4  -1   2   -2.60    2.60
   4  -1  -2    4.40    1.90
  -4   1   2    4.30    1.70
   4   1  -2   -0.30    2.10
  -3  -1   2  299.47   12.10
   3  -1  -2  297.57   11.40
   3  -1  -2  310.97   11.50
   3   1  -2  307.87   11.80
  -3   1   2  316.77   11.60
   2  -1  -2  517.75   18.40
  -2  -1   2  506.45   18.70
   2  -1  -2  496.35   18.30
  -2   1   2  507.55   18.40
   2   1  -2  511.75   18.60
  -2   1   2  513.85   18.30
   1  -1  -2  514.75   19.40
   1  -1  -2  542.85   19.50
  -1   1   2  546.45   19.50
   1   1  -2  566.34   19.80
  -1   1   2  533.95   19.40
  -1   1   2  570.54   19.90
   0  -1  -2   21.40    1.90
   0   1  -2   20.00    2.50
   0   1   2   21.00    1.40
   0   1   2   21.20    1.20
   0   1   2   19.70    1.50
   1  -1   2    1.60    1.40
  -1  -1  -2    1.00    0.90
   1  -1   2    0.90    0.70
  -1   1  -2    0.80    0.30
  -1   1  -2    2.40    1.70
   1   1   2    0.10    0.80
  -1   1  -2    1.10    0.70
   2  -1   2 2064.59   71.79
   2  -1   2 2057.69   71.49
   2  -1   2 2051.59   72.39
  -2  -1  -2 1955.30   71.99
  -2   1  -2 2019.50   71.79
   2   1   2 2031.20   71.89
  -3  -1  -2 1645.04   55.79
   3  -1   2 1458.85   55.29
   3  -1   2 1481.85   55.99
   3  -1   2 1503.75   54.99
  -3   1  -2 1493.45   55.39
   3   1   2 1753.02   55.59
   4  -1   2 1716.03   62.99
   4  -1   2 1670.53   63.89
  -4  -1  -2 1846.82   63.39
   4  -1   2 1688.63   62.49
  -4   1  -2 1709.53   63.09
   4   1   2 1956.40   63.19
   5  -1   2  616.84   24.30
   5  -1   2  645.34   24.90
   5  -1   2  639.94   26.30
  -5  -1  -2  754.52   25.60
  -5   1  -2  621.44   25.00
   5   1   2  725.53   25.10
   6  -1   2   80.69    9.40
   6  -1   2   77.89    7.00
   6  -1   2   84.99    5.10
  -6  -1  -2   94.59    7.70
   6   1   2   95.09    6.70
  -6   1  -2   81.19    7.10
  -7  -1  -2    1.90    5.90
   7  -1   2    0.10    4.20
   7  -1   2   11.10    8.60
   7  -1   2    7.20    3.30
   7   1   2    0.20    4.70
  -7   1  -2    4.50    5.40
   8  -1   2  168.38   19.20
  -8  -1  -2  174.08   15.00
   8  -1   2  166.68   12.10
   8   1   2  185.08   12.30
  -8   1  -2  172.58   13.10
   9  -2  -2    9.30    6.70
  -9  -2   2   -4.20   13.70
   9  -2  -2   13.90    8.30
   9  -2  -2   12.10   12.30
   9   2  -2   16.60    7.90
  -9   2   2    2.10    9.10
   8  -2  -2    4.90    5.10
   8  -2  -2    3.70    6.30
  -8  -2   2    5.40    9.60
   8  -2  -2    5.00    8.70
   8   2  -2   -4.80    6.10
  -8   2   2    2.40    6.60
  -7  -2   2    1.80    7.60
   7  -2  -2    1.60    3.50
   7  -2  -2   -0.70    3.90
   7   2  -2   -0.80    4.60
   6  -2  -2   22.10    3.50
  -6  -2   2   14.60    5.90
  -6   2   2   22.40    4.20
  -5  -2   2    3.50    4.30
   5  -2  -2   -0.80    2.70
   5  -2  -2    2.40    2.10
  -5   2   2   -2.40    2.50
   5   2  -2    1.40    2.50
  -4  -2   2  592.94   23.30
   4  -2  -2  601.24   21.90
   4  -2  -2  602.34   22.10
  -4   2   2  602.04   22.10
   4   2  -2  587.94   22.40
   3  -2  -2  210.58    8.20
  -3  -2   2  204.48    9.60
   3  -2  -2  206.28    8.30
   3   2  -2  212.48    8.80
  -3   2   2  202.18    8.30
  -3   2   2  219.88    8.40
   2  -2  -2   90.49    4.00
  -2  -2   2   89.79    5.50
   2  -2  -2   87.69    3.70
  -2   2   2   90.69    4.00
  -2   2   2   83.59    4.00
   2   2  -2   87.79    5.10
   1  -2  -2 1972.70   71.99
  -1   2   2 1937.11   71.99
   1   2  -2 2135.39   72.79
  -1   2   2 2115.19   72.79
   0  -2  -2 1659.13   57.09
   0   2   2 1616.94   56.69
   0   2   2 1494.85   56.19
  -1  -2  -2   17.50    2.40
   1  -2   2   15.10    1.90
   1  -2   2   21.70    2.90
  -1   2  -2   26.80    2.70
   1   2   2   18.40    2.40
  -1   2  -2   20.90    1.80
   2  -2   2  114.39    4.80
   2  -2   2  113.49    6.10
  -2  -2  -2  112.99    5.90
  -2   2  -2  111.19    4.40
   2   2   2  107.39    5.30
  -2   2  -2  108.19    5.90
  -2   2  -2  107.29    5.00
   3  -2   2   37.10    4.70
  -3  -2  -2   28.00    3.70
   3  -2   2   47.80    3.30
  -3   2  -2   30.80    3.30
   3   2   2   28.80    3.50
   4  -2   2   22.30    4.40
  -4  -2  -2   23.50    3.70
   4  -2   2   24.80    2.20
   4  -2   2   31.30    3.80
  -4   2  -2   25.50    2.80
   4   2   2   25.60    2.90
  -5  -2  -2   57.29    6.90
   5  -2   2   65.09    5.40
   5  -2   2   61.89    3.90
   5  -2   2   65.49    7.70
  -5   2  -2   72.39    5.30
   5   2   2   58.79    5.10
   6  -2   2   41.20    4.90
   6  -2   2   52.09    7.10
   6  -2   2   34.00    4.00
   6   2   2   40.80    4.80
  -7  -2  -2   74.39    8.70
   7  -2   2   54.49    9.50
   7  -2   2   58.59    5.10
   7  -2   2   65.59    8.20
   7   2   2   66.79    8.60
  -7   2  -2   76.59    9.10
   8  -2   2    2.10    7.40
  -8  -2  -2    5.40    9.40
   8  -2   2   -2.10   11.80
   8  -2   2   -4.60    7.30
   8   2   2    2.50    6.00
  -8   2  -2    8.10    6.70
   8  -3  -2   96.59   11.50
   8  -3  -2   81.99    8.50
  -8  -3   2   73.89   12.60
   8  -3  -2   93.39   11.20
   8   3  -2   85.59    8.80
  -8   3   2   70.29    7.80
  -7  -3   2    2.90    8.40
   7  -3  -2   12.10    3.60
   7  -3  -2   10.00    6.90
   7  -3  -2    9.00    4.80
  -7   3   2    6.30    4.60
   7   3  -2    7.20    5.60
  -6  -3   2   62.69    8.00
   6  -3  -2   72.19    6.80
   6  -3  -2   65.59    4.80
   6  -3  -2   53.29    7.70
  -6   3   2   56.39    6.00
   6   3  -2   54.99    6.60
   5  -3  -2   10.50    2.80
   5  -3  -2   16.70    2.50
   5  -3  -2    7.20    4.10
  -5  -3   2    7.30    5.50
   5   3  -2   11.60    3.30
  -5   3   2    9.90    3.00
   4  -3  -2   27.10    4.10
  -4  -3   2   39.80    5.40
   4  -3  -2   38.00    4.10
   4   3  -2   32.40    3.70
  -4   3   2   34.90    4.00
  -4   3   2   34.00    3.70
   3  -3  -2   34.80    3.10
   3  -3  -2   30.80    3.20
  -3  -3   2   34.70    4.70
  -3   3   2   35.40    2.90
  -3   3   2   38.60    3.40
   3   3  -2   32.70    3.80
   2  -3  -2    3.80    1.50
  -2  -3   2    2.10    3.70
   2   3  -2    6.20    2.80
  -2   3   2    5.00    1.50
  -2   3   2    3.50    1.50
   1  -3  -2  384.06   14.20
  -1   3   2  367.56   14.10
   1   3  -2  392.36   15.80
  -1   3   2  382.06   15.80
   0  -3  -2  117.49    7.90
   0   3  -2  114.69    5.20
   0   3   2  117.69    5.30
   0   3   2  126.49    6.50
   1  -3   2   66.09    3.50
  -1  -3  -2   60.69    5.90
  -1   3  -2   67.19    5.20
  -1   3  -2   61.39    3.80
   1   3   2   69.29    5.10
   2  -3   2  180.58    8.90
  -2  -3  -2  192.38    9.90
   2  -3   2  179.28    7.50
  -2   3  -2  185.38    7.00
  -2   3  -2  181.48    8.60
  -2   3  -2  175.58    7.40
   2   3   2  177.88    8.20
   3  -3   2  921.71   33.90
   3  -3   2  915.21   35.00
  -3  -3  -2  969.30   35.30
  -3   3  -2  947.61   34.00
   3   3   2  933.61   34.40
  -3   3  -2  924.91   34.70
  -3   3  -2  947.91   33.60
  -4  -3  -2  101.39    8.20
   4  -3   2   93.99    5.60
   4  -3   2   98.49    7.80
   4   3   2   94.19    5.90
  -4   3  -2   96.29    6.10
   5  -3   2    8.80    3.70
  -5  -3  -2    0.60    5.50
   5  -3   2   -0.80    5.10
   5   3   2    2.30    3.50
   6  -3   2  146.89    9.50
  -6  -3  -2  141.89   13.20
   6  -3   2  143.29   11.60
   6   3   2  137.99    8.80
  -6   3  -2  134.49    8.90
   7  -3   2   70.19    8.80
  -7  -3  -2   58.09    9.90
   7  -3   2   71.59   10.60
   7   3   2   67.09    7.40
  -7   3  -2   65.19    7.50
  -8  -3  -2   18.40   12.70
   8  -3   2   34.40    8.30
   8  -3   2   21.70   14.50
   8   3   2   27.70    6.50
  -8   3  -2   15.10    8.30
   8  -4  -2   36.30    7.70
   8  -4  -2   33.00   12.30
  -8  -4   2   35.60   14.10
   8   4  -2   40.80    7.30
  -8   4   2   38.60    8.30
   7  -4  -2   24.80    7.20
  -7  -4   2   22.20   10.80
   7  -4  -2   21.60    6.50
  -7   4   2    3.80    6.10
   7   4  -2   18.00    6.90
   6  -4  -2    6.50    5.80
   6  -4  -2   -4.80    4.00
  -6  -4   2    5.60    8.30
   6   4  -2    3.60    4.50
   5  -4  -2  921.81   34.00
  -5  -4   2  871.11   36.80
  -5   4   2  935.01   33.80
  -4  -4   2  683.63   28.70
   4  -4  -2  693.63   25.90
   4  -4  -2  708.83   25.90
  -4   4   2  698.23   25.80
   4   4  -2  683.13   26.90
  -4   4   2  686.13   25.80
  -3  -4   2 1214.78   46.60
   3  -4  -2 1226.18   44.40
  -3   4   2 1211.28   44.30
   3   4  -2 1249.57   45.50
  -3   4   2 1258.57   44.30
   2  -4  -2  183.38    7.90
  -2  -4   2  181.88   11.90
   2   4  -2  184.78    9.80
  -2   4   2  186.58    7.60
  -2   4   2  171.78   12.00
  -2   4   2  184.18    7.30
  -2   4   2  183.18    7.80
  -1   4   2 1285.57   45.50
   1   4  -2 1271.47   47.20
  -1   4   2 1249.57   47.00
   0  -4  -2    0.80    4.20
   0   4   2    3.00    1.80
   0   4  -2   -0.30    1.80
   0   4   2    0.60    3.10
   0   4  -2   -0.10    4.40
  -1  -4  -2  151.28   10.00
   1   4   2  157.58    8.50
  -1   4  -2  148.29    8.60
  -1   4  -2  164.78    7.00
   2  -4   2  987.10   35.00
  -2  -4  -2  971.00   37.10
   2   4   2  947.21   35.70
  -2   4  -2  978.40   35.00
  -2   4  -2  930.31   35.50
   3  -4   2  182.18    8.30
   3  -4   2  160.78   10.60
  -3  -4  -2  174.18   11.90
   3   4   2  177.48    8.70
  -3   4  -2  182.48    8.10
  -3   4  -2  178.08    7.30
  -3   4  -2  167.18    9.60
   4  -4   2  368.66   17.30
   4  -4   2  397.06   15.50
  -4  -4  -2  383.86   18.10
  -4   4  -2  388.36   14.90
   4   4   2  388.16   16.00
  -4   4  -2  399.86   15.80
   5  -4   2    0.10    6.80
   5  -4   2    7.40    4.40
   5   4   2    0.40    4.20
   6  -4   2   -2.60    5.50
  -6  -4  -2   -1.10    7.80
   6  -4   2    0.30    8.70
  -6   4  -2   -5.70    5.10
   6   4   2    2.10    5.30
   7  -4   2    3.60   10.70
  -7  -4  -2    7.00   10.00
   7  -4   2   -5.40    6.10
   7   4   2    4.00    6.50
  -7   4  -2    4.90    7.20
  -8  -4  -2    3.90   13.60
   8  -4   2   10.30   14.50
   8  -4   2    8.20    6.50
   7  -5  -2   14.60    7.60
   7  -5  -2   -1.90    8.80
  -7  -5   2   -6.40   13.90
   7   5  -2    8.90    7.60
  -7   5   2   -1.20    7.10
   6  -5  -2    3.70    7.20
  -6  -5   2   -0.20   11.10
   6  -5  -2    1.50    6.00
  -6   5   2    3.20    5.50
   6   5  -2   -0.70    5.60
  -5  -5   2  139.29   15.30
   5  -5  -2  149.49    9.70
   5  -5  -2  159.48   10.50
  -5   5   2  164.48   15.40
  -5   5   2  152.38    8.80
   5   5  -2  157.18   11.40
  -4  -5   2  146.89   14.90
  -4   5   2  134.79    7.60
  -4   5   2  125.89    7.30
   3  -5  -2   19.20    3.60
  -3  -5   2   15.60    7.50
  -3   5   2   17.60    3.20
   3   5  -2   17.00    4.80
  -3   5   2   21.60    3.20
  -3   5   2    4.50    7.40
   2  -5  -2   82.69    5.30
   2   5  -2   78.99    9.40
  -2   5   2   84.39    4.90
  -2   5   2   78.09    5.60
  -2   5   2   78.69    8.90
   1   5  -2  228.98   12.90
  -1   5   2  229.78   10.60
  -1   5   2  238.08    9.90
  -1   5   2  230.68   12.80
   0   5   2   -0.70    4.70
   0   5  -2    0.80    2.40
   0   5   2    6.20    2.90
   0   5  -2   -4.40    6.30
  -1  -5  -2   70.69    8.70
  -1   5  -2   66.59    7.40
  -1   5  -2   66.29    4.90
   1   5   2   64.49    7.10
  -2  -5  -2  936.41   38.20
  -2   5  -2  948.11   36.10
  -2   5  -2  980.60   35.20
   2   5   2  979.20   36.50
   3  -5   2  620.04   22.90
  -3  -5  -2  579.64   27.20
  -3   5  -2  594.24   22.10
  -3   5  -2  611.44   22.90
   3   5   2  569.04   23.60
  -3   5  -2  608.24   23.90
   4  -5   2  759.82   27.30
   4  -5   2  702.93   28.70
   4   5   2  664.93   27.70
  -4   5  -2  700.53   26.20
   5  -5   2  639.94   27.90
   5  -5   2  654.63   25.30
  -5  -5  -2  620.64   29.40
  -5   5  -2  645.24   25.10
   5   5   2  651.73   26.00
   6  -5   2    7.10    6.00
  -6  -5  -2   -0.70   11.90
  -6   5  -2    5.40    5.70
   6   5   2    5.00    5.80
   7  -5   2   -4.40    8.30
  -7  -5  -2   18.10   14.50
   7  -5   2   32.90   14.50
   7   5   2  -10.60    7.10
  -7   5  -2   -0.80    7.80
  -7  -6   2  -17.80   17.50
   7  -6  -2   -1.50    6.50
  -7   6   2   -2.40    8.40
   7   6  -2    8.50    8.10
   6  -6  -2   76.89    7.90
  -6  -6   2   64.79   15.20
   6   6  -2   60.99    8.20
  -6   6   2   63.09    7.80
  -5  -6   2  -18.90   11.80
   5  -6  -2    0.70    6.40
  -5   6   2    9.10    5.50
  -5   6   2    3.30    5.00
   5   6  -2  -10.10    6.40
  -4  -6   2  713.03   35.20
   4  -6  -2  760.42   29.10
   4   6  -2  769.62   31.30
  -4   6   2  762.42   35.60
  -4   6   2  781.82   29.00
   3  -6  -2  308.57   13.70
   3   6  -2  281.87   16.30
  -3   6   2  319.07   26.30
  -3   6   2  335.47   14.70
  -2   6   2 1731.53   62.59
  -2   6   2 1749.62   66.19
  -2   6   2 1729.63   62.09
   1   6  -2   14.10    8.30
  -1   6   2    8.30    3.40
   1   6  -2    6.10    3.90
  -1   6   2   17.30    7.50
  -1   6   2    8.80    5.00
   0   6   2   12.80    6.00
   0   6  -2   -2.10    8.00
   0   6  -2   13.10    4.30
   0   6   2   16.40    3.80
   1   6   2  373.96   15.40
   1   6   2  364.16   17.50
  -1   6  -2  390.26   25.10
  -1   6  -2  367.06   17.30
  -1   6  -2  370.86   15.90
  -2  -6  -2    5.30    8.30
  -2   6  -2   15.30    6.30
  -2   6  -2    8.80    4.20
  -3  -6  -2  235.08   20.90
   3   6   2  282.87   15.00
  -3   6  -2  271.37   11.40
  -3   6  -2  295.17   13.00
  -3   6  -2  268.57   14.40
  -4  -6  -2   24.80   10.60
   4  -6   2   40.00    5.60
  -4   6  -2   38.00    4.60
   4   6   2   34.50    6.80
  -4   6  -2   43.30    5.40
   5  -6   2    5.10    7.10
  -5  -6  -2    9.80   12.10
  -5   6  -2   12.60    6.60
  -5   6  -2   17.50    5.40
   5   6   2   12.40    6.30
   6  -6   2   -0.70    8.30
  -6  -6  -2    4.20   16.50
   6   6   2   -1.80    6.50
  -6   6  -2   14.90    6.60
  -6  -7   2   51.39   19.30
   6  -7  -2   15.70    8.00
  -6   7   2    7.70    8.50
  -6   7   2   -0.10   25.70
  -6   7   2    4.80    8.30
   6   7  -2   -2.70    8.10
  -5  -7   2   14.10   16.00
   5  -7  -2    7.10    8.40
   5   7  -2   14.90    8.40
  -5   7   2    7.30    7.40
  -5   7   2  -32.90   18.00
  -5   7   2   22.40    7.40
   4  -7  -2  138.19   11.10
  -4   7   2  138.09   17.90
  -4   7   2  136.19   10.90
   4   7  -2  121.69   14.20
  -4   7   2  123.19    9.00
  -3   7   2   76.39    8.70
  -3   7   2   72.69    7.00
   3   7  -2   67.59   10.70
  -3   7   2   72.79   13.50
   2   7  -2   60.09    9.60
  -2   7   2   68.59    7.80
  -2   7   2   68.39    7.70
  -2   7   2   77.19   12.70
   1   7  -2    9.10    4.40
  -1   7   2   20.00   10.00
   1   7  -2    1.50    8.70
  -1   7   2   11.00    4.90
  -1   7   2   -6.20    6.70
   0   7  -2   14.60    9.60
   0   7  -2   -2.40    9.20
   0   7  -2   10.90    4.90
   0   7   2   15.00    4.90
   0   7   2    6.20    7.40
   1   7   2   55.69    5.50
  -1   7  -2   43.40    9.20
   1   7   2   38.80    7.70
  -1   7  -2   27.20   12.00
  -1   7  -2   51.29    6.70
  -2  -7  -2   -2.90   12.90
   2   7   2    8.80    5.80
  -2   7  -2   -6.10   14.80
  -2   7  -2    6.90    4.60
  -2   7  -2   -0.30    7.60
   2   7   2    8.90    7.80
  -3  -7  -2   68.39   13.70
   3   7   2   65.49    9.50
  -3   7  -2   93.99   11.40
  -3   7  -2   81.19    6.30
  -3   7  -2   89.09    8.60
  -4  -7  -2   22.60   13.90
  -4   7  -2   16.80    9.50
  -4   7  -2   30.20    7.30
   4   7   2   30.00    7.70
  -5  -7  -2    5.60   15.40
   5  -7   2    4.60    9.00
  -5   7  -2    8.90    6.30
   5   7   2    2.20    7.30
  -5   7  -2   17.70    7.90
  -5   8   2    8.80    8.40
  -5   8   2    0.90   23.10
  -5   8   2    5.00    9.30
  -4   8   2  173.08   23.50
   4   8  -2  178.28   17.30
  -4   8   2  140.69   12.80
  -4   8   2  179.18   13.80
  -3   8   2    9.90    7.50
  -3   8   2   -2.90   17.20
  -3   8   2   17.90    6.50
   3   8  -2    9.80   12.00
  -2   8   2  158.18   12.00
  -2   8   2  142.19   16.30
  -2   8   2  135.69   10.60
   2   8  -2  163.58   21.90
   2   8  -2  147.49   11.50
  -1   8   2   15.90    8.60
  -1   8   2   30.90   11.60
   1   8  -2   31.20    6.50
  -1   8   2   22.00    6.70
   0   8   2   63.89   12.70
   0   8  -2   47.20    6.80
   0   8   2   55.79    7.30
   1   8   2  123.49   10.30
  -1   8  -2  127.89   10.30
  -1   8  -2  139.89   15.50
   1   8   2  116.39   13.10
  -2   8  -2    3.80    6.00
   2   8   2    5.30   10.00
   2   8   2   -2.10    7.10
  -2   8  -2   25.40   10.70
  -3  -8  -2   -1.00   18.90
   3   8   2   17.80   10.30
  -3   8  -2   17.10   19.10
  -3   8  -2    6.90    6.40
  -3   8  -2   16.90    7.00
  -3   8  -2   25.60   10.60
  -4  -8  -2   27.90   18.80
  -4   8  -2   22.80   22.00
   4   8   2   26.40    9.40
  -4   8  -2   23.60    7.10
  -4   8  -2   25.80    6.40
  -3   9   2   20.10    7.60
  -2   9   2   14.00    8.00
   2   9  -2  -19.10   11.00
  -2   9   2  -10.30   14.60
   2   9  -2    0.10    7.60
   1   9  -2   90.79   17.40
  -1   9   2   88.79   11.00
   1   9  -2  107.49   12.60
  -1   9   2   71.29   17.00
  -1   9   2   -5.10    9.80
   1   9  -2   76.09   16.20
   0   9  -2   -3.30   14.90
   0   9   2   19.20   13.00
   0   9   2   -1.60   12.20
   0   9   2   -2.30    8.50
   0   9  -2    9.00    7.40
   0   9  -2   41.80   14.80
   1   9   2   36.10    7.80
  -1   9  -2   55.69   18.20
  -1   9  -2   48.50    8.60
   1   9   2   40.80   11.60
   2   9   2   29.90   11.00
   2   9   2   17.80    7.60
  -2   9  -2   61.29   18.40
   9   0  -3   11.30    6.10
  -9   0   3   38.30   11.90
   9   0  -3    8.80    6.90
  -8   0   3  -15.10    7.60
   8   0  -3    8.80    5.00
   8   0  -3   -4.60    5.30
   7   0  -3    3.20    3.40
  -7   0   3    1.00    5.70
  -6   0   3   -5.90    4.40
   6   0  -3   -2.70    2.70
   5   0  -3   -2.60    2.00
  -5   0   3    0.50    3.00
   4   0  -3   -0.80    1.40
  -4   0   3    1.70    2.00
   3   0  -3   -0.30    1.20
  -3   0   3    1.70    1.50
  -2   0   3   -0.40    0.90
   2   0  -3    0.70    0.70
   1   0  -3    0.70    2.10
   1   0  -3    0.40    1.40
   0   0   3   -0.10    0.50
   0   0  -3    0.50    1.40
   0   0  -3    0.40    0.30
   0   0   3    0.90    1.70
  -1   0  -3    1.60    1.50
   1   0   3    0.80    0.60
   1   0   3   -0.30    1.50
  -1   0  -3    0.20    0.60
  -2   0  -3   -1.30    1.10
   2   0   3    1.70    0.90
   2   0   3   -1.50    2.00
   3   0   3    4.00    3.10
  -3   0  -3   -1.40    1.50
   3   0   3   -0.40    1.30
  -4   0  -3    0.00    2.00
   4   0   3    3.30    3.10
   4   0   3    0.80    2.00
   5   0   3    1.40    2.30
  -5   0  -3   -1.80    2.60
   6   0   3    2.20    3.20
   6   0   3   -1.20    6.90
   7   0   3    3.30    8.30
   7   0   3    0.20    3.70
   7   0   3   -3.90    5.10
  -7   0  -3   -5.80    5.10
   8   0   3    2.10    5.90
   8   0   3   -3.80   10.40
  -8   0  -3    0.30    7.40
  -9  -1   3   79.69   13.60
   9  -1  -3  109.89   12.80
   9  -1  -3  102.69   11.20
  -9   1   3   95.09   12.60
   9   1  -3   94.39   11.80
   8  -1  -3   17.60    5.40
   8  -1  -3   15.00    5.20
  -8  -1   3    5.30    8.40
   8   1  -3   21.20    6.20
  -8   1   3   18.50    7.40
   7  -1  -3    9.60    4.30
  -7  -1   3    6.50    6.30
   7  -1  -3   13.00    3.80
  -7   1   3   10.10    5.20
   7   1  -3   11.60    4.30
   6  -1  -3 1075.59   38.20
  -6  -1   3 1014.70   39.20
   6  -1  -3 1022.40   38.00
  -6   1   3 1054.09   38.50
   6   1  -3 1040.90   38.30
   5  -1  -3  129.29    6.40
   5  -1  -3  139.39    6.70
  -5  -1   3  138.39    8.40
  -5   1   3  146.99    7.10
   5   1  -3  138.29    7.10
  -4  -1   3   12.10    3.10
   4  -1  -3   12.90    1.90
   4  -1  -3   15.10    2.10
  -4   1   3   14.90    2.10
   4   1  -3   13.80    2.20
   3  -1  -3  468.15   17.00
   3  -1  -3  462.05   17.10
  -3  -1   3  460.35   17.60
   3   1  -3  462.95   17.20
  -3   1   3  472.25   17.00
   2  -1  -3  601.34   21.50
  -2  -1   3  596.74   21.70
   2  -1  -3  573.94   21.30
  -2   1   3  595.34   21.30
  -2   1   3  592.94   21.60
   2   1  -3  618.84   21.70
   1  -1  -3   63.69    2.60
   1  -1  -3   64.59    2.80
   1  -1  -3   65.69    3.50
   1  -1  -3   62.99    3.00
  -1   1   3   64.49    2.80
  -1   1   3   62.29    2.50
  -1   1   3   66.59    2.80
   0  -1  -3 1499.55   52.99
   0   1  -3 1557.14   53.69
   0   1   3 1468.95   52.79
   0   1   3 1466.45   53.09
  -1  -1  -3  597.24   21.70
   1  -1   3  600.14   21.50
   1  -1   3  601.54   22.40
   1   1   3  610.24   21.60
  -1   1  -3  613.94   21.20
  -1   1  -3  592.24   21.50
  -1   1  -3  598.14   22.20
  -2  -1  -3  850.81   30.00
   2  -1   3  829.92   29.70
   2  -1   3  830.42   30.60
  -2   1  -3  812.12   29.70
  -2   1  -3  818.12   30.50
   2   1   3  833.42   29.80
   3  -1   3  702.73   26.30
   3  -1   3  697.73   24.60
  -3  -1  -3  657.53   25.40
   3  -1   3  714.03   25.10
   3   1   3  693.43   25.20
  -3   1  -3  684.03   25.20
   4  -1   3  353.56   13.90
   4  -1   3  344.17   15.20
   4  -1   3  345.27   13.30
  -4  -1  -3  401.76   14.60
   4   1   3  384.06   14.00
  -4   1  -3  340.87   14.10
   5  -1   3   37.70    3.30
   5  -1   3   39.70    6.10
  -5  -1  -3   52.69    6.00
   5  -1   3   42.20    4.80
   5   1   3   55.49    4.30
  -5   1  -3   41.30    4.70
   6  -1   3    6.90    7.70
   6  -1   3    5.90    3.40
   6  -1   3    8.10    2.70
  -6  -1  -3    5.70    4.70
  -6   1  -3    3.80    4.80
   6   1   3    4.10    3.70
   7  -1   3  521.95   21.20
   7  -1   3  567.14   23.20
  -7  -1  -3  661.73   24.50
   7  -1   3  511.65   26.30
  -7   1  -3  523.25   23.50
   7   1   3  606.64   22.70
   8  -1   3   68.19   13.40
   8  -1   3   73.99    6.70
   8  -1   3   69.69    7.70
  -8  -1  -3   79.19   10.20
   8   1   3   74.99   13.70
   8   1   3   94.69   11.00
  -8   1  -3   62.59    9.40
   9  -2  -3    7.40   13.60
   9  -2  -3    1.80    6.00
   9  -2  -3   -7.30    5.90
  -9  -2   3   -4.30   13.00
  -9   2   3    2.30   10.00
   9   2  -3    8.60    6.80
   8  -2  -3    2.90    4.80
  -8  -2   3    8.10    9.50
   8  -2  -3    7.00    5.50
  -8   2   3   -7.80    6.10
   8   2  -3   -0.50    5.20
  -7  -2   3   55.69   14.70
   7  -2  -3   44.50    5.50
   7  -2  -3   53.09    5.80
   7   2  -3   52.79    5.50
  -7   2   3   48.20    5.90
   6  -2  -3  715.43   27.90
   6  -2  -3  715.03   26.90
  -6  -2   3  698.73   29.10
   6   2  -3  740.33   27.60
  -6   2   3  739.93   27.40
   5  -2  -3 2903.71  102.89
   5  -2  -3 2881.91  102.99
  -5  -2   3 2895.41  104.09
   5   2  -3 2916.41  103.39
  -5   2   3 2904.31  103.09
   4  -2  -3 1172.18   41.80
   4  -2  -3 1165.68   41.70
  -4  -2   3 1150.08   42.70
  -4   2   3 1182.68   41.80
   4   2  -3 1140.79   42.10
  -3  -2   3 1238.08   45.80
   3  -2  -3 1269.17   44.90
   3  -2  -3 1253.47   44.90
  -3   2   3 1262.67   45.10
  -3   2   3 1243.58   44.80
   3   2  -3 1279.37   45.40
  -2  -2   3  174.18    8.30
   2  -2  -3  182.68    7.10
  -2   2   3  186.48    7.20
  -2   2   3  182.98    7.00
   2   2  -3  177.48    8.00
   1  -2  -3    4.50    2.60
   1  -2  -3    3.40    1.10
  -1   2   3    3.30    0.90
  -1   2   3    9.20    2.20
  -1   2   3    5.40    1.10
   1   2  -3    2.90    2.30
   0  -2  -3 1541.75   54.29
   0   2  -3 1523.55   54.59
   0   2   3 1455.95   53.49
   0   2   3 1532.15   53.89
   1  -2   3 1676.63   58.49
  -1  -2  -3 1695.33   59.19
   1  -2   3 1706.33   59.59
  -1   2  -3 1616.74   59.29
  -1   2  -3 1614.64   58.59
   1   2   3 1611.74   58.79
   2  -2   3  839.02   32.30
   2  -2   3  865.11   31.20
  -2  -2  -3  869.11   31.90
  -2   2  -3  866.71   32.00
  -2   2  -3  849.52   31.20
   2   2   3  903.21   31.50
  -2   2  -3  894.11   30.80
   3  -2   3  612.84   22.40
  -3  -2  -3  610.74   23.20
   3  -2   3  598.34   23.50
  -3   2  -3  611.04   22.50
   3   2   3  622.34   22.70
   4  -2   3   17.80    4.20
   4  -2   3   20.40    2.90
  -4  -2  -3   21.60    3.60
  -4   2  -3   21.10    3.00
   4   2   3   22.30    2.90
   5  -2   3   14.20    2.00
   5  -2   3   13.90    2.90
  -5  -2  -3    9.10    4.10
   5  -2   3   19.70    5.70
   5   2   3   10.40    2.90
  -5   2  -3   13.40    3.50
   6  -2   3   17.80    8.30
   6  -2   3   20.80    4.20
  -6  -2  -3   21.50    5.60
   6  -2   3   21.80    2.80
  -6   2  -3   18.60    4.10
   6   2   3   21.80    4.30
   7  -2   3   17.60   10.00
   7  -2   3   10.20    3.40
   7  -2   3   18.10    6.10
  -7  -2  -3    6.10    7.20
  -7   2  -3    9.30    5.40
   7   2   3   12.80    5.80
   8  -2   3  111.49    7.60
   8  -2   3  140.19   12.90
   8  -2   3  109.39   15.30
  -8  -2  -3  116.79   12.30
  -8   2  -3   99.49   13.20
   8   2   3  109.99   11.70
   8  -3  -3    4.30    5.90
  -8  -3   3    0.80   10.60
   8  -3  -3    0.60    5.40
  -8   3   3   -3.00    6.50
   8   3  -3    2.40    6.00
   7  -3  -3  253.57   11.80
  -7  -3   3  264.57   18.70
   7  -3  -3  276.97   14.50
   7  -3  -3  263.77   13.50
  -7   3   3  256.47   13.30
   7   3  -3  256.17   14.10
  -6  -3   3    7.70    6.60
   6  -3  -3    4.20    4.10
   6  -3  -3    6.90    3.50
   6  -3  -3    1.60    4.60
   6   3  -3    3.90    3.80
  -6   3   3    1.80    4.10
   5  -3  -3  661.93   24.60
  -5  -3   3  639.44   26.70
   5  -3  -3  658.53   24.40
   5  -3  -3  637.24   24.00
   5   3  -3  641.04   25.00
  -5   3   3  653.43   24.50
   4  -3  -3  178.88    7.60
   4  -3  -3  170.58    7.60
  -4  -3   3  162.08   10.70
  -4   3   3  174.78    7.60
  -4   3   3  173.08    7.90
   4   3  -3  173.08    8.50
   3  -3  -3   23.70    2.30
  -3  -3   3   16.70    4.10
   3  -3  -3   23.60    3.10
  -3   3   3   16.50    2.20
  -3   3   3   18.90    2.40
   3   3  -3   15.90    3.40
   2  -3  -3   40.20    3.10
  -2   3   3   41.80    4.90
  -2   3   3   36.70    2.90
   2   3  -3   42.20    5.30
  -2   3   3   38.90    2.90
   1  -3  -3  115.29    5.10
  -1   3   3  113.99    5.00
  -1   3   3  114.29    6.90
   1   3  -3  100.89    7.50
   0  -3  -3  830.52   31.30
   0   3  -3  819.42   29.70
   0   3   3  829.02   29.70
   0   3   3  828.22   30.40
  -1  -3  -3  940.71   35.00
  -1   3  -3  934.51   34.70
   1   3   3  922.11   34.20
  -1   3  -3  952.90   33.70
  -2  -3  -3 2365.56   83.29
   2  -3   3 2336.97   82.09
   2  -3   3 2365.96   83.29
  -2   3  -3 2265.57   81.69
  -2   3  -3 2379.36   82.99
  -2   3  -3 2225.18   82.09
   2   3   3 2267.27   82.49
   3  -3   3 1541.05   54.69
  -3  -3  -3 1523.65   55.79
   3  -3   3 1509.95   55.89
  -3   3  -3 1504.35   54.69
  -3   3  -3 1556.34   55.59
   3   3   3 1518.25   55.09
  -3   3  -3 1539.05   54.19
   4  -3   3   82.69    5.80
  -4  -3  -3   82.69    8.50
   4  -3   3   75.69    8.10
  -4   3  -3   87.29    5.80
   4   3   3   86.09    5.90
  -5  -3  -3   82.19    8.50
   5  -3   3   86.59    6.70
   5  -3   3   79.39    9.50
  -5   3  -3   79.69    6.30
  -6  -3  -3  274.67   16.00
   6  -3   3  244.18   18.20
   6  -3   3  302.07   13.70
   6   3   3  282.87   13.20
  -6   3  -3  296.07   13.90
   7  -3   3  248.48   13.60
  -7  -3  -3  239.78   17.50
   7  -3   3  250.27   18.70
  -7   3  -3  243.28   13.70
   7   3   3  247.88   14.00
  -8  -3  -3  424.36   25.50
   8  -3   3  507.15   22.40
   8  -3   3  520.25   28.50
   8   3   3  466.25   21.60
  -8   3  -3  479.85   21.70
  -8  -4   3   34.10   14.10
   8  -4  -3   19.90    7.90
   8  -4  -3   41.40   10.10
  -8   4   3   28.10    8.20
   8   4  -3   48.30    8.30
  -7  -4   3   50.39   11.50
   7  -4  -3   64.09    8.00
   7  -4  -3   57.89    6.70
   7   4  -3   58.09    7.80
  -7   4   3   64.59    7.10
   6  -4  -3  349.27   15.50
  -6  -4   3  313.27   22.10
   6  -4  -3  358.86   15.80
  -6   4   3  361.26   15.20
   6   4  -3  338.17   16.40
  -5  -4   3    7.70    7.40
   5  -4  -3   10.70    4.10
  -5   4   3   16.30    3.80
   5   4  -3    7.80    4.40
  -4  -4   3  662.93   28.70
   4  -4  -3  698.73   24.90
   4  -4  -3  698.13   25.40
  -4   4   3  666.33   25.20
  -4   4   3  670.03   25.10
   4   4  -3  660.83   26.40
  -3  -4   3  337.27   17.20
   3  -4  -3  362.16   14.10
  -3   4   3  372.96   13.90
  -3   4   3  361.96   13.90
  -3   4   3  363.86   17.90
   3   4  -3  342.47   15.70
   2  -4  -3   27.90    2.70
  -2   4   3   22.30    2.60
   2   4  -3   17.30    4.70
  -2   4   3   22.80    5.60
  -2   4   3   27.30    2.70
  -1   4   3   93.29    7.80
  -1   4   3   88.59    4.90
   1   4  -3   89.39    9.00
   0  -4  -3  112.69   10.10
   0   4  -3  110.29    5.60
   0   4   3  115.59    5.70
   0   4   3  110.39    7.10
  -1  -4  -3 1199.18   46.10
  -1   4  -3 1226.18   45.30
   1   4   3 1243.78   45.00
  -1   4  -3 1240.28   44.20
  -2  -4  -3    4.50    4.50
   2  -4   3    1.40    2.60
   2   4   3    7.30    3.20
  -2   4  -3    7.80    4.20
  -2   4  -3   10.20    2.40
   3  -4   3   62.49    8.20
   3  -4   3   57.99    5.10
  -3  -4  -3   62.69    8.40
   3   4   3   59.79    5.60
  -3   4  -3   60.59    4.80
  -3   4  -3   58.49    3.50
  -3   4  -3   54.09    6.90
  -4  -4  -3   29.30    6.60
   4  -4   3   26.50    3.60
   4  -4   3   20.60    6.50
  -4   4  -3   27.50    4.60
   4   4   3   22.10    3.80
  -4   4  -3   25.00    3.10
   5  -4   3    7.50    4.70
  -5  -4  -3   10.70    7.70
   5  -4   3    5.10    7.00
   5   4   3    7.20    3.80
  -5   4  -3    8.90    4.40
   6  -4   3   51.29    6.10
  -6  -4  -3   41.90   10.40
   6  -4   3   46.00   10.50
  -6   4  -3   56.09    6.60
   6   4   3   56.59    6.70
   7  -4   3   25.20    7.90
   7  -4   3   28.40   12.70
  -7  -4  -3    5.10   12.40
   7   4   3   28.10    7.40
  -7   4  -3   29.90    8.10
   7  -5  -3    7.80    6.50
   7  -5  -3    2.90    9.10
  -7  -5   3    7.60   13.40
  -7   5   3   13.20    6.90
   7   5  -3   17.30    7.90
   6  -5  -3    7.40    5.30
  -6  -5   3   17.60   12.70
   6  -5  -3   -1.10    6.60
   6   5  -3    9.10    7.00
  -6   5   3    6.00    4.50
   5  -5  -3   -0.20    4.10
  -5  -5   3    7.00    9.10
  -5   5   3   -3.60    3.60
   5   5  -3   -1.50    4.90
  -4  -5   3   66.29    9.60
  -4   5   3   80.79    6.60
  -4   5   3   81.29    6.00
   3  -5  -3   43.50    5.50
  -3   5   3   36.10    4.40
  -3   5   3   36.60    7.70
   3   5  -3   44.60    6.50
  -3   5   3   47.00    5.20
   2  -5  -3    2.40    2.70
  -2   5   3   -8.10    6.10
   2   5  -3    0.60    4.80
  -2   5   3   -1.80    2.40
  -1   5   3  211.38    9.50
  -1   5   3  207.28   12.10
   1   5  -3  232.28   13.00
   0  -5  -3   95.39   12.20
   0   5  -3   90.09    9.60
   0   5  -3   95.49    6.10
   0   5  -3  103.99    9.50
   0   5   3  103.29    8.10
   0   5   3   96.59    5.70
  -1  -5  -3   -3.90    5.90
  -1   5  -3    1.70    3.00
  -1   5  -3    0.50    5.30
   1   5   3   -1.60    4.00
   1   5   3   -1.90    3.10
  -2  -5  -3   -5.80    6.30
  -2   5  -3   -3.70    3.20
  -2   5  -3   -1.90    5.50
   2   5   3   -1.00    4.10
   3  -5   3   61.09    6.10
  -3   5  -3   62.39    6.80
  -3   5  -3   47.50    4.30
   3   5   3   46.90    6.20
   4  -5   3    4.70    8.30
   4  -5   3   14.20    4.90
  -4  -5  -3   15.50    7.80
   4   5   3   18.60    5.00
  -4   5  -3   17.10    3.10
  -4   5  -3   21.60    4.80
   5  -5   3    1.90    9.90
  -5  -5  -3    0.40    8.70
   5  -5   3    5.10    4.90
  -5   5  -3   -0.10    5.20
   5   5   3   14.20    5.70
   6  -5   3   12.80   11.00
  -6  -5  -3   10.50   12.40
   6  -5   3    6.30    6.50
   6   5   3   -3.90    5.60
  -6   5  -3    8.60    6.00
   7  -5   3    8.00   16.70
  -7  -5  -3   10.30   12.00
   7  -5   3    7.90    7.70
  -7   5  -3   -6.70    7.60
   7   5   3   -1.40    7.00
  -7  -6   3   10.00   19.80
   7  -6  -3   35.30    8.20
  -7   6   3   34.10    8.60
   7   6  -3   38.20    8.80
  -6  -6   3   75.09   15.20
   6  -6  -3   76.79   10.20
  -6   6   3  102.19   10.50
   6   6  -3   63.79    8.40
   5  -6  -3  167.48   11.00
  -5  -6   3  164.28   19.30
  -5   6   3  178.68   10.90
   5   6  -3  181.48   13.60
  -5   6   3  163.78   10.10
  -5   6   3  177.08   23.50
   4  -6  -3  580.24   22.90
   4   6  -3  574.04   25.00
  -4   6   3  578.54   22.50
  -4   6   3  550.64   26.60
  -4   6   3  593.74   31.60
   3  -6  -3    1.40    4.20
  -3   6   3    0.60    4.40
   3   6  -3    3.30    7.50
  -2   6   3   14.40    4.00
  -2   6   3    6.20    8.20
  -1   6   3   30.10    5.20
  -1   6   3   28.90    4.30
   1   6  -3   41.40    4.90
  -1   6   3   25.50    7.40
   1   6  -3   23.80    7.70
   0   6  -3   60.69    8.80
   0   6  -3   61.99   10.90
   0   6   3   77.99    6.50
   0   6  -3   66.49    6.00
   0   6   3   88.79   10.70
   1   6   3  168.18    8.70
  -1   6  -3  167.18   13.10
   1   6   3  178.78   12.10
  -2   6  -3  244.08   13.30
   2   6   3  220.48   14.40
  -3  -6  -3   -3.00    9.40
  -3   6  -3   15.20    4.40
   3   6   3   11.10    6.00
  -3   6  -3    7.30    7.20
  -3   6  -3   10.80    3.50
   4  -6   3   44.10    6.70
  -4  -6  -3   38.50   11.20
  -4   6  -3   47.10    5.70
  -4   6  -3   45.80    4.50
   4   6   3   41.10    6.10
   5  -6   3    7.80    7.40
  -5  -6  -3   -0.50   12.10
  -5   6  -3    2.50    6.60
   5   6   3   10.70    7.20
  -5   6  -3   10.40    4.80
   6  -6   3   11.90   14.80
   6  -6   3    7.20    8.80
  -6  -6  -3  -20.60   13.30
  -6   6  -3   12.90    6.60
   6   6   3   12.70    7.10
  -6  -7   3   13.10   18.60
   6  -7  -3   24.70    7.10
  -6   7   3    9.50   23.90
  -6   7   3   19.40   10.30
   6   7  -3    5.10    8.80
  -6   7   3   22.20    8.40
   5  -7  -3   -2.20    7.90
  -5   7   3   -4.10    6.40
   5   7  -3    1.50    9.90
  -5   7   3  -16.40   19.90
  -5   7   3    3.60    6.10
   4  -7  -3   45.60    7.00
  -4   7   3   48.00    6.90
  -4   7   3   32.20   16.80
   4   7  -3   49.50   10.60
  -4   7   3   45.60    6.50
  -3   7   3   12.90   10.90
   3   7  -3    8.70    8.80
  -3   7   3   13.30    4.90
  -3   7   3   17.50    5.10
   2   7  -3   17.60    9.00
  -2   7   3   15.30    9.40
  -2   7   3   12.70    4.60
  -2   7   3   22.30    3.40
  -1   7   3   29.60    6.50
  -1   7   3   16.40    8.80
  -1   7   3   24.50    5.10
   1   7  -3   36.90   11.40
   1   7  -3   10.90    4.70
   0   7   3   18.10    5.10
   0   7  -3   18.20   13.10
   0   7  -3   17.40    4.70
   0   7  -3   20.20   10.30
   0   7   3   26.90    7.30
  -1   7  -3  470.45   19.70
   1   7   3  491.25   19.80
   1   7   3  496.55   22.50
  -1   7  -3  508.35   28.90
  -1   7  -3  475.45   23.20
  -2  -7  -3  461.85   27.60
   2   7   3  483.15   22.30
  -2   7  -3  467.35   19.70
  -2   7  -3  459.65   30.10
   2   7   3  478.95   19.90
  -2   7  -3  461.55   22.10
  -3  -7  -3  240.68   23.10
  -3   7  -3  189.08   14.60
   3   7   3  259.57   14.90
  -3   7  -3  223.28   12.50
  -3   7  -3  244.28   15.70
  -4  -7  -3   83.79   15.70
   4   7   3  104.99   13.10
  -4   7  -3   96.39    7.60
  -4   7  -3  108.29   11.20
   5  -7   3    6.40    8.00
  -5  -7  -3   16.40   15.40
  -5   7  -3   -8.20    7.50
   5   7   3   13.60    7.70
  -5   7  -3    1.10    8.80
  -5   8   3   53.79   10.00
  -5   8   3   81.29    9.80
  -4   8   3  182.08   12.90
  -4   8   3  230.08   13.50
  -4   8   3  194.48   22.20
   4   8  -3  212.88   19.00
  -3   8   3  112.59   10.30
  -3   8   3   93.19    9.80
  -3   8   3   98.49   17.80
   3   8  -3  104.59   13.00
   2   8  -3  222.68   23.60
  -2   8   3  201.78   13.10
  -2   8   3  200.08   24.80
   2   8  -3  223.68   14.20
  -1   8   3  201.58   12.60
  -1   8   3  183.08   12.70
   1   8  -3  189.78   13.50
   1   8  -3  221.08   22.40
  -1   8   3  198.18   21.20
   0   8  -3  211.48   12.50
   0   8  -3  218.28   30.20
   0   8   3  180.68   17.90
   0   8  -3  205.68   23.80
   0   8   3  213.28   12.90
   1   8   3  106.09   10.90
  -1   8  -3   98.29   15.80
  -1   8  -3  117.19   10.20
   1   8   3   93.09   11.10
  -1   8  -3  102.19   20.20
   2   8   3  129.19   14.80
  -2   8  -3  146.39   12.00
  -2   8  -3  135.99   20.10
  -2   8  -3  110.69   15.50
   2   8   3  137.39   12.40
  -3  -8  -3   25.90   17.30
   3   8   3   22.30    9.10
  -3   8  -3   25.60    8.20
  -3   8  -3   35.00   19.80
  -3   8  -3   17.80   12.00
   3   8   3   26.30   10.00
  -3   8  -3   19.30    6.40
  -4  -8  -3   12.60   19.40
  -4   8  -3   -3.20    6.70
   4   8   3  -11.00    8.40
  -2   9   3    3.70   16.30
   2   9  -3   45.00   12.60
  -2   9   3    8.40    6.90
  -2   9   3   36.70    8.80
   1   9  -3  -10.20   13.80
  -1   9   3   16.00   15.40
  -1   9   3    3.10    7.20
  -1   9   3    1.40    7.90
   1   9  -3   28.60   16.20
   1   9  -3   -7.80    8.00
   0   9  -3   -1.80   14.50
   0   9   3   12.50   13.50
   0   9   3    2.50    7.10
   0   9   3   -2.10   11.20
   0   9  -3   10.60    8.30
   0   9  -3    5.80   14.60
   1   9   3  114.29   14.30
  -1   9  -3  126.19   14.50
  -1   9  -3  111.09   17.60
  -1   9  -3  119.79   16.30
   1   9   3  112.89   13.00
   2   9   3   19.50    8.50
   2   9   3   10.80    9.10
  -2   9  -3    2.90   13.70
   9   0  -4   97.09   10.30
   9   0  -4   85.09    9.50
  -9   0   4   83.49   11.80
   8   0  -4  381.16   16.70
   8   0  -4  372.66   17.10
   7   0  -4  234.08   12.20
   7   0  -4  240.98   11.30
  -7   0   4  255.87   13.60
  -6   0   4 1555.64   55.89
   6   0  -4 1507.05   55.19
   5   0  -4 2142.19   76.49
  -5   0   4 2152.68   76.79
   4   0  -4  250.57    9.90
  -4   0   4  257.37   10.40
  -3   0   4 1062.69   38.00
   3   0  -4 1066.59   38.00
   2   0  -4  373.06   13.40
   0   0  -4 1470.25   51.69
   0   0  -4 1454.15   52.39
   0   0   4 1474.25   52.59
   1   0   4 1451.65   52.39
   1   0   4 1447.46   51.39
  -1   0  -4 1462.55   51.59
  -1   0  -4 1483.75   52.29
   1   0   4 1444.16   51.29
   2   0   4   25.80    3.40
  -2   0  -4   19.40    2.20
   2   0   4   19.60    2.00
   3   0   4   43.40    3.00
   3   0   4   47.50    5.50
  -3   0  -4   48.50    3.30
   4   0   4  187.38    9.80
   4   0   4  164.48    7.50
  -4   0  -4  156.18    7.60
   5   0   4   36.50    4.80
  -5   0  -4   41.70    5.50
   5   0   4   50.09    6.60
   6   0   4  131.19   12.00
   6   0   4  111.29    7.40
  -6   0  -4  121.89    8.90
   7   0   4  270.97   13.90
   7   0   4  270.57   12.00
   7   0   4  322.57   19.90
  -7   0  -4  289.27   15.10
   8   0   4   42.10    7.70
   8   0   4   55.39   14.10
  -8   0  -4   38.30    9.10
   8   0   4   52.99    5.50
  -9  -1   4    2.80   12.60
   9  -1  -4   -2.50    7.30
   9  -1  -4   16.10    6.70
  -9   1   4   42.10   10.50
   9   1  -4   14.50    7.30
   9   1  -4   15.70    7.80
   8  -1  -4   78.59    8.80
   8  -1  -4   97.19    8.70
   8   1  -4   46.10    7.00
   7  -1  -4  128.99    8.20
   7  -1  -4  120.59    7.70
  -7  -1   4  106.79   12.80
   7   1  -4   96.09    8.50
  -7   1   4  166.08   10.20
  -6  -1   4  150.68   12.00
   6  -1  -4  189.48    8.90
   6  -1  -4  173.38    8.50
  -6   1   4  246.08   10.20
   6   1  -4  164.78    9.30
   5  -1  -4   32.10    3.40
   5  -1  -4   37.30    3.50
  -5  -1   4   27.00    4.90
   5   1  -4   27.00    3.50
   4  -1  -4    1.80    1.70
  -4  -1   4   -0.40    2.80
   4  -1  -4   -0.50    1.50
  -4   1   4   -2.20    1.80
   4   1  -4   -0.30    1.80
   3  -1  -4  345.47   12.90
   3  -1  -4  350.56   13.20
  -3  -1   4  343.87   13.50
   3   1  -4  353.16   13.20
  -3   1   4  355.76   12.90
   2  -1  -4 1655.53   58.59
   2  -1  -4 1575.64   58.29
   2   1  -4 1659.83   58.69
  -2   1   4 1747.13   58.49
  -2   1   4 1623.44   58.29
   1  -1  -4  577.34   19.50
   1  -1  -4  511.25   19.40
   1  -1  -4  546.45   19.30
   1  -1  -4  495.65   19.00
  -1   1   4  547.95   19.30
   0  -1   4 2155.18   75.69
   0  -1  -4 2096.39   74.99
   0  -1  -4 2126.79   74.69
   0   1   4 2078.89   75.09
   0   1  -4 2168.78   75.59
   0   1   4 2077.39   74.69
  -1  -1  -4 3636.04  127.89
   1  -1   4 3666.63  128.69
   1   1   4 3578.34  128.39
  -1   1  -4 3627.04  128.59
   2  -1   4  160.78    8.10
  -2  -1  -4  155.08    6.60
   2  -1   4  167.08    6.30
  -2   1  -4  154.08    7.70
  -2   1  -4  157.88    6.40
   2   1   4  150.78    7.50
   2   1   4  156.48    6.40
  -3  -1  -4  197.78    8.50
   3  -1   4  195.78    7.20
   3  -1   4  198.38    8.00
   3  -1   4  192.18    9.50
  -3   1  -4  195.48    8.10
   3   1   4  196.98    8.00
   4  -1   4  200.18   10.90
   4  -1   4  218.08    8.90
  -4  -1  -4  208.78    9.40
   4  -1   4  201.38    7.80
  -4   1  -4  206.58    9.10
   4   1   4  195.78    8.80
   5  -1   4  486.65   22.30
   5  -1   4  502.35   19.30
   5  -1   4  510.35   20.30
  -5  -1  -4  587.74   21.10
  -5   1  -4  499.05   20.40
   5   1   4  587.34   20.40
   6  -1   4  322.37   18.60
  -6  -1  -4  414.56   16.50
   6  -1   4  335.37   13.90
   6  -1   4  344.47   15.70
   6   1   4  413.36   18.30
  -6   1  -4  352.46   15.70
   6   1   4  379.76   15.50
   7  -1   4  599.34   24.40
   7  -1   4  617.64   29.20
   7  -1   4  616.24   26.40
  -7  -1  -4  751.52   27.60
   7   1   4  784.42   30.40
   7   1   4  682.93   26.00
  -7   1  -4  566.24   26.60
   8  -1   4  195.08   10.20
   8  -1   4  213.18   21.50
   8  -1   4  198.88   15.30
  -8  -1  -4  260.07   16.50
   8   1   4  230.28   14.50
  -8   1  -4  182.68   14.40
   8   1   4  261.47   19.30
   9  -2  -4    5.90   12.80
   9  -2  -4    9.60    6.30
   9  -2  -4  -14.50    7.10
  -9  -2   4    1.60   12.10
   9   2  -4    8.90    7.10
  -9   2   4    8.00   11.30
   8  -2  -4   26.00    5.50
  -8  -2   4   11.70    9.30
   8  -2  -4   10.00    6.60
  -8   2   4   11.30    6.40
   8   2  -4   18.90    6.70
  -7  -2   4  246.78   15.60
   7  -2  -4  249.48   11.40
   7  -2  -4  243.08   11.80
  -7   2   4  245.88   12.30
   7   2  -4  250.27   12.80
   6  -2  -4    5.80    2.90
   6  -2  -4   10.20    3.10
  -6  -2   4   10.50    5.40
   6   2  -4    5.60    3.80
  -6   2   4   12.30    3.80
   5  -2  -4  112.89    6.20
   5  -2  -4  117.09    6.00
  -5  -2   4  120.39    9.70
  -5   2   4  117.39    6.40
   5   2  -4  116.09    6.70
  -4  -2   4   17.80    3.70
   4  -2  -4   23.70    2.40
   4  -2  -4   23.40    2.40
  -4   2   4   19.40    2.60
   4   2  -4   18.80    2.80
   3  -2  -4  171.78    7.10
  -3  -2   4  165.68    8.70
   3  -2  -4  180.98    7.30
  -3   2   4  183.78    7.10
   3   2  -4  181.88    8.00
  -3   2   4  174.58    7.50
   2  -2  -4  276.37   10.30
   2  -2  -4  258.37   10.10
  -2   2   4  287.67   10.60
   2   2  -4  273.07   11.40
  -2   2   4  291.37   11.40
  -2   2   4  278.67   10.30
   1  -2  -4  569.74   21.20
   1  -2  -4  540.35   20.00
  -1   2   4  534.35   19.80
  -1   2   4  557.54   20.30
  -1   2   4  574.64   20.10
   0  -2  -4   29.40    3.70
   0   2   4   32.10    2.10
   0   2  -4   33.60    2.30
   0   2   4   33.10    2.60
   0   2  -4   39.20    4.30
   0   2   4   34.10    2.90
   1  -2   4  648.04   24.90
  -1  -2  -4  664.13   24.20
   1  -2   4  658.73   23.40
   1   2   4  654.63   23.70
  -1   2  -4  641.04   24.70
  -1   2  -4  645.74   23.50
   2  -2   4   61.89    3.40
   2  -2   4   59.09    5.60
  -2  -2  -4   59.09    4.30
   2   2   4   57.29    3.40
  -2   2  -4   59.69    2.50
  -2   2  -4   55.69    5.20
  -2   2  -4   60.09    3.60
  -3  -2  -4   88.09    6.10
   3  -2   4   90.49    4.50
   3  -2   4   86.59    6.80
   3   2   4   88.79    4.90
  -3   2  -4   85.19    4.70
   4  -2   4   49.30    4.60
  -4  -2  -4   54.59    6.40
   4  -2   4   48.60    7.20
  -4   2  -4   47.60    4.60
   4   2   4   46.00    4.50
   5  -2   4    2.10    6.00
   5  -2   4    0.90    3.30
   5   2   4   -3.00    3.00
   6  -2   4   50.59    5.50
  -6  -2  -4   40.20    6.60
   6  -2   4   48.40    8.90
  -6   2  -4   47.10    5.30
   6   2   4   46.50    5.90
   7  -2   4   29.70   11.40
   7  -2   4   39.90    7.10
  -7  -2  -4   29.80    8.30
   7   2   4   36.10    6.40
  -7   2  -4   34.50    6.40
  -8  -2  -4   30.60    9.60
   8  -2   4   36.90   14.70
   8  -2   4   26.80    8.50
   8   2   4   36.80   12.20
  -8   2  -4   29.10    8.10
   8   2   4   35.00    7.80
   8  -3  -4   14.30    7.00
   8  -3  -4    5.90    5.30
  -8  -3   4   11.30   10.80
   8   3  -4   -0.40    5.90
  -8   3   4   10.20    6.80
   7  -3  -4   41.70    5.50
  -7  -3   4   22.60   10.20
   7  -3  -4   37.10    4.80
  -7   3   4   37.30    5.60
   7   3  -4   32.30    5.80
   6  -3  -4  460.05   18.20
  -6  -3   4  478.15   21.90
   6  -3  -4  491.65   19.50
   6  -3  -4  484.45   18.80
  -6   3   4  459.65   18.80
   6   3  -4  438.46   20.40
   5  -3  -4  155.78    7.40
   5  -3  -4  160.48    7.90
   5  -3  -4  153.08    8.20
  -5  -3   4  163.98   12.00
   5   3  -4  148.49    8.30
  -5   3   4  170.18    8.30
   4  -3  -4   28.40    3.40
   4  -3  -4   32.90    3.40
  -4  -3   4   34.60    5.90
  -4   3   4   34.80    3.60
   4   3  -4   37.30    4.20
  -4   3   4   36.10    4.10
  -3  -3   4   52.39    5.40
   3  -3  -4   51.09    3.40
  -3   3   4   50.79    3.70
  -3   3   4   46.20    3.80
  -3   3   4   49.70    6.10
   3   3  -4   56.99    5.60
   2  -3  -4  322.37   12.30
  -2   3   4  331.27   12.40
   2   3  -4  325.17   13.90
  -2   3   4  319.17   12.10
  -2   3   4  323.57   13.80
   1  -3  -4   22.50    2.80
   1  -3  -4   26.20    4.80
   1   3  -4   23.30    4.20
  -1   3   4   26.20    2.50
  -1   3   4   29.50    3.30
   0  -3  -4  423.16   17.40
   0   3   4  432.36   16.10
   0   3  -4  415.16   15.50
   0   3   4  418.16   15.50
   0   3  -4  407.46   17.50
  -1  -3  -4  139.49    8.30
  -1   3  -4  137.59    8.20
   1   3   4  143.59    6.60
  -1   3  -4  135.79    6.10
   2  -3   4   70.69    7.70
   2  -3   4   77.99    4.50
  -2  -3  -4   78.19    6.90
  -2   3  -4   82.69    3.40
   2   3   4   81.49    4.90
  -2   3  -4   77.19    4.50
  -2   3  -4   72.59    6.80
  -3  -3  -4   45.10    5.30
   3  -3   4   44.50    6.10
   3  -3   4   44.00    4.30
  -3   3  -4   45.10    2.80
   3   3   4   47.70    4.10
  -3   3  -4   52.19    4.60
  -3   3  -4   62.99    7.00
   4  -3   4   10.30    5.90
  -4  -3  -4   16.80    4.50
   4  -3   4   14.00    2.90
  -4   3  -4   15.50    3.00
   4   3   4    9.30    2.80
   5  -3   4    8.60    7.10
   6  -3   4   81.59   10.60
  -6  -3  -4   72.49    8.50
   6  -3   4   60.59    7.70
   6   3   4   64.19    8.50
  -6   3  -4   65.39    8.80
  -7  -3  -4   53.89   10.20
   7  -3   4   59.69   13.50
   7  -3   4   64.49    8.20
  -7   3  -4   47.20    7.10
   7   3   4   69.39    7.60
   8  -3   4   70.99   16.90
   8  -3   4   66.89    9.20
   8   3   4   79.69    9.40
   8  -4  -4  103.69   12.50
   8  -4  -4  107.89   13.80
  -8  -4   4  101.99   16.00
   8   4  -4   83.89    8.80
  -8   4   4   79.19    9.00
   7  -4  -4  199.28   12.80
   7  -4  -4  225.18   12.40
   7   4  -4  208.28   13.20
  -7   4   4  220.98   12.50
   6  -4  -4  537.35   20.90
  -6  -4   4  521.25   25.60
   6  -4  -4  535.95   21.10
   6   4  -4  516.65   22.30
   5  -4  -4  521.55   20.30
  -5  -4   4  534.25   25.00
   5   4  -4  541.55   22.00
  -5   4   4  552.14   20.70
  -4  -4   4  108.29   11.50
   4  -4  -4  115.99    6.80
   4   4  -4  116.49    8.70
  -4   4   4  118.69    6.60
  -4   4   4  121.49    6.50
   3  -4  -4   36.00    4.20
   3   4  -4   30.90    4.70
  -3   4   4   35.10    3.90
  -3   4   4   35.10    6.50
  -3   4   4   36.10    3.80
   2  -4  -4  967.20   35.50
   2   4  -4  984.20   37.30
  -2   4   4  997.30   35.60
  -2   4   4  988.90   37.10
  -2   4   4  971.50   35.40
  -1   4   4  278.27   12.30
   1   4  -4  275.17   13.50
  -1   4   4  272.07   10.80
   0  -4  -4  615.04   25.70
   0   4  -4  624.24   23.10
   0   4  -4  605.94   25.20
   0   4   4  657.23   24.10
   0   4   4  640.64   23.10
  -1  -4  -4  351.16   16.50
  -1   4  -4  322.67   15.20
  -1   4  -4  350.36   13.40
   1   4   4  346.07   14.00
   2  -4   4   12.40    2.80
  -2  -4  -4    8.00    4.70
  -2   4  -4   14.10    2.80
  -2   4  -4    9.40    4.60
   2   4   4   14.60    2.90
   3  -4   4   20.80    6.40
   3  -4   4   19.90    3.30
  -3  -4  -4   16.80    6.00
   3   4   4   20.10    3.60
  -3   4  -4   15.70    5.50
  -3   4  -4   25.50    3.20
  -3   4  -4   19.80    2.20
   4  -4   4   11.60    3.90
   4  -4   4   17.40    7.00
  -4  -4  -4   16.30    6.80
   4   4   4   17.60    3.50
  -5  -4  -4  226.88   15.10
   5  -4   4  236.88   11.30
   5   4   4  213.88   11.00
  -5   4  -4  223.78   11.10
  -6  -4  -4    0.00    8.20
   6  -4   4    4.00    6.40
   6  -4   4   15.90   10.90
  -6   4  -4    0.00    5.90
   6   4   4    1.80    4.90
   7  -4   4   97.19   15.30
  -7  -4  -4   63.09   13.60
   7  -4   4   99.19   12.70
   7   4   4   61.69    8.50
  -7   4  -4   62.39    9.00
  -7  -5   4  214.38   23.80
   7  -5  -4  213.38   13.40
   7  -5  -4  232.78   14.80
   7   5  -4  224.58   15.10
  -7   5   4  213.78   13.50
   6  -5  -4   62.19    8.50
  -6  -5   4   64.89   15.50
  -6   5   4   74.99    8.30
   6   5  -4   75.09    9.90
   5  -5  -4  114.19    8.80
  -5  -5   4  102.39   11.70
  -5   5   4  134.39    8.30
   5   5  -4  118.49   10.20
  -4  -5   4   87.49    9.90
   4   5  -4   93.59   10.20
  -4   5   4  115.69   13.80
  -4   5   4   87.99    6.70
  -4   5   4   87.59    7.30
   3  -5  -4   72.59    5.50
  -3   5   4   66.69    5.30
  -3   5   4   68.59    5.60
   3   5  -4   72.39    9.60
  -3   5   4   80.89    8.20
   2  -5  -4   -0.20    2.80
  -2   5   4   -3.60    5.50
  -2   5   4    2.60    2.70
   2   5  -4   -1.10    5.80
  -2   5   4   -1.50    2.80
  -1   5   4  971.50   34.90
  -1   5   4  940.41   36.60
   1   5  -4  963.40   38.00
   0  -5  -4  719.13   31.10
   0   5  -4  751.72   27.90
   0   5  -4  751.52   30.30
   0   5   4  760.82   27.80
   0   5  -4  768.62   31.10
   0   5   4  761.12   29.20
  -1  -5  -4  538.75   24.30
  -1   5  -4  527.05   22.70
  -1   5  -4  563.04   20.80
   1   5   4  546.35   21.80
   1   5   4  544.35   20.70
  -2  -5  -4  928.61   37.70
  -2   5  -4  926.41   34.00
  -2   5  -4  890.51   35.40
   2   5   4  948.81   34.80
   3  -5   4   10.80    4.00
  -3  -5  -4    0.50    6.90
  -3   5  -4    1.90    2.30
   3   5   4    4.60    4.00
  -3   5  -4    1.70    4.60
  -3   5  -4    2.70    6.20
   4  -5   4   83.49   10.90
   4  -5   4   78.69    8.00
  -4  -5  -4   71.19   10.00
  -4   5  -4   82.39    5.40
  -4   5  -4   80.99   10.50
  -4   5  -4   83.19    7.20
   4   5   4   74.09    8.40
  -5  -5  -4  359.56   23.60
   5  -5   4  364.26   22.10
   5  -5   4  393.56   17.60
   5   5   4  385.16   17.30
  -5   5  -4  404.96   17.50
  -6  -5  -4  399.26   25.30
   6  -5   4  425.56   25.80
   6  -5   4  431.16   20.30
   6   5   4  411.46   19.70
  -6   5  -4  427.66   20.00
   7  -5   4  262.47   27.80
   7  -5   4  281.57   16.60
   7   5   4  290.57   16.20
   7  -6  -4  338.87   17.40
  -7  -6   4  331.97   30.30
   7   6  -4  299.77   18.40
  -7   6   4  346.87   18.10
   6  -6  -4  234.48   13.40
  -6  -6   4  210.58   26.10
  -6   6   4  235.48   13.30
  -6   6   4  232.38   31.10
   6   6  -4  205.28   16.80
   5  -6  -4   36.80    7.10
  -5  -6   4   44.70   12.00
  -5   6   4   38.90   15.40
  -5   6   4   47.40    6.40
  -5   6   4   38.30    5.70
   5   6  -4   27.10    8.90
   4  -6  -4   31.10    5.50
  -4   6   4   33.40    5.20
  -4   6   4   31.20   12.90
   4   6  -4   31.60    8.50
  -4   6   4   39.90    5.50
   3  -6  -4    1.30    4.80
  -3   6   4    3.90    4.00
  -3   6   4    2.70    6.50
   3   6  -4  -10.20    7.70
  -3   6   4  -13.40    8.70
  -2   6   4   73.79    6.60
  -2   6   4   78.79    5.90
  -2   6   4   65.39    9.30
  -1   6   4  489.65   18.80
   1   6  -4  505.95   24.20
  -1   6   4  478.65   22.00
   1   6  -4  465.15   19.70
   0   6  -4  352.96   15.40
   0   6   4  337.37   14.30
   0   6  -4  338.97   20.30
   0   6   4  337.97   16.10
   0   6  -4  326.17   18.20
  -1  -6  -4   95.59   11.10
  -1   6  -4   95.99   12.10
   1   6   4   94.19    7.20
   1   6   4   88.19    9.60
  -2  -6  -4  149.69   16.10
  -2   6  -4  149.69   12.90
   2   6   4  161.88   11.20
  -3  -6  -4   40.80   10.40
  -3   6  -4   23.80    3.60
  -3   6  -4   32.30    7.70
   3   6   4   22.10    5.70
  -3   6  -4   31.40    5.40
  -4  -6  -4   10.60   11.50
   4  -6   4   33.50    6.70
   4   6   4   26.00    6.00
  -4   6  -4   35.20    6.30
  -4   6  -4   33.30    4.50
   5  -6   4   30.70    8.10
  -5  -6  -4   25.20   13.00
  -5   6  -4   38.30    6.70
   5   6   4   28.00    7.40
   6  -6   4  249.18   25.00
   6  -6   4  254.17   15.60
  -6  -6  -4  217.98   25.40
  -6   6  -4  245.28   14.90
   6   6   4  238.68   15.10
   6  -7  -4   15.10    7.80
  -6   7   4   10.20   10.40
  -6   7   4   25.80   22.60
   6   7  -4    5.00    9.60
  -6   7   4   10.80    8.20
   5  -7  -4   17.60    8.30
  -5   7   4    1.70    6.50
  -5   7   4    6.60   17.70
   5   7  -4   14.20    9.30
  -5   7   4   -8.80    6.60
   4  -7  -4   48.60    8.10
  -4   7   4   25.10   15.20
  -4   7   4   49.10    7.50
   4   7  -4   31.50   11.00
  -4   7   4   46.00    6.90
   3   7  -4  -10.00   10.40
  -3   7   4  -11.80   12.00
  -3   7   4    3.60    5.10
  -3   7   4  -10.60    5.30
  -2   7   4   -2.10    9.70
   2   7  -4   -1.30   10.90
  -2   7   4    4.20    5.00
  -2   7   4   11.10    4.70
   1   7  -4    4.20    5.20
  -1   7   4    9.10    5.20
  -1   7   4    1.20    8.50
   1   7  -4    1.50   10.20
   0   7   4   40.10    8.40
   0   7  -4   52.39   12.50
   0   7   4   45.50    6.70
   0   7  -4   45.70    6.20
  -1  -7  -4  151.38   19.60
  -1   7  -4  161.38    9.70
   1   7   4  166.38   13.60
  -1   7  -4  151.28   18.00
  -1   7  -4  143.49   15.50
   1   7   4  158.08   10.20
  -2  -7  -4   -0.70   12.00
  -2   7  -4    4.40    5.00
   2   7   4    8.90    7.50
   2   7   4    5.90    5.70
  -3  -7  -4   36.50   13.90
  -3   7  -4   52.19   10.20
  -3   7  -4   52.59    6.20
   3   7   4   52.49    7.60
  -3   7  -4   50.19    6.60
  -4  -7  -4    4.40   14.70
  -4   7  -4    4.60    8.30
  -4   7  -4    8.50    6.60
   4   7   4   -0.40    6.70
  -4   7  -4   12.60   11.80
  -5  -7  -4   56.59   17.80
  -5   7  -4   55.99    8.30
   5   7   4   33.70    9.00
  -5   7  -4   39.90    7.30
  -4   8   4   27.20    8.20
  -4   8   4   31.10    8.00
   4   8  -4   28.50   11.40
  -4   8   4   45.40   18.10
  -3   8   4   13.60   15.50
   3   8  -4   21.30   12.10
  -3   8   4   17.50    7.30
  -3   8   4   10.90    7.30
  -2   8   4   -5.60    6.60
  -2   8   4    6.30    6.30
   2   8  -4  -29.30   14.00
  -2   8   4   -1.90   13.20
   2   8  -4   -2.90    6.40
   1   8  -4   10.10   15.90
  -1   8   4   14.60    6.00
  -1   8   4   15.30    5.70
  -1   8   4   19.60   12.10
   1   8  -4   20.00    6.80
   1   8  -4   26.50   13.40
   0   8   4   10.30    6.60
   0   8  -4    1.20   16.90
   0   8  -4    0.40    7.20
   0   8   4    4.30    9.30
   0   8  -4   27.60   12.60
  -1   8  -4    3.60    6.30
  -1   8  -4    2.40   11.60
  -1   8  -4   10.20   16.60
   1   8   4   18.80   10.20
   1   8   4    8.40    6.70
  -2  -8  -4   21.30   16.50
  -2   8  -4   55.59   22.10
   2   8   4   18.00    6.60
   2   8   4   12.10    9.60
  -2   8  -4   13.90    6.60
  -2   8  -4   19.70   12.50
  -3  -8  -4   54.49   19.90
  -3   8  -4   32.10    6.40
  -3   8  -4   34.70    7.40
  -3   8  -4   30.40   19.90
   3   8   4   36.10    8.90
  -3   8  -4   37.90   12.70
   3   8   4   25.40    9.80
   4   8   4   14.60    8.50
  -4   8  -4   32.50   13.80
  -4   8  -4   18.30    6.90
   2   9  -4   27.40   14.70
  -2   9   4    4.30    8.70
  -2   9   4   -4.40   13.70
   1   9  -4   12.50   16.20
  -1   9   4   63.29   14.80
   1   9  -4   46.90    8.30
  -1   9   4   44.70    8.80
   1   9  -4   17.10   17.20
   0   9  -4   57.69   18.50
   0   9  -4   70.99   16.90
   0   9   4   17.60   10.70
   0   9  -4   68.69    9.30
   0   9   4   46.70   12.20
   0   9   4   80.69    9.40
   1   9   4   99.29   11.90
  -1   9  -4   79.69   15.30
   1   9   4  114.39   13.20
  -9   0   5   12.50   10.60
   9   0  -5    6.80    7.10
   9   0  -5    2.40    7.30
   8   0  -5    0.90    5.80
   8   0  -5    2.50    5.90
   7   0  -5    5.30    4.20
   7   0  -5   14.10    4.50
  -7   0   5   15.20    5.40
   6   0  -5   10.90    4.70
  -5   0   5   17.00    3.50
   5   0  -5    5.10    2.20
  -4   0   5    2.50    2.20
   4   0  -5   -0.30    1.50
   3   0  -5    0.00    1.30
   2   0  -5    2.00    1.30
   2   0  -5    0.00    0.80
   1   0  -5   -0.30    0.90
   1   0  -5    3.00    2.40
   0   0  -5    1.50    0.70
   0   0  -5    1.40    0.40
   0   0  -5    0.30    2.20
   0   0   5    2.00    2.70
  -1   0  -5    0.70    2.50
  -1   0  -5   -1.50    0.90
   1   0   5    0.00    0.60
   1   0   5   -0.90    0.70
   1   0   5   -2.70    2.80
   2   0   5    0.70    1.20
   2   0   5    1.40    2.70
  -2   0  -5   -0.20    1.40
   3   0   5    2.50    1.60
   3   0   5    0.40    3.70
  -3   0  -5   -1.50    1.90
   4   0   5   -0.80    3.90
  -4   0  -5   -1.50    2.70
   4   0   5    0.40    2.30
   5   0   5    2.90    2.70
  -6   0  -5   -1.30    4.20
   6   0   5   -4.20    4.20
   6   0   5  -11.60    6.90
   7   0   5   -0.20    3.90
   7   0   5    7.80    9.70
  -7   0  -5    4.60    5.70
   7   0   5   -6.00    5.00
   8   0   5    0.90    7.70
   8   0   5    4.30    5.00
   8   0   5   16.20   13.10
  -8   0  -5  -12.50    7.50
   9  -1  -5   15.90    7.70
  -9  -1   5    7.10   12.40
   9  -1  -5   -8.20    6.70
  -9   1   5    8.70   11.40
   9   1  -5   10.20    7.40
   9   1  -5    7.10    7.50
   8  -1  -5   29.40    6.80
   8  -1  -5   27.40    6.40
   7  -1  -5   45.90    5.80
   7  -1  -5   52.89    6.20
  -7  -1   5   50.89    7.70
   7   1  -5   38.10    5.30
  -7   1   5   51.39    6.80
  -6  -1   5  310.77   15.10
   6  -1  -5  306.17   12.90
   6   1  -5  322.57   13.30
  -6   1   5  315.97   14.00
   5  -1  -5  121.09    5.90
   5  -1  -5  120.29    6.30
  -5  -1   5  120.09    8.20
   5   1  -5  119.29    6.40
  -5   1   5  121.99    6.90
   4  -1  -5   13.10    2.20
  -4  -1   5   10.10    2.70
   4  -1  -5   11.40    1.80
   4   1  -5   10.00    2.20
  -4   1   5   13.20    2.20
   3  -1  -5    3.10    1.10
   3  -1  -5    1.40    1.60
   3   1  -5    1.10    1.70
  -3   1   5   -1.00    2.10
  -3   1   5    3.70    1.30
   2  -1  -5 1616.04   58.69
   2  -1  -5 1706.73   59.09
   2   1  -5 1671.03   59.09
   1  -1  -5  913.01   33.50
   1  -1  -5  878.41   32.80
   1  -1  -5  943.81   33.10
   1  -1  -5  974.40   33.10
  -1   1   5  939.91   33.20
   0  -1   5  159.08    8.30
   0  -1  -5  155.48    6.80
   0  -1  -5  151.18    6.00
   0   1  -5  161.78    5.80
   0   1   5  153.98    6.00
   0   1   5  154.68    7.20
   0   1  -5  158.28    7.90
   1  -1   5 1469.15   52.49
   1  -1   5 1443.46   50.89
  -1  -1  -5 1438.06   51.19
  -1   1  -5 1467.55   52.19
  -1   1  -5 1397.06   51.09
   1   1   5 1444.36   51.99
   1   1   5 1434.36   50.99
  -2  -1  -5  394.96   14.70
   2  -1   5  388.86   14.30
   2  -1   5  388.56   16.20
  -2   1  -5  381.26   15.70
   2   1   5  385.56   15.70
   2   1   5  395.16   14.40
  -2   1  -5  393.26   14.50
   3  -1   5  434.26   16.20
   3  -1   5  438.16   17.80
  -3  -1  -5  443.66   16.70
   3   1   5  413.46   17.60
  -3   1  -5  437.96   16.30
   3   1   5  432.76   16.20
  -4  -1  -5  748.33   27.90
   4  -1   5  754.12   27.40
   4  -1   5  741.23   29.40
   4  -1   5  752.72   26.50
   4   1   5  704.53   29.10
   4   1   5  745.23   27.40
  -4   1  -5  755.12   27.60
   5  -1   5   98.69    6.40
   5  -1   5  103.69    4.60
   5   1   5  104.79    6.50
   6  -1   5  266.77   16.50
  -6  -1  -5  339.37   14.40
   6  -1   5  283.37   11.30
   6  -1   5  268.77   13.60
  -6   1  -5  289.37   13.80
   6   1   5  286.77   13.00
   6   1   5  328.27   16.80
   7  -1   5   79.59   12.80
   7  -1   5   61.29    5.30
   7  -1   5   80.79    7.90
  -7  -1  -5   80.19    9.30
  -7   1  -5   53.89    7.00
   7   1   5   70.99    6.80
   7   1   5   99.79   12.60
   8  -1   5   47.40   14.40
  -8  -1  -5   44.00    9.30
   8  -1   5   36.40    4.40
   8  -1   5   35.40    8.50
   8   1   5   43.40    7.20
  -8   1  -5   23.70    8.00
   8   1   5   41.70   11.50
  -9  -2   5  239.78   24.60
   9  -2  -5  231.18   14.10
   9  -2  -5  207.88   13.10
  -9   2   5  252.57   18.70
   9   2  -5  224.28   15.30
   8  -2  -5  522.85   21.50
   8  -2  -5  504.35   21.00
   8   2  -5  500.85   22.30
   7  -2  -5  137.39    8.40
   7  -2  -5  138.79    9.20
  -7  -2   5  138.19   13.90
  -7   2   5  126.29    9.20
   7   2  -5  129.79    9.70
  -6  -2   5  372.26   18.00
   6  -2  -5  385.66   15.50
   6  -2  -5  384.76   15.40
  -6   2   5  385.66   15.80
   6   2  -5  378.96   15.70
   5  -2  -5    6.30    2.60
   5  -2  -5   10.20    2.50
  -5  -2   5    3.50    4.50
  -5   2   5   10.70    2.50
   5   2  -5    8.40    3.10
  -4  -2   5   62.49    7.10
   4  -2  -5   58.19    3.90
   4  -2  -5   63.19    3.90
   4   2  -5   66.29    4.80
  -4   2   5   63.29    4.20
   3  -2  -5 3120.69  108.29
   3  -2  -5 2929.91  108.09
  -3   2   5 3046.20  107.99
   3   2  -5 3052.09  108.69
  -3   2   5 3062.29  108.49
  -3   2   5 3153.08  108.79
   2  -2  -5  818.02   30.60
   2  -2  -5  830.72   30.60
  -2   2   5  887.01   30.90
   2   2  -5  868.71   31.50
  -2   2   5  878.81   31.00
  -2   2   5  865.51   30.50
   1  -2  -5 1385.06   48.40
   1  -2  -5 1305.47   47.50
  -1   2   5 1294.97   47.20
  -1   2   5 1317.77   47.40
  -1   2   5 1391.86   47.70
   0  -2  -5  748.93   26.50
   0   2   5  677.23   26.20
   0   2  -5  742.93   27.50
   0   2   5  699.03   25.50
   0   2  -5  710.43   25.70
   0   2   5  726.63   25.70
   1  -2   5    3.20    4.10
  -1  -2  -5    5.10    2.40
   1   2   5    5.90    2.50
  -1   2  -5    2.50    1.30
   1   2   5    3.50    1.30
  -1   2  -5    2.50    3.10
   2  -2   5   26.50    4.20
  -2  -2  -5   19.40    2.90
   2  -2   5   22.10    2.10
  -2   2  -5   26.10    4.40
   2   2   5   22.00    3.60
   2   2   5   19.80    2.20
  -2   2  -5   22.50    2.50
   3  -2   5    6.50    2.30
  -3  -2  -5    3.10    2.60
   3  -2   5    0.80    4.00
  -3   2  -5    3.90    2.10
  -3   2  -5    0.00    4.50
   3   2   5    0.30    2.00
  -4  -2  -5  292.97   13.70
   4  -2   5  312.17   15.10
   4  -2   5  307.67   12.30
   4   2   5  296.17   12.40
  -4   2  -5  299.87   12.30
  -5  -2  -5  359.86   17.10
   5  -2   5  358.16   14.80
   5   2   5  334.37   14.60
  -5   2  -5  372.56   15.10
   6  -2   5   32.40    9.70
  -6  -2  -5   24.60    7.00
   6  -2   5   36.70    5.60
  -6   2  -5   33.40    5.20
   6   2   5   43.00    5.40
   7  -2   5   74.29   13.30
  -7  -2  -5   51.79   10.20
   7  -2   5   84.59   10.90
   7   2   5   73.19    7.70
  -7   2  -5   65.39    7.50
   7   2   5   75.39   12.90
   8  -2   5    3.30    7.00
   8  -2   5    0.00   14.80
   8   2   5    0.30    7.20
   8  -3  -5   -4.00    7.60
   8  -3  -5   12.80    7.00
   8  -3  -5   -6.70    5.30
  -8   3   5    2.40    7.10
   8   3  -5    3.00    7.10
  -7  -3   5  152.88   15.60
   7  -3  -5  164.28   11.40
   7  -3  -5  165.58    9.20
   7  -3  -5  158.08    9.90
   7   3  -5  153.38   11.40
  -7   3   5  155.38   10.70
   6  -3  -5   77.79    6.80
  -6  -3   5   76.09    8.90
   6  -3  -5   66.29    5.90
  -6   3   5   76.99    6.90
  -5  -3   5   -7.80    5.80
   5  -3  -5    6.40    3.00
   5  -3  -5   -0.10    2.40
   5   3  -5   -0.30    3.00
  -5   3   5    1.70    3.10
   4  -3  -5    4.00    2.30
  -4  -3   5    0.40    4.90
  -4   3   5    6.00    2.30
   4   3  -5    7.30    3.00
  -4   3   5    3.30    2.90
   3  -3  -5  483.45   18.50
  -3   3   5  496.05   18.80
  -3   3   5  495.25   18.30
   3   3  -5  512.55   19.70
  -3   3   5  501.95   20.20
   2  -3  -5  407.16   15.20
  -2   3   5  394.96   15.40
   2   3  -5  404.46   16.80
  -2   3   5  402.26   15.00
  -2   3   5  432.26   16.30
   1  -3  -5 2437.36   85.79
   1  -3  -5 2348.36   84.29
  -1   3   5 2445.26   84.69
  -1   3   5 2355.46   84.09
  -1   3   5 2431.76   84.39
  -1   3   5 2270.57   84.09
   0  -3  -5  821.82   30.60
   0   3   5  790.32   29.30
   0   3  -5  810.82   29.10
   0   3   5  809.02   29.40
   0   3   5  804.12   29.00
   0   3  -5  811.02   31.00
  -1  -3  -5  207.68    9.90
  -1   3  -5  212.18    8.30
   1   3   5  190.38    8.40
  -1   3  -5  213.88   10.70
  -2  -3  -5    4.60    3.70
   2  -3   5    4.20    2.00
   2  -3   5    1.30    5.00
  -2   3  -5   -0.20    0.90
  -2   3  -5   -0.30    2.00
  -2   3  -5   -1.10    4.30
   2   3   5   -1.20    1.90
  -3  -3  -5  911.11   34.60
   3  -3   5  918.61   33.30
   3  -3   5  912.91   35.60
  -3   3  -5  893.31   34.90
  -3   3  -5  935.21   33.50
   3   3   5  921.71   33.60
  -4  -3  -5  794.52   31.20
   4  -3   5  793.52   31.70
   4  -3   5  800.82   29.50
  -4   3  -5  814.32   29.80
   4   3   5  781.92   29.70
   5  -3   5  717.63   37.00
   5  -3   5 1007.90   38.40
  -5  -3  -5  985.30   37.10
  -5   3  -5 1022.20   35.40
   5   3   5  965.80   35.10
   6  -3   5  373.16   21.90
   6  -3   5  381.16   17.00
  -6  -3  -5  350.76   18.80
  -6   3  -5  366.06   16.60
   6   3   5  368.66   16.10
   7  -3   5  109.09   12.40
   7  -3   5   93.39   15.80
  -7  -3  -5   87.59   11.40
  -7   3  -5   96.99   12.40
   7   3   5  100.99   10.80
   8  -4  -5   22.00    9.20
   8  -4  -5   16.00    8.00
  -8  -4   5   20.70   15.00
   8   4  -5   13.60    8.30
  -8   4   5   19.30    7.70
  -7  -4   5  428.36   39.20
   7  -4  -5  547.75   22.40
   7  -4  -5  546.65   22.10
   7   4  -5  555.44   23.80
   6  -4  -5    1.80    4.40
   6  -4  -5    0.90    4.70
  -6  -4   5  -17.40    8.90
  -6   4   5    1.50    4.50
   6   4  -5    3.20    4.70
   5  -4  -5   -3.30    2.90
  -5  -4   5   -8.70    7.20
  -5   4   5   -0.80    3.20
   5   4  -5    3.00    4.60
   4  -4  -5  240.28   10.70
  -4   4   5  242.98   10.90
  -4   4   5  239.58   10.30
   4   4  -5  254.87   12.60
  -4   4   5  248.58   15.40
   3  -4  -5   64.99    4.90
  -3   4   5   53.09    4.60
   3   4  -5   55.29    6.00
  -3   4   5   62.19    6.50
  -3   4   5   55.49    4.30
   2  -4  -5  369.56   14.40
  -2   4   5  378.16   16.00
  -2   4   5  370.46   14.20
   2   4  -5  368.36   16.80
  -2   4   5  384.56   14.50
   1  -4  -5  430.56   19.20
  -1   4   5  431.46   16.20
  -1   4   5  437.86   17.40
   1   4  -5  433.96   19.20
   0  -4  -5   30.50    5.50
   0   4   5   27.90    3.50
   0   4  -5   40.50    5.70
   0   4   5   35.60    4.70
   0   4  -5   28.30    3.70
  -1  -4  -5    6.20    5.20
   1   4   5   -1.80    2.60
   1   4   5    1.40    2.50
  -1   4  -5    0.80    5.10
  -1   4  -5    0.70    2.00
  -2  -4  -5  211.68   12.20
  -2   4  -5  217.08   11.80
   2   4   5  207.28    9.60
  -2   4  -5  207.98    9.00
  -3  -4  -5   14.20    6.20
   3  -4   5   10.70    3.40
   3  -4   5   10.40    7.00
   3   4   5   13.60    3.00
  -3   4  -5   13.30    1.90
  -3   4  -5    6.80    3.00
  -3   4  -5    8.30    6.20
   4  -4   5    2.80    3.90
   4  -4   5   10.30    8.00
   4   4   5    0.60    3.60
  -4   4  -5    4.40    3.90
  -5  -4  -5  115.49   12.90
   5  -4   5  133.69   15.70
   5  -4   5  131.59    9.70
  -5   4  -5  123.19    9.50
   5   4   5  140.19    9.40
   6  -4   5   96.29   14.30
   6  -4   5   97.49   11.30
  -6  -4  -5  119.99   15.20
   6   4   5   91.99   10.50
  -6   4  -5   94.99    9.70
   7  -4   5   22.10   16.30
  -7  -4  -5   25.40   12.00
   7  -4   5   47.30    9.20
   7   4   5   49.50    8.10
  -7   4  -5   50.09    8.20
   7  -5  -5   37.90    7.30
   7  -5  -5   44.60    7.30
  -7   5   5   51.89    7.20
   7   5  -5   60.89    9.30
   6  -5  -5    6.80    6.20
  -6  -5   5   13.20   11.60
   6   5  -5   10.60    7.00
  -6   5   5   15.20   16.90
   5  -5  -5   55.89    5.90
  -5   5   5   55.59   11.60
   5   5  -5   38.80    6.60
  -5   5   5   52.29    6.90
  -5   5   5   45.50    5.90
  -4   5   5  160.78    8.70
   4   5  -5  156.08   11.70
  -4   5   5  168.38   15.20
   3  -5  -5   26.40    4.10
   3   5  -5   28.00    5.80
  -3   5   5   20.50    3.50
  -3   5   5   22.10    6.80
  -2   5   5    8.30    3.10
  -2   5   5    5.90    3.30
  -2   5   5    7.50    5.40
   2   5  -5   11.80    6.70
   1   5  -5    5.70    7.30
  -1   5   5   15.50    4.80
  -1   5   5   13.90    3.00
   0  -5  -5   56.59    8.80
   0   5  -5   39.50    4.60
   0   5  -5   56.69    7.90
   0   5   5   50.39    5.30
   0   5   5   46.00    4.80
  -1  -5  -5    1.90    6.70
  -1   5  -5   -0.30    6.40
   1   5   5    1.90    3.10
  -1   5  -5    0.60    3.20
   1   5   5    3.00    3.70
  -2  -5  -5   13.60    8.10
  -2   5  -5   24.50    6.80
   2   5   5   22.40    4.30
  -2   5  -5   21.00    3.90
  -3   5  -5  -10.70    7.00
  -3   5  -5    7.80    4.80
  -3   5  -5    5.30    2.40
   3   5   5    3.90    4.10
   4  -5   5  150.98    9.60
  -4  -5  -5  121.79   16.60
   4  -5   5  128.29   18.30
  -4   5  -5  141.79    7.20
  -4   5  -5  140.99   14.40
   4   5   5  143.19    9.60
  -4   5  -5  149.88    9.20
  -5  -5  -5  164.68   17.40
   5  -5   5  160.88   19.40
   5  -5   5  193.88   12.20
  -5   5  -5  187.68   12.20
   5   5   5  183.18   11.30
   6  -5   5    8.30    8.10
  -6  -5  -5   10.60   11.60
   6  -5   5   -5.00   15.00
   6   5   5    4.30    5.80
  -6   5  -5    5.80    6.80
  -7  -6   5   82.69   18.50
   7  -6  -5   96.99   10.60
  -7   6   5   83.69   10.00
   7   6  -5  117.19   15.20
  -7   6   5  118.89   26.80
   6  -6  -5   17.70    8.00
   6   6  -5   25.30    9.20
  -6   6   5   32.90    6.60
  -6   6   5   49.99   18.30
   5  -6  -5   12.50    5.70
  -5   6   5   15.30    6.00
  -5   6   5   36.40   13.90
  -5   6   5   10.60    6.00
   5   6  -5   14.20    7.80
   4  -6  -5  165.78   10.30
   4   6  -5  155.78   15.70
  -4   6   5  173.98    9.70
   3  -6  -5    2.70    4.90
  -3   6   5   -0.40    4.90
   3   6  -5   -5.50    8.20
  -3   6   5    1.40    4.00
  -3   6   5    0.80    8.10
  -2   6   5  411.86   20.70
  -2   6   5  440.16   17.30
  -2   6   5  447.96   18.10
  -1   6   5   92.59    6.80
  -1   6   5   85.49   10.60
   1   6  -5   89.39   13.20
   0  -6  -5   13.70   10.40
   0   6   5    1.50    3.80
   0   6   5    1.80    5.30
   0   6  -5   11.70    8.60
  -1   6  -5   78.89    6.80
   1   6   5   66.09    8.70
  -1   6  -5   82.79   10.10
   1   6   5   78.29    7.00
  -2  -6  -5   53.19   11.00
   2   6   5   64.99    6.90
   2   6   5   57.59    6.90
  -2   6  -5   64.59    9.10
  -2   6  -5   68.39    7.30
  -3  -6  -5    5.30   10.00
   3   6   5   13.60    4.80
  -3   6  -5   11.80    3.40
  -3   6  -5    5.00    9.80
  -3   6  -5   16.60    5.50
  -4  -6  -5   -1.50   12.60
  -4   6  -5    8.40    9.90
  -4   6  -5    2.50    3.80
  -4   6  -5    2.80    6.10
   4   6   5   -9.70    5.40
   5  -6   5   67.79    9.00
  -5  -6  -5   59.49   14.10
  -5   6  -5   51.19    8.40
   5   6   5   61.39    8.20
   6  -6   5    6.90    9.50
   6   6   5   26.10    7.60
   6  -7  -5   15.90    9.00
  -6   7   5  -18.00   21.90
  -6   7   5    2.00    8.60
   6   7  -5   15.80   10.00
  -6   7   5   14.80    7.80
   5  -7  -5   -6.80    7.10
   5   7  -5    2.10    9.30
  -5   7   5   21.60   16.60
  -5   7   5    5.20    7.40
  -5   7   5    4.80    6.40
   4  -7  -5   30.00    7.00
  -4   7   5   10.20   13.20
  -4   7   5   25.60    6.30
   4   7  -5   25.10   11.40
  -4   7   5   44.00    7.80
  -3   7   5   50.09   11.40
   3   7  -5   67.99   12.40
  -3   7   5   69.49    7.90
  -3   7   5   63.39    7.90
  -2   7   5  257.67   18.60
  -2   7   5  286.27   16.80
  -2   7   5  263.47   12.50
   2   7  -5  251.57   22.00
  -1   7   5  202.98   15.80
   1   7  -5  211.28   18.40
  -1   7   5  187.28   16.00
   1   7  -5  211.98   19.60
   1   7  -5  207.08   11.90
   0   7   5  429.06   21.20
   0   7  -5  437.46   18.70
   0   7  -5  436.36   29.50
  -1  -7  -5   12.30   14.40
   1   7   5   -1.10    5.20
  -1   7  -5   -0.60    5.50
  -1   7  -5  -10.60   15.80
   1   7   5   -2.50    6.90
  -2  -7  -5   21.90   13.40
  -2   7  -5   -1.00    5.10
   2   7   5   11.60    6.40
   2   7   5    7.50    5.70
  -3  -7  -5  106.39   16.50
  -3   7  -5  144.49    8.20
   3   7   5  150.28   12.00
  -3   7  -5  143.79   12.10
  -3   7  -5  145.19   15.50
  -4  -7  -5  161.58   21.50
  -4   7  -5  176.78   17.50
  -4   7  -5  181.68   10.20
   4   7   5  193.98   14.60
  -4   7  -5  182.18   12.70
   5   7   5  506.45   22.90
  -4   8   5  105.39   11.00
  -4   8   5   72.69   18.90
  -4   8   5   96.49   12.40
   4   8  -5   77.79   14.60
  -3   8   5   64.19   14.60
   3   8  -5   72.19   15.50
  -3   8   5   70.29    8.50
  -3   8   5   75.49    8.10
   2   8  -5  208.18   25.70
  -2   8   5  207.58   12.80
  -2   8   5  202.28   21.60
  -2   8   5  215.58   12.30
   2   8  -5  201.78   14.40
  -1   8   5   61.89    7.20
   1   8  -5   66.59   15.30
  -1   8   5   36.70   11.30
   1   8  -5   66.39    8.60
   1   8  -5   39.40   17.40
   0   8  -5   94.89   19.40
   0   8  -5   58.99   14.80
   0   8  -5   73.59    8.70
   0   8   5   72.19   11.40
   0   8   5   81.79    8.80
   1   8   5    8.00    8.20
  -1   8  -5   -1.70    7.50
  -1   8  -5    1.90   13.60
   1   8   5   -2.70    6.60
  -1   8  -5    5.40   20.70
  -2  -8  -5  -32.00   16.90
  -2   8  -5   22.00   11.90
   2   8   5   -2.90    6.40
  -2   8  -5    5.80    7.80
   2   8   5   -1.00    9.30
  -2   8  -5    2.90   19.00
  -3  -8  -5   16.00   18.80
   3   8   5    4.90    8.30
   3   8   5    4.80    7.60
  -3   8  -5   11.60   12.30
  -3   8  -5  -11.20    5.80
  -3   8  -5   -4.00    7.80
  -1   9   5   -3.60    7.30
   1   9  -5   21.60   19.40
   1   9  -5   21.30   18.60
  -1   9   5    2.90   13.10
   0   9   5   32.90   11.00
   0   9  -5   61.19   17.30
   0   9   5   19.40    8.70
   9   0  -6  427.66   19.70
   9   0  -6  432.46   19.70
   8   0  -6  154.78   10.30
  -8   0   6  144.69   14.20
   8   0  -6  152.38   11.10
   7   0  -6    7.40    4.80
   7   0  -6   10.00    4.30
  -7   0   6    9.90    5.90
   6   0  -6   32.50    3.70
  -6   0   6   27.00    5.00
   6   0  -6   36.80    4.60
  -5   0   6  935.61   34.60
   5   0  -6  959.70   34.90
   5   0  -6  948.01   34.40
   4   0  -6  498.85   18.90
   4   0  -6  498.65   18.40
   3   0  -6 2795.62   98.39
   3   0  -6 2781.32   98.89
   2   0  -6 1124.09   40.70
   2   0  -6 1152.38   40.20
   1   0  -6  274.07   11.70
   1   0  -6  280.47   10.30
   0   0   6 2194.18   79.49
   0   0  -6 2238.78   77.99
   0   0  -6 2215.18   79.19
   1   0   6 1362.36   47.50
  -1   0  -6 1323.97   47.70
   1   0   6 1335.97   49.10
  -1   0  -6 1360.46   48.90
  -2   0  -6  118.79    5.40
   2   0   6  122.69    5.10
   2   0   6  129.19    7.70
   2   0   6  117.19    4.40
  -3   0  -6    3.60    2.30
   3   0   6    2.10    3.90
   3   0   6    4.00    2.10
   4   0   6 1859.11   66.79
  -4   0  -6 1863.61   67.19
   4   0   6 1890.21   68.79
   5   0   6   28.20    6.70
  -5   0  -6   16.00    3.90
   5   0   6   16.90    3.50
  -6   0  -6   54.69    6.50
   6   0   6   72.29   10.60
   6   0   6   64.89    7.90
   6   0   6   47.90    4.50
   7   0   6  224.68   20.20
   7   0   6  215.68   10.40
   7   0   6  271.17   14.30
  -7   0  -6  272.27   15.10
   9  -1  -6   11.60    6.70
   9  -1  -6    7.20    7.70
   9   1  -6    4.30    7.00
   9   1  -6   11.40    7.10
   8  -1  -6    8.20    5.80
  -8  -1   6    4.50    8.80
   8  -1  -6    7.10    6.00
  -8   1   6   16.80    7.70
   8   1  -6   -4.50    5.10
   7  -1  -6   -2.00    4.20
  -7  -1   6    5.50    6.50
   7  -1  -6    6.20    4.00
   7   1  -6   -0.70    4.20
  -7   1   6    1.60    6.00
  -6  -1   6    4.60    4.70
   6  -1  -6   11.90    3.10
   6  -1  -6   12.20    3.60
  -6   1   6   21.20    4.40
   6   1  -6   14.20    3.40
  -5  -1   6   96.39    7.20
   5   1  -6  101.69    5.90
   4  -1  -6   88.89    4.90
   4  -1  -6  107.79    4.60
  -4   1   6   94.49    6.10
   4   1  -6   68.09    4.80
   3  -1  -6 1450.25   53.09
   3  -1  -6 1516.35   53.49
   3   1  -6 1528.05   53.39
   2  -1  -6  502.55   19.10
   2  -1  -6  514.45   18.50
   2  -1  -6  494.95   18.00
   2   1  -6  503.15   18.40
   1  -1  -6  638.14   23.10
   1  -1  -6  646.64   23.30
   1  -1  -6  671.93   24.10
   1  -1  -6  640.84   23.40
  -1   1   6  647.84   23.60
   1   1  -6  670.03   25.20
   0  -1  -6   17.40    1.80
   0  -1  -6   21.60    2.80
   0  -1   6   22.00    4.00
   0   1   6   16.60    3.20
   0   1  -6   16.70    1.40
   0   1  -6   23.10    3.60
   0   1   6   17.60    1.80
   0   1  -6   16.50    1.40
  -1  -1  -6  420.06   15.60
   1  -1   6  432.16   17.40
   1   1   6  401.96   16.70
  -1   1  -6  428.36   15.40
   1   1   6  432.96   15.20
  -1   1  -6  420.96   16.90
   2  -1   6  783.02   30.10
  -2  -1  -6  786.12   28.70
   2  -1   6  786.42   28.20
  -2   1  -6  787.32   28.40
   2   1   6  766.72   29.70
   2   1   6  806.72   28.30
  -2   1  -6  795.22   29.90
  -3  -1  -6 2253.57   79.79
   3  -1   6 2240.08   81.09
   3  -1   6 2248.48   79.29
  -3   1  -6 2221.78   79.49
   3   1   6 2242.58   80.89
   3   1   6 2203.18   79.29
   4  -1   6 1057.09   37.60
  -4  -1  -6 1046.80   38.20
   4  -1   6 1008.30   39.40
  -4   1  -6 1052.39   37.80
   4   1   6 1012.60   37.50
   4   1   6 1020.90   39.50
   5  -1   6   62.29    8.00
   5  -1   6   58.29    2.90
   5  -1   6   53.39    6.00
  -5   1  -6   63.59    6.70
   5   1   6   68.39    8.40
   5   1   6   61.79    5.80
   6  -1   6  133.59    6.00
  -6  -1  -6  143.19   11.10
   6  -1   6  134.69    9.40
   6  -1   6  150.58   15.50
  -6   1  -6  139.39   10.20
   6   1   6  140.79   13.90
   6   1   6  140.89    9.10
  -7  -1  -6   -7.20    8.40
   7  -1   6   -2.50    2.80
   7  -1   6    0.10    6.60
   7  -1   6    5.00   12.40
  -7   1  -6   -9.20    7.00
   7   1   6    6.70    6.10
   7   1   6   -1.40   10.50
   9  -2  -6    9.50    6.20
  -8  -2   6    1.90   10.10
   8  -2  -6    3.40    5.60
   8  -2  -6    5.80    5.50
  -8   2   6    2.10    8.60
   8   2  -6   14.40    5.80
   7  -2  -6   20.40    4.70
   7  -2  -6   10.20    4.50
  -7  -2   6   17.10    7.20
  -7   2   6   17.30    5.60
   7   2  -6   16.80    4.90
   6  -2  -6    5.20    2.80
   6  -2  -6   10.30    3.50
  -6  -2   6    7.30    5.80
   6   2  -6    1.80    3.40
  -6   2   6    2.90    3.50
   5  -2  -6  120.19    6.40
  -5  -2   6  119.39    9.30
   5  -2  -6  120.99    6.30
  -5   2   6  121.09    6.50
   5   2  -6  121.19    7.00
   4  -2  -6  222.28    9.30
   4  -2  -6  238.08    9.50
  -4   2   6  231.38   11.10
   4   2  -6  229.68   10.00
  -4   2   6  227.18    9.10
   3  -2  -6    6.70    1.90
   3  -2  -6    8.50    1.70
  -3   2   6    6.50    1.30
  -3   2   6    3.60    2.60
   3   2  -6    2.80    2.70
  -3   2   6   10.90    2.10
   2  -2  -6  187.48    7.40
   2  -2  -6  181.68    7.60
  -2   2   6  200.18    7.90
   2   2  -6  197.48    8.80
   1  -2  -6   28.80    3.40
   1  -2  -6   25.60    3.10
   1  -2  -6   30.30    2.30
  -1   2   6   28.60    2.50
   1   2  -6   45.00    5.40
   0  -2  -6  110.29    5.80
   0   2   6  109.59    4.70
   0   2  -6  112.59    4.60
   0   2   6  114.19    4.30
   0   2   6  103.39    4.20
   0   2   6  101.39    6.20
   0   2  -6  104.79    7.40
   1  -2   6  153.08    9.70
  -1  -2  -6  142.59    6.90
  -1   2  -6  153.68    8.70
   1   2   6  134.59    7.40
  -1   2  -6  147.69    6.00
   1   2   6  148.39    5.90
   2  -2   6   70.29    8.00
   2  -2   6   75.99    3.90
  -2  -2  -6   65.69    5.20
  -2   2  -6   72.39    4.10
   2   2   6   65.59    6.30
   2   2   6   66.39    3.80
  -2   2  -6   69.99    6.50
   3  -2   6  651.53   23.50
   3  -2   6  662.13   26.20
  -3  -2  -6  621.84   24.30
  -3   2  -6  649.83   23.70
   3   2   6  635.14   25.20
  -3   2  -6  618.14   25.50
   3   2   6  624.54   23.50
   4  -2   6  483.25   21.90
  -4  -2  -6  495.95   20.00
   4  -2   6  479.95   18.70
   4   2   6  463.25   20.60
  -4   2  -6  498.35   19.00
   4   2   6  495.45   18.70
   5  -2   6  454.55   18.20
  -5  -2  -6  472.05   19.90
   5  -2   6  467.05   22.50
   5   2   6  451.35   17.90
   5   2   6  458.15   20.70
  -5   2  -6  417.46   19.10
   6  -2   6   21.90   11.20
  -6  -2  -6   19.70    6.60
   6  -2   6   12.50    5.40
  -6   2  -6    8.80    5.80
   6   2   6   17.00    5.00
   6   2   6   24.10    8.90
   7  -2   6    8.30    7.30
  -7  -2  -6    5.20    8.60
   7  -2   6   17.40   11.90
   7   2   6   15.10    6.70
   7   2   6    5.10   12.40
  -7   2  -6    3.80    6.60
   8  -3  -6   69.29    8.20
   8  -3  -6   75.29    9.50
   8  -3  -6   72.59    8.70
  -8  -3   6   48.10   13.00
   8   3  -6   71.29    8.50
   7  -3  -6   20.90    4.90
   7  -3  -6   27.80    5.70
  -7  -3   6   19.30    9.90
   7   3  -6   20.30    6.00
  -6  -3   6   -8.00    7.30
   6  -3  -6    7.50    3.40
   6  -3  -6    0.60    3.90
  -5  -3   6   52.69    6.50
   5   3  -6   58.09    6.20
   4   3  -6    3.60    3.40
  -4   3   6    6.90    3.40
   3  -3  -6   31.60    3.40
  -3   3   6   39.00    4.10
   3   3  -6   30.50    4.50
  -3   3   6   34.00    3.40
  -3   3   6   29.00    2.90
   2  -3  -6  312.17   12.10
   2   3  -6  320.57   14.20
  -2   3   6  311.47   11.70
  -2   3   6  326.17   12.50
  -2   3   6  315.77   12.50
   1  -3  -6   11.70    4.20
  -1   3   6   13.10    2.30
  -1   3   6   12.70    2.00
  -1   3   6    9.50    1.50
  -1   3   6    6.80    2.60
   0  -3  -6   42.70    4.80
   0   3  -6   37.60    3.00
   0   3   6   38.90    4.10
   0   3   6   37.30    2.80
   0   3   6   36.60    3.20
   0   3  -6   51.89    5.70
  -1  -3  -6  245.48   11.70
   1   3   6  255.97    9.90
   1   3   6  241.88    9.80
   1   3   6  248.28   11.00
  -1   3  -6  255.07    9.90
  -1   3  -6  251.57   12.60
   2  -3   6  644.84   23.70
   2  -3   6  640.04   26.70
  -2  -3  -6  653.83   25.40
   2   3   6  633.14   24.90
  -2   3  -6  629.14   25.80
  -2   3  -6  662.63   23.90
  -2   3  -6  657.83   23.00
   2   3   6  651.73   23.90
   3  -3   6  211.78    9.30
  -3  -3  -6  219.68   11.80
   3  -3   6  217.78   13.00
  -3   3  -6  204.58   11.90
   3   3   6  213.98    9.50
  -3   3  -6  231.78    9.70
   4  -3   6  291.57   12.60
   4   3   6  303.57   12.70
  -5  -3  -6   61.89    7.40
   5  -3   6   48.70    9.40
  -5   3  -6   52.89    5.80
   5   3   6   54.89    7.00
   6  -3   6   -2.00   11.10
   6  -3   6   -2.20    5.80
  -6  -3  -6   18.50    8.70
   6   3   6   11.40    5.30
   6   3   6   -3.40   10.60
  -6   3  -6   -5.40    6.20
  -7  -3  -6    7.10   10.10
   7  -3   6   16.40   15.80
   7  -3   6   -8.20    7.90
  -7   3  -6    2.80    6.60
   7   3   6    0.60    5.70
   7   3   6   12.00   12.40
   8  -4  -6   37.80    9.00
   8  -4  -6   50.19    8.60
   8   4  -6   47.60    7.90
  -8   4   6   47.40    8.30
   7  -4  -6    2.40    5.90
  -7  -4   6   -6.90   10.50
   7  -4  -6    0.00    6.20
   7   4  -6    1.50    7.10
   6  -4  -6   45.70    5.90
  -6  -4   6   32.60    9.50
   6  -4  -6   41.00    5.00
  -6   4   6   48.00    5.10
  -6   4   6   42.10   10.80
   6   4  -6   36.70    6.10
  -5   4   6  117.79    7.30
   5   4  -6  129.89    9.50
   4  -4  -6  678.13   25.60
   4   4  -6  673.43   27.10
  -4   4   6  688.53   25.30
  -4   4   6  696.13   28.10
   3  -4  -6  344.67   13.60
   3   4  -6  350.26   16.00
  -3   4   6  336.37   15.60
  -3   4   6  355.86   14.00
  -3   4   6  346.17   13.40
   2  -4  -6  139.89    6.80
  -2   4   6  139.59    6.80
  -2   4   6  145.69    8.40
   2   4  -6  131.29   11.00
  -2   4   6  141.09    6.30
   1  -4  -6  211.98   13.10
  -1   4   6  206.88    8.40
   1   4  -6  206.68   12.80
  -1   4   6  220.38    8.70
  -1   4   6  206.18    9.60
  -1   4   6  181.98    8.20
   0  -4  -6   60.39    6.80
   0   4  -6   68.69    9.30
   0   4  -6   69.09    4.60
   0   4   6   62.79    4.40
   0   4   6   61.09    5.20
   0   4   6   64.79    5.00
  -1  -4  -6   32.40    5.70
  -1   4  -6   30.60    3.20
  -1   4  -6   23.90    5.50
   1   4   6   24.10    3.20
   1   4   6   24.30    3.20
   1   4   6   30.20    4.40
  -2  -4  -6   79.49    9.30
  -2   4  -6   82.59    5.60
  -2   4  -6   84.09    9.60
   2   4   6   86.59    5.70
  -3  -4  -6  163.88   14.20
   3  -4   6  161.08    8.40
   3  -4   6  193.18   14.30
  -3   4  -6  170.58    8.40
  -3   4  -6  162.28    6.80
  -3   4  -6  186.38   12.20
   3   4   6  164.68    8.60
   4  -4   6   94.49    7.30
   4  -4   6   97.29   12.80
  -4  -4  -6  100.79   12.40
   4   4   6   71.79    8.00
  -4   4  -6   80.89    7.80
   5  -4   6  242.98   12.60
   5  -4   6  266.17   20.50
  -5  -4  -6  246.28   16.50
  -5   4  -6  224.48   12.20
   5   4   6  249.48   12.60
  -6  -4  -6   17.80   11.60
   6  -4   6   12.80   14.60
   6  -4   6   -3.40    7.20
   6   4   6   14.80    6.30
  -6   4  -6    8.80    7.10
   7  -4   6   27.50   18.30
   7  -4   6   34.00    9.10
   7   4   6   23.30    6.70
  -7  -5   6   18.10   23.80
   7  -5  -6    2.00    7.70
   7   5  -6   20.40    8.70
  -7   5   6    3.70   18.00
  -7   5   6   11.90    6.60
   6  -5  -6   -1.70    6.30
   6   5  -6   -3.20    7.20
   5  -5  -6    5.40    5.00
  -5   5   6   -9.00    5.00
  -5   5   6   -0.90    3.80
  -5   5   6   -0.20   10.10
   5   5  -6   -8.60    6.30
   4   5  -6  426.16   19.30
  -4   5   6  411.06   16.10
  -4   5   6  393.86   16.80
  -4   5   6  400.26   20.80
   3  -5  -6  520.95   20.40
  -3   5   6  532.85   20.60
  -3   5   6  535.15   23.00
   3   5  -6  526.05   23.30
  -3   5   6  542.55   20.20
  -2   5   6  425.46   16.00
  -2   5   6  401.36   17.10
  -2   5   6  408.16   18.30
   2   5  -6  412.36   20.00
   1   5  -6  271.87   16.30
  -1   5   6  272.47   11.10
   1   5  -6  261.77   11.10
   1   5  -6  264.47   16.70
  -1   5   6  259.17   12.70
   0  -5  -6   17.40    8.30
   0   5   6   20.50    3.20
   0   5  -6   26.20    7.90
   0   5   6   19.30    4.60
   0   5  -6   24.60    3.70
   0   5   6   20.30    3.80
  -1  -5  -6  473.75   22.80
  -1   5  -6  468.45   18.60
   1   5   6  481.45   18.40
   1   5   6  485.55   19.10
  -1   5  -6  470.95   21.60
  -2   5  -6  572.94   25.10
  -2   5  -6  594.94   23.20
   2   5   6  597.14   22.90
  -3  -5  -6  738.33   31.60
   3   5   6  709.03   27.20
  -3   5  -6  705.73   25.60
  -3   5  -6  669.53   31.00
  -4  -5  -6  509.75   26.90
   4  -5   6  530.15   21.10
   4  -5   6  501.95   27.00
  -4   5  -6  530.45   24.20
   4   5   6  521.95   21.30
  -4   5  -6  523.85   21.00
  -5  -5  -6  469.35   26.20
   5  -5   6  487.75   21.00
   5  -5   6  495.35   29.20
  -5   5  -6  476.75   20.60
   5   5   6  494.65   21.00
   6  -5   6    1.90    8.30
  -6  -5  -6   11.90   12.80
   6  -5   6    4.50   17.00
   6   5   6   -3.00    7.00
  -6   5  -6    2.30    7.50
   6  -6  -6   56.09    7.80
   6   6  -6   31.60    9.90
  -6   6   6   40.00   17.10
  -6   6   6   53.89    7.30
   5  -6  -6  212.68   13.00
   5   6  -6  173.68   17.10
  -5   6   6  178.78   11.80
  -5   6   6  195.48   10.50
  -5   6   6  219.18   22.50
   4  -6  -6  304.97   14.60
  -4   6   6  275.07   13.70
  -4   6   6  271.27   18.60
   4   6  -6  313.67   18.70
  -4   6   6  302.77   13.40
  -3   6   6  245.48   11.20
   3   6  -6  224.18   17.30
  -3   6   6  242.68   16.80
  -3   6   6  258.97   11.70
  -2   6   6   93.49    7.10
  -2   6   6  106.59    7.40
  -2   6   6  114.39   11.10
  -1   6   6   10.20    3.80
   1   6  -6   24.10   10.00
  -1   6   6    7.10    5.70
   0   6   6    7.40    3.90
   0   6  -6    5.50    9.60
   0   6   6    9.00    5.00
   0   6   6    6.90    4.30
  -1  -6  -6  -15.70   10.50
   1   6   6   -7.50    4.60
   1   6   6    3.30    4.10
  -1   6  -6    6.10   10.10
  -2  -6  -6   40.30   12.50
   2   6   6   65.99    6.80
  -2   6  -6   67.99    7.00
   2   6   6   59.69    6.50
  -3  -6  -6   14.30   13.00
  -3   6  -6   35.40    4.00
   3   6   6   32.20    5.90
  -3   6  -6   35.20    6.10
  -3   6  -6   26.90    9.70
  -4  -6  -6    1.10   11.90
  -4   6  -6   20.90   10.80
  -4   6  -6    6.30    6.80
  -4   6  -6    6.20    4.00
   4   6   6   12.00    6.30
   5  -6   6   24.40    8.50
  -5  -6  -6   22.60   13.70
  -5   6  -6   23.90    7.80
   5   6   6    6.10    7.10
   5  -7  -6    7.10    8.60
  -5   7   6  -13.00    8.70
  -5   7   6   -9.40   14.10
  -5   7   6    3.40    6.10
   5   7  -6   -9.50   11.50
   4   7  -6   15.60   10.60
  -4   7   6    8.10    6.70
  -4   7   6   24.50   13.20
  -4   7   6   12.20    6.80
  -3   7   6   -1.50    9.70
  -3   7   6   11.20    6.00
  -3   7   6   -5.40    8.10
   3   7  -6  -14.10   11.80
   2   7  -6   56.79    7.20
  -2   7   6   55.39    6.30
  -2   7   6   51.89    6.10
  -2   7   6   36.50    9.30
   2   7  -6   37.10   13.60
   1   7  -6    3.70   12.20
   1   7  -6   11.40   10.90
  -1   7   6   18.70    5.10
  -1   7   6   16.80    7.90
   1   7  -6   11.40    5.90
   0   7   6    3.80    8.70
   0   7  -6   10.40   11.60
   0   7  -6    5.70    5.90
   0   7   6   10.30    6.80
   0   7  -6   13.90   13.60
  -1  -7  -6   33.80   13.50
   1   7   6   22.70    5.40
  -1   7  -6   39.00   15.00
   1   7   6   20.30    7.00
  -1   7  -6   19.50    5.50
  -1   7  -6   10.20   11.20
  -2  -7  -6   -8.40   15.70
   2   7   6   16.30    6.80
  -2   7  -6    8.90    5.60
  -2   7  -6   13.60   10.90
   2   7   6   16.70    6.10
  -3  -7  -6   18.30   15.10
   3   7   6    8.80    7.20
  -3   7  -6   17.30    7.50
  -3   7  -6    7.10    4.10
   3   7   6   14.10    7.20
  -3   7  -6    5.80   11.50
  -4  -7  -6  -10.00   17.50
  -4   7  -6   43.70   14.80
  -4   7  -6   27.20    7.20
   4   7   6   11.80    8.00
  -4   7  -6   18.10    5.20
  -4   8   6   63.09    9.70
  -4   8   6   34.30   15.70
   4   8  -6   66.99   13.30
  -4   8   6   59.29    8.50
  -3   8   6    3.40    7.10
   3   8  -6  -12.40   14.90
  -3   8   6    5.30    6.80
  -3   8   6  -11.30   12.90
  -2   8   6   -3.70    6.60
  -2   8   6    9.80   12.70
   2   8  -6   -4.40    7.80
   2   8  -6  -21.10   15.70
  -2   8   6  -10.00    6.60
   1   8  -6    4.30   15.20
   1   8  -6   -7.90   15.40
  -1   8   6    6.90    6.20
  -1   8   6   14.20   10.70
   1   8  -6   20.50    7.90
   0   8   6   14.20    6.50
   0   8   6   13.10    9.50
   0   8  -6    8.30   14.70
   0   8   6   16.10    6.50
   0   8  -6   28.50    8.00
   0   8  -6    8.60   17.40
  -1   8  -6   -2.40    8.00
   1   8   6   -2.40    6.80
  -1   8  -6    0.10   13.30
  -1   8  -6   11.60   18.80
   1   8   6    6.60    9.00
  -2  -8  -6   25.00   20.20
  -2   8  -6   30.10   23.50
  -2   8  -6    2.30   13.30
   2   8   6    7.60    7.60
   2   8   6   -8.70    8.50
  -2   8  -6   -0.40    8.00
  -3   8  -6    9.60    8.10
  -3   8  -6  -19.10   14.00
   3   8   6    3.30    8.30
   3   8   6    0.10    8.80
  -9   0   7   -5.00   10.40
   9   0  -7    9.40    6.80
   9   0  -7   -3.80    6.40
   8   0  -7   -8.60    5.80
  -8   0   7   -2.30    7.90
   8   0  -7    0.00    6.10
  -7   0   7    4.10    5.50
   7   0  -7    4.50    5.10
   7   0  -7    2.80    4.20
   6   0  -7   17.50    4.10
   6   0  -7   11.10    3.20
   3   0  -7    0.00    5.70
   3   0  -7    9.50    8.80
   2   0  -7    0.90    1.50
   1   0  -7   -0.60    1.10
   1   0  -7    5.30    3.20
   0   0  -7   -1.50    2.70
   0   0   7    2.10    4.00
   0   0  -7   -0.50    0.70
   1   0   7    0.20    4.20
  -1   0  -7    0.60    1.20
  -1   0  -7   -4.00    3.50
   2   0   7   -2.60    1.30
   2   0   7   -3.20    4.50
  -2   0  -7    0.00    1.90
   3   0   7   -5.60    2.00
  -3   0  -7   -3.30    2.50
   3   0   7   -8.00    5.10
   4   0   7   -0.30    2.90
  -4   0  -7   -2.80    3.30
   5   0   7   -0.40    8.00
  -5   0  -7   -7.80    4.60
   5   0   7   -0.20    3.40
   5   0   7    0.30    1.80
   6   0   7   -2.10    4.70
  -6   0  -7    0.10    5.60
   6   0   7   -4.80   10.30
   6   0   7   -3.70    2.40
  -7   0  -7   -9.20    7.80
   7   0   7   -0.80    3.40
   7   0   7   -3.10   13.10
   7   0   7   -3.70    7.50
   9  -1  -7   21.30    6.60
   9  -1  -7   35.00    8.40
  -9  -1   7    0.00   10.00
   9   1  -7   14.50    8.50
  -9   1   7    5.80   11.90
  -8  -1   7   -1.30    8.50
   8  -1  -7   13.00    6.10
   8  -1  -7   -0.20    6.00
   8   1  -7   -3.50    6.60
   8   1  -7    5.10    6.00
  -8   1   7   -0.40    7.80
   7  -1  -7    4.90    4.20
  -7  -1   7    0.60    6.20
   7  -1  -7    5.20    4.80
   7   1  -7   -2.00    4.40
  -7   1   7    3.80    5.40
   6  -1  -7   60.19    5.80
   6  -1  -7   58.19    5.20
   6   1  -7   52.69    5.80
  -6   1   7   61.99    5.40
   5  -1  -7  326.07   13.00
   5  -1  -7  315.87   12.40
  -5   1   7  314.37   12.80
   5   1  -7  323.17   12.80
  -5   1   7  307.27   12.10
   4  -1  -7  270.07   10.60
   4  -1  -7  277.97   11.20
   4   1  -7  278.37   10.90
   3  -1  -7   93.19    4.80
   3  -1  -7   91.69    4.00
   3   1  -7   92.89    4.60
   2  -1  -7   56.79    5.30
   2  -1  -7   66.99    4.60
   2  -1  -7   67.19    3.70
   1  -1  -7  228.78    8.60
   1  -1  -7  238.18    8.90
   1  -1  -7  230.68   10.10
  -1   1   7  246.58    9.40
   1   1  -7  249.38   11.60
   0  -1  -7  265.57   11.30
   0  -1  -7  271.57   10.10
   0   1  -7  268.27    9.80
   0   1  -7  273.97   12.30
   0   1   7  264.57   12.20
   0   1  -7  266.37    9.90
   0   1   7  275.77   10.20
  -1  -1  -7  565.84   20.30
   1  -1   7  551.94   22.50
  -1   1  -7  549.65   20.00
  -1   1  -7  553.54   21.90
   1   1   7  564.94   19.90
   1   1   7  533.45   21.80
   2  -1   7  526.45   18.60
  -2  -1  -7  522.85   19.20
   2  -1   7  511.15   21.20
   2   1   7  518.35   18.70
  -2   1  -7  511.95   18.90
  -2   1  -7  501.55   20.70
   2   1   7  501.45   20.70
   3  -1   7 1219.18   43.10
   3  -1   7 1204.98   45.50
  -3  -1  -7 1202.88   43.70
   3   1   7 1177.48   45.10
   3   1   7 1222.68   43.20
  -3   1  -7 1194.98   43.50
   4  -1   7   59.29    5.60
  -4  -1  -7   69.69    6.40
   4   1   7   68.69    5.00
  -4   1  -7   78.39    5.50
   5  -1   7   30.90    9.00
   5  -1   7   31.00    4.70
  -5  -1  -7   39.00    4.90
   5   1   7   42.20    8.80
  -5   1  -7   32.00    5.10
   5   1   7   36.30    4.10
   6  -1   7   61.19   12.00
   6  -1   7   53.79    6.60
  -6  -1  -7   53.49    7.50
   6   1   7   54.89   11.50
  -6   1  -7   50.29    6.20
   6   1   7   56.09    5.90
  -7  -1  -7   -0.70    9.10
   7  -1   7   24.60   14.20
   7  -1   7   39.20    7.50
   7   1   7   29.90   13.30
  -7   1  -7   11.40    6.90
   7   1   7   15.20    7.50
   8  -2  -7   62.49    7.10
  -8  -2   7   59.99   10.10
   8  -2  -7   64.89    7.60
  -8   2   7   72.29    9.00
   8   2  -7   67.99    7.90
   7  -2  -7  217.28   10.90
   7  -2  -7  230.18   11.30
  -7  -2   7  208.18   15.00
   7   2  -7  220.78   11.70
  -7   2   7  217.08   12.30
   6  -2  -7  578.54   21.90
  -6  -2   7  521.65   23.00
   6  -2  -7  558.64   21.60
  -6   2   7  580.54   21.90
   6   2  -7  588.64   22.30
   5  -2  -7  575.24   23.30
   5  -2  -7  595.34   22.20
  -5   2   7  597.54   22.10
   5   2  -7  600.74   22.80
  -5   2   7  615.04   23.50
   4  -2  -7  536.65   20.10
   4  -2  -7  518.75   19.70
  -4   2   7  538.55   19.20
  -4   2   7  538.95   19.30
   4   2  -7  544.55   20.40
   3  -2  -7   26.60    3.00
   3  -2  -7   28.60    2.60
   3  -2  -7   29.40    3.50
   3   2  -7   31.30    3.50
   2  -2  -7   77.39    3.60
   2  -2  -7   81.79    4.60
   2   2  -7   70.99    5.60
  -2   2   7   63.09    4.30
   1  -2  -7   99.09    5.90
   1  -2  -7  100.19    5.40
   1  -2  -7   94.29    4.30
   1   2  -7   95.29    7.80
  -1   2   7   94.29    4.70
   0  -2  -7  146.09    7.00
   0   2   7  139.79    5.90
   0   2  -7  141.49    5.70
   0   2  -7  143.89    9.10
   0   2   7  139.19    7.90
   1  -2   7   -1.30    5.70
  -1  -2  -7    3.10    2.60
  -1   2  -7    0.60    1.70
  -1   2  -7    3.50    0.60
   1   2   7    0.80    3.40
  -1   2  -7   -7.90    4.50
   1   2   7    0.90    1.20
   1   2   7    4.70    1.40
  -2  -2  -7   36.80    4.90
   2  -2   7   43.90    3.20
   2  -2   7   50.09    7.30
   2   2   7   47.30    5.30
   2   2   7   34.40    3.10
  -2   2  -7   51.29    6.20
  -2   2  -7   38.10    4.00
   3  -2   7   66.29    8.00
  -3  -2  -7   55.59    6.30
   3  -2   7   57.49    4.50
  -3   2  -7   50.59    4.70
   3   2   7   60.49    8.00
  -3   2  -7   59.59    6.90
   3   2   7   52.19    4.40
   4  -2   7  801.22   28.50
  -4  -2  -7  682.13   30.30
   4  -2   7  789.02   31.70
  -4   2  -7  797.32   28.80
   4   2   7  764.62   28.40
   5  -2   7   57.99    7.40
  -5  -2  -7   63.49    7.30
   5  -2   7   71.09   11.10
   5   2   7   55.19    9.60
  -5   2  -7   54.79    7.00
   5   2   7   65.29    5.90
  -6  -2  -7  122.39   12.10
   6  -2   7  140.89   10.10
   6  -2   7  123.99   17.10
   6   2   7  127.39   15.10
   6   2   7  130.29    9.70
  -6   2  -7  145.19   10.20
   7  -2   7  582.34   32.60
   7  -2   7  573.94   24.60
  -7  -2  -7  557.44   26.40
   7   2   7  566.24   28.20
  -7   2  -7  553.84   24.70
   7   2   7  586.14   24.10
   8  -3  -7   30.00    7.60
  -8  -3   7   15.20   12.40
   8  -3  -7   20.90    7.00
   8   3  -7   30.50    7.60
  -8   3   7   19.40    8.40
   7  -3  -7   37.90    6.20
   7  -3  -7   27.20    5.40
  -7  -3   7   31.70    9.10
  -7   3   7   37.00    6.30
   7   3  -7   26.70    6.20
   6  -3  -7   49.99    6.00
   6  -3  -7   56.79    6.10
  -6   3   7   61.79    6.30
  -6   3   7   70.69    9.70
   5  -3  -7  375.66   14.80
   5  -3  -7  369.86   14.90
  -5   3   7  366.16   17.50
  -5   3   7  370.26   14.40
   5   3  -7  359.96   15.60
   4  -3  -7  342.27   13.80
   4  -3  -7  361.16   14.30
  -4   3   7  400.86   15.10
  -4   3   7  370.16   13.80
   4   3  -7  360.86   15.40
   3  -3  -7  592.54   22.20
  -3   3   7  608.94   21.80
  -3   3   7  617.24   22.90
  -3   3   7  599.04   22.20
   3   3  -7  614.44   23.70
   2  -3  -7   72.29    4.10
  -2   3   7   80.19    4.70
  -2   3   7   71.89    3.30
  -2   3   7   72.19    3.80
   2   3  -7   84.79    7.80
   1  -3  -7  501.95   20.80
   1   3  -7  500.15   21.30
  -1   3   7  506.15   18.70
  -1   3   7  506.15   18.10
  -1   3   7  485.05   19.10
  -1   3   7  504.65   18.00
   0  -3  -7  306.67   14.00
   0   3   7  312.37   11.30
   0   3   7  290.57   12.70
   0   3   7  300.47   11.20
   0   3  -7  298.37   14.50
   0   3  -7  299.87   11.60
  -1  -3  -7 1822.52   64.79
  -1   3  -7 1754.52   63.49
   1   3   7 1811.72   63.29
   1   3   7 1735.43   64.39
   1   3   7 1788.12   63.39
  -1   3  -7 1792.22   65.49
  -2  -3  -7 1768.92   63.09
   2  -3   7 1702.43   64.29
  -2   3  -7 1743.23   63.59
   2   3   7 1738.63   61.69
  -2   3  -7 1722.73   61.79
   2   3   7 1695.53   62.89
  -3  -3  -7  478.65   20.20
   3  -3   7  484.65   18.10
   3  -3   7  465.95   22.20
  -3   3  -7  461.85   20.60
  -3   3  -7  488.05   18.40
   3   3   7  477.85   18.20
   3   3   7  451.65   20.30
   4  -3   7  356.46   14.50
   4  -3   7  346.97   20.50
   4   3   7  337.77   17.80
   4   3   7  355.86   14.60
  -4   3  -7  370.36   15.00
  -5  -3  -7    5.80    7.20
   5  -3   7   11.90   11.50
   5   3   7    6.30    7.80
  -5   3  -7    2.30    4.90
   5   3   7    0.90    4.60
  -6  -3  -7   -4.50    8.30
   6  -3   7   -3.60   14.00
   6  -3   7   19.00    7.10
   6   3   7   -4.80   11.40
  -6   3  -7   10.70    7.00
   6   3   7   11.10    5.70
   7  -3   7   20.60    8.30
   7  -3   7   26.10   17.20
   7   3   7   19.20    7.40
   8  -4  -7   11.70    7.20
  -8  -4   7    6.90   12.10
   8  -4  -7    3.30    7.70
   8   4  -7   10.10    8.60
  -8   4   7  -18.20   22.80
   7  -4  -7  123.49   11.50
   7  -4  -7  126.19    9.50
   7   4  -7  118.69   12.90
  -7   4   7  115.49   10.20
  -7   4   7  162.58   15.60
   6  -4  -7   82.99    8.20
  -6   4   7   71.99   11.90
  -6   4   7   72.89    7.30
   6   4  -7   61.09    7.00
  -5   4   7  249.88   10.70
   5   4  -7  238.28   13.00
  -5   4   7  231.48   15.20
   4  -4  -7  347.97   14.00
  -4   4   7  324.47   15.90
  -4   4   7  360.96   14.70
   4   4  -7  354.06   16.10
  -4   4   7  335.17   13.50
   3  -4  -7   11.60    2.90
   3   4  -7    9.70    5.90
  -3   4   7    4.40    2.40
  -3   4   7    2.60    3.80
  -3   4   7    8.20    3.40
   2  -4  -7    1.20    2.60
   2   4  -7    4.80    6.30
  -2   4   7    5.00    2.70
  -2   4   7    4.50    3.00
  -2   4   7    3.10    2.20
   1  -4  -7   -3.30    6.10
   1   4  -7   -0.10    7.00
  -1   4   7    2.60    2.60
  -1   4   7    4.30    3.10
  -1   4   7    0.50    2.50
  -1   4   7    2.80    2.10
   0  -4  -7  267.77   14.70
   0   4  -7  256.27   15.00
   0   4   7  254.67   11.20
   0   4  -7  256.37   10.60
   0   4   7  265.07   10.80
   0   4   7  258.77   10.30
  -1  -4  -7  327.17   16.70
  -1   4  -7  326.47   15.80
   1   4   7  337.07   14.40
   1   4   7  313.57   12.70
  -1   4  -7  323.87   13.00
   1   4   7  317.17   12.90
  -2  -4  -7   -2.90    6.10
   2   4   7    1.70    5.40
   2   4   7   -1.10    2.90
  -2   4  -7    2.40    6.70
  -2   4  -7    3.10    3.10
  -3  -4  -7  531.95   25.00
   3  -4   7  416.46   28.00
   3   4   7  543.65   20.40
   3   4   7  531.65   22.40
  -3   4  -7  578.84   23.20
   4  -4   7  195.58   10.50
  -4  -4  -7  223.08   15.20
   4  -4   7  195.38   18.30
  -4   4  -7  187.48   10.20
  -4   4  -7  184.68   13.70
   4   4   7  197.08   14.50
   4   4   7  184.28   10.80
  -5  -4  -7   15.70    9.70
   5  -4   7   25.80   14.10
   5  -4   7   12.30    5.80
   5   4   7   19.90    5.30
  -5   4  -7   18.10    6.20
   5   4   7   13.70   10.80
   6  -4   7   17.70    7.60
  -6  -4  -7    0.10   10.30
   6  -4   7    0.70   14.20
  -6   4  -7    7.40    7.70
   6   4   7    2.10    6.40
   6   4   7   16.10   13.00
   7  -5  -7   36.80    8.50
   7   5  -7   33.60    9.30
   6  -5  -7    8.00    6.70
  -6   5   7    7.60   11.50
   6   5  -7   10.90    7.70
  -6   5   7    4.30    5.10
   5  -5  -7   -3.60    5.20
   5   5  -7    1.10    6.80
  -5   5   7   -6.70    8.50
  -5   5   7    1.00    5.90
  -5   5   7    2.40    4.00
   4  -5  -7    9.20    4.80
  -4   5   7   14.70    4.80
  -4   5   7   11.00    3.50
   4   5  -7   16.30    6.90
  -4   5   7   14.50    6.80
   3  -5  -7    2.00    3.80
  -3   5   7    2.10    3.10
   3   5  -7   -9.90    6.80
  -3   5   7   -0.60    4.30
  -3   5   7   -4.10    5.20
  -2   5   7   -1.70    4.90
   2   5  -7    1.50    7.40
  -2   5   7    5.90    2.90
  -2   5   7    3.60    3.60
   1  -5  -7    5.00    8.80
  -1   5   7    8.90    3.10
   1   5  -7   -5.60    8.80
  -1   5   7    4.50    3.90
  -1   5   7   16.30    4.20
   1   5  -7   13.30    3.70
   0  -5  -7   14.10    8.80
   0   5   7   16.80    3.50
   0   5   7   16.30    4.00
   0   5  -7   20.90    3.70
   0   5   7   18.50    4.60
  -1  -5  -7   27.00    9.10
  -1   5  -7   26.00    4.10
   1   5   7   24.60    3.80
   1   5   7   21.70    4.00
   1   5   7   26.90    5.30
   2   5   7    0.90    3.40
   2   5   7   15.80    6.50
   2   5   7    4.80    4.30
  -2   5  -7   -8.30    9.30
  -3  -5  -7  162.18   17.30
  -3   5  -7  138.29   14.20
  -3   5  -7  167.98    9.30
  -3   5  -7  155.98    6.90
   3   5   7  167.08    9.10
   4  -5   7   13.20   13.70
  -4  -5  -7   25.40   11.00
  -4   5  -7   27.60    5.40
   4   5   7   19.60    4.90
  -4   5  -7   24.30   10.70
  -5  -5  -7   26.50   13.20
   5  -5   7   28.90    7.80
   5  -5   7   15.20   16.50
  -5   5  -7   12.40    7.20
   5   5   7   26.60    6.40
   6  -5   7    7.30    8.80
   6  -5   7   22.90   19.60
   6   5   7   27.10   14.00
   6   5   7    7.10    7.30
   6  -6  -7   49.50    8.90
   6   6  -7   49.99   10.60
  -6   6   7   68.39   15.10
   5  -6  -7   49.99    7.70
  -5   6   7   48.90    7.90
  -5   6   7   41.60    6.80
   5   6  -7   56.79    9.10
   4  -6  -7   98.89    8.80
  -4   6   7   86.99    8.60
  -4   6   7  104.19    7.80
  -4   6   7  107.49   12.80
   4   6  -7   70.39   10.80
  -3   6   7   17.40    7.30
  -3   6   7   11.20    5.00
   3   6  -7    8.90    9.70
  -3   6   7   11.10    4.40
  -2   6   7   54.99    6.90
  -2   6   7   60.39    6.50
  -2   6   7   65.49    6.40
   1   6  -7   40.70   10.30
  -1   6   7   39.60    4.90
  -1   6   7   33.80    4.50
  -1   6   7   30.30    6.20
   0  -6  -7   -6.10   13.30
   0   6  -7   -2.30    4.50
   0   6  -7    8.50   10.30
   0   6   7    4.20    4.20
   0   6   7    9.50    4.80
   0   6   7   -5.90    5.20
   0   6  -7  -12.00   13.60
  -1  -6  -7    4.00   10.20
   1   6   7    7.30    4.50
  -1   6  -7    9.50    5.70
  -1   6  -7   -0.30    9.50
   1   6   7    0.40    4.50
   1   6   7    2.20    6.50
  -2  -6  -7    0.30   10.80
  -2   6  -7    1.40    5.10
  -2   6  -7    2.90    8.50
   2   6   7    6.20    5.00
  -3  -6  -7  137.99   16.20
  -3   6  -7  132.29   15.70
  -3   6  -7  131.79    9.80
  -3   6  -7  130.09    7.00
   3   6   7  136.29   10.50
  -4  -6  -7   22.20   15.20
  -4   6  -7   20.90    7.40
  -4   6  -7   10.90   12.10
   4   6   7   14.70    7.10
  -5   6  -7   52.19    8.20
   5   6   7   60.99    8.00
   5  -7  -7   29.60    9.20
  -5   7   7   25.10    6.90
   5   7  -7   11.60   12.10
  -5   7   7   16.00    7.90
  -5   7   7    1.80   14.40
  -4   7   7  260.97   21.00
   4   7  -7  245.58   22.50
  -4   7   7  242.68   14.10
  -3   7   7  178.98   11.10
  -3   7   7  163.18   11.60
   3   7  -7  186.28   21.20
  -3   7   7  140.89   15.70
   2   7  -7   -3.60    6.30
   2   7  -7  -10.00   11.80
  -2   7   7  -12.60    9.60
  -2   7   7   -3.60    5.60
  -1   7   7    8.40    9.10
   1   7  -7   10.70   15.40
   1   7  -7   19.70    6.40
   1   7  -7    6.60   13.50
  -1   7   7    4.10    7.50
   0   7   7  626.94   26.70
   0   7  -7  664.73   25.80
   0   7  -7  637.14   31.60
   0   7   7  633.94   25.10
   0   7  -7  651.23   37.50
   0   7   7  646.34   24.80
  -1  -7  -7  226.68   27.90
   1   7   7  252.07   12.70
  -1   7  -7  247.08   20.30
   1   7   7  245.28   14.40
   1   7   7  255.27   14.50
  -1   7  -7  270.47   31.30
  -1   7  -7  244.38   14.00
  -2  -7  -7  545.85   33.20
  -2   7  -7  546.35   23.20
   2   7   7  545.25   23.40
  -2   7  -7  534.35   27.50
   2   7   7  551.34   22.40
  -3  -7  -7   64.49   17.20
   3   7   7   66.89    8.70
  -3   7  -7   50.19    5.60
  -3   7  -7   61.89    7.90
  -3   7  -7   45.90   13.60
   3   7   7   54.69    7.90
  -4   7  -7   15.90    5.10
   4   7   7    9.00    7.50
  -4   7  -7   47.10   15.20
  -3   8   7  120.19   15.20
  -3   8   7  122.39   11.10
   3   8  -7  117.59   12.50
   3   8  -7  104.59   17.80
  -3   8   7  133.59   10.50
   2   8  -7    0.60   18.80
   2   8  -7   -9.00   17.10
  -2   8   7    2.50    7.80
  -2   8   7   -1.10   10.40
   2   8  -7   15.10    8.40
  -2   8   7   -8.10    6.20
   1   8  -7   33.40   19.40
   1   8  -7   42.70   17.30
  -1   8   7   36.10    7.10
  -1   8   7   24.10   10.60
  -1   8   7   22.60    7.30
   1   8  -7   41.10    7.50
   0   8  -7   12.20   21.70
   0   8  -7    3.90    7.20
   0   8   7    3.20    8.70
   0   8   7   10.30    7.30
   0   8   7   10.90    5.70
   0   8  -7    6.10   15.50
   1   8   7   -0.90    8.30
  -1   8  -7   38.50   23.40
  -1   8  -7    3.20   15.10
   1   8   7    6.70    7.00
  -1   8  -7    3.30    7.10
   1   8   7   11.30    8.40
  -2   8  -7  183.38   22.40
  -2   8  -7  196.48   25.50
   2   8   7  207.48   13.80
   2   8   7  190.98   15.30
  -2   8  -7  183.48   12.90
   8   0  -8  635.34   24.80
  -8   0   8  523.75   24.50
   8   0  -8  619.84   24.50
   7   0  -8  308.57   14.50
   7   0  -8  318.47   14.80
   6   0  -8  756.62   29.10
   6   0  -8  771.52   28.40
   5   0  -8  215.58    9.50
   5   0  -8  187.68    8.70
   4   0  -8   37.90    3.10
   3   0  -8  112.79    5.80
   3   0  -8  125.09    4.90
   2   0  -8  219.98    9.40
   2   0  -8  268.67   11.80
   1   0  -8  269.07   10.20
   0   0   8  103.59    8.50
   0   0  -8   80.89    3.50
  -1   0  -8  176.68    9.10
   1   0   8  124.89    9.30
  -1   0  -8  142.59    6.10
   2   0   8  132.29    5.10
  -2   0  -8  125.59    5.90
   2   0   8  118.89   10.00
   3   0   8  196.08    8.30
  -3   0  -8  216.08    9.10
   3   0   8  183.28   12.60
  -4   0  -8  262.57   11.40
   4   0   8  246.38   10.80
   4   0   8  264.67   14.80
   5   0   8  776.42   29.10
   5   0   8  792.52   33.60
  -5   0  -8  772.02   30.10
   6   0   8  741.13   28.80
  -6   0  -8  735.23   30.10
   6   0   8  746.73   34.50
  -7   0  -8  632.74   27.90
   7   0   8  651.43   31.30
   7   0   8  716.83   28.10
  -8  -1   8   -4.50    8.00
   8  -1  -8   11.00    6.50
   8  -1  -8    8.30    6.30
   8   1  -8    3.70    8.10
   8   1  -8    2.50    6.40
  -8   1   8   11.60    7.10
   7  -1  -8  137.19    9.40
   7  -1  -8  133.89    8.60
   7   1  -8  119.59    9.20
  -7   1   8  132.49    8.80
   6  -1  -8  213.88   10.10
   6  -1  -8  206.88    9.30
   6   1  -8  180.28    9.60
   5  -1  -8  259.47   10.40
   5   1  -8  248.38   10.70
   4  -1  -8  311.57   12.40
   4  -1  -8  306.37   11.70
   4   1  -8  307.37   12.00
   3  -1  -8  179.78    7.20
   3  -1  -8  190.98    8.00
   3  -1  -8  213.58   10.00
   3   1  -8  173.98    7.70
   2  -1  -8  265.47   10.90
   2  -1  -8  380.76   11.60
   2  -1  -8  293.87   12.30
   2  -1  -8  251.17   10.30
   2   1  -8  226.78   13.60
   1  -1  -8 1941.11   66.99
   1  -1  -8 1813.62   66.79
   1  -1  -8 1918.81   68.09
   1   1  -8 1948.31   69.09
   1   1  -8 1860.71   67.19
   0  -1  -8 1224.58   44.10
   0  -1  -8 1235.18   45.20
   0   1  -8 1212.78   43.90
   0   1  -8 1219.98   43.90
   0   1   8 1260.57   44.20
   0   1   8 1279.67   46.00
   0   1  -8 1243.18   45.90
   1  -1   8  601.44   25.20
  -1  -1  -8  618.94   22.60
  -1   1  -8  628.04   24.60
   1   1   8  627.24   22.30
   1   1   8  612.14   24.50
  -1   1  -8  611.74   22.30
  -2  -1  -8  565.54   21.10
   2  -1   8  588.04   20.30
   2  -1   8  557.14   23.60
  -2   1  -8  574.44   23.20
   2   1   8  554.24   20.30
   2   1   8  562.04   20.30
  -2   1  -8  564.84   20.90
   2   1   8  550.04   23.10
  -3  -1  -8  124.99    7.20
   3  -1   8  125.49    6.20
   3  -1   8  140.29   11.30
   3   1   8  147.29   10.50
  -3   1  -8  131.49    6.70
   3   1   8  123.99    6.20
   4  -1   8   35.00    3.80
   4  -1   8   34.00    9.00
  -4   1  -8   37.70    4.40
   4   1   8   32.90    3.80
   4   1   8   25.50    7.00
   5  -1   8   32.20    4.40
  -5  -1  -8   34.40    5.90
   5  -1   8   32.50   11.00
   5   1   8   41.00    4.80
   5   1   8   44.00   10.10
  -5   1  -8   44.20    5.60
   6  -1   8  121.19   10.50
  -6  -1  -8  112.49   11.10
   6  -1   8  144.89   19.40
   6   1   8  114.39    9.80
   6   1   8  137.29   18.30
  -6   1  -8  127.99   10.20
  -7  -1  -8   -0.40    7.70
   7  -1   8    8.40    8.30
   7  -1   8   30.10   14.00
   7   1   8   14.50    3.90
   7   1   8   -1.80   11.20
   7   1   8    3.50    8.10
  -7   1  -8    2.30    7.80
  -8  -2   8    0.10    7.90
   8  -2  -8   -0.20    6.70
   8  -2  -8   -2.10    6.10
   8   2  -8    9.60    6.90
  -8   2   8  -16.60    7.60
   7  -2  -8  105.69    9.00
   7  -2  -8  115.39    9.00
   7   2  -8  103.89    9.00
  -7   2   8  104.49    9.30
  -7   2   8  126.39   14.20
   6  -2  -8   49.20    5.20
   6  -2  -8   49.99    5.60
  -6   2   8   65.19    7.10
  -6   2   8   53.39    5.30
   6   2  -8   46.20    6.30
   5  -2  -8    2.70    2.80
   5  -2  -8    0.90    3.10
   5   2  -8   -0.40    3.30
   4  -2  -8   65.09    4.30
   4  -2  -8   72.89    4.80
   4   2  -8   66.79    5.40
   3  -2  -8   -6.40    3.40
   3  -2  -8    2.50    1.70
   3  -2  -8    1.00    2.00
   3   2  -8    2.60    3.10
   2  -2  -8   76.39    3.80
   2  -2  -8   81.49    5.20
   2  -2  -8   88.89    7.40
  -2   2   8   75.69    4.90
   2   2  -8   71.89    9.20
   1  -2  -8   94.19    6.00
   1  -2  -8   76.79    5.90
  -1   2   8   82.99    4.80
   1   2  -8   72.09    7.90
   0  -2  -8  133.59    7.00
   0   2   8  125.69    5.80
   0   2   8  139.19    8.70
   0   2  -8  118.89    9.50
   0   2  -8  119.99    5.30
  -1  -2  -8  155.98    7.50
   1  -2   8  163.18   11.20
  -1   2  -8  149.09    9.80
   1   2   8  157.08    6.40
   1   2   8  165.98    5.70
   1   2   8  132.89    5.70
   1   2   8  146.69    9.80
  -1   2  -8  149.88    6.50
   2  -2   8   -3.30    6.80
  -2  -2  -8    4.40    3.10
  -2   2  -8   -2.70    5.10
   2   2   8    2.60    1.80
   2   2   8   -6.30    4.70
  -2   2  -8   -0.50    2.20
  -3  -2  -8   87.49    7.40
   3  -2   8   69.79    4.90
   3   2   8   87.59    5.20
  -3   2  -8   79.09    5.50
   3   2   8   86.69    9.30
   4  -2   8  146.69    7.90
   4  -2   8  151.08   13.60
  -4  -2  -8  150.08   10.00
   4   2   8  138.39   12.60
   4   2   8  147.59    7.80
   5  -2   8   22.60   12.20
   5  -2   8   17.10    4.30
  -5  -2  -8   12.40    6.90
   5   2   8   19.80    4.80
   5   2   8    9.30   10.00
  -5   2  -8   15.50    4.70
   6  -2   8   64.69   13.70
  -6  -2  -8   47.30    8.60
   6  -2   8   44.80    7.20
   6   2   8   53.19   11.30
   6   2   8   49.80    6.70
  -6   2  -8   54.59    7.00
   7  -2   8   -1.60    8.00
   7   2   8   11.00    7.30
   8  -3  -8   11.80    5.90
   8  -3  -8   17.60    7.80
   8   3  -8   14.30    7.40
  -8   3   8    2.90    7.10
  -8   3   8   15.20   14.20
   7  -3  -8    9.70    5.90
   7  -3  -8   10.30    5.30
  -7   3   8   20.50    5.90
  -7   3   8   16.50   10.50
   7   3  -8   16.20    6.00
   6  -3  -8   46.00    5.00
   6  -3  -8   33.70    5.60
  -6   3   8   39.00    4.70
   6   3  -8   34.40    5.80
  -6   3   8   31.80    6.40
   5  -3  -8   72.79    5.80
   5  -3  -8   79.19    6.00
  -5   3   8   78.89    5.10
   5   3  -8   75.79    7.10
  -5   3   8   83.89    6.50
   4  -3  -8   44.50    4.00
   4  -3  -8   36.90    4.50
   4   3  -8   45.30    5.20
   3  -3  -8   -0.40    2.40
   3   3  -8    5.50    4.10
  -3   3   8    9.40    3.30
   2  -3  -8  136.19    6.40
   2   3  -8  140.19    9.20
  -2   3   8  146.09    7.00
   1  -3  -8  361.66   16.30
  -1   3   8  385.76   14.30
   1   3  -8  350.86   17.30
   0  -3  -8    4.70    4.10
   0   3   8    8.80    2.60
   0   3   8    8.10    1.20
   0   3   8    8.50    1.20
   0   3  -8   13.40    2.30
   0   3   8   10.10    4.80
   0   3  -8   10.10    5.60
  -1  -3  -8  313.47   13.90
   1   3   8  292.87   13.70
   1   3   8  301.27   11.20
   1   3   8  307.17   11.30
  -1   3  -8  275.97   15.30
  -1   3  -8  286.17   11.70
   2  -3   8   68.49   10.20
  -2  -3  -8   75.79    8.30
  -2   3  -8   82.19    5.30
   2   3   8   89.39    8.50
  -2   3  -8   79.59    9.00
   2   3   8   81.89    4.90
   3  -3   8  509.25   25.00
  -3  -3  -8  510.25   21.70
   3  -3   8  512.25   19.40
   3   3   8  516.25   19.50
   3   3   8  513.05   22.40
  -3   3  -8  524.95   20.00
   4  -3   8   53.49   12.40
  -4  -3  -8   56.49    7.80
   4  -3   8   50.69    6.30
  -4   3  -8   53.39    6.30
   4   3   8   47.30    6.00
   4   3   8   57.09    8.20
   5  -3   8   60.29   14.70
  -5  -3  -8   58.39    9.50
   5   3   8   58.09    7.60
  -5   3  -8   57.79    6.70
   5   3   8   63.69   11.60
   6  -3   8   49.00    8.00
  -6  -3  -8   47.40   10.20
   6  -3   8   53.39   17.30
   6   3   8   57.19    6.90
  -6   3  -8   35.50    8.30
   6   3   8   39.10   11.70
   7  -4  -8  312.47   13.10
   7  -4  -8  320.37   16.20
   7   4  -8  289.57   17.20
  -7   4   8  293.07   22.50
  -7   4   8  296.37   14.60
   6  -4  -8  108.29    9.40
   6   4  -8  112.89   10.40
  -6   4   8  121.09    7.80
  -6   4   8  138.79   13.50
  -5   4   8  100.09    9.90
  -5   4   8   87.99    6.00
   5   4  -8   91.49   10.40
   4  -4  -8    5.40    3.40
  -4   4   8    4.60    3.90
  -4   4   8    4.30    4.40
  -4   4   8    5.80    2.20
   4   4  -8    0.90    5.90
   3  -4  -8   48.90    5.00
   3   4  -8   49.20    6.90
  -3   4   8   45.60    3.60
   2  -4  -8   61.49    4.90
  -2   4   8   54.99    5.10
  -2   4   8   54.39    3.50
   2   4  -8   53.39    7.10
   1  -4  -8   85.69   11.00
   1   4  -8   47.50    4.40
   1   4  -8   60.59    8.50
  -1   4   8   51.29    4.60
  -1   4   8   43.40    3.40
   0  -4  -8   58.99    8.40
   0   4   8   64.99    7.40
   0   4  -8   57.89    4.80
   0   4   8   66.19    4.30
   0   4  -8   66.49    8.90
   0   4   8   55.89    4.20
  -1  -4  -8   70.39    7.50
   1   4   8   85.29    8.70
   1   4   8   71.09    4.80
   1   4   8   74.19    5.10
  -1   4  -8   80.99    5.60
  -2  -4  -8   36.10    7.40
   2   4   8   36.30    6.10
  -2   4  -8   26.80    4.00
   2   4   8   36.10    4.50
   2   4   8   30.30    3.90
  -2   4  -8   30.20    9.30
  -2   4  -8   26.70    2.10
   3  -4   8  167.18   18.00
  -3   4  -8  179.78   15.40
   3   4   8  191.58   13.80
   3   4   8  200.58    9.40
  -3   4  -8  194.68   10.10
   4  -4   8  119.39   14.40
  -4  -4  -8  118.49   15.10
   4  -4   8  120.89    8.60
   4   4   8  119.69    8.70
  -4   4  -8  123.69   13.20
  -4   4  -8  125.49    9.30
   4   4   8  117.29   13.90
   5  -4   8   35.30    6.40
   5  -4   8   23.20   13.70
  -5  -4  -8   27.30    9.80
   5   4   8   37.20    5.70
   5   4   8   49.50   10.80
  -5   4  -8   35.10    7.10
  -6  -4  -8  452.25   25.90
   6  -4   8  533.15   23.10
   6  -4   8  505.25   34.40
  -6   4  -8  508.35   23.00
   6   4   8  504.85   28.40
   6   4   8  495.65   21.80
   7  -5  -8   63.39    9.10
   7   5  -8   56.29   10.20
  -7   5   8   58.49    6.80
  -7   5   8   56.99   12.90
   6  -5  -8  244.68   14.20
  -6   5   8  237.08   12.50
   6   5  -8  256.07   16.40
  -6   5   8  232.68   18.40
   5  -5  -8  152.28   10.20
  -5   5   8  137.09   10.80
  -5   5   8  157.28    8.40
   5   5  -8  169.58   13.60
  -5   5   8  139.89   13.10
   4  -5  -8   31.70    5.30
   4   5  -8   27.60    7.70
  -4   5   8   35.50    6.30
  -4   5   8   31.60    4.00
  -4   5   8   36.20    5.60
   3  -5  -8    3.00    4.10
   3   5  -8    0.50    7.40
  -3   5   8    5.30    4.70
  -3   5   8   14.90    4.40
  -3   5   8    3.00    2.90
  -2   5   8  343.77   14.90
   2   5  -8  354.06   19.70
  -2   5   8  367.06   13.90
   1  -5  -8  738.53   32.10
   1   5  -8  686.03   31.90
  -1   5   8  711.13   26.40
  -1   5   8  746.73   27.10
  -1   5   8  730.73   27.10
   1   5  -8  712.93   27.00
   0  -5  -8 1123.79   45.00
   0   5  -8 1125.79   40.60
   0   5   8 1102.89   40.60
   0   5   8 1142.39   40.30
   0   5   8 1072.69   40.90
   1   5   8  454.75   17.30
   1   5   8  441.56   19.10
   1   5   8  439.56   17.60
  -1   5  -8  446.36   17.70
  -2  -5  -8  590.24   28.00
   2   5   8  630.34   23.70
  -2   5  -8  702.23   26.40
  -2   5  -8  586.04   26.80
   2   5   8  585.14   23.40
   2   5   8  605.24   25.60
  -3  -5  -8   23.00   10.80
   3   5   8   13.20    4.40
  -3   5  -8   15.00    5.20
  -3   5  -8    5.60   10.60
   3   5   8   19.40    9.40
  -4  -5  -8   -0.40   10.30
   4   5   8    8.50    4.70
  -4   5  -8    1.80    6.10
  -4   5  -8   14.60   12.00
   4   5   8    7.10   10.10
  -5  -5  -8   40.60   14.50
   5  -5   8   47.10    8.70
   5  -5   8   30.30   18.60
   5   5   8   45.00   13.30
   5   5   8   42.80    6.90
  -5   5  -8   56.49    8.20
   6  -6  -8  112.09   13.30
  -6   6   8  123.39   12.30
   6   6  -8   74.29   12.20
   5  -6  -8   21.00    6.80
   5   6  -8   27.60   10.20
  -5   6   8   32.10    5.70
  -5   6   8   23.50    9.00
  -5   6   8   28.70   10.30
   4  -6  -8   10.50    6.70
  -4   6   8   19.30    8.10
  -4   6   8   18.00    4.70
  -4   6   8   11.50    6.50
   4   6  -8   22.80   10.50
  -3   6   8    6.10    5.40
  -3   6   8   -5.60    6.30
  -3   6   8   -5.20    3.90
   3   6  -8   10.60   10.50
   2   6  -8   14.90   12.60
  -2   6   8    3.50    4.90
  -2   6   8   -0.70    4.00
  -2   6   8   -3.40    5.70
   2   6  -8   16.20   12.80
   1   6  -8  144.99    9.70
   1   6  -8  116.79   15.90
  -1   6   8  107.49    9.60
   1   6  -8  119.19   16.90
  -1   6   8  134.19    8.20
  -1   6   8  146.59    8.30
   0  -6  -8   28.20   11.50
   0   6   8   30.70    5.90
   0   6  -8   23.10    9.90
   0   6   8   24.40    4.60
   0   6   8   25.70    5.10
  -1  -6  -8    6.30   12.70
  -1   6  -8   12.30   11.20
   1   6   8    6.30    4.60
   1   6   8   10.50    4.70
  -1   6  -8   13.30    5.30
   1   6   8    8.90    7.00
  -2  -6  -8  327.27   24.80
  -2   6  -8  353.66   16.20
   2   6   8  375.76   18.70
  -2   6  -8  350.26   21.90
  -3  -6  -8   15.60   15.20
   3   6   8   26.10    5.30
  -3   6  -8   17.80    6.50
   3   6   8   21.80   10.30
  -3   6  -8   20.80   12.40
  -3   6  -8   22.20    3.50
   3   6   8   23.30    6.10
  -4  -6  -8   15.50   16.20
   4   6   8   27.10    7.20
  -4   6  -8   41.10   14.30
   4   6   8   40.70   14.00
  -4   6  -8   32.30    7.20
   5  -7  -8   23.50    8.50
   5   7  -8   -1.10   14.10
  -5   7   8   23.10   12.40
   4   7  -8   -5.20   13.00
  -4   7   8   -7.60    8.20
  -3   7   8   -4.10    6.70
  -3   7   8    4.20    7.80
   3   7  -8    3.40   12.10
   2   7  -8   17.60   16.40
   2   7  -8  -10.20    6.60
  -2   7   8   11.10    6.30
  -2   7   8   -9.30    5.00
   2   7  -8   -7.10   14.70
  -1   7   8   -0.20    5.70
   1   7  -8   10.50    6.60
   1   7  -8   27.00   15.20
  -1   7   8   -5.60    6.50
   1   7  -8  -23.30   16.30
   0  -7  -8  151.58   18.30
   0   7  -8  205.88   21.40
   0   7  -8  189.58   12.40
   0   7   8  167.68   14.00
   0   7  -8  196.28   26.20
   0   7   8  179.18   11.00
  -1  -7  -8   93.09   19.00
  -1   7  -8  124.29   15.70
   1   7   8  120.79   12.30
   1   7   8  133.49   11.60
  -1   7  -8  118.79   11.40
  -2  -7  -8   -7.70   16.00
   2   7   8   10.50    6.70
   2   7   8   -5.20    9.90
   2   7   8    5.20    6.20
  -2   7  -8  -18.30   13.50
  -2   7  -8   -3.60    6.30
  -3  -7  -8  -28.80   15.50
   3   7   8    4.40    6.80
  -3   7  -8    3.50    8.00
   3   7   8  -24.10   12.10
  -3   7  -8   -3.90    4.20
   3   7   8    0.20    7.10
  -3   7  -8   -7.70   14.70
  -3   8   8    5.50   12.10
   3   8  -8   13.90   17.10
  -3   8   8    1.10    7.40
   3   8  -8   26.00    9.80
   2   8  -8   19.10    9.10
  -2   8   8   13.10   10.40
  -2   8   8    4.80    9.20
  -2   8   8   -1.30    6.90
   2   8  -8   36.50   18.70
   2   8  -8   -0.40   18.50
   1   8  -8   24.10   20.80
   1   8  -8   24.20   19.40
   1   8  -8   11.30    8.90
  -1   8   8   24.00    7.20
  -1   8   8   19.30    6.80
  -1   8   8   13.80    9.80
   0   8   8   88.99   11.10
   0   8  -8   77.69    9.70
   0   8  -8   87.09   24.10
   0   8   8   70.89   10.30
   0   8  -8   91.49   18.00
  -1  -8  -8    8.10   21.80
  -1   8  -8   11.10   16.70
   1   8   8    8.30    8.80
  -1   8  -8   17.60   24.30
   1   8   8   21.00    7.20
  -1   8  -8   31.00    8.60
   1   8   8   34.90    9.10
   8   0  -9  -11.50    5.90
   8   0  -9   -2.70    6.60
   7   0  -9   -8.40    5.10
   7   0  -9    4.10    5.50
   6   0  -9    0.10    4.20
   6   0  -9    1.70    3.30
   5   0  -9    1.20    3.30
   5   0  -9    0.40    2.30
   4   0  -9    0.80    2.50
   4   0  -9   -2.90    1.70
   3   0  -9   -1.90    1.20
   3   0  -9   -2.20    5.20
  -1   0  -9   -0.50    1.60
   1   0   9   -3.20    5.20
  -1   0  -9   -0.90    4.60
   2   0   9   -1.70    5.60
  -2   0  -9   -0.50    2.30
   3   0   9   -0.60    2.20
  -3   0  -9   -4.50    3.20
   4   0   9   -2.20    3.20
  -4   0  -9   -0.60    4.60
   4   0   9   -0.70    9.20
   5   0   9   -7.80    4.00
   5   0   9   -3.60    9.90
  -5   0  -9    6.20    5.10
   6   0   9   -2.10    6.10
  -6   0  -9   -4.20    6.20
   6   0   9    4.80   11.70
   8  -1  -9   98.49   11.20
   8  -1  -9  106.99   10.50
   8   1  -9   98.49   11.20
   8   1  -9   99.49   11.30
   7  -1  -9   98.69    7.70
   7  -1  -9   98.09    9.20
   7   1  -9   98.99    8.40
   7   1  -9   95.99    9.60
   6  -1  -9    7.00    4.20
   6  -1  -9    5.60    3.00
   6   1  -9   14.50    5.00
   6   1  -9    6.80    3.60
   5  -1  -9   30.90    4.10
   5  -1  -9   30.70    3.80
   5   1  -9   28.60    3.30
   4  -1  -9   30.20    3.00
   4  -1  -9   30.40    3.60
   4   1  -9   24.70    3.30
   3  -1  -9  167.18    6.60
   3  -1  -9  182.78    7.60
   3  -1  -9  169.18   10.40
   3   1  -9  162.78    7.20
   3   1  -9  170.18    7.80
   2  -1  -9 2142.19   73.79
   2  -1  -9 1919.71   73.09
   2  -1  -9 2065.99   74.69
   2  -1  -9 2151.18   73.69
   2   1  -9 2073.69   75.69
   2   1  -9 2100.59   73.79
   1  -1  -9  157.58    8.70
   1  -1  -9  160.98    6.50
   1   1  -9  160.18   10.30
   1   1  -9  157.58    6.60
   0  -1  -9  358.36   15.10
   0  -1  -9  363.66   13.10
   0   1   9  337.97   16.10
   0   1  -9  338.27   12.70
   0   1   9  352.66   13.30
   0   1  -9  343.37   12.70
   0   1  -9  341.97   15.40
  -1  -1  -9    1.20    2.10
   1  -1   9    3.70    6.80
  -1   1  -9   -1.80    1.50
   1   1   9    3.00    5.60
   1   1   9    3.30    1.80
  -1   1  -9    3.40    4.60
  -2  -1  -9    7.80    2.60
   2  -1   9    3.20    7.40
  -2   1  -9   13.20    5.70
  -2   1  -9    8.00    2.20
   2   1   9   10.50    1.80
   2   1   9    4.10    6.20
   3  -1   9   -3.20    8.50
   3  -1   9    0.70    2.10
  -3  -1  -9    1.00    3.30
   3   1   9    0.40    1.50
  -3   1  -9   -1.40    2.80
   3   1   9    4.20    2.30
   4  -1   9   65.59    5.70
   4  -1   9   53.59   10.10
  -4  -1  -9   54.29    6.90
   4   1   9   55.89    5.70
  -4   1  -9   59.39    6.20
   4   1   9   63.29    8.70
  -5  -1  -9   49.80    6.10
   5  -1   9   51.89   13.30
   5  -1   9   42.10    5.20
   5   1   9   43.00   11.50
   5   1   9   50.89    6.80
  -5   1  -9   50.79    5.60
  -6  -1  -9   46.00    9.10
   6  -1   9   43.80    6.90
   6  -1   9   46.50   15.40
  -6   1  -9   37.40    7.20
   6   1   9   58.99    6.80
   6   1   9   41.70   12.00
   8  -2  -9  326.47   17.00
   8  -2  -9  317.77   15.70
   8   2  -9  330.57   17.30
   7  -2  -9  105.59    8.90
   7  -2  -9   95.09    9.50
   7   2  -9  105.09    9.00
   6  -2  -9   17.30    4.10
   6  -2  -9   26.50    4.80
   6   2  -9   31.10    4.70
   5  -2  -9   15.40    3.60
   5  -2  -9   11.00    3.10
   5   2  -9   14.40    3.70
   4  -2  -9  227.48    9.60
   4  -2  -9  213.18   11.10
   4  -2  -9  203.98    8.90
   4   2  -9  224.28   10.00
   3  -2  -9   28.50    3.00
   3  -2  -9   32.80    4.50
   3  -2  -9   36.50    3.60
   3   2  -9   32.90    4.10
   2  -2  -9   85.19    7.90
   2  -2  -9   73.39    4.00
   2  -2  -9   76.39    6.30
   2   2  -9   74.29    8.80
  -2   2   9   79.49    5.30
   1  -2  -9  715.23   26.80
   1  -2  -9  712.83   26.70
  -1   2   9  718.93   26.30
   1   2  -9  712.43   28.80
   0  -2  -9   87.09    5.90
   0   2   9   82.99    4.70
   0   2  -9   78.49    4.00
   0   2  -9   79.99    8.50
   0   2   9   94.79    9.10
   0   2  -9   80.69    3.80
   1  -2   9   41.40    8.60
  -1  -2  -9   38.10    4.10
  -1   2  -9   37.10    6.30
   1   2   9   30.00    6.20
  -1   2  -9   31.70    3.40
   1   2   9   38.00    3.10
  -2  -2  -9  126.49    7.80
  -2   2  -9  132.79    6.40
   2   2   9  118.69    5.70
   2   2   9  128.09    5.60
   2   2   9  131.09   10.50
   2   2   9  132.89    5.50
  -3  -2  -9  212.08   11.20
   3  -2   9  228.18   17.00
   3  -2   9  220.88    9.00
   3   2   9  216.08    9.10
  -3   2  -9  221.48    9.90
  -3   2  -9  191.08   15.80
   4  -2   9  470.55   18.40
   4  -2   9  471.25   25.70
  -4  -2  -9  467.25   21.20
   4   2   9  489.65   18.60
   4   2   9  481.25   22.50
  -5  -2  -9  418.56   20.00
   5  -2   9  431.16   17.70
   5  -2   9  451.25   25.60
   5   2   9  434.56   24.20
  -5   2  -9  425.76   18.80
   5   2   9  442.46   17.90
   6  -2   9  673.73   27.50
   6  -2   9  704.03   37.00
  -6  -2  -9  649.14   31.00
   6   2   9  697.73   33.90
  -6   2  -9  711.73   28.60
   6   2   9  687.93   27.30
   8  -3  -9   30.90    8.00
   8  -3  -9   32.70    6.90
   8   3  -9   30.00    8.00
   7  -3  -9  135.59   10.40
   7  -3  -9  106.69    9.40
   7   3  -9  119.99   11.60
   6  -3  -9  196.38   12.00
   6  -3  -9  212.48   10.90
   6   3  -9  223.98   12.60
   5  -3  -9   14.80    3.50
   5  -3  -9   14.40    4.70
   5   3  -9   15.70    4.70
   4  -3  -9   34.90    3.40
   4  -3  -9   35.50    3.60
   4   3  -9   29.60    5.00
   3  -3  -9  973.90   34.40
   3  -3  -9  955.00   34.60
   3   3  -9  933.41   36.00
  -3   3   9  966.50   35.40
   2  -3  -9  857.51   30.80
   2  -3  -9  856.81   33.50
   2   3  -9  834.02   34.40
   2   3  -9  838.32   32.70
  -2   3   9  865.71   31.40
   1  -3  -9 1672.03   61.19
  -1   3   9 1682.43   59.89
   1   3  -9 1655.33   62.59
   0  -3  -9  487.85   19.60
   0   3  -9  450.85   17.20
   0   3   9  462.45   17.40
   0   3  -9  441.16   20.50
   0   3   9  448.56   19.30
  -1  -3  -9   62.39    8.30
   1   3   9   63.09    4.40
   1   3   9   64.89    9.20
  -1   3  -9   58.69    4.30
   1   3   9   66.59    3.20
   1   3   9   63.19    3.30
  -2  -3  -9    6.20    5.20
   2  -3   9    5.90   10.00
   2   3   9    9.90    6.20
   2   3   9    3.90    2.20
  -2   3  -9    7.50    3.20
   3  -3   9    7.60   11.60
  -3   3  -9    4.20    7.60
   3   3   9   16.50    3.20
  -3   3  -9   21.40    4.50
   4  -3   9  219.78   10.10
   4  -3   9  178.28   21.20
  -4  -3  -9  217.18   13.80
   4   3   9  219.98   16.70
  -4   3  -9  214.68   10.80
   4   3   9  211.48   10.20
   5  -3   9   41.70   16.60
   5  -3   9   40.90    6.10
  -5  -3  -9   38.20    9.90
   5   3   9   53.09    6.10
  -5   3  -9   46.30    6.90
   5   3   9   21.10   12.30
   6  -3   9   -9.20   15.20
  -6  -3  -9   24.20   10.90
   6  -3   9   -0.50    7.60
  -6   3  -9   -9.30    7.40
   6   3   9  -12.30   13.00
   6   3   9    0.00    6.20
   7  -4  -9   64.29    7.90
  -7   4   9   56.59    7.00
   7   4  -9   61.19    8.70
  -7   4   9    5.30    5.30
   6  -4  -9   40.00    5.90
  -6   4   9   33.70    4.00
  -6   4   9   26.60    4.80
   6   4  -9   22.10    6.90
   5   4  -9   58.99    7.30
   4  -4  -9   -2.50    3.90
   4   4  -9    3.40    6.10
  -4   4   9   -3.00    5.50
   3  -4  -9    2.10    3.50
   3   4  -9   -4.90    6.30
   2   4  -9    1.70    7.10
   1  -4  -9   99.59   13.10
   1   4  -9   95.59    6.00
   1   4  -9   89.09   11.60
  -1   4   9   88.59    6.00
   0  -4  -9  245.78   15.40
   0   4   9  224.18   13.10
   0   4  -9  249.68   10.60
   0   4   9  245.08   10.70
   0   4   9  233.48    9.40
   0   4  -9  283.37   16.20
   0   4   9  250.87    9.40
  -1  -4  -9   43.60    7.90
  -1   4  -9   35.80    4.90
   1   4   9   42.60    3.80
   1   4   9   40.90    6.60
   1   4   9   41.90    4.10
  -2   4  -9  101.19   12.30
  -2   4  -9  117.39    7.50
   2   4   9  101.69   10.50
   2   4   9  118.29    6.40
   2   4   9  107.39    6.70
  -3  -4  -9  134.09   14.70
   3  -4   9  153.38   19.90
   3   4   9  132.99   13.10
  -3   4  -9  132.79   14.90
   3   4   9  132.89    7.50
  -4  -4  -9  222.28   18.30
   4  -4   9  214.58   24.70
   4   4   9  217.88   10.80
  -4   4  -9  225.28   12.50
   4   4   9  209.98   18.30
   5  -4   9  242.88   28.00
   5  -4   9  212.98   15.20
  -5  -4  -9  205.28   21.20
  -5   4  -9  238.68   13.80
   5   4   9  230.38   12.70
   5   4   9  235.38   20.90
   6  -5  -9    1.30    6.90
  -6   5   9    9.30    7.50
   6   5  -9   -3.70    9.20
  -6   5   9    1.90    4.30
   5  -5  -9    4.40    6.00
  -5   5   9    0.00    3.30
  -5   5   9    6.30    6.20
   5   5  -9    6.90    7.50
   4  -5  -9   16.00    5.30
  -4   5   9   17.00    5.90
  -4   5   9   19.50    4.40
   4   5  -9   22.70    9.50
  -4   5   9   16.40    3.20
   3   5  -9   25.40    9.00
  -3   5   9   25.70    3.70
  -3   5   9   24.20    5.10
  -3   5   9   16.80    2.90
  -2   5   9   -0.30    2.40
  -2   5   9    7.90    4.50
  -2   5   9    1.30    2.80
   2   5  -9  -16.30    9.80
   2   5  -9   -3.70   11.20
   1  -5  -9  187.48   17.70
  -1   5   9  173.48    7.50
  -1   5   9  162.68    9.70
   1   5  -9  172.58    9.00
   1   5  -9  179.78   16.30
  -1   5   9  173.98    7.90
   1   5  -9  160.68   17.00
   0   5   9  288.37   11.90
   0   5   9  285.47   11.90
   0   5  -9  279.27   12.70
   0   5   9  334.07   13.70
   0   5   9  284.87   14.60
   0   5  -9  297.97   19.10
   1   5   9    2.90    6.90
  -1   5  -9   13.50    9.90
   1   5   9   -1.00    3.60
   1   5   9    0.50    3.00
  -2  -5  -9   12.70   10.30
   2   5   9    2.00    4.00
   2   5   9   -2.70    3.30
  -2   5  -9    0.10    1.90
  -2   5  -9    0.90    5.70
  -2   5  -9    3.30   10.30
   2   5   9    3.80    7.50
  -3  -5  -9   22.40   11.90
  -3   5  -9   10.90    5.60
   3   5   9   10.40    5.30
   3   5   9   15.30    4.40
  -3   5  -9    6.10   12.00
   3   5   9   18.70   10.10
  -4  -5  -9   -0.90   13.10
  -4   5  -9   -3.70   13.70
   4   5   9    8.60    5.40
   4   5   9    3.50   11.40
  -4   5  -9   -3.50    6.70
   5  -5   9   29.90   17.60
  -5  -5  -9   22.40   13.50
  -5   5  -9   44.60    8.10
   5   5   9   39.00    6.90
   5   5   9   42.90   14.40
   6  -6  -9   13.60    9.00
  -6   6   9   -3.10   10.70
   6   6  -9    3.30   10.80
   5  -6  -9   18.80    8.00
  -5   6   9   27.00    5.00
  -5   6   9   16.40    8.30
  -5   6   9   25.70    8.60
   5   6  -9    7.90   10.80
   4  -6  -9   -5.40    6.80
  -4   6   9   13.10    6.90
  -4   6   9    8.80    6.80
  -4   6   9    0.10    4.10
   4   6  -9    1.60   10.70
   3   6  -9   40.70   11.40
  -3   6   9   48.10    6.30
  -3   6   9   58.99    6.90
  -3   6   9   55.19    6.00
  -2   6   9   16.40    5.10
   2   6  -9   18.50   12.30
   2   6  -9   26.90   12.50
  -2   6   9   15.00    5.40
  -2   6   9   16.20    4.10
  -1   6   9    4.70    3.80
  -1   6   9    2.80    4.90
  -1   6   9    7.00    4.60
   1   6  -9    5.20   13.70
   1   6  -9   10.10   11.20
   0  -6  -9   92.49   15.40
   0   6   9   99.79    7.80
   0   6   9  118.79    8.10
   0   6   9  104.69    7.60
   0   6  -9  114.69    9.10
   0   6  -9  130.79   17.70
   0   6   9  111.59   10.20
  -1  -6  -9   11.10   12.10
   1   6   9    4.10    4.40
  -1   6  -9   -7.20    5.20
  -1   6  -9   -7.70   12.00
   1   6   9   -4.40    4.30
   1   6   9   -3.90    7.50
  -2  -6  -9   83.49   16.10
  -2   6  -9   65.09    4.80
   2   6   9   63.99    9.70
  -2   6  -9   66.89    7.20
   2   6   9   70.79    7.80
  -2   6  -9   57.29   13.60
   2   6   9   58.59    6.90
  -3  -6  -9   -8.90   15.60
  -3   6  -9    3.10   14.00
   3   6   9   -9.00   11.20
  -3   6  -9   -2.10    7.00
   3   6   9  -11.60    4.60
  -4  -6  -9   33.90   16.30
   4   6   9   54.09    7.80
   4   6   9   58.59    7.30
   4   6   9   49.40   13.90
  -4   6  -9   52.39   16.20
  -4   6  -9   54.69    8.60
  -4   7   9  145.99   11.10
   4   7  -9  103.49   16.00
  -4   7   9  130.49   15.50
  -4   7   9  121.79    9.40
  -3   7   9  123.79    9.50
  -3   7   9  104.99   12.70
   3   7  -9   94.19   16.50
  -3   7   9  107.09   11.00
  -2   7   9  243.88   14.90
   2   7  -9  257.97   26.50
   2   7  -9  247.98   14.90
  -2   7   9  268.07   12.80
  -2   7   9  275.37   14.10
   2   7  -9  261.27   27.90
   1   7  -9  302.47   15.70
   1   7  -9  298.67   26.50
  -1   7   9  295.77   13.80
   1   7  -9  306.07   30.70
  -1   7   9  301.07   14.80
  -1   7   9  279.77   14.80
   0  -7  -9  252.87   26.80
   0   7  -9  253.57   32.40
   0   7   9  209.48   12.90
   0   7  -9  268.77   23.90
   0   7   9  231.88   12.50
   0   7   9  234.38   12.60
   0   7  -9  236.98   14.10
  -1  -7  -9   16.00   19.00
   1   7   9   11.00    6.20
   1   7   9   10.10    9.20
  -1   7  -9   18.90   13.10
  -1   7  -9    4.60    7.30
  -2  -7  -9    7.80   19.10
   2   7   9   -1.60    6.40
  -2   7  -9    2.60    6.70
  -2   7  -9   -0.30   15.60
   2   7   9   -0.20    6.70
   1   8  -9   13.00    9.10
  -1   8   9   12.90   11.70
   8   0 -10   62.39    7.40
   8   0 -10   62.39    7.70
   7   0 -10    5.60    6.00
   7   0 -10   -2.20    5.40
   6   0 -10   95.69    8.00
   6   0 -10   92.39    6.70
   5   0 -10    8.10    4.20
   5   0 -10    3.10    2.70
   4   0 -10   68.29    4.10
   4   0 -10   81.89    5.60
   3   0 -10  104.29    9.70
   3   0 -10   99.09    5.30
   3   0 -10   88.79    4.00
   2   0 -10  387.76   14.80
   1   0 -10  274.07   12.90
   1   0 -10  240.38    9.80
   0   0 -10   60.69    3.40
   0   0  10   68.39    8.30
   0   0 -10   68.19    8.10
   1   0  10  412.06   19.90
  -1   0 -10  417.86   18.50
  -1   0 -10  403.76   15.40
  -2   0 -10  798.42   29.30
  -3   0 -10  857.11   31.30
   3   0  10  821.62   35.40
   4   0  10 1008.60   35.80
   4   0  10  968.50   40.90
   5   0  10  230.38   22.10
   5   0  10  239.28   11.40
  -5   0 -10  230.78   13.50
  -6   0 -10   45.20    8.80
   6   0  10   47.00   14.40
   6   0  10   59.99    7.80
   8  -1 -10   88.99   11.10
   8  -1 -10   78.79    8.30
   8   1 -10   92.69    8.70
   8   1 -10   88.99   10.40
   7  -1 -10    5.50    5.70
   7  -1 -10   12.90    4.90
   7   1 -10   11.50    6.40
   7   1 -10   12.70    6.20
   6  -1 -10   46.30    5.70
   6  -1 -10   48.50    6.30
   6   1 -10   60.59    6.40
   6   1 -10   51.59    4.80
   5  -1 -10  118.79    7.90
   5  -1 -10  118.89    6.40
   5   1 -10  125.69    6.50
   5   1 -10  115.99    7.80
   4  -1 -10  768.12   28.20
   4  -1 -10  785.42   30.20
   4  -1 -10  737.53   27.40
   4   1 -10  763.12   28.30
   4   1 -10  738.13   27.50
   3  -1 -10  415.26   17.90
   3  -1 -10  415.46   15.70
   3  -1 -10  388.76   14.80
   3   1 -10  433.96   19.80
   3   1 -10  391.16   15.20
   3   1 -10  401.86   15.80
   2  -1 -10 1802.22   60.69
   2  -1 -10 1702.43   60.69
   2  -1 -10 1580.04   59.99
   2  -1 -10 1711.63   61.89
   2   1 -10 1733.43   63.09
   2   1 -10 1678.93   60.69
   1   1 -10   67.59    8.90
   1   1 -10   68.59    3.70
   1   1 -10   69.19    3.00
   0  -1 -10   31.50    3.10
   0  -1 -10   26.40    5.10
   0   1  10   34.30    7.30
   0   1 -10   13.20    6.10
   0   1 -10   14.80    1.80
   1  -1  10   62.59   10.40
  -1   1 -10   71.59    8.80
   1   1  10  239.28   12.80
   1   1  10  162.08    6.00
   2  -1  10  228.98   17.90
  -2   1 -10  245.28   10.20
  -2   1 -10  240.38   14.10
   3  -1  10   57.79   11.60
   4  -1  10   25.40    3.70
   4  -1  10    9.50   11.10
   4   1  10   37.50    2.30
  -4   1 -10   27.50    6.00
   5  -1  10   13.30   15.00
  -5  -1 -10   40.30    6.80
   5  -1  10   41.30    5.40
  -5   1 -10   49.90    6.80
   5   1  10   40.50   13.30
   6  -1  10  -20.30   14.60
  -6  -1 -10   11.70    8.90
   6  -1  10   -7.80    7.20
  -6   1 -10   -2.50    6.70
   6   1  10    2.10    6.40
   6   1  10   -5.20   12.80
   8  -2 -10   -6.50    7.30
   8   2 -10   16.40    8.20
   8   2 -10   -1.80    7.10
   7  -2 -10   -1.90    5.70
   7  -2 -10    1.20    5.00
   7   2 -10   -5.20    5.50
   6  -2 -10    7.40    4.00
   6  -2 -10   10.20    4.60
   6   2 -10   12.60    4.00
   5  -2 -10   20.00    4.60
   5  -2 -10   20.70    3.30
   5  -2 -10   16.30    7.00
   5   2 -10   14.40    3.90
   4  -2 -10   20.10    3.60
   4  -2 -10   18.30    5.80
   4  -2 -10   21.40    2.80
   4   2 -10   15.20    3.70
   3  -2 -10   40.40    3.30
   3  -2 -10   46.10    6.50
   3   2 -10   16.10    4.50
   3   2 -10   46.10    9.00
   2  -2 -10   13.60    2.20
   2  -2 -10   13.40    5.00
   2  -2 -10   17.10    4.50
   2   2 -10   21.00    7.90
   1  -2 -10   54.99    6.10
   1  -2 -10   51.09    6.60
   1   2 -10   53.49    3.60
  -1   2  10   53.19    4.50
   1   2 -10   70.89    8.40
   1   2 -10   62.59    3.50
   0  -2 -10   47.40    5.60
   0   2 -10   42.30    3.40
   0   2  10   48.10    7.20
   0   2 -10   52.59    7.90
   0   2  10   45.00    4.10
   0   2 -10   48.70    2.90
  -1  -2 -10    4.10    3.70
  -1   2 -10    7.60    2.60
   1   2  10    6.90    2.70
   1   2  10   10.40    7.80
   2  -2  10  128.39   13.40
  -2  -2 -10  143.29    9.00
   2   2  10  145.19   12.50
  -2   2 -10  131.09    6.90
   2   2  10  128.89    6.30
   3  -2  10   -1.20   11.70
   3   2  10    1.40    2.50
  -3   2 -10   12.00    7.80
   3   2  10   -3.10    8.50
   3   2  10    3.60    2.50
  -3   2 -10    4.40    3.60
   4  -2  10  172.98    8.90
   4  -2  10  188.18   19.50
  -4  -2 -10  164.98   12.50
  -4   2 -10  182.98   10.40
   4   2  10  208.28   17.90
   4   2  10  189.68    8.90
   5  -2  10   24.40   16.30
  -5  -2 -10   31.40    8.80
   5  -2  10   29.80    5.50
   5   2  10   31.10    5.40
  -5   2 -10   35.20    6.70
   5   2  10   21.60   13.00
  -6  -2 -10   21.70   10.30
   6  -2  10   10.10    7.00
   6   2  10   28.90    6.70
   6   2  10   13.50   13.60
  -6   2 -10    7.60    7.50
   7  -3 -10   17.60    6.40
   7  -3 -10   22.70    6.00
   7   3 -10   14.70    7.10
   6  -3 -10   75.99    7.80
   6  -3 -10   85.79    9.10
   6  -3 -10   88.19   10.40
   6   3 -10   80.69    9.60
   5  -3 -10   -0.80    3.60
   5  -3 -10   -5.60    4.60
   5   3 -10    1.80    4.50
   4  -3 -10   31.40    4.10
   4  -3 -10   34.70    3.70
   4   3 -10   35.00    5.20
   3  -3 -10   27.30    3.80
   3  -3 -10   20.30    3.40
   3   3 -10   23.20    5.60
  -3   3  10   11.90    5.40
   2  -3 -10  719.13   29.10
   2   3 -10  711.33   28.10
  -2   3  10  752.52   26.80
   2   3 -10  652.63   31.60
   1  -3 -10   36.30    6.50
   1   3 -10   35.90    4.00
  -1   3  10   43.20    4.40
   1   3 -10   36.60    9.30
   0  -3 -10    8.00    4.90
   0   3  10    4.70    2.80
   0   3 -10    4.20    7.60
   0   3 -10    3.50    2.70
   0   3  10    0.40    7.50
   1   3  10  274.57   10.80
  -1   3 -10  248.58   10.70
   2  -3  10   23.30   10.50
  -2   3 -10   32.10    4.30
  -2   3 -10   29.30    9.30
   3  -3  10   40.90   14.40
  -3   3 -10   34.40   10.70
  -3   3 -10   43.70    5.10
   4  -3  10   -0.10   15.10
  -4  -3 -10    0.90    8.00
   4   3  10   -2.40   11.00
  -4   3 -10    3.10    4.60
   4   3  10   -1.40    3.90
   5  -3  10    6.00    5.70
   5  -3  10  -13.30   15.50
  -5  -3 -10   -9.00   10.10
  -5   3 -10   -1.50    6.00
   5   3  10    6.90   11.60
   7  -4 -10   14.00    7.60
   7   4 -10    6.70    8.00
   6  -4 -10   -7.90    5.50
   6   4 -10    2.10    6.80
   5   4 -10   13.90    5.90
   4  -4 -10   10.40    4.30
   4   4 -10   18.30    6.90
  -4   4  10   13.30    5.90
   3  -4 -10    1.50    3.80
   3   4 -10   11.10    6.80
  -3   4  10   -5.00    6.20
  -2   4  10   -5.80    4.10
   2   4 -10    3.50    7.70
   2   4 -10  -12.70    8.70
   1  -4 -10  314.67   19.10
   1   4 -10  318.77   19.80
   1   4 -10  326.07   13.10
   0  -4 -10   -1.00    8.30
   0   4 -10   -2.10    3.40
   0   4  10   -7.70    7.30
   0   4 -10   -2.50    9.20
   0   4  10   -2.70    3.30
  -1  -4 -10   34.20    8.30
   1   4  10   36.30    3.40
   1   4  10   41.60    3.30
   1   4  10   39.20    9.00
  -1   4 -10   42.30    4.10
  -1   4 -10   38.80    8.80
   1   4  10   44.40    4.50
   2   4  10  582.94   25.50
   2   4  10  577.14   21.30
  -2   4 -10  581.24   27.30
   2   4  10  561.04   21.30
  -3  -4 -10  265.27   18.50
  -3   4 -10  241.38   19.40
   3   4  10  251.97   18.80
   3   4  10  241.08   10.80
  -3   4 -10  253.17   12.30
   3   4  10  229.78   11.10
   4  -4  10  245.78   27.70
  -4  -4 -10  228.88   20.70
   4   4  10  239.98   20.50
  -4   4 -10  257.37   13.80
   4   4  10  245.78   12.10
   5  -4  10  156.98   22.30
  -5  -4 -10  189.88   22.20
   5   4  10  160.28   21.70
  -5   4 -10  203.88   13.00
   5   4  10  207.18   11.90
   6  -5 -10   -8.70    7.50
   6   5 -10   -9.70    8.50
   5  -5 -10  324.07   15.70
   5   5 -10  319.17   19.40
   4  -5 -10  311.37   14.40
  -4   5  10  298.67   15.10
   3   5 -10 1083.89   45.90
  -3   5  10 1093.09   41.00
   3   5 -10 1113.39   43.80
   2   5 -10   47.10   13.30
  -2   5  10   47.90    5.60
   2   5 -10   25.30   10.10
   1   5 -10  462.15   18.70
  -1   5  10  473.05   18.70
   1   5 -10  461.35   25.80
   0  -5 -10   13.40   11.10
   0   5 -10   17.80    9.80
   0   5  10   15.30    2.50
   0   5  10   18.60    8.30
   0   5 -10   15.80    4.40
   0   5  10   15.90    4.40
   0   5  10   17.90    2.80
  -1  -5 -10   49.00   12.20
   1   5  10   57.09    5.50
  -1   5 -10   61.29   12.10
  -1   5 -10   48.70    6.50
   1   5  10   35.30    9.30
   1   5  10   49.30    5.20
  -2  -5 -10  154.48   19.60
  -2   5 -10  140.49    9.80
   2   5  10  147.59    8.30
  -2   5 -10  124.79   18.30
   2   5  10  142.59   13.90
   2   5  10  154.48    8.30
  -3  -5 -10   69.39   14.10
   3   5  10   60.19    6.30
  -3   5 -10   56.89   13.80
   3   5  10   57.79    5.50
  -3   5 -10   54.39    7.30
   3   5  10   69.79   12.90
  -4  -5 -10   56.39   15.50
  -4   5 -10   43.60    8.10
  -4   5 -10   40.40   14.90
   4   5  10   34.40    6.00
   4   5  10   50.59   15.30
   5  -6 -10   54.49    8.90
   5   6 -10   62.09   12.30
  -5   6  10   65.39    9.10
  -4   6  10   19.50    7.60
  -4   6  10    4.40    4.20
  -4   6  10    3.00    2.60
   4   6 -10    1.30   12.90
  -3   6  10   26.20    6.80
   3   6 -10   34.50   14.90
  -3   6  10   30.20    4.00
   3   6 -10   13.00   12.80
  -3   6  10   25.60    3.50
   2   6 -10   78.19   14.50
   2   6 -10   58.59   15.20
   2   6 -10   54.59    7.90
  -2   6  10   58.29    5.70
  -2   6  10   54.69    5.20
  -2   6  10   64.19    7.10
   1   6 -10   50.59    7.60
  -1   6  10   54.59    5.90
  -1   6  10   58.89    5.60
   1   6 -10   58.99   16.00
   1   6 -10   50.59   14.90
  -1   6  10   60.89    6.50
   0  -6 -10    3.10   14.80
   0   6  10   16.90    3.90
   0   6  10   18.60    5.30
   0   6  10   18.40    4.20
   0   6  10   15.70    9.00
   0   6 -10   26.60    5.70
   0   6 -10   17.00   12.10
  -1  -6 -10   73.59   16.80
   1   6  10   36.70   10.30
  -1   6 -10   69.99   14.40
   1   6  10   40.80    4.60
  -1   6 -10   54.09    6.60
   1   6  10   42.90    5.60
  -2  -6 -10   13.20   14.50
  -2   6 -10   11.70    6.70
  -2   6 -10    4.70    2.80
  -2   6 -10    6.30   12.50
   2   6  10    8.90    4.30
   2   6  10    8.30    5.70
  -3  -6 -10  342.67   28.80
  -3   6 -10  362.86   18.70
  -3   6 -10  327.67   25.10
   3   6  10  377.06   17.40
   3   6  10  394.96   25.00
  -3   7  10    0.20    5.70
   3   7 -10   20.00   15.30
   3   7 -10   -9.20   15.90
  -3   7  10    2.80    8.00
  -3   7  10    6.10    4.30
   2   7 -10   87.99   18.50
   2   7 -10   83.69    9.70
   2   7 -10   59.19   18.40
  -2   7  10   36.00    5.80
  -2   7  10   55.59    6.50
  -2   7  10   57.59    7.90
  -1   7  10   25.80    7.40
   1   7 -10   -5.60   21.80
   1   7 -10   22.90   17.80
  -1   7  10   19.60    5.40
  -1   7  10   17.30    5.30
   1   7 -10   26.00    7.80
   0  -7 -10   35.60   20.90
   0   7 -10   42.80    7.90
   0   7  10   52.69    7.40
   0   7  10   33.20    5.60
   0   7 -10   60.59   21.40
   0   7  10   39.50    6.00
   0   7 -10   35.40   16.90
   0   7  10   45.60    7.70
  -1  -7 -10   -6.50   18.50
  -1   7 -10    8.90    7.80
   1   7  10   -6.20    7.80
   1   7  10   11.20   10.20
  -1   7 -10   16.90   15.40
   8   0 -11   -1.60    7.30
   7   0 -11    1.70    6.30
   7   0 -11    6.10    6.20
   6   0 -11    7.20    6.20
   6   0 -11   -1.50    4.10
   5   0 -11    3.00    4.00
   5   0 -11   -1.20    2.70
   4   0 -11    5.90    7.40
   4   0 -11    2.20    2.00
   3   0 -11    0.10    6.90
   3   0 -11    0.10    1.10
   3   0 -11   -0.40    2.80
   2   0 -11    2.60    5.80
   2   0 -11   -1.60    2.30
   1   0 -11    2.90    5.70
   1   0 -11   -0.60    1.10
   0   0 -11   27.90    6.50
  -2   0 -11   -5.60    3.00
   2   0  11   -9.90   10.30
   3   0  11    8.70   12.20
  -3   0 -11   -3.60    3.80
   4   0  11  -10.40   13.70
  -4   0 -11   -2.40    5.00
   4   0  11   -1.00    2.80
   5   0  11   -5.30    4.90
   5   0  11   14.80   15.80
  -5   0 -11    7.00    6.90
   7  -1 -11    1.30    4.80
   7  -1 -11    7.60    6.10
   7   1 -11   11.60    6.60
   7   1 -11    5.60    6.40
   6  -1 -11  450.25   18.00
   6  -1 -11  468.55   19.40
   6   1 -11  442.36   19.20
   6   1 -11  435.56   17.90
   5  -1 -11   64.59    9.90
   5  -1 -11   53.69    6.30
   5  -1 -11   53.49    5.00
   5   1 -11   58.99    5.60
   5   1 -11   52.19    5.20
   4  -1 -11  417.96   19.00
   4  -1 -11  401.76   16.20
   4  -1 -11  399.16   15.10
   4   1 -11  391.16   15.30
   4   1 -11  407.86   20.80
   3  -1 -11   19.70    6.20
   3  -1 -11   20.30    2.40
   3  -1 -11   23.90    3.30
   3   1 -11   26.50    8.00
   3   1 -11   18.80    2.60
   3   1 -11   18.50    3.30
   2  -1 -11  804.72   31.10
   2  -1 -11  764.62   28.50
   2  -1 -11  838.02   29.40
   2   1 -11  819.22   32.60
   2   1 -11  787.92   29.30
   1  -1 -11  310.17   12.10
   1  -1 -11  315.47   15.10
   1   1 -11  315.47   15.60
   1   1 -11  309.27   11.90
   0  -1 -11   94.69    5.60
   0  -1 -11  101.39    9.40
   0   1  11  100.09   12.60
   0   1 -11  104.89    4.80
   0   1 -11   96.69   10.60
   1  -1  11  295.47   22.60
  -1  -1 -11  307.97   12.60
  -1   1 -11  318.57   12.30
  -1   1 -11  327.97   15.90
   1   1  11  297.77   18.50
   2  -1  11   20.90   11.00
  -2  -1 -11   -2.40    3.20
   2   1  11   -0.90    8.80
  -2   1 -11   -0.70    3.10
  -2   1 -11    5.10    8.60
   3  -1  11   73.19   12.80
   3   1  11   68.19   12.50
  -3   1 -11   61.39    6.80
  -4  -1 -11   -1.00    5.50
   4  -1  11   -3.20   12.90
  -4   1 -11   -2.90    4.90
   4   1  11   -1.30   13.50
   4   1  11    0.30    3.10
   5  -1  11   26.60   16.70
   5  -1  11   13.20    4.90
  -5  -1 -11   13.80    7.90
  -5   1 -11   18.20    6.10
   5   1  11    8.30    4.90
   5   1  11    0.80   15.50
   7  -2 -11   78.39    9.40
   7  -2 -11   80.19    9.30
   7   2 -11  123.69   10.40
   7   2 -11   99.59    9.60
   6  -2 -11    6.00    6.00
   6  -2 -11   13.80    8.80
   6  -2 -11   16.30    4.50
   6   2 -11    4.30    4.40
   5  -2 -11    0.20    4.30
   5  -2 -11    6.10    3.50
   5  -2 -11    1.70    7.70
   5   2 -11    2.40    3.70
   4  -2 -11   96.39    9.00
   4  -2 -11   94.39    5.60
   4  -2 -11   90.29    6.40
   4   2 -11   88.59    6.80
   3  -2 -11   65.69    4.30
   3  -2 -11   73.59    7.70
   3   2 -11   64.19    7.10
   3   2 -11   88.09   12.40
   2  -2 -11  151.28    9.60
   2  -2 -11  142.79   10.50
   2  -2 -11  133.69    6.30
   2   2 -11  132.29    6.80
   1  -2 -11   -2.40    4.30
   1  -2 -11   -0.20    4.90
  -1   2  11   -2.60    3.50
   1   2 -11   -1.10    1.90
   1   2 -11   -2.60    2.00
   0  -2 -11  171.98    9.40
   0   2 -11  166.48    6.70
   0   2 -11  191.08   14.40
   0   2  11  163.88   13.80
   0   2  11  172.18    8.20
   0   2 -11  167.18    7.20
  -1  -2 -11  991.90   36.30
  -1   2 -11  960.70   35.20
   1   2  11  958.00   38.80
   1   2  11  953.30   35.30
  -1   2 -11 1005.20   39.10
   2  -2  11  866.41   38.70
  -2  -2 -11  884.51   33.20
   2   2  11  849.81   31.40
  -2   2 -11  857.81   31.90
  -2   2 -11  883.51   35.80
   2   2  11  861.01   37.10
   3  -2  11  467.25   26.50
  -3   2 -11  458.45   23.10
   3   2  11  475.15   17.70
   3   2  11  488.05   25.30
   4  -2  11  141.69   18.80
  -4  -2 -11  148.09   12.90
   4   2  11  146.89   19.80
   4   2  11  144.69    7.40
  -4   2 -11  134.89   10.00
   4   2  11  131.89    6.60
   5  -2  11    6.80   16.60
   5  -2  11   -6.50    5.10
  -5  -2 -11    1.30    9.50
   5   2  11    1.50    2.70
   5   2  11   10.70    4.90
  -5   2 -11    8.60    6.20
   5   2  11    2.30   14.60
   7  -3 -11  152.98   11.90
   7  -3 -11  139.89   14.50
   7  -3 -11  141.29   10.20
   7   3 -11  153.88   12.90
   6  -3 -11  220.98   12.90
   6  -3 -11  228.68   12.10
   6   3 -11  210.08   13.10
   5  -3 -11  595.34   23.20
   5  -3 -11  616.64   23.30
   5   3 -11  607.84   24.30
   4  -3 -11  272.97   11.80
   4  -3 -11  293.77   12.30
   4   3 -11  277.27   14.00
   3  -3 -11  714.73   26.40
   3   3 -11  719.33   28.20
   3   3 -11  717.83   32.40
   2  -3 -11   96.29   12.70
  -2   3  11   88.79    7.80
   2   3 -11   80.49   11.50
   1  -3 -11   25.40    7.40
   1   3 -11   36.00    9.70
  -1   3  11   25.10    4.30
   1   3 -11   31.60    4.00
   0  -3 -11  598.14   24.40
   0   3  11  576.54   21.90
   0   3  11  579.84   25.50
   0   3 -11  577.54   21.40
   0   3 -11  546.35   20.90
   0   3 -11  584.24   26.40
  -1  -3 -11  136.29   11.80
   1   3  11  114.39    6.70
  -1   3 -11  111.89   14.20
   1   3  11  111.69   14.00
  -1   3 -11  127.79    6.90
   2   3  11  157.88    8.00
  -2   3 -11  152.68   15.00
   2   3  11  132.79   17.30
  -2   3 -11  171.18    8.60
  -3  -3 -11   18.40    7.80
   3  -3  11   27.90   14.00
   3   3  11   22.80   11.10
   3   3  11   23.30    2.90
  -3   3 -11   26.20    6.10
   3   3  11   22.20    3.80
  -3   3 -11   14.80   12.00
   4  -3  11  -25.40   17.80
  -4  -3 -11   -5.90    9.30
   4   3  11    1.50    4.30
   4   3  11    9.10   13.20
  -4   3 -11   -2.00    5.90
  -5  -3 -11   36.70   10.60
  -5   3 -11   31.20    8.30
   5   3  11   41.80   13.40
   5   3  11   50.09    5.90
   6  -4 -11   68.19    7.80
   6   4 -11   64.09    8.20
   5  -4 -11    5.90    5.80
   5   4 -11   15.30    6.80
   4  -4 -11    9.00    4.50
   4   4 -11   12.20    7.70
   3  -4 -11  179.48    9.30
   3   4 -11  175.68   14.80
   3   4 -11  134.49   19.30
  -3   4  11  172.98   10.20
  -2   4  11    0.00    5.10
   2   4 -11   -5.10   10.90
   2   4 -11   -0.50    8.90
   1  -4 -11   39.10   10.20
   1   4 -11   42.10    5.30
  -1   4  11   28.60    4.70
   1   4 -11   39.40   10.00
   0  -4 -11  186.48   16.00
   0   4 -11  193.68    9.20
   0   4 -11  199.88   16.70
   0   4  11  173.88   14.70
  -1   4 -11   -6.00    9.30
   1   4  11   28.70   10.70
   1   4  11   -0.50    3.60
  -1   4 -11   -1.10    4.10
  -2  -4 -11  433.36   23.40
  -2   4 -11  425.76   24.90
   2   4  11  446.56   16.10
   2   4  11  470.15   23.90
   2   4  11  433.56   17.50
  -3  -4 -11  135.19   17.40
   3   4  11  101.69    6.60
   3   4  11   95.09    6.90
  -3   4 -11  101.09   14.70
  -3   4 -11   92.89    9.60
   3   4  11   94.99   13.30
   4  -4  11   27.40   16.70
  -4  -4 -11   26.70   12.90
   4   4  11   20.70   13.90
   4   4  11   24.80    4.60
   4   4  11   23.30    6.10
  -4   4 -11   20.00    7.10
   6  -5 -11   12.60    8.10
   6   5 -11    0.10    9.20
   5  -5 -11    5.90    6.70
   5   5 -11    5.70    9.40
   4  -5 -11  126.39   10.90
  -4   5  11   97.29   11.10
   3   5 -11   19.10   10.70
  -3   5  11   16.00    6.30
   3   5 -11   13.10   15.00
   2   5 -11   10.00   13.80
   2   5 -11   24.70   11.60
   2   5 -11   15.70    5.20
  -2   5  11    9.90    5.30
   1  -5 -11   -3.20   15.10
  -1   5  11   -2.80    5.50
   1   5 -11   -7.30   12.60
   1   5 -11  -10.90    4.70
   0   5  11    3.80    9.30
   0   5 -11   13.50   12.50
   0   5  11   18.30    5.50
  -1  -5 -11    5.80   12.60
   1   5  11    6.80    2.20
  -1   5 -11    3.60   10.90
   1   5  11   -1.90    4.50
   1   5  11    1.20   10.90
  -2  -5 -11   -3.30   12.80
  -2   5 -11    4.90   13.70
   2   5  11    2.30    3.40
  -2   5 -11    7.30    5.60
   2   5  11    3.80    4.30
   2   5  11   14.50   12.10
  -3  -5 -11   49.10   15.80
  -3   5 -11   23.90    7.00
  -3   5 -11   32.10   14.00
   3   5  11   21.50    5.20
   3   5  11   27.00    4.70
   3   5  11    9.80   14.30
  -4   6  11   10.90    7.70
   4   6 -11   15.80   12.50
   3   6 -11   86.49   19.00
   3   6 -11   78.69   15.40
  -3   6  11  107.69   10.80
   2   6 -11   -6.30    6.00
   2   6 -11  -11.40   14.80
   2   6 -11   -6.30   15.70
  -2   6  11    4.50    6.40
   1  -6 -11  -15.90   16.30
   1   6 -11  -14.50    6.50
   1   6 -11  -38.70   16.80
   1   6 -11  -30.80   15.50
  -1   6  11    2.70    7.00
   0  -6 -11    7.40   16.70
   0   6  11   18.00    3.00
   0   6 -11   16.30    6.10
   0   6  11    2.10   10.70
   0   6  11   21.30    6.00
   0   6  11   16.60    3.20
   0   6 -11    9.90   15.30
  -1  -6 -11   87.39   19.40
   1   6  11  134.39   10.40
  -1   6 -11  114.49   16.60
   1   6  11  135.09   17.50
  -1   6 -11  141.09   11.10
   1   6  11  137.19    7.80
  -2  -6 -11   92.79   18.10
   2   6  11  126.99   18.50
  -2   6 -11  111.29   12.30
  -2   6 -11   91.39   16.50
   2   6  11  138.19    8.50
   2   7 -11   -2.60   18.80
  -2   7  11    2.60    7.00
   2   7 -11   -5.20    8.40
   1   7 -11   46.40    8.50
  -1   7  11   48.80    7.50
   1   7 -11   39.00   21.20
   0  -7 -11   19.60   22.90
   0   7 -11    4.90    8.20
   0   7  11   15.40    7.30
   0   7 -11   44.10   22.90
   7   0 -12   26.00    6.80
   7   0 -12   28.90    7.20
   6   0 -12   51.49    5.20
   6   0 -12   60.19    6.80
   5   0 -12   24.60    4.90
   5   0 -12   16.10    3.20
   4   0 -12  203.98   14.60
   4   0 -12  201.78    8.10
   4   0 -12  195.58    9.60
   3   0 -12  214.98    9.20
   3   0 -12  196.98    7.70
   3   0 -12  215.78   14.20
   2   0 -12   42.00    7.50
   2   0 -12   38.20    3.50
   1   0 -12  216.58    8.30
   1   0 -12  216.98   13.70
   0   0 -12  677.13   24.70
   1   0  12 1339.67   54.19
  -1   0 -12 1376.46   48.90
  -2   0 -12  216.58   10.50
   2   0  12  234.28   18.90
  -3   0 -12   34.80    6.20
   3   0  12   33.80   15.00
  -4   0 -12    2.60    5.90
   4   0  12    5.10   16.50
  -5   0 -12  296.17   17.80
   5   0  12  333.57   26.70
   7  -1 -12  262.27   14.00
   7  -1 -12  280.87   14.40
   7   1 -12  291.97   15.10
   7   1 -12  238.18   15.50
   6  -1 -12  324.67   14.60
   6  -1 -12  371.16   21.90
   6  -1 -12  329.67   15.90
   6   1 -12  346.47   14.70
   6   1 -12  349.17   16.70
   5  -1 -12  211.58    9.50
   5  -1 -12  211.28   11.00
   5  -1 -12  223.78   16.90
   5   1 -12  214.58    9.60
   5   1 -12  213.78   11.00
   4  -1 -12   -2.00    3.40
   4  -1 -12   -0.50    2.20
   4  -1 -12   10.10    7.90
   4   1 -12    0.00    4.20
   4   1 -12    4.10    2.40
   4   1 -12   -0.30    9.40
   3  -1 -12    6.40    7.20
   3  -1 -12    3.80    3.30
   3  -1 -12   -0.50    1.70
   3   1 -12    2.40    2.10
   3   1 -12   -3.80    3.00
   2  -1 -12  130.09   11.20
   2  -1 -12  116.69    7.40
   2   1 -12  123.09    6.30
   1  -1 -12  222.38    9.60
   1  -1 -12  217.58   12.90
   1   1 -12  217.48    9.00
   1   1 -12  227.78    8.40
   0  -1 -12  204.88    9.90
   0  -1 -12  320.27   15.00
   0   1 -12  208.38    9.10
   1  -1  12  164.18   18.50
  -1   1 -12  173.88    8.10
  -1   1 -12  179.98   15.10
   1   1  12  171.28   20.10
   2  -1  12   25.10   14.30
  -2   1 -12   -3.80    8.30
  -2   1 -12   -1.20    3.50
   3  -1  12   20.00   15.50
  -3   1 -12   10.50    5.30
   3   1  12   15.20   12.50
   4  -1  12   48.70   17.70
  -4  -1 -12   30.20    7.20
  -4   1 -12   17.40    6.00
   4   1  12   20.10   14.30
  -5  -1 -12  120.59   14.40
  -5   1 -12   -5.40    7.90
   7  -2 -12   25.80    6.30
   7  -2 -12   22.00    6.90
   7  -2 -12   42.60   13.10
   7   2 -12   30.50    8.50
   7   2 -12   15.90    6.40
   6  -2 -12    2.30    5.00
   6  -2 -12   10.50   10.10
   6  -2 -12    5.30    5.80
   6   2 -12   -4.90    4.80
   6   2 -12   -2.50    7.30
   5  -2 -12    2.90    4.50
   5  -2 -12    2.90    3.60
   5  -2 -12   -1.30    7.80
   5   2 -12    0.80    3.80
   5   2 -12    9.90    5.20
   4  -2 -12    2.60    6.30
   4  -2 -12    5.10    2.80
   4   2 -12    8.20    3.80
   4   2 -12   -2.10   10.90
   4   2 -12    7.00    4.20
   3  -2 -12  107.29    5.50
   3  -2 -12  101.59    9.80
   3   2 -12  109.29    6.70
   3   2 -12   96.49   12.10
   3   2 -12   86.49    8.00
   2  -2 -12  107.99   10.70
   2  -2 -12  102.59   10.00
   2   2 -12   98.29   13.40
   2   2 -12   91.99    5.90
   1  -2 -12    6.20    5.10
   1  -2 -12    8.20    6.20
   1   2 -12    0.70    2.20
   1   2 -12   -0.50    2.20
   1   2 -12   -9.80    7.30
   0  -2 -12  298.47   14.00
   0   2 -12  300.27   18.40
   0   2 -12  310.97   11.70
   0   2  12  281.17   18.60
   0   2  12  282.37   12.40
  -1  -2 -12    0.20    5.00
   1   2  12   -0.20    3.60
  -1   2 -12    0.00    3.20
  -1   2 -12   -0.20    9.40
   2  -2  12   34.60   15.50
  -2  -2 -12   44.80    6.20
   2   2  12   42.20   12.70
   2   2  12   33.20    4.20
  -2   2 -12   36.10    4.50
  -2   2 -12   41.30   11.30
   3  -2  12   87.29   18.20
  -3  -2 -12   82.79    9.00
   3   2  12   80.79   15.80
   3   2  12   74.79    5.30
  -4  -2 -12  122.79   14.20
   4  -2  12  109.29   17.50
   4   2  12  128.29   16.10
  -4   2 -12  129.99   10.60
   6  -3 -12   33.30    6.00
   6  -3 -12   32.30    7.20
   6   3 -12   28.30    6.80
   5  -3 -12   15.50    5.60
   5  -3 -12   17.90    4.40
   5   3 -12   10.80    5.10
   4  -3 -12   11.90    4.00
   4  -3 -12   13.10    5.00
   4   3 -12    4.40    5.80
   4   3 -12   20.50   13.10
   3  -3 -12   19.60    3.80
   3   3 -12   16.10    6.60
   3   3 -12   32.90   11.90
   2  -3 -12   31.70    8.90
  -2   3  12   41.50    5.50
   2   3 -12   25.30   11.30
  -1   3  12   15.60    4.60
   1   3 -12   -2.80   10.00
   1   3 -12   14.80    3.00
   1   3 -12   16.20    3.20
   0  -3 -12  159.78   13.20
   0   3 -12  142.29    6.30
   0   3  12  173.38    8.90
   0   3 -12  157.88    7.70
   0   3 -12  153.48   16.10
   0   3  12  128.29   16.20
  -1  -3 -12   -1.60    7.40
   1   3  12   -2.50    3.80
   1   3  12   -2.40   11.50
  -1   3 -12   -9.90   10.40
  -1   3 -12   -0.50    3.60
  -2   3 -12    1.10   11.80
   2   3  12   -2.20    4.10
   2   3  12   -7.20   12.20
   3  -3  12   15.80   15.40
  -3  -3 -12    1.40    8.70
   3   3  12   -1.10    4.30
  -3   3 -12    6.30    5.20
   3   3  12   22.10   14.40
  -3   3 -12    0.80   13.20
  -4  -3 -12   29.20   11.50
   4  -3  12   22.10   18.00
   4   3  12    9.10    3.50
   4   3  12   -9.80   16.30
  -4   3 -12   14.80    6.80
   4   3  12   -1.10    4.20
   4   3  12    5.40    4.60
   6  -4 -12   43.70    7.80
   6   4 -12   38.60    8.10
   5  -4 -12   46.80    6.70
   5   4 -12   52.09    8.60
   4  -4 -12    2.20    4.90
   4   4 -12   -1.80    8.10
   4   4 -12   -1.30   14.90
   3   4 -12    7.20   11.60
  -3   4  12    6.10    7.10
   3   4 -12   -2.80    8.80
   2   4 -12    1.60    9.70
   2   4 -12   14.70    4.40
   2   4 -12   31.30   11.80
  -2   4  12   21.80    6.10
   1  -4 -12  121.89   13.20
   1   4 -12  162.18   16.50
   1   4 -12  136.19    8.20
  -1   4  12  144.29    8.50
   0  -4 -12  326.57   20.60
   0   4 -12  312.07   13.00
   0   4 -12  286.27   11.70
   0   4 -12  316.77   19.90
   0   4  12  295.47   20.00
   0   4  12  292.17   14.70
   1   4  12  286.77   14.40
  -1   4 -12  293.57   20.10
   1   4  12  321.17   19.70
  -1   4 -12  308.67   14.60
  -2  -4 -12  227.78   20.70
  -2   4 -12  150.88   20.80
  -2   4 -12  160.68   11.00
   2   4  12  135.99   18.10
  -3  -4 -12   18.10   12.60
  -3   4 -12   14.70   13.50
   3   4  12   25.00   16.60
  -3   4 -12    5.00    6.20
   5  -5 -12   86.29   11.20
   5   5 -12   53.99   10.90
   4  -5 -12   42.50    6.80
   4   5 -12   47.80   15.80
   3   5 -12   10.30   11.20
  -3   5  12   10.30    7.90
   3   5 -12   27.50   14.70
   2   5 -12  225.08   22.40
   2   5 -12  224.68   24.40
   2   5 -12  240.58   12.50
  -2   5  12  238.38   12.80
   1   5 -12  137.09   18.90
   1   5 -12  160.68   11.40
  -1   5  12  179.78   10.20
   0  -5 -12   89.89   16.20
   0   5 -12   94.29   14.00
   0   5 -12   93.49    9.70
   0   5  12  103.29    9.10
   0   5  12   77.19   13.20
  -1  -5 -12    4.00   14.50
   1   5  12   22.00    6.00
  -1   5 -12   22.80    6.10
  -1   5 -12   20.30   12.80
   1   5  12   31.70   13.40
  -2  -5 -12   30.20   15.70
   2   5  12   33.10    6.20
  -2   5 -12   30.00   12.50
   2   5  12   42.70   14.90
  -2   5 -12   34.70    6.80
   3   6 -12   85.09   16.70
  -3   6  12   49.80    8.30
   3   6 -12   61.89    8.10
   2   6 -12   14.80   17.80
  -2   6  12   14.70    7.50
   2   6 -12   48.60    7.90
   2   6 -12   34.80   15.40
   1  -6 -12  131.89   20.50
   1   6 -12  141.39   11.10
   1   6 -12  142.49   20.90
  -1   6  12  130.29   12.00
   1   6 -12  116.59   17.70
   0  -6 -12  196.08   23.00
   0   6 -12  252.97   13.60
   0   6 -12  231.58   22.80
   0   6  12  229.28   13.70
  -1  -6 -12   97.99   21.40
   1   6  12  107.59   15.10
  -1   6 -12  101.59   11.30
   1   6  12   93.89   10.90
   7   0 -13    0.30    6.40
   7   0 -13   -1.00    6.70
   6   0 -13    1.00    3.90
   6   0 -13    5.40   13.90
   6   0 -13   -3.60    6.50
   5   0 -13   -2.50    4.70
   5   0 -13    1.20    3.10
   4   0 -13    5.60    4.20
   4   0 -13   -2.30    2.00
   3   0 -13    3.90    3.70
   1   0 -13    7.50    8.30
   1   0 -13   -2.00    2.00
   0   0 -13    4.10    2.70
   0   0 -13    1.60   10.10
   1   0  13   -6.10   13.50
  -1   0 -13    5.70    9.40
  -1   0 -13    0.50    3.30
   2   0  13   10.30   13.80
  -2   0 -13   -1.60    4.20
   3   0  13   -5.50   17.00
  -3   0 -13   -3.80    5.00
   4   0  13    1.10   17.40
  -4   0 -13    9.30    7.10
   7  -1 -13  162.58   13.30
   7  -1 -13  188.68   11.70
   7   1 -13  190.58   13.30
   7   1 -13  176.28   13.90
   6  -1 -13   14.20    4.50
   6  -1 -13    3.80    6.20
   6   1 -13   20.60    6.20
   6   1 -13    6.60    4.50
   5  -1 -13    3.50    3.20
   5  -1 -13   10.50    5.80
   5  -1 -13    6.20   10.20
   5   1 -13    0.70    4.90
   5   1 -13    6.40    3.40
   5   1 -13    8.40   12.40
   4  -1 -13   64.79    4.60
   4  -1 -13   73.79    7.50
   4  -1 -13   87.19   12.70
   4   1 -13   73.79    4.70
   4   1 -13   68.99   12.90
   4   1 -13   72.79    6.50
   3  -1 -13  140.09   13.10
   3  -1 -13  147.39    6.30
   3   1 -13  146.49   18.40
   3   1 -13  165.88    8.10
   2  -1 -13   31.70    4.80
   2  -1 -13   24.10    8.40
   2   1 -13   22.80    3.40
   2   1 -13   15.50   10.40
   1  -1 -13   35.20    4.30
   1  -1 -13   39.90    8.20
   1   1 -13   45.20    9.80
   1   1 -13   34.60    3.20
   0  -1 -13   24.50    8.60
   0  -1 -13   27.40    4.20
   0   1 -13   24.60    9.70
   0   1 -13   26.90    3.00
  -1  -1 -13   16.70    4.40
  -1   1 -13    5.90    9.90
   1   1  13   13.30   13.70
  -1   1 -13   14.70    3.40
   2  -1  13   -7.70   15.80
  -2  -1 -13    5.70    5.00
   2   1  13    4.30   15.20
  -2   1 -13   10.60   10.00
  -2   1 -13    5.90    4.10
   3  -1  13   12.50   18.00
  -3  -1 -13   12.50    6.80
  -3   1 -13   11.20    5.70
   3   1  13   -8.50   17.10
  -4  -1 -13   63.89    9.20
   4  -1  13   36.60   17.50
   4   1  13   52.99   18.90
  -4   1 -13   62.39    7.90
   6  -2 -13   69.79   11.90
   6  -2 -13   70.49    8.00
   6  -2 -13   79.19    9.30
   6   2 -13   78.59    9.00
   6   2 -13   77.09    8.70
   5  -2 -13   49.90    9.30
   5  -2 -13   45.70    6.00
   5   2 -13   73.79   15.20
   5   2 -13   58.89    7.20
   5   2 -13   48.10    6.50
   4  -2 -13   41.50    8.40
   4  -2 -13   25.70    3.60
   4   2 -13   26.00   12.70
   4   2 -13   18.50    4.30
   4   2 -13   24.00    4.60
   3  -2 -13  206.68   13.30
   3  -2 -13  191.28    8.70
   3   2 -13  198.88   10.60
   3   2 -13  201.78    9.60
   3   2 -13  204.98   18.90
   2  -2 -13  470.05   20.50
   2  -2 -13  469.35   21.10
   2   2 -13  470.65   23.30
   2   2 -13  441.86   17.70
   1  -2 -13  411.06   18.20
   1   2 -13  383.66   15.00
   1   2 -13  391.86   14.70
   1   2 -13  387.16   21.00
   0  -2 -13  257.07   13.50
   0   2 -13  220.78   18.20
   0   2 -13  247.58   10.20
  -1  -2 -13  136.79   11.10
  -1   2 -13  170.18   17.50
  -1   2 -13  145.99    8.00
   1   2  13  163.98   20.20
   2   2  13   10.60   14.70
  -2   2 -13   14.70   10.60
  -2   2 -13   12.70    5.20
  -3  -2 -13  230.58   15.70
   3  -2  13  232.38   28.40
  -3   2 -13  233.78   12.70
   3   2  13  233.08   25.40
  -4  -2 -13   70.09   11.40
  -4   2 -13   59.09    8.90
   4   2  13   84.39   19.50
   6  -3 -13   39.50    7.10
   6  -3 -13   49.50    7.10
   5  -3 -13   14.60    5.20
   5  -3 -13   11.10    6.30
   5   3 -13   -2.50   14.10
   5   3 -13    1.80    5.90
   4  -3 -13  247.18   11.90
   4  -3 -13  271.97   13.60
   4   3 -13  260.97   14.40
   4   3 -13  288.97   23.90
   3   3 -13   79.89   14.40
   3   3 -13   86.09   11.30
   2  -3 -13  244.08   18.30
   2   3 -13  257.77   10.70
   2   3 -13  227.68   20.20
   2   3 -13  253.77   11.10
   1  -3 -13  198.88   16.20
   1   3 -13  169.08   18.70
  -1   3  13  166.58   10.40
   1   3 -13  173.48    8.00
   1   3 -13  182.48    8.50
   0  -3 -13    9.20    8.80
   0   3 -13   14.80    3.80
   0   3 -13    0.80   11.70
   0   3  13    8.70    5.00
   0   3  13   22.40   11.90
   1   3  13    0.80   12.50
   1   3  13    2.40    4.60
  -1   3 -13    1.20    4.10
  -1   3 -13    0.70   12.40
  -2  -3 -13   14.30    9.80
   2   3  13   24.50    4.90
  -2   3 -13    8.00   11.60
   2   3  13   17.40   15.00
  -3  -3 -13   -7.60   10.30
   3   3  13    3.80    4.80
   3   3  13   24.70   17.50
  -3   3 -13   11.60   11.80
  -3   3 -13   -3.10    5.90
   5  -4 -13    0.60    6.40
   5   4 -13   -3.20   17.50
   5   4 -13    1.40    8.20
   4   4 -13    0.30    8.50
   4   4 -13    3.70   17.30
   3   4 -13   10.50   15.20
   3   4 -13   -1.30    9.50
   2   4 -13   95.29   16.40
  -2   4  13  119.79    9.40
   2   4 -13  113.79    8.10
   2   4 -13  111.99   13.20
   1  -4 -13  155.78   19.20
   1   4 -13  146.19    8.00
   1   4 -13  172.48   20.40
  -1   4  13  159.38   10.50
   1   4 -13  157.38    9.10
   0   4  13  146.49    9.40
   0   4 -13  133.59    8.40
   0   4 -13  128.49    6.10
   0   4  13  142.19   19.00
   0   4 -13  162.68   19.60
  -1  -4 -13   58.79   13.20
   1   4  13   23.20   15.10
  -1   4 -13   32.50    7.30
   1   4  13   44.60    9.00
  -1   4 -13   55.99   12.80
  -2  -4 -13   31.50   14.60
  -2   4 -13   23.80   12.20
   2   4  13   25.80    5.90
   2   4  13   28.80   17.60
  -2   4 -13   31.80    6.00
   4   5 -13   58.49   14.90
   3   5 -13   80.99   17.90
  -3   5  13   92.59    9.80
  -2   5  13   19.00    6.90
   2   5 -13  -18.70   14.90
   2   5 -13   14.80   14.00
   1  -5 -13   92.99   17.60
  -1   5  13   54.49    8.00
   1   5 -13   48.30   14.10
   0  -5 -13   25.70   17.20
   0   5  13   18.90    6.80
   0   5 -13   27.50    3.90
   0   5 -13   26.20   14.70
   1   5  13   -3.90   18.00
  -1   5 -13   -9.10   12.60
  -1   5 -13   -5.20    6.70
   1   5  13   11.20    6.60
   6   0 -14   12.80   15.50
   6   0 -14    7.30    4.60
   6   0 -14    1.10    6.30
   5   0 -14   10.70    5.90
   5   0 -14   -2.30   13.70
   5   0 -14    8.30    3.40
   4   0 -14  516.05   25.90
   4   0 -14  475.55   18.40
   4   0 -14  531.75   20.70
   3   0 -14  314.67   13.50
   2   0 -14  416.56   24.90
   1   0 -14  328.07   20.10
   1   0 -14  311.47   12.40
   0   0 -14   42.30   10.60
   0   0 -14   38.40    4.00
  -1   0 -14  139.99   15.30
  -1   0 -14  144.69    8.50
   2   0  14  162.48   21.50
   3   0  14  726.63   41.10
  -3   0 -14  750.72   30.00
   6  -1 -14   33.20    7.00
   6  -1 -14   31.40    5.20
   6   1 -14   32.70    7.20
   6   1 -14   24.90   17.00
   6   1 -14   39.00    5.40
   5  -1 -14  194.88    9.40
   5  -1 -14  205.68   11.50
   5   1 -14  211.78   23.90
   5   1 -14  201.78   12.30
   5   1 -14  190.18    9.50
   4  -1 -14  189.78   20.80
   4  -1 -14  147.49    6.90
   4  -1 -14  140.79    9.80
   4   1 -14  144.49   19.10
   4   1 -14  144.99    9.70
   4   1 -14  139.19    6.80
   3  -1 -14  165.08    7.30
   3  -1 -14  184.98   18.00
   3   1 -14  194.58   17.60
   2  -1 -14   20.80    5.70
   2   1 -14   10.90   11.50
   2   1 -14   17.00    3.90
   1  -1 -14   -5.20    4.20
   1   1 -14   -3.40   10.60
   1   1 -14   -1.90    2.30
   0  -1 -14   -1.30   10.50
   0  -1 -14   -3.00    4.50
   0   1 -14    3.40    3.10
   0   1 -14   10.50   10.80
  -1  -1 -14    3.60    5.30
  -1   1 -14    4.60   10.40
  -1   1 -14    9.90    4.20
   1   1  14    3.60   16.30
   2  -1  14   60.19   17.10
   2   1  14   64.09   19.60
  -3  -1 -14   77.99    9.30
   3  -1  14  102.19   18.20
  -3   1 -14  100.89   10.80
   3   1  14  102.49   21.90
   6  -2 -14   -9.40    5.60
   6  -2 -14   11.00   10.80
   6  -2 -14    6.20    5.70
   6   2 -14    9.20    5.70
   6   2 -14  -20.60   19.20
   6   2 -14    6.90    7.00
   5  -2 -14    8.00    4.60
   5  -2 -14   15.10   10.00
   5   2 -14    2.90   16.00
   5   2 -14   11.40    4.60
   5   2 -14   23.30    7.00
   4  -2 -14    1.00    4.00
   4  -2 -14    8.30    8.80
   4   2 -14   -3.80    4.10
   4   2 -14    1.50    4.50
   4   2 -14   11.20   14.30
   3  -2 -14   95.09   12.10
   3   2 -14  107.19   15.20
   3   2 -14   69.29    8.50
   3   2 -14   86.49    8.80
   2  -2 -14    6.80    9.30
   2  -2 -14    9.20    8.90
   2   2 -14    1.70    3.50
   2   2 -14   -0.10   11.60
   2   2 -14    2.40    2.60
   1  -2 -14   42.80    8.10
   1   2 -14   35.70    3.50
   1   2 -14   38.80   10.60
   1   2 -14   40.70    4.30
   0  -2 -14    4.60    7.10
   0   2 -14   26.20   12.50
   0   2 -14    5.20    3.40
  -1  -2 -14    1.30    6.70
  -1   2 -14    7.60    4.30
   1   2  14    5.70   16.40
  -1   2 -14   -2.00   13.00
  -2  -2 -14   46.90   10.00
  -2   2 -14   49.40    6.90
  -2   2 -14   28.80   14.50
   2   2  14   78.49   18.80
  -3  -2 -14   13.40    9.80
  -3   2 -14   13.40    6.40
   3   2  14   46.80   20.30
   5   3 -14   39.00    6.40
   5   3 -14   -1.10   18.20
   5   3 -14   29.20    8.10
   4  -3 -14   60.29    7.90
   4   3 -14   52.19    7.20
   4   3 -14   44.30   16.80
   4   3 -14   42.30    7.20
   3   3 -14    3.50    4.80
   3   3 -14   18.60    8.30
   3   3 -14  -12.90   13.30
   2  -3 -14   -6.20   11.80
   2   3 -14   10.80    4.00
   2   3 -14    3.50   11.90
   2   3 -14    3.50    3.80
   1  -3 -14    2.40   10.30
   1   3 -14    2.00    3.20
   1   3 -14   16.50   13.30
   1   3 -14    4.70    3.60
   0  -3 -14   38.80   10.80
   0   3 -14   35.00   14.20
   0   3 -14   21.90    4.70
   1   3  14   53.89    6.40
  -1   3 -14   45.10    5.60
   1   3  14   60.09   18.80
  -1   3 -14   41.90   14.70
  -2  -3 -14    8.70   11.80
   2   3  14  -21.60   18.00
   2   3  14   14.90    5.90
  -2   3 -14   13.30    6.20
  -2   3 -14   16.80   11.80
   4   4 -14   98.19   11.40
   4   4 -14  116.69   16.80
   3   4 -14  204.18   18.80
   3   4 -14  222.58   22.90
   2   4 -14  178.28    9.50
   2   4 -14  122.79   15.20
   2   4 -14  168.68   10.10
   2   4 -14  176.68   23.30
   1   4 -14   18.30    5.20
   1   4 -14   23.80    4.00
   1   4 -14   42.30   15.50
  -1   4  14   37.20    7.30
   0   4  14   10.50    6.40
   0   4 -14   -0.40    6.40
   0   4 -14    5.50   12.40
  -1  -4 -14   78.69   16.20
   1   4  14   86.99   19.50
  -1   4 -14   79.69    9.10
   1   4  14  102.09    9.80
  -2   5  14    3.20    8.10
   1  -5 -14   18.50   19.60
  -1   5  14   10.10    7.10
   1   5 -14   27.50    4.90
   5   0 -15    1.80    3.50
   5   0 -15   -4.90    6.20
   5   0 -15    1.70   13.10
   4   0 -15   12.80   13.10
   4   0 -15   -2.00    5.20
   4   0 -15   -0.30    2.40
   3   0 -15    9.80   12.10
   2   0 -15   21.50   11.20
   1   0 -15   -2.00    3.30
   1   0 -15   15.60   11.40
   0   0 -15    2.10   12.50
   0   0 -15   -0.50    4.10
  -1   0 -15  -13.60    5.40
   2   0  15   -4.60   21.10
   5  -1 -15  284.17   14.40
   5  -1 -15  280.07   12.00
   5  -1 -15  353.96   25.20
   5   1 -15  291.07   26.90
   5   1 -15  249.68   14.90
   5   1 -15  260.37   11.80
   4  -1 -15    5.70    3.30
   4  -1 -15  -11.10   18.40
   4   1 -15   10.80   13.80
   4   1 -15    7.90    5.80
   4   1 -15   -1.00    2.60
   3   1 -15    3.30   12.00
   3   1 -15    3.10    5.20
   2  -1 -15   11.60    6.70
   2  -1 -15    6.10   11.10
   2   1 -15    3.10   12.00
   1  -1 -15   29.20   12.30
   1  -1 -15   29.00    6.00
   1   1 -15   31.50    3.30
   1   1 -15   40.70   13.10
   0  -1 -15   10.50    6.30
   0   1 -15  -12.20   13.00
   0   1 -15    2.70    3.80
  -1  -1 -15   23.00    7.10
  -1   1 -15   25.80    5.60
  -1   1 -15   16.60   12.40
  -2  -1 -15   90.79   10.50
   2   1  15  119.19   23.20
   5  -2 -15  117.89   15.70
   5  -2 -15  114.79    8.50
   5   2 -15  113.49   10.40
   5   2 -15   92.39   19.80
   5   2 -15  122.29    8.30
   4  -2 -15  340.17   19.30
   4  -2 -15  292.77   13.20
   4   2 -15  339.57   27.50
   4   2 -15  311.47   15.10
   4   2 -15  305.87   13.20
   3  -2 -15  147.69   15.30
   3   2 -15  116.79    9.90
   3   2 -15  151.68    9.40
   3   2 -15  133.69   16.90
   2  -2 -15   10.30   11.90
   2  -2 -15   12.20    9.80
   2   2 -15    9.60    2.70
   2   2 -15   22.10   13.60
   2   2 -15    7.00    4.10
   1  -2 -15    4.00    8.40
   1   2 -15    4.10   13.60
   1   2 -15   -0.90    3.50
   0  -2 -15  294.37   18.00
   0   2 -15  307.97   12.80
   0   2 -15  297.07   22.20
  -1   2 -15  461.55   18.70
   1   2  15  425.86   35.70
  -1   2 -15  453.95   27.90
   4   3 -15   97.49   10.20
   4   3 -15  103.29   11.50
   4   3 -15   90.19   19.60
   3   3 -15    2.70    4.40
   3   3 -15  -14.70    8.30
   3   3 -15   15.30   16.20
   3   3 -15    0.80    4.90
   2  -3 -15  -15.40   13.60
   2   3 -15   -1.50    4.20
   2   3 -15   -4.00    4.20
   2   3 -15   10.80   15.20
   1  -3 -15    9.50   12.50
   1   3 -15    4.10   12.90
   1   3 -15    6.80    3.40
   1   3 -15    2.50    3.90
   0   3 -15   -0.60    5.00
   0   3 -15    1.50   12.80
  -1  -3 -15   32.80   12.80
   1   3  15   53.79   20.50
   2   4 -15   22.60   14.30
   2   4 -15    1.30    5.50
   2   4 -15    7.40    4.80
   1   4 -15   68.99    5.90
   1   4 -15   60.19    8.00
   4   0 -16  100.99   16.20
   4   0 -16   72.69    7.80
   3   0 -16   23.80   13.60
   2   0 -16  114.59   15.00
   1   0 -16  149.88    9.20
   1   0 -16  159.98   22.80
   0   0 -16  489.85   28.30
   0   0 -16  463.15   19.30
   4   1 -16   10.40    6.70
   3  -1 -16   34.60   12.80
   3   1 -16   26.20   15.00
   3   1 -16   32.00    5.50
   2  -1 -16   12.50    7.90
   2  -1 -16    2.20   12.90
   2   1 -16    5.00   14.80
   1  -1 -16    7.30   12.50
   1  -1 -16   -9.50    7.30
   1   1 -16    0.90   14.80
   1   1 -16   -0.50    3.20
   0  -1 -16    7.00    7.80
   0   1 -16    2.00   13.20
   0   1 -16   -0.10    4.40
   3   2 -16   16.60    6.00
   3   2 -16    2.60    3.50
   3   2 -16  -13.60   15.60
   2  -2 -16   10.40   11.30
   2   2 -16   -1.60    2.90
   2   2 -16  -15.00   15.80
   1  -2 -16  140.89   17.80
   1   2 -16  167.88   23.10
   1   2 -16  152.48    8.00
   0  -2 -16    3.40   10.80
   0   2 -16   -0.80   16.20
   0   2 -16    2.80    4.50
   0   0   0    0.00    0.00

_computing_structure_solution     'SHELXT 2014/5 (Sheldrick, 2014)'
;
_shelx_hkl_checksum              37653
loop_
_space_group_symop_operation_xyz
'x, y, z'
'-x, y+1/2, -z+1/2'
'-x, -y, -z'
'x, -y-1/2, z-1/2'
loop_
_atom_site_label
_atom_site_type_symbol
_atom_site_fract_x
_atom_site_fract_y
_atom_site_fract_z
_atom_site_U_iso_or_equiv
_atom_site_adp_type
_atom_site_occupancy
_atom_site_site_symmetry_order
_atom_site_calc_flag
_atom_site_refinement_flags_posn
_atom_site_refinement_flags_adp
_atom_site_refinement_flags_occupancy
_atom_site_disorder_assembly
_atom_site_disorder_group
N1 N 0.4863(2) 0.4298(2) 0.52941(12) 0.0179(3) Uani 1 1 d . . . . .
O1 O 0.3920(2) 0.2920(2) 0.49157(12) 0.0324(4) Uani 1 1 d . . . . .
C1 C 0.5617(3) 0.4431(3) 0.64196(14) 0.0168(4) Uani 1 1 d . . . . .
C2 C 0.4387(3) 0.4836(3) 0.70933(15) 0.0197(4) Uani 1 1 d . . . . .
H2 H 0.309267 0.506462 0.682063 0.024 Uiso 1 1 calc R U . . .
C3 C 0.5073(3) 0.4902(3) 0.81739(15) 0.0204(4) Uani 1 1 d . . . . .
H3 H 0.425016 0.520102 0.864803 0.024 Uiso 1 1 calc R U . . .
C4 C 0.6959(3) 0.4534(3) 0.85663(15) 0.0203(4) Uani 1 1 d . . . . .
H4 H 0.742763 0.459294 0.930756 0.024 Uiso 1 1 calc R U . . .
C5 C 0.8158(3) 0.4081(3) 0.78795(15) 0.0176(4) Uani 1 1 d . . . . .
C6 C 0.7512(3) 0.4045(3) 0.67871(14) 0.0170(4) Uani 1 1 d . . . . .
Cl1 Cl 1.04632(7) 0.34914(8) 0.83986(4) 0.02709(15) Uani 1 1 d . . . . .
Cl2 Cl 0.89668(7) 0.35070(7) 0.59065(4) 0.02441(14) Uani 1 1 d . . . . .
loop_
_atom_site_aniso_label
_atom_site_aniso_U_11
_atom_site_aniso_U_22
_atom_site_aniso_U_33
_atom_site_aniso_U_23
_atom_site_aniso_U_13
_atom_site_aniso_U_12
N1 0.0201(8) 0.0167(8) 0.0149(8) 0.0008(6) -0.0023(6) -0.0036(6)
O1 0.0483(10) 0.0240(8) 0.0197(8) 0.0011(6) -0.0075(7) -0.0177(7)
C1 0.0202(9) 0.0150(9) 0.0128(8) 0.0016(7) -0.0032(7) -0.0025(7)
C2 0.0183(9) 0.0187(10) 0.0210(9) 0.0012(8) 0.0010(7) 0.0005(7)
C3 0.0230(10) 0.0189(10) 0.0197(9) -0.0009(8) 0.0051(7) 0.0006(8)
C4 0.0268(10) 0.0193(10) 0.0128(9) 0.0005(7) -0.0016(7) -0.0008(8)
C5 0.0180(8) 0.0154(9) 0.0167(9) 0.0016(7) -0.0035(7) -0.0002(7)
C6 0.0201(9) 0.0156(9) 0.0153(9) -0.0001(7) 0.0029(7) -0.0020(7)
Cl1 0.0187(2) 0.0334(3) 0.0252(3) -0.0002(2) -0.00627(18) 0.0052(2)
Cl2 0.0229(2) 0.0308(3) 0.0201(2) -0.0029(2) 0.00567(18) 0.0020(2)
loop_
_atom_type_symbol
_atom_type_description
_atom_type_scat_dispersion_real
_atom_type_scat_dispersion_imag
_atom_type_scat_source
C C 0.0033 0.0016 'International Tables Vol C Tables 4.2.6.8 and 6.1.1.4'
H H 0.0000 0.0000 'International Tables Vol C Tables 4.2.6.8 and 6.1.1.4'
Cl Cl 0.1484 0.1585 'International Tables Vol C Tables 4.2.6.8 and 6.1.1.4'
N N 0.0061 0.0033 'International Tables Vol C Tables 4.2.6.8 and 6.1.1.4'
O O 0.0106 0.0060 'International Tables Vol C Tables 4.2.6.8 and 6.1.1.4'
loop_
_geom_angle_atom_site_label_1
_geom_angle_atom_site_label_2
_geom_angle_atom_site_label_3
_geom_angle
_geom_angle_site_symmetry_1
_geom_angle_site_symmetry_3
_geom_angle_publ_flag
O1 N1 N1 122.10(19) . 3_666 ?
O1 N1 C1 120.95(16) . . ?
N1 N1 C1 116.88(19) 3_666 . ?
C2 C1 C6 122.45(17) . . ?
C2 C1 N1 118.11(16) . . ?
C6 C1 N1 119.33(17) . . ?
C1 C2 C3 118.80(17) . . ?
C1 C2 H2 120.6 . . ?
C3 C2 H2 120.6 . . ?
C2 C3 C4 120.18(18) . . ?
C2 C3 H3 119.9 . . ?
C4 C3 H3 119.9 . . ?
C5 C4 C3 120.09(17) . . ?
C5 C4 H4 120.0 . . ?
C3 C4 H4 120.0 . . ?
C4 C5 C6 120.82(17) . . ?
C4 C5 Cl1 118.95(14) . . ?
C6 C5 Cl1 120.20(15) . . ?
C1 C6 C5 117.60(17) . . ?
C1 C6 Cl2 120.22(14) . . ?
C5 C6 Cl2 122.16(15) . . ?
loop_
_geom_bond_atom_site_label_1
_geom_bond_atom_site_label_2
_geom_bond_distance
_geom_bond_site_symmetry_2
_geom_bond_publ_flag
N1 O1 1.262(2) . ?
N1 N1 1.310(3) 3_666 ?
N1 C1 1.450(2) . ?
C1 C2 1.380(3) . ?
C1 C6 1.391(3) . ?
C2 C3 1.385(3) . ?
C2 H2 0.9500 . ?
C3 C4 1.388(3) . ?
C3 H3 0.9500 . ?
C4 C5 1.383(3) . ?
C4 H4 0.9500 . ?
C5 C6 1.394(3) . ?
C5 Cl1 1.7292(18) . ?
C6 Cl2 1.7230(19) . ?
