#------------------------------------------------------------------------------
#$Date: 2020-02-29 01:44:59 +0200 (Sat, 29 Feb 2020) $
#$Revision: 248543 $
#$URL: file:///home/coder/svn-repositories/cod/cif/4/13/42/4134276.cif $
#------------------------------------------------------------------------------
#
# This file is available in the Crystallography Open Database (COD),
# http://www.crystallography.net/
#
# All data on this site have been placed in the public domain by the
# contributors.
#
data_4134276
loop_
_publ_author_name
'Zhang, Han-Yue'
'Song, Xian-Jiang'
'Chen, Xiao-Gang'
'Zhang, Zhi-Xu'
'You, Yu-Meng'
'Tang, Yuan-Yuan'
'Xiong, Ren-Gen'
_publ_section_title
;
 Observation of vortex domains in a two-dimensional lead iodide perovskite
 ferroelectric.
;
_journal_name_full               'Journal of the American Chemical Society'
_journal_paper_doi               10.1021/jacs.0c00371
_journal_year                    2020
_chemical_formula_moiety         'I3 Pb, C5 H9 F N'
_chemical_formula_sum            'C5 H9 F I3 N Pb'
_chemical_formula_weight         690.03
_space_group_crystal_system      orthorhombic
_space_group_IT_number           62
_space_group_name_Hall           '-P 2ac 2n'
_space_group_name_H-M_alt        'P n m a'
_atom_sites_solution_hydrogens   difmap
_audit_creation_method           SHELXL-2014/7
_cell_angle_alpha                90
_cell_angle_beta                 90
_cell_angle_gamma                90
_cell_formula_units_Z            4
_cell_length_a                   8.0887(10)
_cell_length_b                   10.4653(14)
_cell_length_c                   14.9244(19)
_cell_measurement_reflns_used    2079
_cell_measurement_temperature    223(2)
_cell_measurement_theta_max      30.4590
_cell_measurement_theta_min      2.8720
_cell_volume                     1263.4(3)
_computing_structure_refinement  'SHELXL-2014/7 (Sheldrick, 2014)'
_diffrn_ambient_temperature      223(2)
_diffrn_measured_fraction_theta_full 0.997
_diffrn_measured_fraction_theta_max 0.997
_diffrn_measurement_device_type  'XtaLAB Synergy R, DW system, HyPix'
_diffrn_radiation_type           MoK\a
_diffrn_radiation_wavelength     0.71073
_diffrn_reflns_av_R_equivalents  0.2900
_diffrn_reflns_av_unetI/netI     0.1313
_diffrn_reflns_Laue_measured_fraction_full 0.997
_diffrn_reflns_Laue_measured_fraction_max 0.997
_diffrn_reflns_limit_h_max       8
_diffrn_reflns_limit_h_min       -9
_diffrn_reflns_limit_k_max       12
_diffrn_reflns_limit_k_min       -12
_diffrn_reflns_limit_l_max       17
_diffrn_reflns_limit_l_min       -17
_diffrn_reflns_number            5194
_diffrn_reflns_point_group_measured_fraction_full 0.997
_diffrn_reflns_point_group_measured_fraction_max 0.997
_diffrn_reflns_theta_full        25.000
_diffrn_reflns_theta_max         25.000
_diffrn_reflns_theta_min         2.377
_diffrn_source                   'Rotating-anode X-ray tube'
_exptl_absorpt_coefficient_mu    20.651
_exptl_absorpt_correction_T_max  0.009
_exptl_absorpt_correction_T_min  0.003
_exptl_absorpt_correction_type   multi-scan
_exptl_absorpt_process_details
;
CrysAlisPro 1.171.40.14e (Rigaku Oxford Diffraction, 2018)
Empirical absorption correction using spherical harmonics,
 implemented in SCALE3 ABSPACK scaling algorithm.
;
_exptl_crystal_colour            yellow
_exptl_crystal_density_diffrn    3.628
_exptl_crystal_description       block
_exptl_crystal_F_000             1184
_exptl_crystal_size_max          0.3
_exptl_crystal_size_mid          0.26
_exptl_crystal_size_min          0.23
_refine_diff_density_max         9.993
_refine_diff_density_min         -8.778
_refine_diff_density_rms         1.638
_refine_ls_extinction_method     none
_refine_ls_goodness_of_fit_ref   2.017
_refine_ls_hydrogen_treatment    constr
_refine_ls_matrix_type           full
_refine_ls_number_parameters     58
_refine_ls_number_reflns         1175
_refine_ls_number_restraints     110
_refine_ls_restrained_S_all      1.928
_refine_ls_R_factor_all          0.2227
_refine_ls_R_factor_gt           0.2091
_refine_ls_shift/su_max          0.001
_refine_ls_shift/su_mean         0.000
_refine_ls_structure_factor_coef Fsqd
_refine_ls_weighting_details
'w=1/[\s^2^(Fo^2^)+(0.2000P)^2^] where P=(Fo^2^+2Fc^2^)/3'
_refine_ls_weighting_scheme      calc
_refine_ls_wR_factor_gt          0.5026
_refine_ls_wR_factor_ref         0.5216
_reflns_Friedel_coverage         0.000
_reflns_number_gt                937
_reflns_number_total             1179
_reflns_threshold_expression     'I > 2\s(I)'
_cod_data_source_file            ja0c00371_si_003.cif
_cod_data_source_block           Pnma
_cod_database_code               4134276
_shelx_shelxl_version_number     2014/7
_shelx_space_group_comment
;
The symmetry employed for this shelxl refinement is uniquely defined
by the following loop, which should always be used as a source of
symmetry information in preference to the above space-group names.
They are only intended as comments.
;
_shelx_res_file
;

    Pnma.res created by SHELXL-2014/7

TITL Pnma in Pnma
CELL 0.71073   8.0887  10.4653  14.9244  90.000  90.000  90.000
ZERR   4.00   0.0010   0.0014   0.0019   0.000   0.000   0.000
LATT 1
SYMM 0.5-X, -Y, 0.5+Z
SYMM -X, 0.5+Y, -Z
SYMM 0.5+X, 0.5-Y, 0.5-Z
SFAC C  H  N  F  I  Pb
UNIT 20 36 4 4 12 4
OMIT   0.00  50.00
L.S. 400
ACTA
BOND
FMAP 2
PLAN 5
DFIX 1.52 0.002 C1 C4
EADP C4 N1
EXYZ C4 N1
isor
simu 0.02
delu 0.02
WGHT    0.200000
FVAR       0.05400
PB1   6    0.470960    0.250000    0.248888    10.50000    0.00575    0.03874 =
         0.05164    0.00000    0.00075    0.00000
I1    5    0.708530    0.044738    0.339995    11.00000    0.01474    0.04057 =
         0.06922    0.00682   -0.00390    0.00106
I2    5    0.232811    0.250000    0.417328    10.50000    0.00768    0.06867 =
         0.05743    0.00000    0.00114    0.00000
C1    1    0.882374    0.129120    0.600785    11.00000    0.01191    0.03580 =
         0.05548    0.00428    0.00612    0.00099
AFIX   3
H1A   2    0.931245    0.060910    0.634665    11.00000   -1.20000
H1B   2    0.899135    0.111990    0.538245    11.00000   -1.20000
AFIX   0
C2    1    0.959722    0.250000    0.624699    10.50000    0.01003    0.03594 =
         0.04970    0.00000    0.00745    0.00000
AFIX   3
H2A   2    1.072385    0.250000    0.604440    10.50000   -1.20000
AFIX   0
C3    1    0.614380    0.250000    0.575792    10.50000    0.01244    0.03913 =
         0.06093    0.00000    0.00339    0.00000
AFIX   3
H3A   2    0.496590    0.250000    0.583672    10.50000   -1.20000
H3B   2    0.640710    0.250000    0.513072    10.50000   -1.20000
AFIX   0
C4    1    0.698277    0.136745    0.620508    10.50000    0.01071    0.03845 =
         0.05944    0.00467    0.00743   -0.00175
F1    4    0.955355    0.250000    0.725956    10.50000    0.02060    0.07941 =
         0.05765    0.00000   -0.02980    0.00000
N1    3    0.698277    0.136745    0.620508    10.50000    0.01071    0.03845 =
         0.05944    0.00467    0.00743   -0.00175
AFIX   3
H1C   2    0.682523    0.148440    0.680236    10.50000   -1.20000
H1D   2    0.647965    0.063330    0.605456    10.50000   -1.20000
AFIX   0
HKLF 4

REM  Pnma in Pnma
REM R1 =  0.2091 for     937 Fo > 4sig(Fo)  and  0.2227 for all    1175 data
REM     58 parameters refined using    110 restraints

END

WGHT      0.2000      0.0000

REM Highest difference peak  9.993,  deepest hole -8.778,  1-sigma level  1.638
Q1    1   0.3254  0.2500  0.2493  10.50000  0.05    9.99
Q2    1   0.6189  0.2500  0.2509  10.50000  0.05    8.18
Q3    1   0.4695  0.1851  0.2889  11.00000  0.05    8.15
Q4    1   0.4768  0.1831  0.2071  11.00000  0.05    7.19
Q5    1   0.2436  0.2500  0.2817  10.50000  0.05    6.86
;
_shelx_res_checksum              45171
_shelx_hkl_file
;
   0   0  -2  329.37    6.12
   0   0  -3    0.05    0.24
   0   0  -4   41.45    1.47
   0   0   5    0.11    0.39
   0   0   6   95.56    2.75
   0   0   7    1.07    0.65
   0   0   8   78.22    2.97
   0   0   9   -0.02    1.03
   0   0  10  342.46    8.61
   0   0  11    2.04    1.51
   0   0  12  527.26   11.69
   0   0  13    1.12    1.99
   0   0  14   22.07    2.79
   0   0  15   -2.55    2.69
   0   0  16    2.89    3.36
   0   0 -17    3.16    0.90
   0   0 -18    2.07    0.91
   0   1   1  556.95    9.02
   0   1  -1  451.94    8.62
   0   1   2    0.12    0.29
   0   1  -2   -0.01    0.21
   0  -1  -2    0.05    0.18
   0  -1  -3   65.74    2.46
   0  -1   3  156.44    2.45
   0  -1  -4    0.17    0.37
   0  -1   4    0.10    0.25
   0  -1   5  200.37    4.06
   0  -1  -5  158.99    4.36
   0  -1   6    0.85    0.62
   0   1   7  155.59    4.40
   0  -1   7  176.09    4.44
   0   1   8   -0.02    0.76
   0  -1   8    3.90    1.09
   0  -1   9   51.41    2.47
   0   1   9   52.06    2.73
   0  -1  10    0.41    0.87
   0   1  10    1.91    1.49
   0  -1  11  338.20    8.63
   0   1  11  417.94    9.95
   0   1  12   29.57    3.38
   0  -1  12    1.87    1.68
   0  -1  13  196.40    6.36
   0   1  13  165.99    5.85
   0   1  14    2.81    2.61
   0  -1  14   -1.19    2.27
   0   1  15    1.97    2.47
   0  -1  15    1.21    2.93
   0   1 -16   -0.02    0.55
   0   1  16   -1.28    3.13
   0  -1 -16    0.36    0.61
   0   1 -17    5.15    0.82
   0  -1 -17    1.76    0.68
   0   1 -18    0.62    0.63
   0   1 -20   -3.79    3.44
   0   2   0  232.33    4.67
   0   2  -1    0.05    0.18
   0   2   1    0.04    0.30
   0   2   2   30.41    1.32
   0   2  -2   22.07    0.84
   0   2   3    0.03    0.49
   0   2  -3   -0.03    0.15
   0   2  -3    0.17    0.27
   0   2  -4  363.42    8.08
   0  -2  -4  337.80    8.39
   0  -2  -5    1.54    0.61
   0  -2   5    0.70    0.36
   0   2  -5    1.36    0.60
   0   2  -6 1778.46   39.10
   0  -2   6 2253.44   37.78
   0  -2   7    0.21    0.54
   0  -2   8  137.57    3.88
   0  -2   9    0.56    0.89
   0   2   9    0.32    1.31
   0   2  10    5.45    1.72
   0  -2  10    4.02    1.17
   0  -2  11    2.62    1.54
   0  -2 -11    2.12    0.55
   0  -2  12   75.83    3.77
   0   2  12   80.03    4.15
   0  -2 -13    0.41    0.42
   0  -2  13    1.11    2.28
   0   2  13    1.53    1.81
   0   2 -14    5.28    0.73
   0  -2 -14    2.88    0.79
   0   2 -15    0.09    0.48
   0   2  15   -0.38    2.65
   0  -2 -15    0.06    0.54
   0   2 -16   12.39    1.04
   0  -2 -16    1.28    0.67
   0   2  17    0.56    3.77
   0   2 -17    1.09    2.32
   0   2 -17    0.06    0.55
   0   2 -18   86.87    5.03
   0   2  18  202.68    9.37
   0   2 -19   -0.18    2.36
   0   2 -20    0.49    2.38
   0   3   0    0.16    0.28
   0  -3   0    0.21    0.33
   0   3  -1   51.72    1.41
   0  -3  -1   52.28    1.71
   0   3  -2    0.19    0.33
   0   3   2    0.33    0.50
   0   3   3   41.23    1.77
   0   3  -3   32.16    1.19
   0   3   4    1.18    0.61
   0   3  -4    0.24    0.36
   0   3  -5  706.72    8.19
   0   3   5  791.87    9.64
   0   3  -6    0.86    0.20
   0   3  -6    0.93    0.52
   0   3  -7  412.26    6.88
   0   3  -7  255.60    5.33
   0   3  -8    0.02    0.71
   0   3  -8    0.25    0.27
   0   3  -9    2.67    1.10
   0   3  -9    1.92    0.37
   0   3  10    0.43    1.65
   0   3 -10    0.03    1.10
   0   3 -10    0.20    0.33
   0   3 -11   21.48    2.16
   0   3  11   30.05    2.98
   0   3  12    1.87    2.10
   0   3 -12    1.49    1.58
   0   3 -12    1.66    0.48
   0   3 -13   54.33    3.22
   0   3 -13   16.28    1.03
   0   3  14   -0.64    2.07
   0   3 -14    2.95    0.64
   0   3 -15    6.54    0.79
   0   3 -15   25.97    2.67
   0   3 -16    5.97    2.11
   0   3  16    0.54    3.17
   0   3 -16   -0.14    0.55
   0   3 -17   75.04    4.02
   0   3  17  159.54    7.76
   0   3 -18    0.55    1.86
   0   3  18    2.86    4.85
   0   3 -19   24.23    2.50
   0   3  19   73.91    8.02
   0   3 -20    0.59    1.74
   0   4   0  783.56   12.97
   0  -4   0  574.18   13.05
   0   4   1    0.96    0.50
   0   4  -1    2.78    0.54
   0   4  -2  241.69    4.93
   0   4   2  218.76    4.77
   0   4  -3    0.40    0.44
   0   4   3    0.50    0.60
   0  -4   3    0.55    0.32
   0   4   4   54.89    2.27
   0   4  -4   53.21    1.86
   0  -4   5    0.11    0.61
   0   4   5    1.03    0.87
   0   4  -5    0.17    0.51
   0   4  -6  139.97    3.68
   0   4   6  184.46    4.94
   0   4   7    0.45    0.99
   0   4  -7    0.18    0.46
   0   4  -7    0.75    0.74
   0   4  -8    7.76    0.65
   0   4  -8   31.52    1.52
   0   4  -9    0.07    0.26
   0   4  -9    0.32    0.68
   0   4 -10   93.82    2.81
   0   4 -10   33.94    1.20
   0   4 -11    0.70    0.88
   0   4 -11    0.10    0.32
   0   4 -12  306.12    5.69
   0   4  12  390.41    9.28
   0   4 -13    1.86    1.23
   0   4 -13    0.63    0.47
   0   4  13    2.06    2.23
   0   4  14   15.71    2.81
   0   4 -14   18.85    1.90
   0   4  15    0.98    3.28
   0   4 -15    0.11    0.53
   0   4 -15    0.51    1.28
   0   4 -16    3.77    1.36
   0   4  16    5.84    3.40
   0   4  17   28.50    5.36
   0   4 -17    5.10    1.63
   0   4 -18   26.58    2.32
   0   4  18   59.54    6.75
   0   4 -19    5.86    1.91
   0   5   0    4.89    0.95
   0  -5   0    2.18    0.57
   0   5   1  901.90   16.29
   0   5  -1  794.73   15.76
   0   5   2    0.71    0.65
   0   5  -2    0.05    0.48
   0   5   3    7.97    1.04
   0   5  -3    7.81    0.99
   0   5  -4    0.19    0.57
   0   5   4   -0.33    0.79
   0   5  -5    2.96    0.61
   0  -5   5    2.11    0.68
   0   5  -6    0.36    0.59
   0   5   6    0.38    1.07
   0  -5   6    0.22    0.81
   0   5   7   48.72    2.90
   0   5  -7   27.38    1.49
   0   5  -8    0.29    0.78
   0   5   8   -0.12    1.52
   0   5  -9   55.20    2.07
   0   5  -9   19.29    1.34
   0   5 -10    2.83    0.82
   0   5 -10    5.01    1.21
   0   5 -11   93.13    3.51
   0   5 -11  498.51    8.40
   0   5 -12    1.38    0.99
   0   5 -12    2.87    1.31
   0   5 -13   35.93    2.14
   0   5 -13  136.40    3.82
   0   5 -14   -0.44    0.97
   0   5  14    0.76    2.67
   0   5 -14    0.64    1.18
   0   5 -15   -0.64    1.09
   0   5 -15    2.77    1.25
   0   5  15   -0.28    3.61
   0   5  16    3.83    3.77
   0   5 -16    1.18    1.40
   0   5  17    7.90    4.63
   0   5 -17    4.66    1.76
   0   5 -18    6.18    2.25
   0   5 -19   27.68    3.40
   0   6   0  476.88    7.42
   0  -6   0  192.42    5.62
   0   6  -1    1.75    0.74
   0  -6  -1    0.30    0.47
   0   6   1    1.53    0.96
   0  -6   2   50.59    1.47
   0   6  -2   70.90    2.38
   0  -6   3   -0.06    0.19
   0   6   3   -0.03    0.98
   0   6   4  122.93    4.20
   0   6  -4   55.97    2.67
   0   6  -5    0.83    0.78
   0  -6   5    0.55    0.56
   0   6   5    1.35    1.39
   0  -6   6  161.26    4.97
   0   6   6  136.52    3.40
   0   6   7    1.29    1.76
   0   6  -7    2.11    0.83
   0   6   8   74.86    4.26
   0   6  -8   50.12    2.35
   0   6  -9    0.91    0.96
   0   6   9    3.63    2.23
   0   6 -10   44.25    2.18
   0   6  10   77.81    4.80
   0   6 -11    1.30    1.12
   0   6  11   12.66    3.28
   0   6 -12  108.07    3.77
   0   6 -13    5.58    1.42
   0   6 -14   12.01    1.63
   0   6  15   -0.44    3.73
   0   6 -15    1.69    1.29
   0   6  16   10.36    4.44
   0   6 -16    7.84    1.60
   0   6 -17    2.18    1.53
   0   6 -18   45.39    2.93
   0   7   0    0.62    0.78
   0  -7   0   -0.17    0.38
   0  -7  -1    2.66    0.66
   0   7  -1    4.08    0.97
   0  -7   2    0.58    0.29
   0   7   2    0.69    1.15
   0  -7   3   18.50    0.73
   0   7   3  286.97    5.99
   0  -7   4    1.66    0.61
   0   7   4    3.56    1.68
   0   7  -5  518.74    9.93
   0   7   5  613.10   11.57
   0   7  -6    3.98    1.29
   0  -7   6    2.99    1.02
   0   7   6    2.94    0.76
   0   7  -7  237.27    6.25
   0  -7   7  222.38    6.89
   0   7   8    1.46    2.20
   0   7  -8    1.38    1.09
   0   7  -9    3.06    1.16
   0   7   9    5.00    2.63
   0   7  10    3.25    2.60
   0   7 -10    0.42    0.88
   0   7  11    6.45    2.51
   0   7 -11    5.06    1.18
   0   7  12    2.71    2.51
   0   7 -12    1.51    1.22
   0   7 -13   21.36    1.91
   0   7  13   27.98    4.23
   0   7 -14    1.93    1.38
   0   7 -15   25.40    2.18
   0   7 -16    6.40    1.64
   0   7 -17   56.97    3.04
   0  -8   0   33.14    1.77
   0   8   0  108.89    3.58
   0   8   1    0.51    1.31
   0  -8   1    1.01    0.45
   0   8  -1   -0.22    1.25
   0  -8  -1   -0.02    0.47
   0   8   2   16.98    1.72
   0  -8   2   22.60    0.87
   0  -8   3    1.40    0.39
   0   8   3    3.09    1.66
   0  -8   4   31.45    1.45
   0  -8   4   51.43    2.04
   0   8   5   11.85    2.52
   0  -8   5    5.99    0.96
   0  -8   6  202.63    5.38
   0   8   6  148.98    3.97
   0  -8   7    1.92    1.26
   0   8   7    2.12    2.11
   0   8  -7    1.33    1.55
   0   8   8   49.80    3.69
   0   8  -8   45.50    2.72
   0   8   9    0.49    1.97
   0   8  -9   -0.74    1.24
   0   8 -10    0.83    1.11
   0   8  10    0.26    2.08
   0   8  11    0.06    2.67
   0   8 -11   -0.11    1.29
   0   8  12   35.74    4.74
   0   8 -12   23.14    2.11
   0   8 -13    0.42    1.49
   0   8  13   -0.76    3.72
   0   8 -14   20.19    2.17
   0   8  14   24.13    4.69
   0   8 -15    0.98    1.39
   0   8 -16   22.83    2.15
   0  -9   0    3.33    0.66
   0   9   0    3.64    1.84
   0  -9   0    1.21    0.53
   0  -9   1   60.28    1.90
   0  -9  -1   54.44    2.37
   0  -9   2    0.94    0.42
   0   9   2    0.75    1.59
   0  -9  -2    0.12    0.56
   0   9   3   28.82    2.82
   0  -9   3   26.74    0.95
   0   9   4    0.91    1.86
   0  -9   4    0.53    0.63
   0  -9   5   13.49    1.25
   0   9   5   18.41    2.49
   0   9   6    1.17    0.75
   0   9   6    0.04    1.96
   0   9   7    5.76    1.14
   0  -9   7   10.94    1.72
   0   9   8   -0.15    2.37
   0  -9   8    1.10    1.80
   0   9   9   22.52    3.64
   0   9  -9   25.05    2.76
   0   9  10    0.77    3.33
   0   9 -10   -1.00    1.78
   0   9 -11  105.34    4.68
   0   9  11  132.12    7.32
   0   9 -12    2.15    1.76
   0   9  12    2.61    3.94
   0   9  13   68.45    6.27
   0   9 -13   44.81    2.89
   0   9 -14   -0.16    1.66
   0 -10   0   92.81    2.72
   0 -10   0  121.39    3.69
   0  10   1    3.03    2.36
   0 -10  -1    1.07    0.64
   0 -10  -1    2.58    0.73
   0 -10   1    2.11    0.57
   0 -10  -2   20.10    1.41
   0 -10   2   15.48    0.89
   0 -10  -3   -0.25    0.57
   0  10   3    0.58    2.17
   0 -10   4    1.84    0.85
   0  10   4   -0.59    2.32
   0  10   5   -0.66    2.30
   0  10   6    2.70    0.99
   0  10   6    5.17    2.77
   0  10   7   -1.75    1.32
   0  10   7   -1.20    2.80
   0  10   8   17.19    3.73
   0  10   9    4.10    3.40
   0  10  10   95.75    6.60
   0  10  11    7.43    4.28
   0  10  12  132.46    8.33
   0  10 -12  103.89    5.20
   0  10 -13    1.29    2.46
   0 -11   0    0.35    0.50
   0 -11  -1   10.86    0.96
   0 -11   1    7.01    0.69
   0 -11   2    0.05    0.55
   0 -11  -2    0.70    0.61
   0  11   3   11.30    3.43
   0 -11  -3    3.76    0.80
   0 -11  -4    0.85    0.74
   0  11   4   -1.44    3.01
   0  11   5   21.63    1.95
   0  11   5   48.28    4.83
   0  11   6    0.70    3.40
   0  11   6    0.80    1.54
   0  11   7   47.03    4.99
   0  11   7   18.05    1.94
   0  11   8    1.43    3.73
   0  11   9   51.79    6.03
   0  11  10    6.46    4.78
   0  11  11   65.56    7.44
   0 -12   0   -0.22    0.50
   0 -12  -1    0.34    0.61
   0 -12  -2    1.14    0.69
   0 -12  -3    1.07    0.71
   0 -12  -4   11.66    1.16
   0  12   5    5.26    1.53
   0  12   6   70.77    3.61
   0  12   6  154.65    8.78
   0  12   7    3.26    4.52
   0  12   8   38.33    6.18
   0  12   9    2.55    5.15
   0 -13  -2    0.28    0.63
   0 -13  -3    2.77    0.78
   0  13   4    3.76    1.93
   0  13   5   25.12    2.30
  -1   0   0    0.19    0.27
  -1   0   1    0.84    0.22
   1   0  -1    1.04    0.28
   1   0  -2    8.91    0.49
  -1   0  -2    9.49    0.68
  -1   0  -3    9.12    0.76
   1   0  -3    6.51    0.41
  -1   0  -4  372.56    6.88
   1   0  -4  351.26    6.44
  -1   0  -5    1.10    0.44
   1   0  -5    1.17    0.30
  -1   0  -5    1.53    0.47
  -1   0  -6    2.65    0.43
   1   0  -6    4.71    0.51
  -1   0  -7   12.75    1.03
   1   0  -7   15.73    0.95
   1   0  -8  232.25    5.83
  -1   0  -8  180.51    5.82
  -1   0  -9    7.86    0.76
   1   0   9   47.44    3.35
  -1   0   9   34.09    1.93
   1   0  -9   12.24    0.94
   1   0 -10    0.93    0.53
   1   0  10    2.03    2.21
  -1   0 -10    0.38    0.47
  -1   0  10    1.60    1.25
  -1   0  11    2.26    1.12
   1   0 -11    0.88    0.53
  -1   0 -11    1.21    0.62
  -1   0  12   27.77    1.98
   1   0 -12    7.21    0.87
  -1   0 -13    1.25    0.77
  -1   0  13    2.51    1.49
   1   0 -13    0.46    0.52
  -1   0 -14    2.37    0.88
   1   0 -14    1.79    0.63
  -1   0 -15    0.74    0.69
   1   0 -15   -0.02    0.61
   1   0 -16    4.88    0.84
  -1   0 -16    1.97    0.89
  -1   0  17    0.89    2.72
  -1   0 -17    0.91    1.08
   1   0 -17    0.19    0.61
  -1   0 -18    0.08    0.90
  -1   0  18   13.93    3.38
  -1   0  19    2.87    4.00
  -1   0  20   38.38    6.04
   1  -1   0    0.16    0.12
   1  -1   0    0.15    0.28
  -1   1  -1    4.05    0.43
  -1   1  -1    6.19    0.59
   1  -1  -1    5.13    0.25
   1  -1   1    5.58    0.47
  -1   1   1    3.50    0.28
  -1  -1   2    2.96    0.22
  -1   1   2    1.87    0.25
   1   1  -2    2.45    0.44
   1   1  -2    2.66    0.22
  -1   1  -2    2.31    0.42
   1   1  -3   56.08    1.19
   1   1  -3   44.61    1.44
  -1  -1  -3   24.05    1.37
  -1  -1   3   59.08    1.20
   1   1   3   42.43    1.43
   1  -1  -3   33.25    1.25
   1   1  -4    3.07    0.36
   1  -1  -4    4.85    0.49
  -1   1  -4    2.22    0.51
   1   1  -4    4.50    0.51
  -1  -1  -4    3.51    0.60
  -1   1  -5   21.18    1.07
  -1  -1  -5   23.83    1.16
  -1   1  -6    0.57    0.31
  -1  -1  -6    0.29    0.32
   1   1  -6    0.21    0.25
  -1  -1  -6    0.28    0.39
  -1   1   7  112.36    3.05
   1   1  -7   47.73    1.63
   1   1   7  130.40    4.15
  -1  -1  -7   35.15    1.89
  -1  -1   7  106.05    2.75
  -1   1  -7   41.30    1.74
  -1  -1  -7   46.17    2.12
  -1  -1  -8    9.72    1.01
  -1  -1   8    1.42    0.56
   1   1  -8    1.04    0.38
  -1   1  -8    1.32    0.51
  -1  -1  -8    8.69    0.88
  -1   1   9    4.60    1.19
  -1   1  -9    1.13    0.40
   1   1  -9    2.38    0.47
   1   1   9    5.97    1.78
  -1  -1  -9    1.21    0.50
  -1  -1   9    4.74    0.99
  -1  -1  -9    0.71    0.45
  -1   1 -10    1.50    0.56
  -1  -1 -10    0.46    0.48
   1   1 -10    2.15    0.52
   1   1  10    1.06    1.91
  -1  -1 -10    0.30    0.47
  -1   1  10    1.72    1.38
   1   1  11   50.67    3.93
  -1  -1  11   27.20    1.67
   1   1 -11    8.42    0.84
  -1  -1 -11    8.57    1.04
  -1  -1 -11    4.27    0.79
  -1   1  11   35.25    2.30
  -1  -1  12    0.30    1.03
  -1   1  12    1.04    1.26
   1  -1 -12    0.62    0.57
  -1  -1 -12   -0.05    0.64
   1   1  12   -0.67    2.73
   1   1 -12    0.02    0.47
   1  -1 -13    1.65    0.63
   1   1 -13    1.42    0.58
   1   1  13    7.44    3.57
  -1  -1  13    7.06    1.73
  -1  -1 -13    0.57    0.84
  -1   1  13    6.33    1.61
  -1   1  14    2.99    2.02
  -1  -1  14    3.49    1.84
   1  -1 -14   -0.02    0.57
  -1  -1 -14   -0.16    0.76
   1   1 -14    0.37    0.51
  -1   1  15    5.46    2.38
  -1  -1 -15    0.54    0.73
   1  -1 -15   -0.18    0.57
  -1  -1  15    4.08    1.86
   1   1 -15    0.42    0.58
  -1   1 -16    0.51    0.95
  -1   1  16    0.85    2.38
  -1  -1  16   -0.04    2.08
   1   1 -16   -0.02    0.57
  -1  -1 -16   -0.36    0.73
   1  -1 -16   -0.13    0.62
  -1  -1  17   10.06    2.65
   1   1 -17    0.76    0.60
  -1   1  17    7.88    2.43
  -1   1 -17    1.07    0.86
  -1  -1 -17   -0.59    0.90
   1   1 -18    0.15    0.58
  -1   1 -18    0.11    0.77
  -1  -1  18    0.85    3.04
  -1   1  18    2.39    3.10
  -1   1  19   17.34    4.18
   1   1 -19    3.15    2.31
  -1  -1  19   16.63    4.69
   1   1 -20   -2.82    2.33
  -1   1  20   -1.53    4.62
   1  -2   0    0.26    0.19
  -1   2   0    0.10    0.14
  -1   2  -1    9.16    0.47
  -1   2   1   12.64    0.58
   1  -2   1   12.28    0.57
   1  -2   1   10.29    0.54
   1  -2  -1   10.77    0.57
   1  -2   2  527.30    9.06
   1  -2  -2  395.73    8.49
  -1  -2   2  433.86    8.64
  -1  -2   2  471.07    8.05
  -1   2  -2  364.31    8.00
  -1   2  -2  510.96    8.38
   1   2  -3   17.29    1.05
   1   2  -3   25.74    0.80
  -1  -2   3   21.10    0.89
  -1  -2   3   28.11    0.85
   1   2  -4    7.16    0.74
  -1  -2   4    7.78    0.40
   1   2   4    8.83    0.65
  -1   2  -4   10.28    1.21
  -1  -2  -4    5.62    0.63
  -1  -2   4    9.98    0.78
   1   2  -4    9.71    0.54
   1   2  -5    0.94    0.35
  -1  -2  -5    1.44    0.42
  -1   2  -5    0.98    0.32
   1   2  -6   10.64    0.75
   1   2  -6    5.28    0.48
  -1   2  -6    9.66    0.61
  -1  -2  -6    4.83    0.79
  -1  -2  -7    0.75    0.58
  -1   2  -7    0.67    0.39
  -1  -2   7    0.35    0.51
   1   2  -7    0.27    0.29
   1   2  -7    0.59    0.59
   1   2  -8    7.42    0.57
   1   2  -8   14.93    1.33
  -1  -2  -8    6.20    0.84
  -1   2  -8    9.51    0.77
  -1  -2   8   16.94    1.14
  -1   2   8   21.08    1.60
  -1   2  -9    0.66    0.41
  -1  -2   9    1.04    0.84
  -1  -2  -9    0.38    0.40
   1   2   9    1.38    1.78
   1   2  -9    0.36    0.34
  -1  -2  -9   -0.20    0.53
   1   2  -9   -0.46    0.94
  -1   2   9    1.84    1.25
   1   2 -10   39.74    1.52
   1   2  10  192.30    6.19
  -1  -2 -10   13.61    1.32
  -1  -2  10  118.15    2.75
  -1  -2 -10   35.11    1.92
  -1   2 -10   47.21    1.91
   1   2 -10   88.63    3.29
  -1   2  10  170.31    4.97
   1   2  11    0.59    2.18
  -1   2  11    1.68    1.46
   1   2 -11    3.06    0.58
  -1  -2 -11   -0.41    0.64
  -1  -2 -11    1.23    0.64
  -1  -2 -12    0.02    0.71
   1   2 -12    4.04    0.62
  -1  -2  12   17.79    1.78
  -1   2  12   14.93    1.84
   1   2  12   21.35    3.54
   1   2 -12    7.28    1.67
   1   2 -13    1.56    0.55
  -1   2  13   10.50    1.86
  -1  -2  13   10.49    1.81
   1   2 -13    6.23    1.75
  -1  -2 -13    0.23    0.69
   1   2  13   12.58    3.55
  -1  -2 -14    4.72    0.97
  -1   2  14  125.96    4.93
   1   2 -14   19.43    1.20
   1  -2 -14   15.62    1.33
   1   2 -14   63.25    3.29
  -1  -2  14   96.02    3.25
   1   2  14  198.38    8.76
  -1  -2  15    3.28    2.06
   1  -2 -15    0.53    0.64
   1   2 -15    0.38    0.52
   1   2 -15    0.28    1.63
   1   2 -16    1.28    1.76
   1   2 -16    0.27    0.65
   1   2 -17   -1.78    2.00
  -1  -2  17    2.55    2.96
   1   2 -17    0.09    0.72
  -1   2 -17    0.69    0.98
  -1   2  17   -0.20    2.07
  -1   2 -18    1.27    1.09
   1   2 -18    2.30    1.97
  -1   2  18    3.95    3.48
  -1   2 -19   -3.30    2.83
  -1   2  19    0.13    3.55
   1   2 -19   -0.97    1.75
  -1   2 -19    0.08    0.83
  -1   2  20   -2.99    4.57
   1  -3   0    0.66    0.31
   1  -3   0   -0.03    0.20
  -1  -3   0    0.07    0.40
   1  -3  -1  147.53    3.69
  -1  -3  -1  161.55    3.88
  -1   3  -1  161.08    3.33
   1  -3  -1  144.93    3.52
  -1   3   1  225.42    4.29
   1  -3   1  220.29    3.95
  -1   3  -2   10.74    0.48
  -1  -3   2   10.17    0.63
   1  -3   2   17.52    0.90
  -1   3  -2   25.82    1.02
  -1   3   2   25.96    1.25
   1  -3   3  139.52    4.13
   1   3  -3  188.91    3.95
  -1  -3   3  148.54    3.46
  -1  -3   3  150.32    3.90
  -1   3  -3  200.29    4.06
  -1  -3   4    0.24    0.31
   1   3  -4    0.29    0.29
  -1  -3   4    0.28    0.17
   1   3   4   -0.31    0.88
  -1   3  -4    0.20    0.37
  -1  -3   5   21.28    1.29
   1   3  -5   11.60    1.02
   1   3   5   32.39    2.12
  -1   3   5   29.09    1.69
   1   3   5   18.57    0.84
  -1   3  -5    7.46    0.58
  -1   3  -5   21.23    1.19
   1   3  -5   20.23    0.90
  -1  -3  -6   -0.04    0.55
  -1   3  -6    0.49    0.24
  -1   3  -6    0.57    0.72
   1   3   6    0.65    1.15
   1  -3  -6    0.33    0.28
  -1   3   6    0.46    0.75
   1   3  -6    0.14    0.40
   1   3  -6    0.33    0.51
  -1   3  -7    3.02    0.47
   1   3  -7    1.38    0.49
  -1  -3   7    2.90    0.42
   1  -3  -7   -0.12    0.27
   1   3  -7    4.70    0.60
  -1  -3  -7    1.53    0.61
  -1   3  -7    3.33    1.04
  -1   3  -8    1.68    1.03
  -1  -3   8    2.44    0.69
   1   3  -8    2.36    0.63
  -1  -3  -8    0.72    0.47
  -1   3  -8    1.08    0.30
   1   3  -8    0.53    0.43
  -1  -3  -9   15.39    1.33
   1   3  -9   64.65    2.10
   1   3  -9   27.73    1.26
  -1   3  -9   66.42    3.18
  -1  -3  10    5.37    0.85
  -1   3  10    7.30    1.92
   1   3 -10    2.77    0.93
   1   3 -10    0.91    0.44
  -1  -3 -10    2.31    0.68
  -1   3 -10    5.13    1.66
   1   3  10    7.38    2.23
   1   3 -11    8.15    0.82
   1   3  11   43.33    3.87
   1   3 -11   20.18    1.54
  -1  -3 -11    7.88    1.12
  -1  -3  11   35.56    1.92
  -1   3  11   30.00    2.25
  -1   3 -11   21.71    2.64
  -1   3 -12    0.04    1.98
  -1   3  12    3.03    1.52
  -1  -3  12    2.09    1.26
   1   3 -12    0.96    0.97
   1   3  12   -0.58    2.62
   1   3 -12   -0.31    0.56
   1   3 -13   18.39    1.37
   1   3 -13   51.76    2.47
  -1   3 -13   49.39    3.45
  -1   3  13   90.95    3.92
  -1  -3  13   78.16    2.87
  -1   3  14   10.74    2.58
  -1  -3  14    8.28    1.77
   1   3 -14    4.14    1.24
   1   3 -14    1.44    0.67
   1  -3 -14    1.37    0.71
   1  -3 -14    0.21    0.36
  -1   3 -14    4.45    2.14
   1   3  14   11.85    4.04
  -1   3  15   15.56    3.16
   1   3 -15    9.12    1.47
  -1   3 -15    5.83    2.23
   1   3 -15    2.61    0.76
  -1  -3  15   14.58    2.43
   1   3  15   25.76    5.67
   1  -3 -15   -0.28    0.31
  -1  -3  16    2.93    2.68
   1   3 -16    1.23    0.70
  -1   3 -16    7.05    2.50
   1   3 -16    6.57    1.56
  -1   3  16   -0.06    2.80
  -1   3 -17    8.44    2.64
   1   3 -17   10.42    1.80
  -1   3 -18    0.23    2.29
  -1   3  18    1.42    3.25
   1   3 -18    1.26    1.28
  -1   3 -19    0.52    1.26
   1   3 -19    1.29    1.43
  -1   3 -19   -0.53    2.24
  -1   3  19   -0.58    3.65
  -1  -4   0    0.12    0.39
   1  -4   0    0.26    0.24
   1  -4   0    0.33    0.23
   1  -4  -1    0.06    0.27
  -1  -4  -1    0.67    0.36
   1  -4   1    0.49    0.30
   1  -4  -1    0.33    0.27
   1  -4   1    0.12    0.22
   1  -4  -2    1.59    0.40
  -1   4   2    2.08    0.54
  -1   4  -2    2.20    0.52
  -1  -4  -2    1.95    0.46
  -1  -4   2    2.06    0.40
  -1  -4   2    2.00    0.39
   1  -4   2    2.04    0.40
  -1  -4   3   -0.02    0.37
   1   4   3    0.19    0.94
  -1  -4  -3    0.24    0.43
   1  -4   3    0.25    0.38
  -1   4  -3    0.25    0.40
  -1  -4   3    0.62    0.69
  -1   4   3   -0.13    0.53
  -1  -4   3    0.50    0.33
  -1   4   3    0.41    0.73
  -1   4   4  142.45    3.61
  -1   4  -4   60.53    1.60
  -1   4  -4  114.85    2.64
  -1  -4   4   85.43    2.20
   1   4  -4  125.36    2.96
  -1  -4   4   88.66    2.25
   1   4   4  158.48    4.61
  -1   4  -5    0.05    0.63
   1   4  -5    0.95    0.54
   1   4   5    0.12    1.14
  -1  -4   5    0.67    0.52
  -1   4  -5   -0.03    0.29
  -1   4   5    0.24    0.70
  -1  -4   6    5.86    0.40
   1   4  -6    6.11    0.75
   1   4   6    2.83    0.41
  -1   4  -6    3.63    0.33
  -1   4   6    6.16    1.08
  -1  -4   6    5.91    0.98
  -1   4  -6    5.57    0.75
   1   4   6    7.00    1.62
   1   4   7    4.30    1.63
  -1  -4  -7    0.84    0.47
  -1   4  -7    2.55    0.33
   1   4  -7    1.48    0.65
   1   4  -7    2.67    0.61
  -1   4  -7    4.30    0.82
  -1   4   7    6.44    1.36
  -1  -4   7    3.80    0.47
  -1  -4  -8   28.00    1.79
   1   4  -8   84.98    2.45
  -1   4  -8   86.08    2.85
  -1  -4   8   86.80    1.79
   1   4  -8   31.51    1.98
  -1  -4  -9    2.37    0.74
   1   4  -9    6.85    1.00
  -1  -4   9    8.16    0.84
   1   4  -9    1.74    0.85
  -1   4  -9    6.52    1.17
   1   4 -10   10.05    1.60
   1   4 -10    2.88    0.89
  -1  -4  10    7.53    0.82
  -1   4 -10    5.28    1.23
  -1  -4  11    2.42    0.98
   1   4 -11    3.45    0.96
   1   4 -11    0.22    0.72
  -1   4 -11    1.45    1.25
   1   4 -12    0.89    0.72
  -1   4 -12    1.40    1.32
  -1  -4  12    2.41    1.25
   1   4 -12    2.74    0.94
   1   4 -13    0.53    0.94
  -1   4 -13    0.33    1.38
  -1   4  13    0.93    1.89
  -1  -4  13    0.61    1.53
   1   4  13   -1.68    3.50
   1   4 -13   -0.07    0.81
  -1   4 -14   -0.17    0.47
   1   4 -14   -0.55    0.89
  -1   4 -14    0.25    1.48
   1   4  14    1.06    4.03
  -1   4  14    3.33    2.56
   1   4 -14    2.14    1.14
   1   4 -15    0.52    1.14
  -1   4  15    0.71    2.76
  -1   4 -15    0.01    0.43
   1   4 -15   -0.62    1.03
  -1   4 -15    0.36    1.55
   1   4  15   -1.19    4.94
  -1   4 -16   11.41    2.03
   1   4 -16   15.40    1.68
  -1   4 -17    3.29    1.76
   1   4 -17    5.46    1.40
  -1   4  17   -0.68    2.67
   1   4 -17    2.38    1.31
   1   4 -18    2.62    1.43
  -1   4 -18    1.41    1.73
  -1   4  18    1.52    3.47
  -1   4 -19    1.43    1.37
   1   4 -19    3.67    1.67
  -1   4 -19    2.50    1.93
  -1  -5   0    0.15    0.46
  -1   5   0    0.17    0.60
   1  -5   0    0.36    0.30
   1  -5   0    0.21    0.25
   1  -5  -1    0.61    0.32
  -1  -5   1    1.92    0.42
  -1   5   1    1.76    0.72
   1  -5   1    0.86    0.37
  -1  -5  -1    1.50    0.62
   1  -5   1    0.30    0.28
   1  -5  -1    1.07    0.35
  -1  -5   2    6.25    0.63
   1  -5  -2    6.79    0.67
   1  -5   2   11.51    1.09
   1  -5  -2    3.07    0.60
  -1  -5  -2    6.85    0.88
  -1  -5   2    7.60    0.54
   1   5   2   13.53    1.76
  -1   5   2   13.83    1.21
  -1  -5  -3  121.00    3.87
   1  -5   3  112.15    3.46
  -1  -5   3  152.94    3.01
  -1   5   3  181.05    4.26
  -1   5  -3  187.56    4.02
  -1   5   3  112.32    3.35
  -1  -5   3  126.95    3.29
  -1   5   4   12.95    1.06
  -1  -5   4   13.20    1.03
  -1   5   4   24.49    1.54
   1   5   4   26.80    2.31
  -1  -5   4   10.08    1.14
  -1  -5   4   23.46    0.77
  -1  -5  -4   10.40    1.09
  -1   5  -4   31.20    1.46
   1   5   5  139.69    4.74
   1   5  -5  106.23    3.13
  -1  -5   5   76.48    2.40
  -1   5   5  129.31    3.91
  -1  -5  -5   47.20    2.39
  -1   5  -5   94.31    2.67
  -1   5   6    2.87    1.23
   1   5  -6    1.75    0.69
  -1  -5   6    1.64    0.79
   1   5   6    3.72    1.61
  -1   5  -6    2.79    0.81
   1   5   7  373.89    8.80
   1   5  -7  164.06    4.71
  -1   5   7  352.90    7.80
  -1   5  -7  165.44    4.86
  -1   5   8   27.66    2.66
  -1   5  -8   27.96    1.92
  -1   5   9  117.28    4.42
  -1  -5  -9   30.20    1.93
   1   5   9  121.21    5.25
  -1   5  -9   67.35    2.35
   1   5  -9   79.08    2.38
   1   5 -10    1.86    1.03
  -1   5 -10    1.40    1.00
  -1   5 -10    0.30    0.20
   1   5 -10    1.12    0.84
  -1   5 -10   -0.27    0.45
  -1   5 -11   13.44    1.51
   1   5 -11    3.87    1.19
  -1   5 -11    3.71    0.34
   1   5 -11   15.56    1.39
   1   5 -12    1.61    1.05
   1   5 -12    0.74    1.10
  -1   5 -12    0.68    0.34
  -1   5 -12    1.81    1.15
   1   5 -13    8.60    1.31
  -1   5 -13    1.86    0.38
  -1   5 -13    9.91    1.63
   1   5 -13    2.79    1.34
   1   5 -14    1.46    1.05
   1   5  14   -0.88    4.34
  -1   5 -14    1.06    1.41
  -1   5  14    1.53    2.83
  -1   5 -14    0.11    0.34
   1   5 -14    0.24    1.39
   1   5 -15   18.99    1.69
   1   5  15   25.61    5.88
  -1   5 -15   21.82    2.21
  -1   5  15   20.52    3.76
   1   5 -16    0.34    1.60
   1   5 -16    1.45    1.15
  -1   5 -16    2.94    1.65
  -1   5  16    3.11    3.44
  -1   5 -17    4.39    1.64
  -1   5  17    3.68    2.62
   1   5 -17    2.88    1.31
  -1   5 -18    3.33    1.66
   1   5 -18    2.40    1.40
   1   5 -19   15.17    1.94
  -1   6   0    0.23    0.56
   1  -6   0    0.17    0.25
   1  -6   0    0.23    0.33
  -1  -6   0    0.06    0.46
  -1   6  -1    0.29    0.54
  -1  -6   1    0.35    0.45
   1  -6  -1    0.65    0.38
   1  -6   1    0.08    0.31
   1  -6   1    0.39    0.35
  -1   6   1    1.11    0.72
   1  -6  -1    0.15    0.32
  -1  -6  -1    0.59    0.52
  -1  -6   2    7.98    0.57
   1   6   2   31.17    2.82
  -1  -6   2    7.92    0.74
  -1  -6  -2   15.80    1.11
   1  -6   2    6.59    0.78
  -1   6  -2   10.45    0.85
   1  -6  -2    3.34    0.64
  -1   6   2   25.09    1.69
   1  -6  -2    7.53    0.74
  -1  -6   3    0.72    0.40
  -1   6  -3    0.61    0.47
   1  -6   3    0.35    0.45
  -1  -6   3    0.84    0.42
   1   6   3    0.72    1.47
  -1   6   3    0.38    0.93
  -1   6   3    0.55    0.63
  -1   6  -3    0.37    0.78
  -1  -6  -3    0.11    0.44
  -1   6  -4   20.11    0.77
  -1  -6   4   21.03    1.49
  -1   6   4   43.07    2.02
  -1  -6  -4   31.94    1.51
  -1  -6   4   26.11    1.34
  -1   6  -4   31.78    1.61
  -1   6   4   83.81    3.27
   1   6   4   99.72    4.32
  -1   6  -5    0.15    0.73
  -1   6   5    0.50    0.77
  -1   6   5   -0.25    1.34
  -1  -6   5    0.36    0.51
  -1  -6  -5    0.22    0.54
   1   6   5   -0.17    1.58
  -1   6   6  129.30    4.53
  -1  -6  -6   42.02    2.02
   1   6   6  141.63    5.21
  -1   6   7    3.76    1.74
  -1  -6   7    0.72    0.93
   1   6  -7    1.05    0.89
  -1   6  -7    2.62    0.88
   1   6   7    1.81    1.94
  -1  -6  -7    1.44    0.76
  -1   6  -8   27.85    1.83
  -1   6   8   39.42    2.93
   1   6   8   46.91    3.97
   1   6  -8   27.34    1.74
  -1   6   9    2.22    1.44
   1   6  -9    2.28    1.04
  -1   6  -9    1.37    1.03
   1   6   9    1.69    2.38
  -1   6 -10   10.70    1.30
   1   6 -10    9.62    1.12
  -1   6  11    0.55    1.87
   1   6  11    0.90    3.24
   1   6 -11    2.69    1.14
  -1   6 -11    2.32    1.15
   1   6 -12    1.60    1.12
  -1   6 -12    3.99    1.43
  -1   6 -13    3.44    1.71
   1   6 -13    2.19    1.18
   1   6 -14    3.98    1.28
  -1   6 -14    5.29    1.87
   1   6  15    5.09    6.00
   1   6 -15    1.05    1.17
  -1   6  15    3.45    3.45
  -1   6 -15    2.55    1.89
   1   6 -16    5.02    1.39
  -1   6 -16    9.15    2.24
  -1   6  16    5.42    3.14
   1   6 -17    2.19    1.35
  -1   6 -17    3.23    2.05
   1   6 -18    1.93    1.45
   1  -7   0    2.16    0.51
  -1   7   0    1.35    1.04
  -1  -7   0    0.74    0.64
   1  -7   0    0.61    0.40
  -1  -7   1   79.94    2.31
   1  -7   1   27.53    1.44
  -1   7  -1   94.46    2.78
   1  -7  -1   72.55    2.10
   1  -7  -1   36.68    1.82
   1  -7   1   34.84    1.74
  -1  -7  -2    3.71    0.82
   1  -7  -2    3.95    0.68
   1  -7  -2    7.52    0.79
  -1  -7   2    2.10    0.51
  -1   7   2   14.78    1.74
  -1   7  -2    8.87    0.76
   1  -7   2    9.86    0.93
   1   7   3  150.60    5.58
  -1  -7   3   61.36    2.06
  -1  -7  -3   60.00    2.40
  -1   7   3  126.05    4.19
   1  -7   3   49.37    2.06
   1  -7  -3   46.06    1.97
  -1   7  -3   66.33    1.83
   1  -7  -3   27.02    1.96
  -1   7   4    1.01    0.67
  -1  -7  -4    1.36    0.74
  -1   7   4    3.55    1.55
  -1  -7   4    2.99    1.06
  -1   7  -4    3.79    1.19
  -1  -7   4    1.83    0.57
   1   7   4    1.33    2.11
  -1   7  -4    1.09    0.35
  -1  -7  -5    0.77    0.76
  -1   7   5    0.66    1.40
  -1  -7   5    0.30    0.55
  -1   7  -5    0.71    0.93
   1   7   5   -1.33    2.15
  -1   7   5    0.05    0.85
  -1  -7  -6    0.74    0.75
   1   7   6   -1.41    2.36
  -1  -7   6    0.07    0.65
  -1   7   6   -0.09    1.31
  -1   7  -6    0.58    0.94
   1   7  -7   10.45    1.71
  -1   7   7    7.67    1.58
  -1   7  -7    9.50    1.27
   1   7   7   12.13    2.93
  -1  -7   7   11.28    1.47
   1   7   8    3.56    2.67
   1   7  -8    1.84    1.25
  -1   7   8    3.46    1.62
  -1   7  -8    2.63    0.92
  -1  -7   8    1.97    1.56
   1   7  -9   58.34    2.79
  -1   7  -9   51.01    2.52
  -1   7   9   58.50    3.53
  -1   7 -10    4.20    1.20
   1   7  10    1.47    3.29
  -1   7  10    4.20    1.96
   1   7 -10    1.15    1.09
   1   7  11   15.82    4.31
   1   7 -11   10.38    1.52
  -1   7  11   12.14    2.78
  -1   7 -11   11.37    1.45
   1   7 -12    0.86    1.23
  -1   7  12    0.68    2.72
  -1   7 -12    3.06    1.34
   1   7  12    0.18    4.28
   1   7 -13   48.34    2.73
  -1   7 -13   47.38    2.77
  -1   7 -14    8.72    1.75
   1   7 -14    3.58    1.28
   1   7 -15    7.14    1.41
  -1   7 -15   11.13    1.88
  -1   7 -16    3.21    1.72
   1   7 -16    1.40    1.28
   1   7 -17    6.06    1.53
   1   7 -18    0.64    1.35
   1  -8   0   18.58    1.00
   1  -8   0    6.52    0.81
   1  -8  -1    2.18    0.55
   1  -8   1    2.59    0.60
   1  -8  -1    2.97    0.58
   1  -8   1    1.46    0.52
  -1   8  -1    4.86    0.90
  -1   8   1    4.97    1.06
  -1  -8   2   67.48    2.32
  -1   8   2   90.77    3.03
   1  -8  -2   41.84    1.77
   1  -8  -2   25.04    1.60
  -1   8  -2   87.27    2.58
   1  -8   2   47.21    2.08
  -1   8  -3    3.14    0.64
   1  -8  -3    1.67    0.58
  -1  -8   3    2.40    0.63
   1  -8  -3    3.47    0.71
  -1   8   3    4.66    1.26
   1  -8   3    5.37    0.79
  -1  -8   4    0.37    1.30
   1  -8  -4    0.76    0.57
  -1  -8   4    1.05    0.58
  -1  -8   4    0.34    0.24
  -1   8   4    0.82    0.75
  -1   8   4    1.04    1.19
   1  -8  -4   -0.40    0.57
   1   8   4   -0.58    2.52
  -1  -8   5    1.13    0.67
  -1   8  -5   -0.40    1.61
  -1   8   5    0.33    1.34
   1   8   5   -2.47    2.76
   1  -8  -5    1.02    0.67
  -1   8   5   -0.30    1.00
  -1  -8   6    3.54    0.85
  -1   8  -6    6.36    1.50
   1   8   6    5.96    3.10
  -1   8   6    6.22    1.60
  -1   8   6    1.25    1.23
  -1   8   7    0.04    1.57
   1  -8   7    0.28    1.39
  -1  -8   7    0.47    0.91
  -1   8  -7   -0.57    1.08
   1   8   7    1.40    3.07
  -1   8   8    3.66    1.82
  -1  -8   8    4.03    1.45
   1   8   8    5.65    3.57
  -1   8  -8    2.30    1.22
  -1   8  -9    0.44    1.18
   1   8  -9   -0.14    1.69
  -1   8   9    3.55    2.22
   1   8   9    3.61    3.87
   1   8 -10   22.36    2.27
  -1   8  10   26.37    3.45
  -1   8 -10   20.03    1.90
   1   8 -11    0.41    1.48
  -1   8  11    0.18    2.76
  -1   8 -11    0.25    1.05
   1   8  11   -1.93    4.29
  -1   8  12    4.92    3.24
  -1   8 -12    1.80    1.17
   1   8 -12    1.74    1.48
   1   8  12    3.44    4.83
   1   8 -13    0.78    1.35
   1   8  13    0.75    5.43
  -1   8 -13    4.59    1.64
  -1   8  13    7.23    3.67
   1   8 -14   19.10    2.12
  -1   8 -14   21.06    2.17
   1   8 -15    0.67    1.51
  -1   8 -15    1.38    1.62
   1   8 -16    1.66    1.61
   1  -9   0   -0.43    0.47
  -1   9   0   -0.32    1.19
   1  -9   0    0.02    0.38
   1  -9  -1    0.31    0.35
   1  -9  -1    0.19    0.51
  -1   9   1    0.56    1.22
  -1   9  -1    0.53    1.07
   1  -9   1    0.27    0.48
   1  -9   2    0.50    0.60
  -1   9  -2    1.46    0.76
  -1  -9   2    0.64    0.54
   1  -9  -2    1.11    0.56
   1  -9  -2    0.25    0.43
   1  -9  -3    4.48    0.75
  -1   9  -3   12.27    1.23
   1  -9   3   10.76    1.07
   1  -9  -3    9.91    0.94
  -1  -9   3   17.59    1.25
   1  -9  -4    1.91    0.65
  -1  -9   4    0.55    0.67
  -1  -9   4    0.66    0.30
   1  -9  -4    0.38    0.47
  -1   9   4    1.51    0.91
  -1   9   5    7.05    1.53
   1  -9  -5    1.38    0.68
  -1  -9   5   14.12    1.22
  -1   9   5   13.96    2.12
  -1  -9   5   17.23    1.20
   1  -9  -5    4.26    0.86
   1  -9  -6    0.61    0.66
  -1   9   6    1.02    1.96
   1   9   6   -1.42    3.30
  -1   9   6    0.21    1.27
  -1   9  -7   32.61    2.90
   1   9   7   38.47    5.06
  -1  -9   7   16.70    1.67
   1  -9  -7    6.36    1.05
  -1   9   7   29.81    3.15
   1  -9   7   16.74    2.32
   1   9   8    0.83    3.94
  -1  -9   8    0.57    1.35
  -1   9   8    5.03    2.57
   1  -9  -8    1.01    0.75
  -1   9  -8    2.62    1.64
   1   9   9   13.62    4.64
  -1   9  -9    5.50    1.68
  -1   9   9   11.47    3.16
  -1   9  10    1.42    2.90
  -1   9 -10   -0.63    1.40
   1   9  10   -0.68    4.64
   1   9  11   -1.23    5.55
  -1   9 -11    0.99    1.40
  -1   9  11    3.33    3.20
   1   9 -12   -2.06    2.21
  -1   9 -12    0.09    1.55
   1   9  12   -3.47    6.11
  -1   9  12    1.09    3.50
  -1   9 -13    0.82    1.59
   1   9 -13   -2.11    2.31
  -1   9  13    2.00    3.17
  -1   9 -14    0.24    1.69
   1   9 -14   -2.36    2.26
   1   9 -15   -0.57    2.24
   1 -10   0    0.02    0.57
   1 -10   0    0.20    0.45
  -1  10   0    0.61    0.96
  -1  10  -1    0.64    1.21
  -1 -10   1   -0.07    0.50
   1 -10  -1    0.43    0.47
   1 -10   1    0.44    0.45
  -1  10   1    1.25    1.55
   1 -10  -1    0.11    0.50
   1 -10  -2    2.76    0.59
   1 -10   2    9.73    1.47
   1 -10  -2    4.95    0.80
  -1 -10   2    8.97    0.95
  -1  10  -2    8.62    1.52
   1 -10  -3    1.28    0.63
   1 -10  -3    0.81    0.50
  -1 -10   3    0.64    0.41
  -1 -10   3    0.84    0.67
   1 -10  -4    5.27    0.85
  -1 -10   4   13.90    0.69
   1 -10  -4   13.78    1.20
  -1  10   4   24.48    1.84
  -1 -10   4   19.84    1.93
  -1  10   5    2.39    2.28
   1 -10  -5    0.95    0.69
  -1  10   5    3.11    1.57
  -1  10   6    3.59    2.48
   1 -10  -6    0.19    0.62
  -1  10   6    0.48    1.44
  -1  10   7    5.31    2.79
   1 -10  -7    1.95    0.80
   1  10   8   11.93    1.06
  -1  10   8   65.42    4.75
  -1  10  -9    3.25    2.15
  -1  10   9    6.38    3.28
  -1  10 -10    2.20    2.09
  -1  10  10    1.43    3.27
  -1  10 -11    0.04    1.88
  -1  10  11    0.17    2.85
  -1  10 -12    3.61    2.17
  -1  10  12    4.92    2.77
  -1  11   0    0.53    1.59
  -1  11   1    2.23    1.89
   1 -11  -1   -0.31    0.67
  -1  11  -1    1.53    1.71
  -1 -11   1    1.57    0.57
  -1 -11   2    0.44    0.45
  -1  11   2    1.24    1.65
   1 -11  -2   -0.38    0.60
   1 -11  -3    0.35    0.69
  -1  11   3    0.62    1.48
  -1 -11   3    0.07    0.39
  -1  11   3   -0.68    1.53
  -1  11   4    0.29    1.71
  -1 -11   4    0.24    1.71
  -1  11   4    0.26    1.36
   1 -11  -4    0.23    0.60
  -1  11   5    2.24    2.11
   1 -11  -5    0.06    0.68
  -1  11   5    1.20    1.63
  -1  11   6    0.51    2.22
  -1  11   6   -1.08    1.72
  -1  11   7    3.60    2.31
   1  11   7    1.62    1.15
  -1  11   8   -0.19    2.35
   1  11   8   -1.37    1.04
  -1  11   9   -0.09    2.41
  -1  11  10    0.11    2.75
  -1 -12   0    1.15    0.60
  -1 -12   1    2.30    0.60
   1 -12  -1   -0.58    0.77
  -1  12   1    0.63    2.40
  -1 -12   2    4.94    0.63
   1 -12  -2    3.83    0.91
  -1  12   2   22.22    2.46
  -1  12   2   25.16    3.29
  -1  12   3    3.60    1.57
  -1  12   3    2.11    2.27
   1 -12  -3    0.14    0.61
  -1 -12   3    0.97    0.66
  -1  12   4    7.68    2.77
   1 -12  -4    0.95    0.74
  -1  12   4    4.43    2.30
  -1  12   5   -0.17    2.76
  -1  12   5    0.84    1.76
  -1  12   6    1.05    3.02
  -1  12   7   -0.46    3.20
  -1  12   8   21.32    4.30
  -1  12   9    1.74    3.75
  -1  13   1    5.27    2.09
  -1 -13  -2    0.65    0.68
  -1  13   2    1.84    1.92
   1 -13  -2   -0.75    0.90
  -1  13   3    4.05    1.93
  -1  13   3    1.80    3.25
   1 -13  -3   -0.19    0.90
  -1 -13  -3    1.74    0.79
  -1  13   4    0.33    2.34
  -1  13   4   -0.07    3.49
  -1  13   5    4.22    3.53
  -1  13   6   -2.28    3.60
  -1  13   7   10.87    4.19
  -1  14   0    1.13    2.33
  -1  14   1    0.98    2.24
  -1  14  -1    1.99    2.32
  -1  14   2    3.92    2.03
  -1  15   0   -0.22    2.22
  -2   0   0  721.43   14.29
  -2   0   1   46.73    1.78
   2   0  -1   33.08    1.73
   2   0  -2  238.26    5.88
  -2   0   2  241.83    5.22
   2   0  -3   44.33    1.76
   2   0   4  762.68   12.50
  -2   0  -4  474.23   12.95
   2   0  -5   57.69    2.15
  -2   0  -5   53.14    2.63
  -2   0  -6  109.08    3.61
   2   0  -6  141.45    3.11
  -2   0  -7   21.33    1.58
  -2   0  -7   10.48    0.89
  -2   0  -8   56.53    2.48
  -2   0  -8   79.01    3.25
  -2   0  -9    2.00    0.50
  -2   0  -9    3.63    1.04
   2   0  -9    2.82    0.58
  -2   0 -10    4.43    0.72
   2   0 -10    7.34    0.79
  -2   0 -10    6.42    1.22
  -2   0 -11    2.42    1.08
   2   0 -11    2.48    0.59
  -2   0 -11    2.14    0.65
  -2   0 -12    3.13    0.65
  -2   0 -12    3.70    1.12
   2   0 -12    4.41    0.72
  -2   0 -13   -0.11    0.94
  -2   0 -13    0.90    0.46
   2   0 -13    0.02    0.51
   2   0 -14   14.50    1.20
  -2   0 -14   11.85    1.23
   2   0 -15    5.90    0.95
  -2   0 -15    7.43    1.62
  -2   0 -16    8.25    1.68
   2   0 -16   22.41    1.70
  -2   0 -17    0.48    1.08
  -2   0  17   22.29    2.99
  -2   0  18   18.75    3.13
  -2   0  19    0.89    2.28
  -2   0  20   15.23    3.65
  -2   0  21    1.37    3.78
  -2   1   0    2.18    0.60
   2  -1   0    2.92    0.74
  -2   1   0    1.49    0.35
  -2   1   1   24.84    0.67
   2  -1   1   24.83    1.43
   2   1  -2   42.65    2.04
  -2   1   2   37.49    1.27
   2  -1  -2   32.65    0.82
  -2   1  -2   29.31    1.75
  -2   1  -3  688.50   14.57
  -2  -1   3  694.99   12.69
  -2   1  -4   47.52    2.33
   2  -1  -4   30.37    1.51
  -2  -1   4   72.99    1.73
   2   1  -4   47.02    2.11
   2   1  -4   48.29    1.13
   2   1   4   74.00    2.36
   2   1  -5   70.21    2.66
   2  -1  -5   66.74    2.41
  -2   1  -5  102.73    3.80
  -2  -1   5  135.32    2.41
   2   1  -5  111.23    2.03
  -2  -1  -5   20.14    2.14
   2   1   5  147.26    3.03
   2   1  -6   21.38    0.83
   2  -1  -6   11.34    0.82
  -2   1  -6    1.10    0.68
  -2  -1   6   24.32    1.00
  -2   1  -6   14.15    1.26
  -2  -1  -6    4.46    0.72
  -2   1  -7   13.33    1.19
  -2  -1  -7   20.00    1.45
   2   1  -7   38.43    1.59
  -2   1  -7   41.59    2.09
   2  -1  -7   41.10    1.60
   2  -1  -8   34.25    1.50
  -2  -1  -8   30.07    1.96
  -2   1  -8    5.88    0.79
   2   1  -8   11.24    0.90
  -2  -1  -8   22.50    1.39
   2   1  -8   21.94    1.40
  -2   1  -8   12.55    1.21
   2   1  -9   86.98    2.58
  -2  -1  -9   35.61    1.78
   2  -1  -9   87.74    2.62
  -2  -1  -9   46.54    2.55
  -2   1  -9   38.19    1.71
  -2   1  -9   72.28    2.84
  -2   1 -10    2.31    0.53
  -2  -1  10   15.49    1.53
   2  -1 -10    3.62    0.73
  -2  -1 -10    2.17    0.89
  -2   1  10   11.53    1.49
  -2  -1 -10    1.25    0.63
   2   1 -10    7.53    0.89
  -2   1 -10    4.00    0.93
  -2  -1 -11    1.83    0.93
  -2  -1 -11    2.15    0.65
  -2  -1  11   10.30    1.14
  -2   1  11   10.21    1.21
  -2   1 -11    2.00    0.64
   2  -1 -11    3.53    0.75
  -2   1 -11    3.00    0.89
   2   1 -11    3.40    0.73
  -2   1 -12    1.06    0.83
  -2   1  12    0.41    1.31
   2  -1 -12   -0.09    0.53
  -2  -1 -12    0.07    0.84
   2   1 -12   -0.12    0.59
  -2  -1 -12    0.04    0.43
  -2   1 -12    0.62    0.47
  -2  -1  12    1.49    1.21
  -2   1 -13    3.78    1.12
   2  -1 -13    3.80    0.81
  -2   1 -13    3.46    0.66
   2   1 -13    6.12    0.97
  -2  -1 -13    2.46    0.59
  -2  -1 -13    1.78    0.96
  -2   1  13   27.10    2.52
  -2  -1  13   29.26    2.37
   2   1 -14   14.95    2.44
   2  -1 -14    3.82    0.84
  -2  -1 -14    2.26    0.73
  -2   1 -14    7.82    1.00
  -2   1 -14   10.44    1.78
  -2   1  14   17.53    2.41
  -2  -1 -14    2.46    1.10
   2   1 -14    5.87    1.01
  -2   1 -15   18.13    2.44
   2   1 -15   98.32    3.99
  -2  -1  15  133.05    3.97
   2   1 -15   30.25    1.89
   2  -1 -15   20.54    1.54
  -2   1  15  132.91    4.28
  -2  -1 -15    7.58    1.55
  -2   1  16   10.40    2.11
   2   1 -16    2.09    0.90
   2  -1 -16    1.59    0.69
  -2  -1  16   15.23    2.41
  -2  -1 -16    0.08    0.94
   2   1 -16    8.40    2.03
  -2   1 -16    2.68    1.41
   2   1 -17    8.81    2.01
   2   1 -17    3.00    0.95
  -2   1  17   24.65    3.17
  -2  -1  17   23.82    2.91
  -2   1 -17    0.96    1.13
  -2   1  18    2.32    2.71
   2   1 -18   -1.20    1.78
  -2  -1  18    1.87    1.93
  -2   1 -18   -0.15    1.05
  -2  -1  19   10.70    3.20
  -2   1  19   18.31    3.13
  -2   1  20    2.62    3.57
  -2  -1  20    3.03    3.32
   2  -2   0  391.46    7.88
   2  -2   0  355.01    8.52
  -2   2   1   99.39    2.43
   2  -2  -1   88.79    2.89
   2  -2  -1   83.31    2.03
   2  -2   1   82.16    2.68
  -2   2  -1   77.25    2.26
   2  -2   1   66.07    2.59
  -2   2  -2  503.22   10.23
   2  -2  -2  552.36    9.86
  -2   2   2  459.39    8.54
   2  -2  -2  377.07    8.18
  -2   2  -2  409.05    8.91
  -2   2   3   18.27    0.89
  -2   2  -3   18.87    1.44
   2   2  -3   16.02    1.42
  -2  -2   3   19.71    0.66
  -2  -2  -4   17.90    1.77
   2  -2  -4   39.90    1.82
  -2  -2   4   75.34    1.60
   2   2  -4   91.18    1.99
  -2   2  -4   57.82    2.38
   2   2  -4   61.52    2.59
   2  -2  -5    3.16    0.50
  -2  -2   5    5.88    0.46
   2   2  -5    4.57    0.39
   2   2   5    5.15    0.85
  -2   2  -5    4.78    0.91
   2   2  -5    4.05    0.87
   2   2  -6   29.58    1.78
  -2  -2   6   58.66    1.35
  -2   2  -6   52.62    2.51
  -2  -2  -6    8.47    1.07
   2   2   6   36.18    1.41
   2  -2  -6   14.85    1.11
   2   2  -6   46.96    1.30
   2   2  -7    1.22    0.53
   2  -2  -7    2.04    0.54
  -2   2  -7    0.98    0.73
   2   2  -7    0.49    0.48
  -2  -2  -7    1.08    0.57
  -2   2  -7   -0.18    0.44
   2   2  -8   52.28    2.27
  -2  -2  -8   26.84    1.60
  -2   2  -8   26.95    1.57
   2  -2  -8   56.76    2.05
  -2   2  -8   80.37    3.28
  -2  -2  -9    7.81    0.89
  -2   2  -9   20.81    1.83
  -2   2  -9    8.85    0.77
   2  -2  -9   17.61    1.18
  -2  -2  10  415.70    5.85
   2   2 -10  110.92    3.42
  -2   2  10  381.17    6.67
  -2   2 -10   62.87    2.82
   2  -2 -10   95.89    3.33
  -2   2 -10  123.98    4.61
  -2  -2 -10   62.76    3.27
   2   2 -10  238.63    4.17
  -2   2  11   45.56    2.21
  -2  -2 -11    7.13    1.03
  -2  -2  11   40.35    1.64
   2  -2 -11   13.41    1.14
  -2   2 -11   13.39    1.15
   2   2 -11   18.90    1.35
  -2   2 -11   20.03    1.93
   2   2 -11   39.16    1.82
  -2   2 -12    8.26    0.75
   2  -2 -12   13.11    1.16
  -2   2 -12   18.24    1.92
  -2  -2 -12    6.17    0.83
  -2   2  12   74.17    3.39
   2   2 -12   45.04    2.05
  -2  -2  12   76.35    2.80
   2   2 -12   16.74    1.27
  -2   2 -13    4.50    1.33
   2   2 -13   22.58    1.78
   2  -2 -13    3.45    0.76
  -2  -2 -13    1.60    0.59
  -2   2  13   21.66    2.58
  -2  -2  13   19.80    1.97
  -2   2 -13    3.30    0.66
   2   2 -13    5.54    0.91
   2  -2 -14   11.60    1.25
  -2   2  14   81.64    4.01
  -2  -2 -14    8.84    1.18
  -2  -2  14   61.41    2.54
   2   2 -14   46.78    2.32
   2   2 -14   18.16    1.43
  -2   2 -14   11.08    1.65
   2   2 -15    1.38    0.80
  -2   2 -15    1.65    1.01
  -2   2  15    4.32    1.84
   2   2 -15    4.27    1.37
  -2  -2  15    4.73    1.56
   2  -2 -15    0.68    0.73
   2   2 -16    3.06    0.99
  -2   2 -16    1.89    1.10
   2   2 -17    0.19    0.88
  -2   2  17   -0.09    2.51
   2   2 -17    0.85    1.23
  -2  -2  17    5.01    2.15
  -2   2 -17    0.66    1.41
  -2   2 -18   -0.07    1.36
   2   2 -18    1.95    1.28
  -2  -2  18    2.19    2.53
  -2  -2  19   -0.31    2.79
  -2   2  19    2.88    3.07
  -2   2 -19    0.12    1.25
  -2   3   0   65.12    1.83
   2  -3   0   63.71    1.83
  -2   3   1  200.93    5.10
   2  -3   1  163.99    4.16
   2  -3  -1  159.10    3.57
   2  -3   1  201.02    4.21
  -2   3   1  159.21    3.63
   2  -3  -1  150.70    4.05
  -2   3  -1  154.69    3.68
   2  -3   2  106.83    3.45
  -2  -3   2   97.43    2.41
  -2  -3   3  295.75    4.65
   2  -3  -3  133.86    4.68
  -2  -3   3  361.59    6.40
  -2   3  -3  300.46    6.68
  -2   3  -3  251.78    4.96
   2  -3  -3  158.48    5.14
  -2   3  -4    1.33    0.68
  -2   3  -4    7.61    1.27
   2  -3  -4    0.66    0.49
  -2  -3   4    3.09    0.73
  -2  -3   4    8.80    0.76
   2   3  -5    4.21    0.60
  -2   3  -5    3.36    0.92
  -2  -3   5    3.49    0.52
  -2  -3   5    3.72    0.47
   2   3  -5    2.28    0.86
   2   3  -6    7.05    0.69
  -2  -3   6    6.82    0.51
   2  -3  -6    4.70    0.65
   2   3   6    7.03    0.96
  -2  -3  -6    3.27    0.70
   2   3  -6    4.42    0.94
  -2   3  -7    0.24    0.48
  -2   3  -7    2.79    1.37
   2   3  -7    4.60    1.05
   2  -3  -7    2.26    0.56
   2   3   7    2.24    0.58
  -2  -3  -7    0.75    0.42
   2   3  -7    3.15    0.58
   2  -3  -8   10.47    0.99
   2   3  -8    9.55    1.31
  -2  -3  -8    4.46    0.66
  -2   3  -8    3.02    0.52
  -2   3  -9  111.93    3.17
   2  -3  -9  103.88    3.67
  -2   3  10   53.65    2.43
  -2  -3 -10   10.91    1.30
  -2  -3  10   58.38    1.97
  -2   3 -10   14.90    1.11
   2   3 -10   75.03    2.76
   2   3 -10   15.83    1.54
   2  -3 -10   19.89    1.43
  -2   3 -11   33.60    1.66
  -2   3  11  159.69    4.54
  -2  -3  11  154.71    3.21
   2   3 -11   34.67    2.15
  -2  -3 -11   20.96    1.71
   2  -3 -11   38.55    2.07
   2   3 -11  126.65    2.96
  -2   3 -12    2.76    0.53
   2  -3 -12    3.74    0.80
  -2   3  12   18.78    2.37
   2   3 -12    1.67    0.86
  -2  -3  12   17.60    1.63
  -2  -3 -12    1.52    0.49
   2   3 -12   12.01    1.10
  -2  -3  13   48.29    2.00
   2  -3 -13   19.19    1.51
   2   3 -13    9.37    1.41
   2   3 -13   41.08    1.88
  -2  -3 -13   15.89    1.45
   2   3 -14    1.10    1.07
   2   3 -14    5.41    1.15
  -2  -3 -14    1.68    0.71
  -2   3 -14    1.67    1.22
  -2   3  14    8.76    2.31
  -2  -3  14    6.48    1.32
   2  -3 -14    1.22    0.66
   2   3 -15    8.47    1.57
  -2  -3  15   59.40    2.98
  -2   3 -15   10.17    1.96
  -2   3 -15   51.72    4.63
   2   3 -15   37.69    2.02
  -2   3 -16    5.73    2.90
  -2   3 -16    1.62    1.31
   2   3 -16    2.41    1.33
  -2  -3  16    3.26    1.68
   2   3 -16    7.10    1.39
  -2   3  16    0.72    1.97
  -2  -3  17    0.78    2.10
  -2   3  17    1.78    2.77
   2   3 -17   -0.45    1.28
  -2   3 -17   -0.43    1.06
  -2   3 -17   -1.99    2.65
   2   3 -17    1.18    1.09
  -2   3 -18   -0.21    1.15
  -2   3 -18   -1.74    2.67
   2   3 -18   -1.02    1.38
   2   3 -18    2.65    1.27
  -2   3  18    1.06    2.98
  -2  -3  18    0.53    2.47
  -2   3 -19    0.08    1.62
  -2   3  19   12.13    3.60
  -2   4   0    3.01    0.42
  -2   4   0    4.50    0.95
   2  -4   0    4.17    0.57
  -2   4   1    0.96    0.68
   2  -4   1    1.32    0.46
  -2   4   1    1.55    0.49
   2  -4   1    1.03    0.38
   2  -4  -1    0.43    0.28
  -2   4  -1    2.01    0.36
   2  -4  -1    0.21    0.37
  -2  -4  -1    0.93    0.74
   2  -4  -2   68.06    2.32
  -2   4  -2   99.34    2.38
  -2   4   2  121.22    3.70
  -2  -4  -2   72.46    2.88
   2  -4   2  134.50    3.32
   2  -4   2   90.88    2.66
   2  -4  -2   67.66    2.52
  -2  -4   3   15.31    0.74
   2  -4  -3    8.46    0.76
  -2  -4   3   18.96    1.63
  -2   4  -3   16.72    0.81
   2  -4  -3   11.92    0.83
   2  -4   3   25.44    1.76
  -2  -4  -3    7.15    0.78
  -2  -4   4  347.66    7.03
  -2  -4   4  262.90    5.74
  -2  -4   5   42.10    1.44
  -2   4  -5   58.09    2.05
  -2   4  -6   37.68    1.69
   2   4  -6   95.25    2.58
  -2  -4   6   93.17    1.71
   2  -4  -6   26.72    1.50
  -2  -4   6  101.85    2.75
  -2   4  -6   87.16    2.67
   2   4  -7   24.05    1.26
  -2   4  -7    3.46    0.69
   2   4  -7   15.83    1.72
   2   4   7   23.01    1.17
   2  -4  -7    5.16    0.54
  -2  -4  -7    6.34    0.75
   2  -4  -7   10.60    0.99
  -2   4  -7   26.59    1.60
   2   4  -8  165.95    2.99
   2  -4  -8   49.23    1.90
   2  -4  -8   73.69    2.65
   2   4  -8   84.68    3.50
  -2   4  -8   40.94    1.79
  -2  -4  -8   50.77    2.60
  -2   4  -8  167.52    4.17
   2   4  -9    7.01    0.97
  -2   4  -9    3.63    0.46
  -2  -4  -9    1.38    0.75
   2  -4  -9    4.65    0.79
   2   4  -9    6.31    1.43
   2  -4  -9    0.76    0.44
  -2   4 -10   60.98    3.24
   2   4 -10   23.58    2.09
   2  -4 -10   25.73    1.22
  -2   4 -10   21.65    1.27
   2  -4 -10   42.40    2.03
  -2  -4  10   50.36    1.51
  -2  -4 -10   39.06    2.17
   2   4 -10   56.46    1.99
  -2   4 -11    0.28    0.31
   2   4 -11    0.30    1.07
  -2  -4 -11    0.15    0.41
   2   4 -11    2.06    0.91
   2  -4 -11    0.58    0.63
  -2  -4  11    1.56    0.93
   2  -4 -11    0.14    0.29
  -2   4 -11    1.02    1.64
  -2   4 -12    1.42    1.75
  -2  -4  12    3.73    0.86
   2   4 -12    2.84    0.96
   2   4 -12    0.67    1.13
  -2  -4  13    5.14    1.17
  -2  -4 -13    1.56    0.67
  -2   4 -13    2.21    1.96
   2   4 -13    4.05    0.98
   2   4 -13    1.17    1.32
  -2   4  13    4.84    2.40
   2  -4 -13    0.25    0.66
  -2   4  14   63.23    3.56
  -2  -4  14   69.46    2.79
  -2   4 -14   53.48    3.66
   2   4 -14   47.37    2.14
   2   4 -15    7.64    1.23
  -2   4 -15    3.15    1.55
  -2   4 -15   10.36    2.56
  -2   4  15   13.73    2.39
   2   4 -15    2.65    1.82
  -2  -4  15   11.43    1.54
  -2   4 -16   59.04    3.90
  -2   4 -16    9.74    2.12
   2   4 -16   11.03    2.35
  -2   4  16   68.25    4.06
  -2  -4  16   68.18    3.11
   2   4 -16   49.85    2.28
  -2   4 -17    3.31    1.64
  -2   4  17    7.65    3.23
   2   4 -17    4.94    2.23
  -2  -4  17    9.28    2.62
  -2   4 -17   10.99    2.52
   2   4 -17   10.31    1.50
   2   4 -18    5.61    1.42
  -2   4 -18    1.46    1.22
  -2   4 -18    3.56    2.20
  -2   4  18    7.63    3.52
  -2   4 -19    0.83    1.27
  -2  -5   0   12.40    1.10
  -2   5   0   13.59    1.26
   2  -5   0   12.11    0.79
  -2  -5  -1    7.50    0.74
  -2   5  -1   22.01    1.31
   2  -5  -1    3.75    0.59
   2  -5   1    9.57    0.76
  -2   5  -1   17.27    1.49
  -2   5   1   18.48    1.68
   2  -5  -1    6.72    0.63
  -2  -5   1   13.43    1.16
   2  -5  -2    3.23    0.50
  -2  -5   2    6.95    0.74
  -2   5   2    6.70    1.08
   2  -5   2    6.30    0.80
  -2   5  -2    7.95    0.58
  -2  -5  -2    5.22    0.85
   2  -5  -2    4.89    0.67
   2  -5   2    7.35    0.80
  -2  -5   3  251.20    4.14
   2  -5  -3   87.20    3.68
  -2  -5   3  252.20    5.78
   2  -5  -3  123.11    3.85
  -2   5   3  248.92    5.62
   2  -5   3  247.43    5.53
  -2   5  -3  176.36    3.54
  -2  -5  -3  154.93    4.53
  -2  -5   4   65.85    2.75
   2  -5  -4   42.34    1.90
  -2   5  -4   51.46    1.37
  -2  -5  -4   29.09    1.70
   2  -5   4   95.91    3.82
  -2  -5   4   65.90    1.89
  -2  -5   5  247.69    4.16
  -2  -5  -5   94.07    3.77
   2  -5  -5  116.40    3.86
  -2   5  -5  132.20    3.32
  -2  -5   5  222.22    4.30
  -2   5  -5  280.82    4.78
  -2   5   6   77.15    3.15
  -2  -5   6   42.52    1.16
  -2  -5   6   38.28    1.67
  -2   5  -6   81.59    2.90
  -2   5  -7  130.62    3.11
  -2  -5   7  137.85    3.50
   2   5  -8   22.55    1.48
  -2   5   8   31.01    2.09
   2   5   8   22.32    0.92
  -2   5  -8   30.87    1.82
   2   5  -9   87.31    2.75
  -2  -5  -9   37.79    2.27
  -2   5  -9   33.24    1.52
  -2   5  -9   93.19    3.24
  -2  -5   9   82.15    1.81
   2  -5  -9   48.09    2.31
   2   5 -10    5.74    1.56
   2   5 -10    4.99    1.06
  -2  -5 -10    0.32    0.48
   2  -5 -10   -0.11    0.55
  -2   5 -10    1.79    1.15
  -2   5 -10    7.67    0.53
   2   5 -11    3.44    0.85
   2   5 -11    4.00    1.60
  -2   5 -11    2.75    1.19
  -2  -5 -11    1.45    0.58
  -2  -5  11    3.91    0.70
   2  -5 -11    1.35    0.65
   2   5 -12    3.58    1.52
  -2  -5 -12    1.32    0.63
  -2  -5  12    5.41    1.02
   2  -5 -12    1.43    0.71
  -2   5 -12    6.74    1.55
   2   5 -12    4.87    1.14
   2   5 -13    8.16    1.29
   2   5 -13    4.58    1.63
  -2  -5  13    7.26    1.02
  -2   5 -13    7.50    1.64
  -2   5  13    7.74    2.38
   2   5 -14    7.25    1.32
  -2   5 -14   10.55    1.87
  -2  -5  14    8.53    1.49
   2   5 -14    5.64    1.83
   2   5 -15  146.43    4.08
  -2   5 -15  139.73    4.82
  -2   5 -16    6.00    1.88
   2   5 -16    6.58    2.28
  -2   5  16   28.08    3.63
  -2   5 -16   20.77    2.19
   2   5 -16   15.43    1.62
  -2   5 -17   30.14    2.52
   2   5 -17   32.40    2.11
  -2   5 -18    0.71    1.46
   2   5 -18    4.36    1.43
   2  -6   0    4.86    0.69
   2  -6   0    9.27    0.79
  -2  -6   0   15.85    1.17
  -2   6   0   16.98    1.58
   2  -6   1    3.30    0.62
  -2  -6   1    3.64    0.73
   2  -6  -1    1.71    0.57
  -2  -6  -1    3.21    0.70
  -2  -6   1    3.46    0.73
  -2   6   1    4.34    0.93
   2  -6  -1    2.44    0.47
   2  -6  -2   36.43    1.90
  -2  -6  -2   84.87    2.60
  -2  -6   2  100.46    2.54
   2  -6   2   68.95    2.16
   2  -6  -2   54.29    2.20
  -2  -6   2   98.26    2.52
  -2   6   2  150.61    4.40
   2  -6   2   77.88    2.53
   2  -6  -3   10.60    0.90
  -2   6   3   12.23    1.47
  -2  -6  -3    9.17    0.92
   2  -6   3   17.56    1.32
  -2  -6   3   13.28    0.92
  -2  -6   3    9.09    0.72
   2  -6  -3    5.45    0.66
  -2  -6  -4  109.09    3.30
  -2  -6   4  119.55    3.83
   2  -6  -4   98.57    3.16
   2  -6   4  103.32    3.86
  -2  -6   4  133.68    3.07
  -2  -6   4  123.80    2.98
  -2   6  -5   18.37    1.36
  -2  -6   5   11.87    1.42
  -2   6   5   20.40    1.86
   2  -6  -5    6.68    0.83
  -2  -6  -5    5.85    1.02
  -2  -6   5   14.81    1.03
  -2  -6   5   20.14    1.50
  -2   6  -6   25.86    1.54
  -2  -6  -6   56.08    2.54
  -2  -6   6   23.07    0.78
  -2  -6   6   27.53    1.30
  -2  -6   6   21.73    1.27
   2  -6  -6   46.63    2.04
  -2  -6  -7    2.34    0.80
  -2   6  -7    4.71    0.35
   2  -6  -7    2.67    0.73
  -2  -6   7    8.66    1.16
  -2   6   7    6.83    1.23
  -2   6  -7   12.56    1.32
  -2   6  -7    0.41    0.33
  -2  -6   8  104.08    4.00
   2   6  -8  128.70    3.89
   2   6   8   85.45    1.96
  -2   6  -8   35.63    1.14
  -2   6  -8   40.16    1.23
  -2  -6   8   70.06    1.22
  -2   6   8  113.62    3.90
  -2   6  -8   94.98    2.90
   2   6  -9    6.65    1.35
  -2   6  -9   15.01    1.63
  -2   6  -9    2.84    0.23
  -2   6   9   12.11    2.12
  -2   6  10   81.96    4.36
  -2   6 -10   93.58    4.18
  -2   6 -11    6.26    1.52
  -2   6  11    6.21    2.50
   2   6 -11    3.56    1.10
   2  -6 -11    0.59    0.66
  -2  -6 -11    1.05    0.63
   2   6 -12    5.15    1.29
  -2   6 -12    5.60    1.48
   2   6 -13    9.13    1.48
  -2   6 -13   10.32    1.60
   2   6 -14   45.01    2.53
  -2   6 -14   38.81    2.52
   2   6 -15    7.52    1.59
  -2   6  15   13.67    2.95
  -2   6 -15   12.23    1.87
   2   6 -16   34.08    2.18
  -2   6 -16   32.84    2.53
  -2   6 -17    1.82    1.59
   2   6 -17    3.16    1.33
  -2  -7   0   32.58    1.46
   2  -7   0   31.02    1.58
  -2  -7   1  145.46    3.77
  -2   7   1  196.26    4.76
  -2  -7  -1  175.05    3.77
  -2  -7   1  117.35    2.98
   2  -7  -1   62.10    2.73
   2  -7   1   93.60    3.38
   2  -7  -1   52.84    2.52
  -2  -7   2   27.94    1.26
   2  -7  -2   18.91    1.28
  -2  -7  -2   19.76    1.52
  -2  -7   2   22.06    1.30
  -2   7   2   28.89    2.17
   2  -7   2   28.79    1.55
  -2  -7   3   84.84    2.33
   2  -7  -3   26.61    1.72
  -2  -7   3   91.83    2.17
   2  -7   3   54.10    1.94
  -2  -7  -3   82.27    3.05
   2  -7  -3   44.25    2.00
  -2   7   3   86.14    3.26
   2  -7   3   64.00    2.52
   2  -7   4    1.33    0.89
  -2  -7   4    1.90    0.49
   2  -7  -4    0.18    0.40
  -2  -7  -4    0.48    0.78
   2  -7  -4    0.34    0.52
  -2   7   4   -0.22    1.14
  -2   7   4    0.55    0.99
  -2  -7   4    0.84    0.60
   2  -7   5    2.99    1.16
  -2  -7   5    6.18    0.98
  -2   7  -5    4.31    1.05
   2  -7  -5    2.00    0.62
  -2   7   5    4.56    1.06
   2  -7  -5    0.49    0.55
  -2  -7  -5    2.55    0.85
  -2  -7   5    7.62    0.57
  -2   7  -6    7.24    1.05
  -2  -7   6    2.32    0.75
  -2  -7  -6    1.53    0.78
  -2  -7   6    3.10    0.47
   2  -7  -6    2.75    0.72
  -2   7   6    6.62    1.45
  -2  -7   6    1.35    0.25
  -2  -7   7    2.34    0.90
  -2   7  -7    2.51    1.04
  -2  -7  -7    0.59    0.62
  -2   7   7    2.05    1.59
   2  -7  -7    1.46    0.69
  -2  -7   8    5.83    1.35
  -2   7   8   13.93    2.29
  -2  -7  -8    1.62    0.59
   2  -7  -8    3.29    0.84
  -2   7  -8   10.39    1.29
  -2  -7  -9   28.50    1.99
  -2   7   9  201.10    6.40
   2  -7  -9   37.54    2.18
  -2   7  -9  135.74    3.52
  -2   7  10   53.86    4.07
  -2   7 -10   45.24    2.50
   2   7 -11  102.56    4.12
  -2   7 -11   94.98    3.77
   2   7 -12   13.25    1.90
  -2   7  12   19.42    2.57
  -2   7 -12   17.49    1.86
  -2   7 -13   34.12    2.32
   2   7 -13   36.56    2.51
  -2   7  13   37.24    3.29
   2   7 -14    3.10    1.53
  -2   7 -14    7.53    1.56
   2   7 -15   19.60    1.99
  -2   7 -15   23.08    2.08
   2   7 -16    0.36    1.45
   2   7 -17    1.22    1.54
  -2  -8   0   83.80    3.15
  -2  -8   0  107.41    2.96
  -2   8   0  111.08    3.96
   2  -8   0   26.74    1.72
  -2   8   0  116.01    2.80
   2  -8   0   29.93    1.72
  -2  -8   1   11.67    1.08
   2  -8  -1    7.52    0.96
  -2  -8   1   16.07    1.21
  -2  -8  -1   14.91    1.32
  -2   8   1   19.48    1.83
   2  -8   1   16.97    1.62
  -2   8   1   21.27    1.39
  -2   8  -1   21.63    1.27
   2  -8  -1    6.30    0.74
  -2  -8   2  102.88    2.88
  -2  -8   2  146.15    3.09
   2  -8   2   42.99    1.83
  -2   8  -2  111.25    2.53
   2  -8  -2   27.57    1.83
  -2   8   2  123.21    3.42
   2  -8  -2   43.90    2.14
  -2  -8  -2   75.47    2.77
   2  -8   2   54.16    2.38
  -2   8   2   87.15    3.37
  -2  -8   3    9.55    0.98
  -2  -8   3    8.03    0.84
  -2   8  -3    8.95    0.83
  -2   8   3   13.64    1.58
   2  -8  -3    2.47    0.59
  -2  -8  -3    4.43    0.93
   2  -8  -3    4.50    0.74
  -2   8   3    7.99    1.55
  -2   8   4   39.56    2.53
  -2   8  -4   25.79    1.23
  -2  -8   4   22.95    0.92
  -2  -8   4   21.77    2.43
   2  -8  -4   10.46    1.04
  -2   8   4   17.51    1.93
   2  -8  -4    5.47    0.76
  -2  -8  -4   13.10    1.19
   2  -8   4   20.19    1.66
  -2  -8   4   25.77    1.41
  -2   8   5    0.38    1.51
  -2   8  -5    2.47    0.63
   2  -8  -5    0.44    0.62
  -2   8   5    0.71    1.33
   2  -8  -5    0.07    0.44
   2  -8   5    6.69    1.42
  -2  -8  -5    0.35    0.51
  -2  -8   5    8.13    1.11
  -2   8   6    2.28    1.75
  -2   8  -6    1.76    1.05
   2  -8  -6    0.14    0.51
  -2  -8   6    2.30    0.76
   2  -8  -6    1.04    0.62
  -2  -8  -6    0.59    0.56
  -2  -8  -7    1.09    0.75
  -2   8  -7    0.12    1.11
  -2  -8   7    0.38    0.80
   2  -8  -7    0.31    0.62
  -2   8  -8   56.31    2.60
  -2   8   8   69.11    4.24
  -2  -8  -8   13.34    1.43
  -2  -8   8   57.04    2.88
   2  -8  -8   13.05    1.35
  -2  -8  -9    6.99    1.23
   2  -8  -9    6.40    1.07
  -2   8 -10  105.47    3.97
  -2   8  10  100.73    4.62
  -2   8  11   22.68    2.75
  -2   8 -11   19.02    1.94
  -2   8  12   26.64    3.09
  -2   8 -12   23.84    2.10
   2   8 -13    2.26    1.97
  -2   8 -13    5.31    1.51
   2   8 -14   19.81    2.85
  -2   8  14   26.94    3.97
  -2   8 -14   19.46    2.03
   2   8 -15   -0.04    2.02
   2   8 -16    5.08    2.29
  -2  -9   0    0.29    0.67
  -2  -9   0    1.16    0.72
   2  -9   0    0.34    0.40
  -2   9   0    1.31    1.29
  -2   9   0    3.46    1.42
  -2  -9   1    2.19    0.75
  -2  -9  -1    2.66    0.80
  -2   9   1    4.48    1.47
   2  -9   1    0.69    0.65
   2  -9  -1    0.60    0.43
  -2  -9   1    1.71    0.65
   2  -9  -1   -0.55    0.63
  -2  -9  -1    1.65    0.86
  -2   9  -1    3.53    1.22
  -2   9   1    3.29    1.38
   2  -9  -2    0.98    0.44
  -2  -9  -2    3.74    0.89
  -2  -9   2    1.84    0.58
   2  -9   2    1.20    0.66
  -2   9   2    6.54    1.81
  -2  -9   2    2.99    0.81
   2  -9  -2    0.59    0.68
  -2   9  -2    5.04    1.19
   2  -9   2    1.39    0.63
  -2   9   2    6.48    1.49
   2  -9  -3   10.73    1.03
   2  -9   3   23.15    1.31
   2  -9  -3   22.23    1.48
  -2   9   3   62.92    3.38
  -2   9  -3   55.86    1.87
   2  -9   3   34.49    1.94
  -2  -9  -3   42.92    2.09
  -2  -9   3   61.52    2.16
  -2   9   4   30.80    2.76
  -2   9   4   10.68    1.88
   2  -9  -4    3.34    0.69
  -2   9  -4   10.70    0.85
   2  -9  -4    6.58    0.92
  -2  -9  -4    7.71    1.13
   2  -9   4   12.32    1.43
  -2  -9   4   26.14    2.68
  -2  -9   4   11.04    1.09
   2  -9  -5    7.90    1.02
  -2  -9  -5   26.83    1.81
  -2   9   5   93.58    4.43
  -2   9   5   44.09    2.79
   2  -9  -5   18.27    1.40
  -2   9  -5   33.00    1.24
   2  -9   5   45.41    2.86
  -2  -9   5   88.47    3.36
  -2  -9   5   61.50    2.73
  -2   9  -6   22.89    2.29
  -2  -9  -6   10.57    1.41
   2  -9  -6    2.63    0.74
  -2   9   6   32.45    3.23
   2  -9  -6    6.70    1.09
   2  -9   6   33.97    2.93
  -2  -9   6   17.33    1.39
  -2  -9  -7   17.47    1.66
  -2   9  -7   58.87    3.08
   2  -9  -7    5.99    1.10
   2  -9  -7   11.83    1.28
  -2   9   7   58.84    3.60
  -2  -9   7   36.80    1.96
  -2  -9   8   31.06    2.41
  -2   9   8   36.03    2.92
  -2   9   9   44.41    3.30
  -2   9  -9   41.90    2.64
  -2  -9   9   40.43    3.20
  -2   9 -10    4.10    1.58
  -2   9  10    2.80    2.15
  -2   9 -11    4.33    1.67
  -2   9  11    2.81    2.26
  -2   9  12    2.00    3.02
  -2   9 -12   -0.22    1.50
  -2   9  13    8.01    3.49
  -2   9 -13    3.14    1.46
  -2 -10   0    4.00    0.84
  -2  10   0    4.33    1.16
   2 -10  -1   -0.56    0.72
  -2  10  -1    2.60    1.61
  -2 -10   1    0.47    0.67
  -2 -10  -1    0.21    0.72
  -2  10   1    5.43    1.62
   2 -10  -1    0.46    0.46
   2 -10   1    0.43    0.52
  -2  10   1    3.58    1.19
  -2  10  -1    1.77    0.92
  -2 -10   2   12.22    1.17
  -2  10   2   16.08    1.71
   2 -10  -2    2.75    0.60
  -2  10  -2   13.77    1.26
  -2  10   2   14.15    2.07
   2 -10  -2    2.98    0.90
   2 -10   2    2.92    0.77
   2 -10  -3    2.49    0.63
   2 -10  -3    4.50    0.98
  -2 -10   3    4.59    0.83
   2 -10  -4   11.41    1.14
  -2  10   4   87.70    3.47
  -2 -10   4   63.97    3.37
   2 -10  -4   21.14    1.52
  -2  10   4   59.00    3.34
  -2  10  -4   32.47    1.33
  -2 -10   4   68.04    2.30
  -2 -10   5   19.94    2.29
  -2 -10   5    5.44    0.34
  -2  10   5   23.69    2.58
   2 -10  -5    7.58    1.00
  -2  10   5   33.90    2.60
   2 -10  -6   11.82    1.27
  -2  10   6   68.54    3.58
  -2  10  -7   17.25    2.49
  -2  10   7   21.62    2.55
  -2  10  -8   47.94    3.51
  -2  10   8   41.98    3.42
  -2  10   9    2.86    2.27
  -2  10  -9    0.51    1.76
  -2  10  10    4.72    2.84
  -2  10 -10    1.55    1.86
  -2  10  11    1.57    3.03
  -2  10 -11    1.96    1.75
  -2  11   0    7.09    1.70
  -2  11   0   10.40    2.19
  -2  11   1   11.35    1.90
  -2  11   1   16.46    2.08
  -2  11  -1   11.53    2.25
  -2  11  -1   12.25    1.72
  -2  11  -2    5.41    1.30
  -2  11   2   20.37    2.29
  -2  11   2   17.15    2.87
   2 -11   2    5.48    1.10
   2 -11  -2    0.98    0.76
  -2  11   3   27.60    2.77
  -2  11  -3   20.43    1.65
  -2  11   4    8.13    2.06
  -2 -11   4   11.93    2.56
   2 -11  -4    1.07    0.84
  -2 -11   4    0.73    0.42
  -2  11   4    3.54    2.06
  -2  11   5   14.37    2.40
  -2  11   5    7.71    2.31
  -2 -11   5   11.73    1.91
  -2  11   6    3.03    2.33
  -2  11   7    9.60    2.79
  -2  11   8    6.13    3.00
  -2  11   9   28.27    4.03
  -2  11  10    4.83    3.44
  -2  12   0   37.87    3.01
  -2  12   0   33.97    2.21
  -2  12   1   13.54    2.39
  -2  12  -1   15.02    2.76
  -2  12   1   14.20    2.24
  -2  12  -1   13.08    2.04
  -2  12   2   34.62    3.57
   2 -12   2   14.15    1.57
   2 -12  -2    3.34    1.03
  -2  12  -2   32.73    3.19
  -2  12   2   38.46    3.19
  -2  12   3    1.78    2.27
   2 -12  -3   -0.86    0.83
  -2  12   3    2.24    2.10
  -2  12   4    4.58    2.45
  -2  12   4   -1.30    2.36
  -2  12   5    2.21    2.53
  -2  12   5   -0.94    2.34
  -2  12   6    7.12    2.99
  -2  12   7    2.52    2.95
  -2  12   8   20.06    3.92
  -2  12   9    5.95    3.55
  -2  13   0    4.97    2.13
  -2  13   1   18.68    3.55
  -2  13  -1   12.14    2.50
  -2  13   2    4.62    2.66
  -2  13   2    4.96    2.46
  -2  13  -2    6.28    2.62
  -2  13  -3   10.58    2.85
  -2  13   3    8.34    2.68
  -2  13   3   10.97    2.43
  -2  13  -4    5.23    2.52
  -2  13   4    0.89    2.06
  -2  13   4   -1.64    2.52
  -2  13  -5    4.08    2.65
  -2  13   5    5.17    2.18
  -2  13   6   -0.29    2.11
  -2  13   7   39.27    3.52
  -2  14   0    4.98    3.51
  -2  14   1    0.84    3.09
  -2  14  -1   -0.62    2.24
  -2  14  -2    2.30    2.21
  -2  14   2    4.22    2.72
  -3   0   0    1.09    0.89
  -3   0   1   77.25    2.97
  -3   0   2   55.48    2.07
   3   0  -2   36.75    2.20
   3   0  -3  193.32    5.78
   3   0  -4  174.89    6.05
   3   0   4  283.64    6.18
  -3   0   5   33.36    1.26
   3   0   5   39.42    1.85
   3   0  -6    3.02    0.76
  -3   0   6    6.59    0.70
   3   0   6    7.85    1.03
   3   0  -6    4.88    0.29
  -3   0   7   85.16    2.17
   3   0  -7   65.29    1.53
  -3   0  -8   47.81    2.88
  -3   0  -8    9.21    1.10
   3   0  -9   12.48    1.22
  -3   0  -9    8.50    1.51
  -3   0 -10   -0.05    0.42
  -3   0 -10   -0.05    1.03
   3   0 -10   -0.19    0.65
   3   0 -11    1.82    0.76
  -3   0 -11    1.77    1.22
  -3   0 -11    0.28    0.33
   3   0 -12    0.82    0.70
  -3   0 -12    0.17    0.33
  -3   0 -12    0.30    1.16
  -3   0 -13    1.82    1.27
  -3   0 -13    1.50    0.65
   3   0 -13    3.36    0.93
   3   0 -14   -0.33    0.78
  -3   0  14    0.68    1.37
  -3   0 -14   -0.31    0.51
  -3   0 -14   -0.53    1.34
   3   0 -15    1.56    0.96
  -3   0 -15    0.89    0.38
  -3   0 -15    1.41    1.27
  -3   0 -16    1.65    0.59
   3   0 -16    2.65    1.03
  -3   0 -16    0.58    1.19
   3   0 -17   -0.55    1.54
  -3   0  17    2.15    1.68
  -3   0  18    5.18    2.11
  -3   0  19    7.31    2.91
  -3   0  20   17.30    3.49
  -3   1   0    0.04    0.76
   3  -1   1   78.74    3.08
  -3   1   1   69.97    2.24
  -3   1  -1   53.17    2.37
  -3   1   1   56.12    1.44
  -3   1   2    1.20    0.18
  -3  -1   3    9.80    0.32
   3   1  -3   15.22    1.60
   3  -1  -4   10.87    1.11
  -3   1  -4   11.37    1.53
  -3  -1   5   58.49    1.83
  -3   1  -5   29.00    2.35
   3   1   5   61.88    2.55
   3   1  -5   33.92    2.35
   3   1   6    0.84    0.86
   3   1  -6    0.08    0.27
   3   1  -6   -0.03    0.70
  -3  -1   6    0.57    0.48
  -3   1  -6   -0.19    0.92
   3   1  -7   41.64    2.32
   3  -1  -7   31.81    1.84
  -3  -1   7   89.35    1.98
   3   1   7   97.65    2.64
  -3   1  -7   29.61    2.41
  -3  -1  -7    2.82    1.03
   3   1  -7   63.32    1.25
  -3  -1  -8    2.17    0.71
  -3   1  -8    0.22    0.55
   3   1  -8    6.73    1.06
  -3   1  -8    6.53    1.42
  -3   1  -9    0.55    0.40
   3   1  -9    2.24    0.91
   3  -1  -9    1.60    0.62
  -3  -1  -9    0.35    0.43
  -3  -1 -10    0.17    0.40
   3   1 -10    9.99    1.31
  -3   1 -10    0.53    0.45
   3  -1 -10   -0.46    0.68
   3   1 -10   10.76    0.89
  -3   1 -10    0.41    1.07
  -3   1 -11    0.73    0.40
   3  -1 -11    3.18    0.88
  -3  -1 -11    0.48    0.35
  -3   1 -11    2.95    1.30
  -3   1  12    2.17    1.49
   3   1 -12    0.79    0.73
  -3   1 -12    0.05    0.29
   3  -1 -12    0.45    0.78
  -3  -1 -12    0.05    0.41
  -3   1 -12   -0.05    1.18
  -3   1  13   11.41    1.67
  -3  -1 -13    0.42    0.54
  -3   1 -13    0.88    0.57
   3  -1 -13    2.29    0.94
  -3  -1  13   12.34    1.58
  -3   1 -13    1.98    1.35
   3   1 -13    6.90    1.03
   3   1 -14    2.15    0.96
  -3   1 -14    0.54    0.50
  -3   1  14    0.80    1.54
  -3  -1 -14   -0.21    0.47
   3  -1 -14   -0.31    0.86
  -3   1 -14    1.25    1.40
   3   1 -15    0.37    0.93
  -3   1 -15    0.28    0.35
  -3   1  15   -0.97    2.03
  -3  -1 -15    0.12    0.33
  -3  -1  15   -0.42    1.79
   3  -1 -15   -0.06    0.81
  -3   1 -15   -0.54    1.40
  -3  -1  16    4.30    1.93
  -3   1 -16    0.38    0.50
  -3   1  16    3.38    2.44
   3   1 -16    2.46    1.10
  -3   1 -16   -0.18    1.30
   3   1 -17    2.29    1.07
  -3   1  17    5.88    1.88
  -3  -1  17    5.76    1.75
  -3  -1  18    2.04    2.17
   3   1 -18   -0.94    1.45
  -3   1 -18   -0.80    1.47
  -3   1  18    1.47    2.05
  -3   1  19   15.52    3.16
  -3  -1  19   14.00    2.95
  -3  -1  20    1.30    2.35
   3  -2   0    0.58    0.69
  -3   2   0    0.26    0.30
  -3   2   0    0.44    0.51
   3  -2   0    0.10    0.71
   3  -2  -1   37.74    2.31
   3  -2  -1   55.69    2.66
  -3   2  -1   44.41    2.06
   3  -2   1   60.74    2.62
  -3   2  -1   62.59    1.91
  -3   2   1   57.24    1.41
  -3   2  -2  168.42    5.12
  -3   2   2  273.21    4.45
   3  -2   2  218.43    5.28
  -3   2  -2  165.22    6.01
  -3   2   2  181.06    4.60
  -3   2  -2  263.40    5.52
   3  -2  -2  165.58    4.35
  -3  -2   3   68.57    1.53
  -3   2  -3   45.38    2.48
  -3   2  -3   53.89    3.08
  -3   2   3   70.43    2.03
   3  -2  -3   51.02    1.48
  -3  -2   4    1.70    0.34
   3  -2  -4    0.69    0.22
   3   2  -4    2.38    1.05
  -3  -2   4    1.50    0.76
  -3   2   4    1.10    0.46
  -3   2  -4    0.15    0.87
   3   2  -5    0.48    0.74
   3  -2  -5    0.04    0.26
   3  -2  -5    0.08    0.49
  -3  -2   5   -0.10    0.53
   3   2   5    0.18    0.99
  -3   2  -5   -0.19    0.87
  -3  -2   6    7.07    0.67
   3  -2  -6    1.06    0.56
   3   2  -6    4.06    1.05
   3   2   6    4.38    1.10
  -3   2  -6    3.88    1.06
  -3  -2  -6   -0.31    0.65
   3   2  -7   13.61    1.67
   3   2  -7   15.28    0.75
  -3  -2  -7    0.60    0.56
   3  -2  -7   10.06    1.02
  -3  -2   7   23.16    1.01
  -3   2  -7    7.44    1.43
   3   2  -8    3.60    0.45
  -3   2  -8    1.73    1.21
  -3   2  -8   -0.33    0.69
  -3  -2  -8    0.04    0.38
   3   2  -8    3.05    1.17
  -3  -2   8    4.61    0.75
   3  -2  -8    1.23    0.68
  -3   2  -9    2.76    0.68
  -3   2  -9   18.76    2.26
   3   2  -9   18.98    1.85
   3  -2  -9   15.36    1.36
  -3  -2  -9    2.50    0.69
  -3   2 -10   24.41    2.56
   3   2 -10   22.97    1.98
   3  -2 -10   18.33    1.49
  -3  -2 -10    3.05    0.64
  -3   2 -10    4.14    0.75
  -3   2 -11    2.54    1.47
  -3   2 -11    0.65    0.42
   3   2 -11    7.31    1.33
   3  -2 -11    1.01    0.74
  -3  -2 -11    0.41    0.36
   3   2 -11    8.90    0.95
  -3   2 -12    1.25    1.42
  -3   2  12    6.99    1.64
   3   2 -12    1.24    0.97
   3  -2 -12    0.25    0.72
  -3  -2 -12   -0.25    0.58
  -3   2 -12    0.42    0.30
   3   2 -12    7.96    1.08
  -3   2 -13    4.30    1.64
  -3  -2 -13    1.15    0.62
  -3   2 -13    1.77    0.63
   3   2 -13    3.50    1.23
  -3  -2  13   17.94    1.57
   3  -2 -13    3.16    0.96
  -3   2  13   18.27    1.79
   3   2 -13   16.03    1.19
  -3   2 -14    8.39    1.87
   3  -2 -14    8.17    1.26
  -3   2 -14    4.15    0.71
  -3  -2  14   61.01    2.79
  -3  -2 -14    2.17    0.65
  -3   2  14   59.17    3.29
   3   2 -14    9.97    1.65
   3   2 -14   39.30    1.64
   3   2 -15    0.75    1.15
  -3   2 -15    0.60    0.45
   3   2 -15    3.28    0.90
  -3   2 -15   -0.06    1.32
  -3   2  15    5.75    2.37
  -3  -2  15    5.74    1.94
  -3   2 -16    0.70    0.58
   3   2 -16    2.84    1.01
   3   2 -16   -0.49    1.26
  -3  -2  16    2.12    1.42
  -3   2 -16    0.30    1.25
  -3  -2  17    9.96    1.77
  -3   2  17    5.89    2.00
   3   2 -17    0.91    1.35
   3   2 -17    5.56    1.26
  -3   2 -17    1.15    1.53
   3   2 -18   -1.67    1.58
  -3  -2  18    3.85    2.29
  -3   2 -18   -0.64    1.53
  -3   2  18    3.80    2.21
   3   2 -19   -0.26    1.69
  -3   2  19    3.49    2.90
  -3  -2  19    2.88    2.54
   3  -3   0    0.23    0.57
   3  -3   0    0.29    0.54
  -3   3   0    0.93    0.38
   3  -3   0    1.11    0.72
  -3   3   0    0.77    0.48
  -3   3   1  127.66    2.58
   3  -3  -1  105.19    3.73
  -3   3   1  104.93    2.84
   3  -3   1   74.68    3.29
   3  -3   1   81.04    3.16
   3  -3  -1   55.04    2.88
   3  -3  -1   82.84    2.62
   3  -3  -2  127.12    3.62
  -3  -3   2  126.72    4.25
  -3   3   2  137.34    2.78
   3  -3  -2   49.29    2.57
  -3   3  -2   69.10    2.37
  -3   3  -2  117.54    2.73
   3  -3  -2   74.82    2.21
  -3  -3   3   76.76    1.76
  -3  -3   3  104.22    3.43
   3  -3  -3   44.26    2.34
  -3   3   3   61.34    1.90
  -3   3  -3   48.63    2.91
  -3   3  -3   55.18    2.26
  -3   3  -3   72.75    2.24
   3  -3  -3   37.66    1.46
   3  -3  -4    4.01    0.40
  -3   3  -4    5.04    0.94
  -3   3   4    9.15    0.85
  -3   3  -4    6.95    1.32
  -3  -3   4   14.95    1.44
   3  -3  -4    7.20    1.11
  -3  -3   4   10.87    0.54
  -3   3  -5    4.45    1.32
   3  -3  -5    2.07    0.43
  -3  -3   5    8.64    1.03
  -3  -3   5    8.13    0.55
  -3   3  -6    2.73    1.29
  -3  -3   6    2.40    0.70
   3  -3  -6    0.74    0.56
  -3  -3   6    2.46    0.63
   3   3   6    3.39    1.27
   3   3  -6    3.16    1.15
  -3  -3  -6   -0.08    0.50
   3   3  -7    0.68    0.93
  -3   3  -7    1.21    1.29
   3  -3  -7   -0.02    0.60
  -3  -3  -7   -0.12    0.38
  -3  -3   7    1.75    0.56
   3   3   7    1.68    0.94
   3   3  -8   14.54    1.01
  -3   3  -8    6.81    1.52
  -3  -3   8   18.86    1.00
   3   3  -8    6.71    1.51
  -3  -3  -8    1.29    0.62
   3  -3  -8    3.65    0.87
   3   3   8   15.42    1.11
   3   3  -9   21.71    1.16
  -3  -3  -9    1.23    0.53
   3  -3  -9    5.04    0.94
  -3   3  -9    1.93    0.61
   3   3  -9   14.59    1.82
  -3   3  -9   13.46    1.78
  -3   3 -10    1.16    0.50
  -3   3 -10    5.96    1.44
   3  -3 -10    3.66    0.89
   3   3 -10    6.40    1.58
  -3  -3 -10    1.49    0.51
  -3   3 -11    0.51    0.37
  -3   3 -11    3.08    1.23
  -3   3  11   11.88    1.90
   3   3 -11    2.92    1.31
  -3  -3 -11    0.54    0.47
   3  -3 -11    2.10    0.77
   3   3 -11    8.50    0.89
  -3  -3  12    4.91    1.24
  -3   3 -12    2.11    1.43
  -3   3  12    3.75    1.55
   3   3 -12    1.31    1.41
  -3  -3 -12   -0.28    0.62
   3  -3 -12    0.19    0.68
  -3   3 -12    0.28    0.34
   3   3 -12    3.86    0.76
  -3  -3  13   43.23    1.76
  -3  -3 -13    3.86    0.87
  -3   3  13   62.14    2.97
   3  -3 -13    9.55    1.24
   3   3 -13   16.03    2.32
  -3   3 -13   15.58    2.45
   3   3 -13   46.31    1.80
  -3   3 -13    6.41    0.90
  -3   3 -14    4.15    1.97
  -3  -3  14   17.16    1.83
   3   3 -14    3.44    1.76
  -3   3  14   21.54    2.69
  -3   3 -14    1.14    0.41
   3   3 -14   12.88    1.26
  -3   3 -15    0.74    1.75
  -3   3 -15    0.83    0.51
   3   3 -15    1.28    1.50
  -3   3  15   11.56    2.76
  -3  -3  15    7.25    1.68
   3   3 -15    6.42    1.09
  -3   3 -16   -0.15    1.66
  -3   3 -16    3.16    3.64
   3   3 -16    2.51    1.73
   3   3 -16    4.85    1.16
  -3   3  16   -0.17    2.25
  -3  -3  16    2.37    1.32
  -3  -3  17    7.10    2.03
  -3   3 -17    1.26    3.36
   3   3 -17    1.58    1.92
  -3   3  17    6.29    2.16
   3   3 -17    6.58    1.27
  -3   3 -17    0.07    1.55
  -3  -3  18    5.28    2.21
   3   3 -18   -0.06    2.14
  -3   3  18    2.99    2.44
  -3   3 -18    0.27    1.41
  -3   3 -19   -1.35    1.74
   3  -4   0    0.63    0.70
  -3   4   0    0.30    0.45
  -3   4   0    0.44    0.41
   3  -4   0    0.16    0.40
  -3   4   0   -0.35    0.92
   3  -4   1    0.42    0.55
  -3   4  -1    1.04    0.46
   3  -4  -1    2.17    0.65
  -3   4   1    1.35    0.69
  -3   4  -1    0.63    0.45
   3  -4  -1    0.97    0.41
  -3   4  -1    0.91    0.98
   3  -4   1    1.07    0.73
   3  -4  -2    0.66    0.60
   3  -4  -2    1.09    0.38
  -3   4   2    0.86    0.48
  -3  -4   3   15.16    0.82
  -3  -4  -3    0.07    0.91
  -3   4   3   13.64    0.99
   3  -4  -3    5.45    0.78
  -3  -4   3   15.34    1.77
  -3   4  -3   24.85    1.30
   3  -4  -3    7.84    0.60
   3  -4  -4   21.25    1.24
  -3   4  -4   78.29    1.95
  -3   4  -4   62.34    3.65
   3  -4  -4   26.00    1.89
  -3  -4   4   73.07    1.67
   3  -4  -5    3.09    0.54
  -3   4  -5    8.90    1.04
  -3  -4   5    7.93    1.15
  -3   4  -5    6.32    1.30
   3  -4  -5    2.39    0.75
  -3  -4   5   11.66    0.85
  -3   4  -6    1.07    0.98
  -3  -4   6    7.05    0.74
  -3   4  -6    6.26    1.10
  -3  -4   6    7.43    0.73
   3  -4  -6   -0.25    0.53
  -3   4  -7    4.83    1.23
  -3  -4   7    6.81    0.63
   3  -4  -7    0.23    0.57
   3  -4  -7    3.21    0.83
   3   4   7    8.37    1.43
   3   4  -8   25.64    2.48
   3  -4  -8   15.62    1.39
   3  -4  -8    6.77    1.01
  -3  -4   8   58.12    1.43
   3   4   8   68.26    2.46
  -3   4  -8   21.55    2.09
  -3  -4  -8    5.85    0.95
  -3   4  -8   57.90    2.96
  -3   4  -9    3.26    1.27
  -3   4  -9    6.90    1.87
   3   4  -9    4.38    1.68
   3   4  -9    3.83    1.00
  -3   4  -9    0.27    0.41
   3  -4  -9    1.39    0.68
   3  -4  -9   -0.06    0.56
  -3  -4  -9    0.42    0.39
   3   4 -10    4.63    0.90
  -3   4 -10    3.04    1.30
   3  -4 -10    6.36    0.96
  -3   4 -10    5.14    1.87
  -3  -4 -10    3.79    0.68
  -3   4 -10    0.52    0.40
   3   4 -10    2.98    1.32
   3  -4 -10    2.71    0.74
  -3   4 -11    2.65    1.89
  -3   4 -11    1.06    1.05
  -3  -4 -11   -0.13    0.64
   3   4 -11    2.34    0.84
   3  -4 -11    0.24    0.60
   3  -4 -11   -0.62    0.60
   3   4 -11    1.74    1.30
  -3   4 -11    0.45    0.32
  -3  -4  12    1.47    0.94
  -3   4 -12    0.27    1.05
  -3   4 -12    0.20    1.90
   3   4 -12    1.15    1.46
   3   4 -12    1.20    0.84
  -3  -4 -12    0.19    0.53
  -3   4 -12   -0.07    0.46
   3  -4 -12    0.88    0.69
   3  -4 -12   -0.47    0.53
  -3   4 -13   -0.05    1.13
  -3   4 -13    1.46    2.12
  -3  -4  13    1.97    1.07
  -3   4 -13    0.32    0.45
   3   4 -13    2.76    0.84
   3  -4 -13   -0.61    0.54
   3   4 -13    1.52    1.48
  -3   4  13    0.81    1.82
  -3   4 -14    0.21    1.22
  -3   4 -14    0.28    0.47
  -3   4 -14    1.60    2.29
   3   4 -14    0.52    1.67
  -3   4  14    4.67    2.46
  -3  -4  14    4.24    1.49
   3   4 -14    2.28    0.93
   3  -4 -14   -0.40    0.46
  -3   4 -15    0.13    1.52
  -3   4 -15    3.52    2.48
   3   4 -15    0.38    1.80
  -3   4  15    3.27    2.69
   3   4 -15    3.44    1.13
  -3  -4  15    3.45    1.22
   3   4 -16    7.70    1.34
  -3   4 -16    2.15    2.05
  -3  -4  16    9.10    1.75
  -3   4 -16    6.73    2.77
   3   4 -16    2.95    2.12
  -3   4  16    6.92    2.38
  -3   4 -17   -0.59    1.96
  -3   4 -17    5.20    2.78
  -3  -4  17    2.30    1.85
   3   4 -17    4.41    2.30
  -3   4  17    2.95    2.27
  -3   4 -18   -0.32    1.76
  -3   4 -19   -0.91    1.74
  -3   5   0   -0.44    1.02
   3  -5   0   -0.25    0.58
  -3   5   0   -0.43    0.66
  -3   5   0   -0.22    0.45
   3  -5   0    0.21    0.36
   3  -5  -1    0.42    0.35
   3  -5   1    0.37    0.49
  -3   5  -1    0.64    0.59
   3  -5   1    0.80    0.77
  -3   5  -1    0.32    0.38
  -3   5   1    0.06    0.47
  -3   5   1   -0.54    1.10
  -3   5  -1   -0.11    0.91
  -3   5  -2   50.12    1.75
   3  -5   2   23.12    1.64
  -3   5  -2   29.40    1.19
  -3   5  -2   34.74    2.77
   3  -5   2   26.17    1.78
   3  -5  -2   14.08    0.92
  -3  -5  -2    6.44    1.23
  -3  -5   3   55.04    1.57
  -3  -5   3   56.67    3.17
   3  -5  -3   13.15    1.29
  -3   5  -3   35.15    1.39
  -3  -5  -3   10.56    1.28
  -3   5  -3   58.46    1.82
   3  -5  -3   16.95    1.04
  -3  -5   4   58.23    1.57
   3  -5  -4   18.81    1.11
   3  -5  -4   15.12    1.26
  -3   5  -4   52.92    1.67
  -3  -5   4   63.05    3.01
  -3  -5  -4    9.59    1.06
   3  -5  -5    6.94    0.72
  -3  -5   5   46.43    2.31
  -3  -5   5   41.53    1.32
   3  -5  -5   11.01    1.20
  -3  -5  -5    7.52    1.04
  -3   5  -6    3.49    1.30
   3  -5  -6    1.19    0.58
  -3  -5   6    3.95    0.64
  -3  -5   7   95.72    2.26
  -3  -5   7   95.63    3.05
  -3  -5   8   59.08    1.46
  -3   5  -8   34.43    1.53
   3   5   8   68.00    2.50
   3  -5  -8   14.49    1.15
  -3   5  -8   34.14    2.89
  -3   5  -8   73.53    2.72
  -3   5  -9   15.97    1.22
  -3  -5  -9    4.11    0.73
   3  -5  -9    8.04    1.03
   3   5   9   35.18    1.42
  -3   5   9   47.39    2.86
  -3   5  -9   21.90    2.49
  -3   5  -9   35.20    1.99
  -3   5  -9    3.79    0.66
  -3   5 -10    2.01    1.38
  -3   5 -10    0.33    0.37
  -3   5 -10    2.60    1.34
   3   5 -10    3.13    1.31
  -3  -5 -10    0.16    0.60
   3  -5 -10    0.19    0.56
  -3   5 -11    0.83    0.33
  -3   5 -11    2.04    1.52
  -3   5 -11    4.12    1.49
  -3  -5 -11    0.22    0.57
   3   5 -11    3.91    1.18
   3  -5 -11    0.66    0.64
   3   5 -12    6.49    1.19
  -3   5 -12    3.25    1.68
  -3  -5  12    6.78    0.88
   3   5 -12    3.59    1.87
  -3   5 -12    1.84    0.53
  -3   5 -12    6.56    1.65
  -3   5 -13    0.56    1.38
  -3   5 -13    0.27    0.38
   3   5 -13    1.37    1.94
  -3  -5  13    1.32    1.16
  -3   5  13    1.37    2.18
   3   5 -13    0.94    1.01
  -3   5 -13    0.48    1.52
   3   5 -14    7.33    1.29
  -3   5 -14    2.46    1.42
   3   5 -14    5.63    2.45
  -3   5  14    9.55    2.87
  -3   5 -14   11.19    1.99
  -3  -5  14    7.32    1.07
   3   5 -15    4.12    2.37
   3   5 -15    8.28    1.42
  -3   5 -15    2.79    1.58
  -3   5 -15    8.93    2.05
  -3   5  15    5.18    2.84
  -3   5 -16    0.59    1.49
  -3   5 -16    4.43    1.99
   3   5 -16    2.78    1.29
  -3   5  16    4.01    2.13
  -3  -5  16    3.27    1.20
   3   5 -16    2.39    2.47
  -3   5 -17    2.35    2.29
  -3   5 -18    1.14    2.21
  -3  -6   0   -0.50    0.79
   3  -6   0    0.08    0.36
   3  -6   0   -0.28    0.61
  -3   6   0   -0.18    1.04
  -3   6  -1   -0.18    1.25
  -3  -6   1   -0.83    0.98
  -3  -6  -1   -0.54    0.73
   3  -6  -1    0.60    0.62
   3  -6   1    0.69    0.85
  -3   6  -1    1.16    0.88
  -3   6  -1    0.85    0.50
  -3   6   1   -1.00    1.25
   3  -6   1    0.55    0.48
  -3   6  -2    7.53    0.97
  -3   6  -2    5.79    1.60
  -3  -6   2    7.26    0.91
   3  -6   2    3.80    0.89
   3  -6  -2    1.94    0.48
   3  -6   2    3.50    0.93
  -3   6  -2    4.48    0.56
  -3  -6  -2    2.92    0.68
  -3   6  -3    1.72    1.06
   3  -6   3    0.13    0.80
   3  -6  -3    0.46    0.34
  -3   6  -3    1.97    0.71
  -3  -6   3    1.01    0.51
  -3  -6  -3    0.33    0.59
   3  -6  -3    0.11    0.59
  -3  -6   3   -0.83    1.88
  -3   6  -3    0.98    0.40
  -3   6  -4   20.04    1.34
  -3  -6   4   18.13    1.02
   3  -6  -4    3.56    0.54
  -3  -6   4   17.47    2.22
  -3   6  -4    8.98    0.66
   3  -6  -4    4.83    0.87
  -3  -6  -4    9.78    1.13
  -3  -6  -5    0.98    0.59
  -3  -6   5    2.58    1.64
  -3  -6   5    2.11    0.52
   3  -6  -5    0.56    0.64
  -3   6  -5    1.75    0.43
   3  -6  -5    0.34    0.37
   3  -6  -6    3.97    0.69
  -3  -6   6    0.68    1.09
   3  -6  -6    7.94    1.15
  -3  -6   6    0.75    0.57
  -3   6  -6    0.25    0.44
  -3  -6  -6    8.39    0.93
  -3   6  -7    2.25    0.54
  -3  -6   7    4.08    0.61
   3  -6  -7    0.32    0.50
   3  -6  -7    0.24    0.64
  -3  -6   7    2.36    0.78
  -3   6  -7    6.24    1.69
  -3  -6  -7    0.77    0.50
  -3   6   8   22.07    2.30
   3   6   8   18.60    1.89
  -3  -6   8   19.72    0.88
  -3   6  -8   10.18    2.01
  -3  -6   8   14.10    1.57
  -3   6  -8   23.47    2.03
  -3   6   9   -0.03    1.49
  -3   6  -9    1.11    1.21
  -3   6  -9   -0.16    0.38
  -3   6  -9    0.97    1.43
   3   6   9    1.40    1.09
  -3   6 -10    4.70    1.77
  -3   6  10    7.10    1.51
  -3   6 -10   10.34    1.47
  -3   6 -10    1.50    0.40
  -3   6 -11    3.05    1.75
  -3  -6  11    2.68    0.58
  -3   6  11    4.00    1.72
  -3   6 -11    1.06    0.48
  -3   6 -12    0.84    0.39
  -3   6 -12    1.65    1.77
   3   6 -12    1.40    1.54
  -3  -6  12    1.68    0.87
  -3   6 -12    4.37    1.54
  -3   6 -13    1.80    1.50
  -3   6 -13    2.23    1.80
   3   6 -13   -0.62    1.52
  -3  -6  13    2.12    0.89
  -3   6 -14    0.93    1.53
  -3   6 -14    5.17    1.75
  -3  -6  14    3.89    0.91
   3   6 -14    4.26    1.59
  -3   6 -15    0.77    1.46
   3   6 -15   -0.20    1.47
  -3   6 -15    4.20    1.83
  -3   6 -16    0.52    1.55
   3   6 -16    1.50    1.63
  -3   7   0    0.51    1.35
   3  -7   0    0.57    0.46
  -3  -7   0   -0.06    0.64
   3  -7   1   19.48    1.55
  -3   7   1   79.88    3.70
  -3   7  -1   46.85    3.46
  -3  -7  -1   61.02    2.47
   3  -7   1   18.83    1.35
  -3  -7   1   22.73    1.41
   3  -7  -1   21.28    1.52
  -3  -7   2   37.59    1.79
  -3   7   2   33.39    2.66
  -3   7  -2   31.32    2.39
   3  -7   2   32.32    1.92
   3  -7   2   36.50    2.02
  -3  -7   2   32.45    1.86
  -3  -7   3   42.72    1.67
  -3   7  -3   46.05    2.03
   3  -7  -3    7.77    1.09
  -3   7   3   29.89    2.47
  -3   7  -3   24.21    2.08
  -3  -7  -3   15.21    1.31
   3  -7   3   22.77    1.87
  -3  -7   3   26.86    1.64
   3  -7  -3    6.70    0.76
  -3  -7   4   11.78    0.91
   3  -7  -4    2.05    0.45
  -3   7  -4   17.54    1.46
   3  -7   4    7.78    1.59
  -3  -7   4   10.37    2.13
   3  -7  -4    1.62    0.76
  -3  -7  -4    3.62    0.72
  -3   7  -4    8.35    1.72
  -3  -7   4    8.10    1.17
   3  -7  -5    0.19    0.35
  -3  -7   5    1.47    0.58
   3  -7  -5   -0.36    0.71
  -3  -7   5   -0.41    0.95
  -3  -7  -5    0.76    0.50
  -3   7   6    4.35    1.56
   3  -7  -6    0.44    0.39
  -3  -7   6    3.38    1.22
  -3   7  -6    2.10    0.45
   3  -7  -6    0.56    0.73
  -3  -7  -6    0.79    0.55
  -3  -7   6    3.16    0.70
  -3   7   7    1.08    1.55
  -3  -7   7    0.80    0.75
  -3  -7  -7   -0.21    0.72
  -3  -7   7    0.74    0.50
   3  -7  -7   -0.40    0.73
  -3   7  -7    0.15    0.33
   3  -7  -7   -0.11    0.48
  -3   7   8   19.21    2.18
   3  -7  -8    2.26    0.74
  -3  -7  -8    2.51    0.94
  -3   7  -8    9.57    0.59
   3  -7  -8    3.43    0.89
  -3   7  -8   12.64    2.19
  -3  -7   8   14.95    1.66
  -3   7  -8   24.74    1.91
  -3   7  -9    2.16    0.45
  -3   7  -9    7.78    2.00
  -3   7   9   12.53    1.66
  -3   7  -9    4.72    0.42
   3   7   9   11.02    1.25
   3  -7  -9    2.91    0.83
  -3  -7  -9    1.34    0.74
  -3   7  -9   15.61    1.70
  -3  -7  10    8.66    0.58
  -3   7 -10    3.31    0.47
  -3   7  10   14.70    2.29
  -3   7 -10    5.09    0.43
  -3   7 -10    6.85    2.02
  -3   7 -10   16.42    1.67
  -3   7 -11    2.71    1.72
  -3   7 -11    6.02    1.37
  -3   7  11    5.47    2.36
  -3   7 -11    1.03    0.24
  -3   7 -12    1.58    1.75
  -3   7  12    3.57    2.62
  -3   7 -12    5.22    1.52
  -3   7  13   38.02    4.03
  -3   7 -13   30.17    2.42
  -3   7 -14    3.56    2.06
  -3   7 -14   17.00    2.29
  -3   7 -15    2.51    1.81
  -3   7 -15    9.81    2.16
  -3   8   0   25.80    2.75
  -3  -8   0   17.09    1.20
  -3   8  -1    6.35    1.85
   3  -8   1    4.10    1.07
  -3  -8   1    4.60    1.01
   3  -8  -1    2.54    0.72
  -3  -8  -1    3.37    0.73
  -3  -8   1    5.62    0.90
   3  -8   1    3.05    0.67
  -3   8   1    5.89    1.63
  -3  -8   2   30.69    1.49
   3  -8   2   13.55    1.46
  -3   8   2   19.61    2.31
  -3  -8  -2   14.76    1.17
  -3   8  -2   23.48    2.23
  -3  -8   2   27.19    1.55
   3  -8   2   11.84    1.20
   3  -8  -2    5.67    0.79
  -3  -8   3    7.18    0.79
  -3   8  -3    6.44    1.53
   3  -8  -3    1.90    0.48
   3  -8  -3    1.11    0.76
  -3  -8  -3    4.58    0.75
  -3  -8   3    8.02    1.03
   3  -8   3    8.17    1.31
  -3   8   3    5.86    1.84
  -3   8  -4   -0.21    1.27
  -3   8   4    0.10    1.43
   3  -8  -4   -0.08    0.36
   3  -8   4    0.95    1.01
  -3  -8   4    0.65    0.72
  -3   8  -4    1.80    1.55
  -3  -8   4    0.92    0.58
  -3  -8   4   -2.25    2.04
  -3  -8  -4    0.86    0.69
  -3  -8   5    0.65    0.69
  -3   8   5    0.83    1.34
   3  -8  -5    0.20    0.33
  -3  -8  -5   -0.03    0.80
  -3  -8   5    1.13    0.61
   3  -8  -5   -0.40    0.79
  -3   8  -5    2.31    1.62
  -3  -8   6    1.52    0.66
  -3   8   6    1.01    1.44
   3  -8  -6    0.24    0.42
  -3  -8   6    1.09    0.66
  -3  -8  -6   -0.09    0.79
   3  -8  -6   -0.64    0.84
   3  -8  -7    0.53    0.48
  -3  -8  -7    0.80    0.76
  -3   8   7    4.19    1.51
  -3  -8   7    3.58    0.47
  -3  -8   7    3.56    0.59
   3  -8  -7   -0.03    0.85
  -3  -8   7    2.38    0.89
  -3  -8   8    1.54    1.17
  -3   8   8    1.33    1.63
  -3   8  -8    0.95    1.08
  -3  -8  -8    0.29    0.66
  -3  -8   8    1.08    0.36
   3  -8  -8   -0.25    0.56
   3  -8  -8   -0.72    0.81
  -3   8  -8   -0.26    0.33
  -3   8  -9   12.30    1.60
  -3   8  -9    5.43    1.96
   3  -8  -9    1.99    0.83
   3   8   9   10.90    1.51
  -3  -8   9    7.85    1.77
  -3   8 -10    6.88    2.12
  -3   8  10   13.21    2.85
  -3   8 -10    9.55    1.63
  -3   8 -11    2.22    1.34
  -3   8  11    3.68    2.67
  -3   8 -11    2.21    1.87
  -3   8  12    2.21    2.83
  -3   8 -12    1.68    1.93
  -3   8 -12    3.44    1.40
  -3   8 -13    3.40    2.12
  -3   8  13    9.24    2.67
  -3   8 -13   10.93    1.81
  -3   8 -14    3.07    2.22
  -3   9   0    0.32    1.77
  -3   9   0    0.69    1.10
  -3  -9   0   -0.41    0.97
   3  -9   0   -0.29    0.46
  -3  -9   0   -0.33    0.86
  -3  -9   1    0.68    0.83
  -3   9  -1    1.56    1.08
  -3   9  -1    1.80    1.80
  -3   9   1    0.15    1.14
   3  -9  -1    0.14    0.64
   3  -9   1   -0.23    0.90
  -3  -9   1    0.40    0.70
   3  -9   1    0.34    0.46
  -3  -9  -1    0.79    0.90
  -3   9   1   -0.04    1.55
  -3   9  -2    3.17    1.12
  -3   9  -2    3.09    1.53
  -3   9   2    2.70    1.36
   3  -9  -2    0.29    0.37
  -3  -9   2    1.85    0.73
  -3  -9  -2    1.44    0.93
  -3  -9   2    2.07    0.85
  -3   9   2    0.58    1.72
   3  -9   2    0.97    0.60
   3  -9   2    2.84    1.17
  -3  -9   3    6.59    0.84
  -3   9  -3    5.22    1.64
  -3   9  -3    7.51    1.15
   3  -9   3    3.18    1.05
  -3   9   3    7.15    1.46
   3  -9  -3    1.24    0.52
  -3  -9   3    6.27    0.99
  -3  -9  -3    3.46    1.05
   3  -9  -3   -0.95    0.95
  -3   9   3    2.51    1.84
  -3   9  -4   15.87    2.13
   3  -9  -4    2.11    0.56
   3  -9   4    5.53    1.31
  -3   9  -4    8.29    2.09
  -3   9  -4   10.06    1.09
  -3   9   4    9.60    1.47
  -3  -9  -4    2.61    0.93
  -3  -9   4    6.75    1.01
   3  -9  -4    0.89    0.76
  -3  -9   4    5.00    0.81
  -3   9   5    6.90    1.44
   3  -9  -5    1.40    0.46
  -3  -9  -5    2.51    0.89
  -3  -9   5   43.22    1.59
  -3  -9   5   25.18    2.86
  -3   9  -5   25.85    1.30
   3  -9  -5    0.56    0.89
  -3   9  -5   33.09    3.12
  -3  -9   5   13.58    1.10
  -3   9  -6    0.25    0.45
  -3  -9   6    1.02    0.51
  -3   9   6   -0.38    1.59
   3  -9  -6    0.02    0.41
  -3   9  -6    2.97    2.02
  -3  -9  -6    0.03    0.74
   3  -9  -6   -0.87    0.91
  -3  -9   6    4.32    0.96
  -3   9   7   16.56    2.52
  -3   9  -7    6.72    0.54
   3  -9  -7    2.15    0.61
  -3   9  -7   12.01    2.39
  -3  -9   7   13.10    1.23
  -3   9  -8   12.80    1.77
  -3  -9   8    4.54    1.31
   3  -9  -8    1.27    0.53
  -3   9   8   14.43    2.66
  -3   9  -9    5.52    1.59
  -3  -9   9    7.49    1.77
   3  -9  -9    0.53    0.57
  -3   9   9    8.13    2.70
   3  -9 -10   -0.18    0.60
  -3   9 -10    1.11    1.27
  -3   9  10    0.50    2.71
  -3   9 -10    3.55    2.05
  -3   9 -11    2.54    2.05
  -3   9 -11    2.02    1.33
  -3   9  11    2.76    2.73
  -3   9 -12    1.77    1.35
  -3   9 -12    1.69    2.17
  -3   9  12    1.72    2.22
  -3  10   0    1.82    2.22
  -3 -10   0   -0.07    0.69
  -3  10   0   -0.09    1.17
  -3  10  -1    5.08    2.27
   3 -10  -1    0.83    0.53
  -3 -10  -1    2.51    0.83
  -3  10   1    5.53    1.49
   3 -10   1    0.76    1.08
  -3 -10   1    1.97    0.74
  -3  10  -1    4.00    1.22
  -3  10   1    2.29    1.96
  -3 -10   2    5.20    0.85
  -3  10  -2    4.80    1.83
   3 -10   2    7.45    1.52
   3 -10  -2    0.58    0.48
  -3 -10   2    3.30    0.74
  -3 -10  -2    3.12    0.85
  -3  10   2    5.45    1.65
  -3  10  -2    4.98    1.21
  -3  10   2    2.76    2.11
  -3 -10   3   13.32    1.19
  -3  10  -3   18.65    1.52
  -3 -10   3    9.30    0.84
  -3 -10  -3    7.92    1.04
   3 -10  -3    3.37    1.11
  -3  10  -3   11.34    2.06
  -3  10   3   14.39    2.68
   3 -10  -3    3.72    0.76
   3 -10  -4    1.83    0.56
  -3 -10  -4    5.10    0.82
  -3 -10   4   16.20    1.08
  -3  10  -4   16.47    1.39
  -3  10   4   14.63    2.64
   3 -10  -4    0.90    0.87
  -3  10   4   22.84    2.53
  -3  10  -4   13.12    2.51
  -3 -10   4   16.46    2.96
  -3 -10   4   19.80    1.42
  -3  10  -5    5.62    2.17
  -3 -10  -5    2.98    0.82
  -3 -10   5    4.78    2.40
  -3  10  -5    2.10    0.70
   3 -10  -5   -0.46    0.93
  -3  10  -6    5.21    2.30
  -3 -10   6    3.83    1.55
  -3  10   6    2.83    2.30
  -3  10  -6    2.02    0.55
  -3  10  -7    9.11    2.49
  -3  10   7   23.58    3.23
  -3  10  -8   27.30    2.66
  -3  10   8   28.42    3.54
  -3  10  -9    7.68    1.85
  -3  10   9    8.87    2.61
  -3  10 -10   -0.56    1.63
  -3  10  10    1.54    2.14
  -3  10  11    2.63    2.37
  -3  11   0    0.12    2.43
  -3 -11   0    0.58    0.93
  -3  11   0    0.91    1.55
  -3  11  -1    1.29    2.68
  -3 -11  -1    1.66    0.90
   3 -11   1   -0.23    1.41
  -3  11   1    2.50    1.80
  -3  11  -1    1.97    1.36
  -3  11   1    0.49    2.07
  -3 -11  -2    0.88    0.87
  -3  11  -2    1.80    2.01
  -3  11   2    3.18    1.97
  -3  11  -2    0.78    0.95
  -3  11   2   -1.03    2.34
  -3  11   3   -3.03    2.46
  -3 -11  -3    0.16    0.82
  -3  11  -3    3.03    1.92
  -3 -11   3   -2.15    3.27
  -3  11   3    1.69    1.98
  -3  11  -3    0.11    0.84
  -3 -11  -4    1.28    0.92
  -3  11  -4    1.14    1.93
  -3 -11   4    4.80    2.88
   3 -11  -4   -0.85    1.03
  -3  11   4    0.17    2.01
  -3  11   4    0.62    2.28
  -3  11  -5    3.33    2.31
  -3 -11   5    1.24    2.41
  -3  11   5    2.90    2.16
  -3  11  -6    4.74    2.51
  -3 -11   6    0.69    1.60
  -3  11   6    2.56    1.95
  -3  11  -7    4.37    2.59
  -3  11   7    1.07    1.92
  -3  11  -8    3.69    2.56
  -3  11   8   -0.44    2.03
  -3  11   9    1.49    2.29
  -3  12   0    0.29    2.49
   3 -12   0   -0.73    1.12
  -3  12   0    2.12    1.32
   3 -12   1    6.97    1.83
  -3  12  -1    9.21    1.67
  -3  12   1    4.94    1.58
  -3  12   1    4.47    2.59
  -3  12  -2   12.08    3.14
  -3  12   2   10.64    1.81
  -3  12   2    7.00    2.85
  -3  12  -3    7.01    2.42
  -3  12   3    4.66    2.72
  -3  12   3    8.43    1.83
  -3  12  -4    2.87    2.17
  -3  12   4    2.65    1.74
  -3  12  -5    2.06    2.16
  -3  12   5    1.24    1.92
  -3  12  -6    2.10    2.31
  -3  12   6    2.07    2.06
  -3  12   7    2.81    2.13
  -3  12   8    2.88    2.50
  -3  13   0   -0.58    2.70
  -3  13  -1    0.64    3.17
  -3  13   1   -1.09    3.01
  -3  13  -2    1.34    3.44
  -3  13   2    0.06    2.85
  -3  13  -3    3.11    3.26
  -3  13   3    2.92    2.41
  -3  13   3    0.23    2.96
  -3  13  -4    3.97    2.74
  -3  13   4   -0.83    2.53
  -3  13   5    0.93    2.64
  -3  13   6    1.87    2.92
  -3  14   0    0.84    3.10
  -3  14   1   -2.79    3.37
  -3  14  -1    0.98    3.06
  -3  14   2   -2.19    3.39
  -4   0   0 3106.66   57.06
  -4   0  -1  863.78   19.13
  -4   0   1  948.35   18.78
   4   0  -2  141.39    5.92
  -4   0   2  240.20    5.94
  -4   0   3   21.76    1.58
   4   0  -3   21.30    2.11
   4   0  -4    5.11    1.28
   4   0   4    5.18    1.40
   4   0   5    4.39    1.40
   4   0  -5    2.64    1.11
  -4   0   5    3.64    0.85
   4   0  -6   39.43    3.00
  -4   0   6   59.52    2.03
  -4   0   7    3.23    0.74
   4   0   7    3.75    1.15
   4   0  -7    1.62    1.02
   4   0  -8    6.25    1.32
  -4   0   8   17.27    1.21
   4   0  -9   18.52    1.82
   4   0  -9   21.57    0.58
  -4   0 -10    3.02    0.86
   4   0 -10   19.84    1.97
  -4   0 -11   10.34    1.48
   4   0 -11   62.74    3.51
   4   0 -12   39.40    2.92
  -4   0 -12    7.63    1.13
   4   0 -13   16.48    2.07
  -4   0 -13    2.93    0.66
  -4   0 -14    0.33    0.46
   4   0 -14    0.84    1.19
   4   0 -15    1.75    0.76
   4   0 -15   -0.82    1.38
  -4   0 -15   -0.18    0.53
  -4   0  15    2.60    1.45
  -4   0  16    2.25    1.94
   4   0 -16   -0.11    1.46
  -4   0  17    8.83    2.73
   4   0 -17    2.38    1.73
  -4   0  18   24.63    2.99
   4   0 -18    3.62    1.83
  -4   0  19   12.89    2.37
  -4   1   0  701.51   15.51
  -4  -1   0  802.30   16.66
  -4   1  -1  386.18    9.23
  -4   1   1  385.24    8.45
   4  -1   1  390.58    9.51
  -4   1  -2  120.87    4.57
  -4   1   2  123.00    3.60
  -4   1   2  111.14    2.37
   4  -1  -4    9.85    1.57
   4   1  -4   16.06    1.98
  -4  -1   5  140.22    3.54
   4   1   5  139.86    4.59
   4  -1   5  124.67    3.76
   4   1  -5   91.43    4.49
   4  -1  -5   74.56    4.06
   4   1  -6   38.02    2.89
  -4  -1   6   70.58    2.29
   4   1   6   82.84    3.30
   4  -1   6   77.71    2.97
   4  -1  -6   33.35    2.54
  -4   1   7   99.02    2.75
   4  -1  -7   41.71    2.88
  -4  -1   7  108.73    2.74
   4   1   7  105.97    3.33
   4   1  -7   63.35    3.95
   4   1  -8   37.16    3.03
   4  -1  -8   13.59    1.67
  -4  -1   8   48.07    1.75
  -4   1   8   41.27    1.80
  -4  -1  -8    1.42    0.86
   4   1   8   47.70    2.24
  -4   1  -9    0.61    0.64
   4   1  -9    2.08    1.31
   4  -1  -9    0.71    0.83
  -4  -1  -9    0.11    0.43
  -4  -1   9    4.93    1.00
  -4   1  -9    6.10    1.68
   4   1 -10   22.32    0.81
   4   1 -10   19.16    2.18
  -4   1 -10    2.75    0.71
  -4   1 -10    9.43    2.00
  -4  -1 -10    1.36    0.48
   4   1 -11   33.05    2.70
  -4   1 -11   21.83    2.63
  -4  -1 -11    3.87    0.85
  -4   1 -11    5.18    0.84
  -4  -1 -12    2.73    0.71
  -4   1 -12    4.21    0.83
  -4   1 -13    3.20    0.64
  -4   1 -13   10.79    2.20
   4   1 -13   15.80    2.08
  -4  -1 -13    2.53    0.62
   4  -1 -14    0.66    1.22
  -4  -1  14   14.40    2.01
   4   1 -14    1.36    1.32
  -4  -1 -14    0.28    0.50
  -4   1 -14    0.13    0.37
  -4   1  14   14.85    2.16
  -4   1 -14    0.49    1.53
   4   1 -14    7.05    0.85
   4  -1 -15   -0.92    1.12
   4   1 -15    0.83    0.66
   4   1 -15   -1.06    1.46
  -4  -1  15    2.35    1.39
  -4   1 -15   -0.25    0.52
  -4   1  15    0.94    1.37
  -4  -1  16    5.25    1.82
   4   1 -16    0.38    1.48
  -4   1  16    3.30    2.04
  -4   1  17   25.59    3.18
  -4  -1  17   25.11    2.92
   4   1 -18    2.41    1.96
  -4   1  18   14.52    2.81
   4  -1 -18    0.29    1.53
  -4  -1  18   17.36    2.34
  -4   1  19   26.74    2.83
  -4  -1  19   21.80    2.54
  -4   2   0  104.38    3.25
  -4   2   0   99.38    2.49
  -4   2  -1    2.20    0.74
  -4   2   1    1.68    0.36
   4  -2  -1    2.33    1.02
  -4   2  -1    1.73    1.12
   4  -2  -1    2.87    1.27
   4  -2   1    2.94    1.20
  -4   2   2   17.98    0.73
  -4   2  -2   14.44    1.60
  -4   2   2   17.55    1.27
   4  -2   2   21.23    1.92
   4  -2  -2   11.96    1.58
  -4   2  -2   24.75    1.86
  -4   2  -3   23.72    2.16
  -4   2   3   33.77    1.68
  -4   2   4   81.13    2.54
  -4  -2   4   83.75    1.78
   4   2  -5  256.88    8.96
  -4   2  -5  200.07    8.71
  -4   2  -6  385.54   10.19
  -4  -2   6  522.02    6.76
   4   2   6  406.47    8.09
   4   2  -6  491.19   10.84
  -4  -2  -7    8.17    2.04
   4   2  -7  116.52    4.91
   4  -2  -7   99.93    3.99
  -4  -2   7  171.53    3.02
  -4   2  -7   80.95    4.66
   4  -2  -7   87.54    1.76
   4  -2  -8    9.44    0.61
  -4   2  -8   13.60    2.37
  -4  -2   8   43.57    1.50
   4   2   8   39.18    1.93
   4   2  -8   26.77    2.67
  -4  -2  -8    1.00    0.69
  -4  -2  -9   -0.23    0.50
   4   2  -9   -0.26    1.24
  -4  -2   9    1.92    0.80
  -4   2  -9    0.24    1.34
  -4  -2 -10    0.12    0.49
   4   2 -10    0.46    1.38
  -4   2 -10   -0.19    1.36
  -4   2 -10    0.37    0.52
   4   2 -11    0.66    0.57
   4  -2 -11    1.83    0.99
  -4   2 -11    0.08    0.34
  -4  -2 -11    0.32    0.48
  -4   2 -11   -0.06    1.40
   4   2 -12   26.06    1.19
   4   2 -12   17.49    2.53
   4  -2 -12   11.43    1.62
  -4   2 -12   25.04    3.01
  -4   2 -12    3.77    0.76
  -4  -2 -12    1.55    0.56
   4  -2 -13    2.20    1.04
  -4  -2 -13    0.29    0.37
  -4   2 -13    1.18    1.56
  -4   2 -13    1.12    0.48
   4   2 -14    4.02    0.70
   4   2 -14    2.12    1.90
  -4  -2  14   10.60    1.82
  -4   2  14   10.42    2.08
  -4   2 -14    0.56    0.43
  -4   2 -14   -0.60    1.87
   4   2 -15   14.42    1.18
  -4  -2  15   20.32    1.67
   4   2 -15    3.24    1.95
  -4   2 -15    1.84    0.65
  -4   2  15   19.39    1.91
  -4   2 -15    3.20    1.91
  -4   2 -16    1.12    0.49
  -4   2  16   27.15    2.91
   4   2 -16    5.32    2.20
  -4  -2  16   19.44    2.22
  -4   2 -16    1.29    1.76
   4   2 -17   11.46    2.79
  -4   2  17   57.57    4.06
  -4  -2  17   61.84    3.59
  -4   2 -17    4.99    2.11
   4   2 -18   11.74    3.14
  -4   2  18   51.93    3.92
  -4  -2  18   40.28    2.57
  -4   2 -18    1.90    1.88
  -4  -2  19   15.13    2.31
   4   2 -19    4.04    2.76
   4  -3   0    5.04    1.28
   4  -3   0    6.65    1.41
  -4   3   0    7.00    0.64
  -4   3   1   46.33    1.34
   4  -3  -1   25.99    2.24
  -4   3   1   36.95    1.75
   4  -3  -1   46.37    2.50
   4  -3   1   45.81    2.35
  -4   3  -1   50.79    1.61
  -4   3  -1   34.32    1.74
  -4   3   2   19.99    1.03
  -4  -3   2   20.67    2.30
   4  -3  -2    9.52    1.48
  -4   3   2   19.26    1.26
   4  -3  -2   25.20    2.01
   4  -3   2   14.40    1.50
  -4   3  -2   11.86    1.23
  -4   3  -2   16.34    1.11
  -4  -3   3   17.91    2.16
   4  -3  -3    4.59    1.13
  -4   3  -3    7.52    1.31
  -4   3   3   10.12    0.88
   4  -3  -3   10.34    1.49
   4  -3   3   12.04    1.42
  -4   3  -3    6.71    1.67
   4  -3  -3    6.78    0.76
  -4   3  -3   12.18    1.19
  -4  -3   4  131.07    2.88
  -4  -3   4  270.95    5.87
   4  -3  -4  118.86    4.47
   4  -3  -4  217.27    5.99
  -4   3   4  250.43    4.50
  -4   3  -4  110.55    5.52
  -4   3  -4  113.91    4.30
  -4   3  -4  204.88    5.00
   4  -3  -4  104.75    3.06
  -4   3  -5  149.35    5.25
  -4  -3   5  320.98    5.90
  -4   3  -5  121.61    6.01
  -4   3   5  228.36    4.63
  -4   3  -5  273.43    6.24
   4  -3  -5  108.07    3.38
  -4  -3   5  214.61    3.59
  -4   3  -6  123.64    5.76
  -4  -3   6  253.12    4.39
   4   3   6  460.09    7.89
  -4   3   6  314.42    5.04
  -4   3  -6  410.62    8.22
  -4  -3   6  256.45    3.86
   4  -3  -6  138.29    3.03
   4  -3  -7   45.01    1.34
  -4  -3   7  170.13    3.02
   4   3   7  175.44    4.56
  -4   3  -7   59.32    4.03
   4   3  -7   93.10    4.60
   4  -3  -8    7.49    0.69
  -4  -3  -8    0.29    0.59
   4   3  -8   23.38    2.63
  -4  -3   8   45.39    1.58
  -4   3  -8   12.41    2.20
   4   3   8   52.18    2.71
   4   3   9    2.99    1.22
   4   3  -9    0.85    1.32
  -4  -3  -9   -0.03    0.42
   4  -3  -9   -0.13    0.83
  -4  -3   9    2.33    0.75
  -4   3  -9    1.43    1.54
  -4  -3 -10   -0.22    0.50
  -4   3 -10    0.17    0.52
   4  -3 -10   -0.73    0.90
  -4   3 -10   -0.26    1.43
   4   3 -10    2.51    1.48
  -4  -3 -11    0.39    0.45
   4  -3 -11    5.82    1.27
   4   3 -11   12.24    2.30
  -4   3 -11    1.79    0.54
  -4   3 -11    8.52    2.07
   4   3 -12    4.67    1.97
  -4   3 -12    0.54    0.48
   4  -3 -12    0.77    0.90
   4   3 -12    3.79    0.97
  -4  -3 -12    0.02    0.35
  -4   3 -12    1.57    1.73
   4   3 -13   10.80    2.41
  -4   3 -13    9.49    2.54
   4   3 -14   10.45    1.13
   4   3 -14   13.78    2.70
  -4   3  14   14.19    2.10
  -4   3 -14    1.87    0.62
  -4   3 -14    1.46    1.82
   4   3 -15    4.74    1.00
  -4   3 -15    0.72    0.53
   4   3 -15    3.21    2.23
  -4   3  15    6.63    1.89
  -4  -3  15    8.33    1.39
  -4   3 -15    1.70    1.94
   4   3 -16   10.37    2.78
  -4  -3  16   32.28    2.53
  -4   3  16   34.72    3.29
  -4   3 -16    2.45    1.92
   4   3 -17   10.86    2.96
  -4   3  17   53.07    4.25
  -4  -3  17   43.80    2.67
  -4   3 -17    3.87    2.10
   4   3 -18   10.00    2.97
  -4   3 -18    2.11    2.01
  -4   4   0  200.01    5.08
   4  -4   0  184.76    5.74
  -4   4   1  200.82    4.40
   4  -4   1  166.68    5.82
   4  -4  -1  131.40    5.66
  -4   4  -1  236.58    5.18
  -4   4   1  240.20    5.08
   4  -4  -1  123.41    4.74
   4  -4  -1  127.51    4.93
  -4   4  -1  325.85    5.16
  -4  -4   2   57.94    3.75
   4  -4  -2   14.91    1.70
  -4   4   2   40.99    1.62
   4  -4  -2   29.02    2.12
   4  -4  -2   28.33    1.59
  -4   4  -2   55.87    1.92
   4  -4  -3    6.06    1.26
  -4  -4   3    9.44    2.23
  -4  -4   3   12.74    0.98
   4  -4  -3    3.59    0.93
  -4   4   3    8.94    0.90
   4  -4  -3    4.60    0.61
  -4   4  -3   11.36    1.01
  -4  -4   4   11.72    0.71
  -4   4  -4    8.08    1.12
   4  -4  -4    4.19    1.01
  -4   4   4   11.12    1.01
   4  -4  -4    6.00    1.13
  -4   4  -4   13.88    1.15
   4  -4  -4    5.58    0.57
  -4   4  -4    4.90    1.60
  -4  -4   4   15.37    2.30
  -4   4  -5   11.41    1.47
  -4  -4   5   15.03    1.72
  -4   4   5   15.32    1.30
  -4   4  -5   14.69    1.34
  -4   4  -5    6.34    1.74
   4  -4  -5    4.63    1.15
  -4  -4   5   11.10    0.65
   4  -4  -5    6.66    0.60
  -4   4  -6   73.66    2.86
   4  -4  -6   31.53    2.27
  -4   4  -6   42.47    3.52
  -4   4  -6  109.87    3.39
  -4  -4   6   95.84    2.00
   4  -4  -6   29.26    1.39
   4  -4  -7    5.85    0.64
  -4   4  -7   10.42    1.65
  -4  -4   7   20.70    1.29
   4   4   7   30.98    2.46
  -4   4  -7    9.76    1.95
  -4  -4   7   19.10    1.34
   4  -4  -7    4.57    1.09
   4  -4  -8    2.51    0.53
  -4  -4   8   15.39    0.97
   4   4   8   12.91    1.78
  -4  -4  -8    0.12    0.45
   4  -4  -8    2.37    0.97
   4  -4  -8    2.37    0.96
  -4   4  -8    5.86    1.71
  -4  -4  -9    0.52    0.51
  -4  -4   9   22.07    1.12
   4  -4  -9    2.57    0.93
   4   4   9   23.38    1.99
   4  -4  -9    1.48    0.85
  -4   4  -9    5.48    1.75
  -4  -4 -10    0.90    0.54
  -4   4 -10    2.11    0.77
   4  -4 -10    2.81    0.95
   4  -4 -10    0.74    0.76
   4  -4 -11    1.65    0.82
  -4  -4 -11    0.67    0.45
   4   4 -12   85.72    4.93
  -4   4  12  111.68    4.39
  -4   4 -12   47.94    3.92
  -4   4 -12   14.25    1.22
  -4   4 -12  132.07    5.24
   4   4 -13   25.82    3.14
  -4   4  13   48.10    3.11
  -4   4 -13    3.42    0.61
   4  -4 -13    0.52    0.68
  -4   4 -13   46.67    3.77
  -4   4 -13    9.77    2.40
   4   4 -14    7.60    1.50
  -4   4 -14    7.73    2.74
  -4   4  14    7.80    1.71
  -4  -4  14   12.45    1.49
   4   4 -14    5.68    2.13
  -4   4 -14    1.08    0.62
  -4   4 -14    2.36    1.81
  -4   4 -15    1.25    2.65
   4   4 -15    1.95    2.21
  -4  -4  15    2.87    1.41
  -4   4  15    2.55    2.18
  -4   4 -15   -1.23    2.07
   4   4 -15    0.55    1.19
  -4   4 -16    4.27    2.85
  -4   4  16    5.36    2.90
   4   4 -16    3.71    2.47
  -4  -4  16    0.57    1.70
  -4   4 -16   -0.43    1.96
   4   4 -17    7.03    2.72
  -4  -4  17    4.03    1.46
  -4   4 -17   -0.54    2.00
  -4   4 -18   -0.09    2.02
   4  -5   0  177.32    7.02
   4  -5   0  221.98    7.02
  -4   5  -1  188.41    3.81
   4  -5   1  104.77    4.63
   4  -5  -1   76.74    4.25
  -4   5  -1  167.10    3.97
  -4   5  -1  139.21    5.97
  -4   5   1  176.16    3.99
   4  -5  -1  104.48    3.87
   4  -5  -2   30.27    2.44
  -4   5  -2   95.00    2.78
  -4   5  -2  102.69    5.05
  -4   5   2   99.44    2.81
   4  -5  -2   49.35    2.24
  -4   5  -2  138.71    3.01
  -4  -5   3    4.74    0.71
  -4  -5   3    2.89    2.16
   4  -5  -3    1.51    0.87
  -4   5  -3    3.72    0.85
   4  -5  -3    2.02    0.51
   4  -5  -3    1.33    0.79
  -4   5   3    3.96    0.83
  -4   5  -3    6.94    0.96
  -4  -5   4    7.46    0.63
   4  -5  -4   -0.14    0.66
  -4  -5   4   16.06    2.39
   4  -5  -4    0.48    0.44
  -4   5  -4   16.81    1.39
  -4  -5  -4   -0.61    0.88
   4  -5  -5    3.54    0.75
  -4  -5   5   20.59    2.21
  -4  -5  -5    0.03    0.58
  -4   5  -5   22.09    1.48
  -4  -5   5   15.70    0.86
   4  -5  -5    5.58    0.63
  -4   5  -6    1.31    1.52
   4  -5  -6   -0.14    0.51
  -4   5  -6    2.44    1.00
   4  -5  -6    0.28    0.36
  -4   5  -6    0.52    0.68
  -4  -5   6   -0.50    1.31
  -4  -5   6    1.20    0.53
   4  -5  -7    4.35    0.65
   4  -5  -7    4.46    1.02
  -4   5  -7   47.43    1.80
  -4  -5   7   36.67    1.51
  -4   5  -7   11.57    2.31
  -4  -5   7   28.51    1.49
  -4   5  -8    6.32    2.22
   4  -5  -8    1.32    0.77
   4  -5  -8    1.73    0.48
  -4  -5   8   12.23    0.88
  -4   5  -8    6.96    1.25
   4   5   8    7.83    1.87
   4  -5  -9    2.61    0.90
  -4   5  -9    4.24    2.15
   4  -5  -9    3.15    0.69
  -4   5  -9    5.46    1.34
   4  -5  -9    3.25    1.03
   4  -5 -10   12.21    1.47
  -4   5 -10   12.09    1.31
   4  -5 -11    5.66    1.11
  -4   5 -11    6.88    0.73
   4  -5 -12    3.86    0.91
  -4   5 -12   10.63    0.99
  -4   5 -13   13.10    2.92
  -4  -5  13   61.31    2.35
  -4   5  13   46.29    2.91
  -4   5 -13    3.96    0.60
  -4   5 -13   49.87    3.08
  -4   5 -14    0.08    1.91
  -4   5 -14    4.30    1.96
  -4  -5  14    3.72    0.98
  -4   5  14    4.97    2.01
  -4   5 -15    0.17    1.79
  -4   5  15    1.77    2.44
  -4  -5  15    1.00    1.39
   4   5 -15    2.38    2.55
  -4   5 -15   -0.25    1.91
   4   5 -16    3.46    2.85
  -4   5 -16   -0.50    1.93
  -4   5 -17   -0.52    1.99
   4  -6   0   57.84    3.40
  -4   6   0   87.66    4.67
  -4   6   0   90.00    2.73
   4  -6   0   62.03    3.05
   4  -6  -1   32.51    2.40
   4  -6   1   25.82    2.09
  -4   6  -1   34.54    3.12
  -4   6  -1   42.15    1.63
  -4   6   1   43.60    1.85
   4  -6   1   32.22    2.21
   4  -6  -1   23.75    1.53
  -4   6  -2   31.43    1.62
  -4  -6  -2    0.34    0.88
   4  -6  -2    5.34    1.10
  -4   6  -2   18.08    1.04
  -4   6  -2   17.55    2.47
   4  -6  -2    9.66    0.92
  -4   6  -3   12.76    1.21
  -4  -6   3   10.26    0.90
  -4   6  -3    8.15    0.80
  -4  -6  -3   -0.16    0.72
  -4  -6   3   10.43    2.79
   4  -6  -3    3.10    0.56
  -4   6  -3    4.59    1.65
  -4  -6   4   11.45    0.78
  -4  -6  -4    0.60    0.68
  -4  -6   4   12.90    2.48
  -4   6  -4   11.30    0.96
   4  -6  -4    4.80    0.63
  -4   6  -4   17.92    1.27
  -4  -6   5   46.12    3.41
  -4   6  -5   22.41    1.23
  -4  -6  -5    0.91    0.56
  -4   6  -5   46.12    2.04
  -4  -6   5   28.10    1.26
   4  -6  -5    7.59    0.78
   4  -6  -6   14.82    1.04
   4  -6  -6   15.62    1.65
  -4  -6   6   74.73    2.83
  -4  -6  -6    4.07    1.03
  -4  -6   6   76.38    1.94
  -4   6  -6   79.86    2.50
  -4  -6   7   85.49    2.06
   4  -6  -7    5.73    1.21
  -4   6  -7  122.12    6.25
  -4  -6   7   67.65    2.03
  -4   6  -7  168.72    4.41
  -4  -6   8   16.68    0.99
  -4  -6   8   14.15    1.54
  -4   6  -9    7.15    2.54
   4  -6  -9    1.30    0.53
   4   6   9    7.80    1.77
  -4   6 -10    8.46    2.72
  -4   6  10   22.79    2.54
   4  -6 -10    2.11    0.70
   4   6  10   16.56    1.44
  -4   6 -10    1.93    0.69
  -4   6 -11   11.93    3.01
  -4   6  11   42.95    3.06
  -4   6 -11    3.97    0.71
  -4   6 -11   35.37    2.38
  -4   6 -12    4.76    0.61
  -4   6 -12   17.00    3.44
  -4   6 -13    6.53    2.79
  -4  -6  13   14.31    1.06
  -4   6 -14    2.63    2.46
  -4   6 -14    6.62    2.05
  -4  -6  14    5.91    1.31
  -4   6 -15    1.34    2.29
  -4   6  15    8.84    3.10
  -4  -7   0   -0.67    0.97
   4  -7   0    0.70    0.64
  -4   7   0   -0.82    1.73
  -4   7  -1   26.90    2.04
   4  -7   1    7.43    1.42
   4  -7  -1    5.18    1.21
  -4   7   1   23.14    2.65
  -4   7  -1   12.48    1.04
  -4  -7   1    2.28    1.13
   4  -7   1    7.19    1.17
   4  -7  -1    6.43    0.90
  -4   7  -1   10.00    2.23
  -4  -7  -1    4.88    1.05
  -4  -7  -2   -0.14    0.63
   4  -7   2    1.11    1.00
   4  -7  -2    1.01    0.50
   4  -7  -2    4.03    1.10
  -4   7  -2    4.02    1.11
  -4  -7   2    3.93    0.95
  -4   7  -2    1.63    0.60
  -4   7  -2    1.02    1.62
  -4   7  -3    7.48    1.19
  -4  -7   3    5.70    0.78
  -4  -7   3    4.05    2.80
  -4   7  -3    3.52    0.68
  -4  -7  -3    9.05    1.03
   4  -7  -3    6.60    0.86
  -4   7  -3    3.70    1.71
  -4  -7   4   51.66    1.61
  -4   7  -4   84.24    2.51
  -4   7  -4   41.72    1.49
  -4   7  -4   42.53    3.58
  -4  -7   4   68.32    4.10
  -4  -7  -4    9.10    1.34
   4  -7  -4   15.24    1.13
  -4   7  -5  127.22    3.38
  -4   7  -5   53.74    1.76
  -4  -7  -5   16.28    1.78
  -4  -7   5  125.77    2.70
   4  -7  -5   22.11    1.53
   4  -7  -6   32.85    2.37
  -4   7  -6   76.43    1.90
  -4  -7   6  128.71    3.78
  -4  -7  -6   13.79    1.60
  -4  -7   6  151.54    3.36
  -4   7  -6  200.65    4.10
   4  -7  -6   28.51    1.63
   4  -7  -7    9.79    0.87
  -4  -7   7   83.10    2.10
   4  -7  -7   12.64    1.65
  -4   7  -7   36.76    1.43
  -4  -7  -7    5.75    0.94
  -4  -7   7   77.68    2.14
  -4   7  -7   86.01    2.90
   4  -7  -8    4.01    0.71
  -4   7  -8   16.47    1.14
  -4  -7   8   32.51    1.23
   4  -7  -8    2.27    0.97
  -4   7  -8   35.96    4.29
  -4  -7   8   27.67    1.92
  -4  -7  -8    1.43    0.57
  -4   7   9    0.82    1.91
  -4   7  -9    0.16    1.90
   4  -7  -9    0.21    0.41
  -4   7  -9    0.21    0.64
  -4  -7   9    0.30    0.68
  -4   7 -10    0.20    0.48
  -4   7 -10    3.67    2.22
  -4   7  10   12.53    2.37
   4  -7 -10    0.14    0.49
  -4   7 -10    1.11    0.62
   4   7  10   15.26    1.89
  -4   7 -11    1.99    2.13
  -4   7  11   11.14    2.05
  -4   7 -11    4.10    0.76
   4  -7 -11    0.96    0.61
  -4   7 -11   11.81    1.83
  -4   7 -12    0.40    2.47
  -4  -7  12    1.44    0.68
  -4   7 -12    4.37    2.02
   4  -7 -12    0.08    0.69
  -4  -7  13   19.47    1.32
  -4   7 -13   22.93    2.77
  -4   7 -14    3.96    2.91
   4  -8   0    7.27    0.98
  -4  -8   0    8.28    1.01
   4  -8   1    1.50    0.86
   4  -8  -1    2.91    1.11
  -4  -8   1    1.22    0.89
  -4  -8  -1    0.72    0.73
   4  -8  -1    0.75    0.47
  -4   8   1    1.95    2.01
  -4   8  -1    0.77    1.85
  -4  -8   1    0.31    0.68
  -4  -8   2   11.32    1.21
  -4   8  -2   17.32    1.93
   4  -8  -2    2.64    0.66
  -4  -8  -2    3.12    0.90
   4  -8  -2    3.66    1.18
  -4   8  -2   14.38    2.40
   4  -8   2    6.08    1.24
  -4  -8   2   10.59    1.35
  -4   8  -3    9.78    2.29
  -4  -8   3   17.32    1.22
  -4   8  -3   22.78    1.90
   4  -8  -3    2.97    0.81
  -4  -8  -3    4.44    0.97
  -4  -8   3    6.56    1.20
  -4  -8   4   29.10    1.46
  -4   8  -4   28.97    1.87
  -4   8  -4   19.69    3.03
  -4  -8  -4    5.60    0.99
  -4  -8   4   26.15    3.39
   4  -8  -4    3.72    0.65
  -4  -8   4   15.28    1.57
  -4   8  -5  109.41    3.30
  -4   8  -5   60.43    4.72
  -4  -8  -5   11.39    1.28
  -4  -8   5  118.38    4.79
  -4  -8   5   70.42    2.16
   4  -8  -5   15.26    1.25
  -4  -8   5   55.07    2.68
  -4  -8   6   51.16    2.53
  -4   8  -6   73.18    2.61
  -4  -8   6  115.06    3.76
   4  -8  -6   11.88    1.68
  -4  -8  -6    8.50    1.08
  -4  -8   6  100.82    2.92
   4  -8  -6   10.61    0.99
   4  -8  -7    6.62    0.89
  -4   8  -7   50.88    2.33
  -4  -8   7   27.04    1.31
  -4   8  -7   25.73    1.13
   4  -8  -7    6.70    1.41
  -4  -8   7   29.18    1.58
  -4   8   7   59.59    3.39
  -4   8   8   15.84    2.35
   4  -8  -8    1.48    0.48
  -4  -8   8   14.05    0.89
  -4   8  -8    6.15    0.68
  -4  -8   8   11.42    1.41
  -4   8  -9    0.38    1.85
  -4  -8   9    1.53    1.46
  -4   8   9    2.91    1.87
   4  -8  -9    0.35    0.46
  -4   8  -9    0.09    0.43
   4   8   9   -1.56    1.85
  -4   8 -10    0.63    1.91
  -4   8  10    3.54    1.56
   4  -8 -10    0.60    0.48
   4   8  10    4.02    1.50
  -4   8 -11    2.03    2.12
  -4  -8  11    1.23    0.39
   4  -8 -11    0.47    0.51
  -4  -8  11    0.28    0.67
  -4   8  12   15.01    2.94
  -4   8 -12   17.19    2.10
  -4   8 -13   21.66    4.18
   4  -9   0   40.56    2.75
  -4  -9   0   34.88    1.96
  -4  -9   1   55.01    2.37
   4  -9   1   34.97    2.55
   4  -9  -1   20.09    1.89
  -4   9   1   27.28    3.26
  -4   9  -1   31.87    3.47
  -4  -9  -1   15.57    1.31
  -4  -9   1   29.07    1.82
   4  -9   1   12.81    1.56
   4  -9  -1    6.63    0.94
  -4  -9   2   20.28    1.37
   4  -9  -2    9.31    1.50
  -4   9   2   18.54    2.97
  -4  -9  -2    7.21    0.96
  -4  -9   2   16.25    1.47
   4  -9   2    9.18    1.47
   4  -9  -2    3.93    0.79
  -4  -9   3   14.16    1.11
   4  -9   3    7.14    1.71
  -4  -9   3   46.94    4.43
   4  -9  -3   -0.05    0.49
  -4   9  -3   40.05    3.88
  -4  -9   3   39.99    1.97
  -4  -9  -3    2.56    0.71
  -4   9  -4    2.36    2.47
  -4  -9   4    1.92    0.76
   4  -9  -4   -0.21    0.45
  -4   9  -4    0.48    1.60
  -4  -9  -4    2.24    0.67
  -4  -9   4    1.85    0.90
  -4   9  -5   24.08    2.21
  -4  -9   5   26.19    3.25
  -4   9   5   17.11    2.32
   4  -9  -5    1.61    0.57
  -4   9  -5   24.07    3.67
  -4  -9  -5    3.36    0.86
  -4  -9   5   25.43    1.54
  -4  -9   5   15.70    1.22
  -4   9  -6    2.64    2.67
  -4   9   6    7.55    2.00
  -4  -9   6    2.74    0.89
  -4  -9   6    2.75    1.00
   4  -9  -6    0.59    0.46
  -4   9  -6    5.83    1.45
  -4   9  -7   17.31    1.90
  -4   9  -7    7.67    2.78
  -4  -9   7    8.60    0.87
   4  -9  -7    1.50    0.55
  -4  -9   7   12.88    1.10
  -4   9   7   16.08    2.24
  -4  -9   7   10.68    1.20
  -4  -9   8    5.28    1.27
  -4  -9   8    7.95    0.68
  -4  -9   8    5.78    0.80
  -4   9   8    6.21    1.72
  -4  -9   9    4.09    1.65
  -4   9   9    4.10    1.78
   4  -9  -9    0.64    0.43
  -4  -9   9    2.64    0.48
  -4   9 -10    7.76    2.65
   4  -9 -10    1.87    0.66
  -4   9 -11   30.01    2.54
  -4   9  11   29.89    3.46
   4 -10   0   29.14    2.51
  -4 -10   0   31.05    1.89
   4 -10  -1   22.66    2.11
   4 -10   1   40.00    2.76
  -4 -10  -1   21.76    1.74
  -4  10   1   39.48    3.88
  -4 -10   1   26.15    1.59
  -4  10  -1   40.25    4.06
   4 -10  -2    9.69    1.57
  -4 -10   2    9.13    1.02
  -4 -10  -2    6.19    1.27
  -4  10   2   12.93    2.89
  -4  10  -2   12.88    2.81
  -4  10   3    3.97    1.66
  -4 -10   3    4.00    0.81
  -4 -10  -3    0.97    0.91
  -4  10  -4    6.02    3.03
  -4  10   4    2.39    1.56
  -4 -10   4    5.84    3.26
  -4 -10  -4    0.79    0.88
  -4 -10   4    1.32    0.70
  -4  10  -5    4.88    2.94
  -4  10   5    6.93    1.75
  -4 -10   5    1.92    2.79
  -4  10  -5   -1.60    1.95
  -4 -10   5    1.28    0.87
  -4  10  -6    8.03    3.25
  -4  10   6    5.12    1.55
  -4 -10   6    5.55    0.97
  -4 -10   6    9.81    2.17
  -4  10  -6    9.88    2.13
  -4  10  -7    2.41    3.04
  -4  10   7    1.75    1.89
  -4  10  -7    0.43    1.79
  -4 -10   7    1.72    0.72
  -4 -10   7    0.51    0.62
  -4  10  -8   12.67    3.43
  -4  10   8    6.15    2.39
  -4  10   9   16.61    3.00
  -4  10  10   22.52    3.58
  -4  11   0   11.01    1.39
   4 -11   0    6.42    1.87
  -4 -11   0    4.91    1.08
  -4  11   0    9.41    3.07
  -4 -11  -1    5.53    1.09
  -4  11  -1    8.28    1.24
  -4 -11   1    7.19    1.16
   4 -11  -1    3.44    1.49
  -4  11   1   11.66    1.56
  -4  11   1    6.04    2.95
  -4  11  -1    7.01    3.03
  -4  11  -2    4.99    1.09
  -4 -11  -2    3.39    0.99
  -4  11   2    7.98    1.64
  -4 -11   2    4.35    1.02
   4 -11  -2    1.14    1.17
  -4  11   2    3.49    2.83
  -4  11  -2    3.86    2.71
  -4  11  -3    3.02    1.03
  -4 -11   3    1.89    0.82
  -4 -11   3    3.12    3.89
  -4  11   3    5.54    1.78
  -4  11  -3    1.93    2.70
  -4  11  -4    4.64    3.02
  -4 -11   4   10.31    3.41
  -4  11   4   12.03    2.24
  -4 -11   4    2.63    0.65
  -4  11  -5   11.92    3.72
  -4 -11   5   23.04    3.49
  -4  11   5   15.97    2.59
  -4  11  -6   11.82    3.88
  -4  11   6   17.82    2.77
  -4  11  -7    9.31    3.96
  -4  11  -7   17.89    2.81
  -4  11   7   15.55    3.01
  -4  11   8   12.16    3.18
  -4 -12   0    2.18    0.93
  -4  12   0    5.11    1.89
   4 -12   0    5.89    1.93
  -4  12   0    1.50    2.95
  -4 -12  -1    1.16    0.87
   4 -12  -1    0.39    1.66
  -4  12   1    0.91    1.89
  -4  12   1   -1.36    3.21
  -4  12  -1    0.66    3.16
   4 -12  -2    0.83    1.32
  -4  12   2    4.32    2.18
  -4  12   2    0.33    3.11
  -4  12  -2    0.95    2.91
   4 -12  -3    0.92    1.33
  -4  12   3    9.27    2.52
  -4  12  -3    5.39    3.03
  -4  12  -4    5.38    3.33
  -4  12   4   17.35    2.98
  -4  12   5   51.81    4.09
  -4  12  -5   28.99    4.77
  -4  12   6   30.73    3.38
  -4  12   7   27.70    3.34
  -4  13   0   -1.57    3.54
  -4  13   1    1.22    3.47
  -4  13  -1    0.31    3.47
  -4  13  -2    3.39    3.44
   4 -13  -4    0.76    1.48
  -4  13   4   10.62    2.25
  -4  13   5   12.18    2.46
  -4  14   1   13.41    4.33
  -5   0   0    0.71    1.48
  -5   0  -1   53.03    3.38
  -5   0   1   60.64    3.20
  -5   0   2   10.44    1.84
  -5   0  -2    8.02    2.15
   5   0  -3  195.36    7.14
  -5   0   3  162.22    3.14
   5   0  -4   50.96    3.68
   5   0   4   65.55    3.56
  -5   0   5   29.25    1.65
   5   0   5   33.44    2.50
   5   0  -6    0.65    1.34
  -5   0   6    0.43    0.86
  -5   0   7  129.80    3.39
   5   0   7  129.65    4.06
  -5   0   8   39.73    1.79
   5   0   8   48.90    2.62
   5   0  -9   27.51    3.04
  -5   0   9   67.89    2.39
   5   0 -10    0.21    1.63
  -5   0 -10   -0.12    0.62
   5   0 -11    2.75    1.75
  -5   0 -11    0.23    0.54
   5   0 -12   -0.73    1.64
  -5   0 -12   -0.03    0.45
   5   0 -13    4.81    2.04
  -5   0 -13    0.44    0.55
   5   0 -14    0.29    1.81
   5   0 -15    1.67    1.94
  -5   0  16   18.49    2.35
   5   0 -16    1.13    2.08
  -5   0  17    1.82    1.71
   5   0 -17   -0.88    2.34
  -5   0  18    0.04    2.28
  -5  -1   0   -0.23    1.72
  -5   1   0    0.36    1.41
  -5  -1  -1   48.42    3.68
  -5  -1   1   59.08    3.35
  -5   1  -1   47.54    2.95
  -5   1   1   43.85    2.36
   5  -1   1   38.80    3.02
  -5   1   1   31.99    1.46
  -5   1   2    1.43    1.00
  -5   1   2    1.16    0.30
  -5   1  -2    1.75    1.46
  -5   1   3    2.24    0.28
  -5   1  -3    4.61    1.91
   5   1   4   56.73    3.60
   5   1  -5   32.52    3.05
   5  -1  -5   25.77    2.67
   5   1   5   45.45    3.07
   5  -1   5   56.24    3.17
   5  -1   6    1.63    1.27
   5   1  -6    0.06    1.34
   5  -1  -6    1.46    1.49
  -5  -1   6   -0.74    0.90
  -5   1   6    1.16    0.73
   5   1   6    0.03    1.44
   5   1  -7   10.85    2.07
   5  -1  -7    9.92    2.01
  -5  -1   7   22.62    1.42
  -5   1   7   20.74    1.40
   5   1   7   32.14    2.78
   5  -1   7   27.72    2.18
   5   1  -8   15.05    2.50
   5  -1  -8   37.08    3.25
  -5  -1   8   35.32    1.86
  -5   1   8   85.59    2.52
   5   1   8  113.33    3.44
   5   1  -9    0.71    1.55
   5  -1  -9    0.59    1.33
  -5  -1  -9    0.05    0.67
  -5  -1   9    2.03    0.89
  -5   1   9   -0.89    1.08
   5   1 -10    2.93    1.86
   5  -1 -10    0.52    1.41
  -5   1 -10    0.76    0.78
  -5  -1  10    3.39    1.14
  -5  -1 -10   -0.18    0.57
  -5   1 -11    1.06    0.62
  -5  -1 -11    0.83    0.55
   5   1 -12    0.15    1.80
   5  -1 -12   -0.40    1.32
  -5  -1 -12   -0.33    0.56
  -5   1 -12   -0.06    0.36
  -5   1 -13   -0.12    0.53
   5   1 -13    1.48    1.97
   5  -1 -13   -0.38    1.27
  -5   1 -14    0.32    0.46
   5   1 -14    2.33    2.10
   5  -1 -14   -0.12    1.35
  -5   1  15    4.31    2.15
   5  -1 -15    0.60    1.49
   5   1 -15    0.08    2.23
  -5  -1  16    3.24    1.88
  -5   1  16    4.04    1.95
   5   1 -16   -0.09    2.52
   5  -1 -16   -1.42    1.74
  -5  -1  17    7.45    1.77
  -5   1  17    8.75    2.13
  -5   1  18    1.53    2.51
  -5  -1  18   -0.39    2.37
  -5  -1  19    2.41    2.57
  -5   2   0    0.27    0.53
  -5   2   0    0.64    0.90
   5  -2   0    0.04    1.41
   5  -2  -1  122.54    5.10
   5  -2   1   97.76    4.60
  -5   2  -1  129.69    4.54
  -5   2  -1  118.67    3.62
  -5   2   1  151.74    3.45
  -5   2   2   59.94    1.62
  -5   2  -2   62.15    3.38
   5  -2  -2   46.04    3.58
   5  -2   2   73.17    3.47
  -5   2  -2   85.12    3.42
  -5   2  -3  107.56    4.49
  -5   2   3  103.09    3.34
  -5  -2   4    3.89    0.32
  -5   2   4    6.17    1.11
  -5  -2   4    7.50    1.56
  -5  -2   5    0.38    1.15
  -5   2  -5   -0.24    1.75
   5   2   5    3.32    2.01
  -5  -2   6   -0.76    0.99
   5   2  -6    2.26    1.67
   5   2   6   -0.76    1.77
   5  -2  -7   32.33    2.88
  -5  -2   7   11.18    1.28
   5   2   7   37.25    2.78
   5   2  -7    7.57    2.06
  -5  -2  -8    0.36    0.78
   5   2  -8    1.57    1.75
   5  -2  -8    0.37    1.23
  -5  -2   8    3.11    0.87
  -5   2   8    1.96    1.04
  -5  -2  -9    0.61    0.67
   5   2  -9   16.50    2.43
   5  -2  -9   11.55    1.78
  -5  -2   9   46.22    1.78
   5   2   9   54.22    2.60
  -5  -2 -10    0.54    0.60
   5  -2 -10    4.80    1.48
  -5   2 -11    0.46    0.58
   5   2 -11    1.24    1.88
   5  -2 -11    0.70    1.26
  -5  -2 -11    0.06    0.43
   5   2 -12    0.35    1.74
   5  -2 -12   -0.51    1.33
  -5   2 -12   -0.08    0.44
  -5   2 -13    3.06    0.77
   5  -2 -13    6.02    1.81
  -5   2 -14    0.28    0.46
   5  -2 -14    1.38    1.53
   5   2 -15    2.55    2.36
   5  -2 -15    0.72    1.57
  -5   2 -15    0.33    0.41
  -5  -2  16    6.87    1.82
  -5   2  16    9.91    2.08
   5   2 -16    0.34    2.32
   5  -2 -16   -1.54    1.84
  -5   2  17    4.65    2.24
   5   2 -17    3.05    2.71
  -5  -2  18   -0.51    2.27
  -5   3   0    2.14    0.57
   5  -3   0    0.98    1.32
  -5   3  -1   31.70    1.99
   5  -3  -1   31.02    2.53
  -5   3  -1   27.15    1.31
  -5   3   1   26.66    1.10
  -5   3   2  116.42    2.67
   5  -3  -2   61.76    3.99
  -5  -3   2  176.74    5.74
  -5   3  -2   85.73    3.48
  -5   3   2  100.55    3.23
   5  -3  -2  161.50    5.35
   5  -3   2   98.45    3.95
  -5   3  -2  104.77    3.10
   5  -3   3    5.18    1.44
  -5   3  -3    2.13    1.05
   5  -3  -3    0.94    1.23
  -5  -3   3    6.72    2.27
  -5   3  -3    3.13    1.54
  -5   3   3    1.30    0.90
   5  -3  -3    3.43    1.52
  -5  -3   4   18.68    0.79
  -5   3  -4   11.11    1.83
   5  -3  -4    9.25    1.85
   5  -3  -4   23.67    2.32
  -5   3   4   15.78    1.20
  -5   3  -4   20.59    1.89
  -5  -3   5   20.92    1.90
  -5   3  -5    6.81    1.74
   5  -3  -5    5.03    1.54
  -5   3   5   13.55    1.27
  -5   3  -5   12.62    1.92
  -5  -3   5   16.61    0.79
  -5  -3   6    1.82    0.61
  -5   3  -6    3.90    2.12
  -5   3  -6    1.21    1.95
  -5   3   6    3.14    1.03
   5   3   6    4.75    2.17
  -5  -3   7    1.97    0.96
   5   3   7    2.25    1.81
  -5   3  -7   -0.66    1.99
  -5  -3   8   24.97    1.36
  -5  -3  -8    0.45    0.67
   5   3   8   22.54    2.22
  -5   3  -8    9.33    2.35
   5  -3  -8    8.65    0.63
   5   3  -9    9.80    2.35
  -5  -3  -9    0.46    0.63
   5  -3  -9    3.25    1.39
  -5  -3   9   16.56    1.17
   5   3   9   17.49    2.07
  -5   3  -9    2.92    1.97
   5  -3  -9    3.20    0.37
   5   3 -10   11.33    2.52
   5  -3 -10    4.41    1.44
  -5  -3  10   26.21    1.48
   5   3  10   32.52    2.21
  -5  -3 -10    0.37    0.44
  -5   3 -10    7.24    2.36
   5  -3 -10    8.50    0.50
  -5   3 -11    1.72    0.82
  -5   3 -11    3.63    2.22
   5  -3 -11    3.55    0.39
   5  -3 -11    2.95    1.42
   5   3 -12    3.88    2.14
   5  -3 -12    1.05    0.36
   5  -3 -12    0.16    1.27
  -5   3 -12   -0.43    2.02
  -5   3 -12    0.13    0.52
   5   3 -13    3.28    2.07
  -5   3 -13    0.62    0.54
   5  -3 -13    1.32    1.41
  -5   3 -13    0.92    2.12
  -5   3 -14    1.97    0.59
   5   3 -14    6.53    2.49
   5  -3 -14    2.21    1.56
  -5   3 -14    5.01    2.29
  -5  -3  15    1.32    1.66
  -5   3  15    2.81    2.05
   5   3 -15    1.97    2.39
  -5   3 -15    0.19    2.09
  -5  -3  16    0.72    1.35
  -5   3  16    1.74    1.59
   5   3 -16    0.24    2.47
  -5   3 -16   -0.69    2.14
   5   3 -17    4.60    2.95
  -5  -3  17    7.96    2.03
   5   3 -18    3.07    2.93
   5  -4   0    1.63    1.05
   5  -4   0    2.02    1.41
  -5   4   0    0.18    0.56
  -5   4   0    0.02    0.85
  -5   4   1    4.00    0.67
   5  -4   1    2.99    1.33
   5  -4  -1   10.14    1.81
  -5  -4   1    0.90    2.47
  -5   4   1   12.05    1.37
   5  -4  -1   11.45    2.23
  -5   4  -1    3.50    0.75
   5  -4  -2    6.64    1.62
  -5   4   2   13.92    1.26
   5  -4  -2   15.31    1.97
  -5  -4   2   17.42    2.82
   5  -4   2   14.56    1.72
  -5   4  -2   25.09    1.79
   5  -4  -3    8.01    1.75
  -5   4  -3   11.81    1.33
  -5   4   3   18.31    1.28
   5  -4  -3   11.94    1.63
  -5   4  -3   18.57    1.28
  -5   4   4   21.89    1.47
   5  -4  -4   17.66    2.00
  -5   4  -5   21.82    2.14
   5  -4  -5    7.04    1.67
  -5  -4   5   28.91    2.39
   5  -4  -5   12.31    1.76
  -5   4   5   25.68    1.57
  -5   4  -5   10.40    2.40
   5  -4  -5   13.96    1.14
  -5   4  -5   26.63    1.74
  -5  -4   5   18.49    0.86
   5  -4  -6    0.10    0.46
  -5   4  -6    3.92    1.42
  -5   4  -6   16.62    2.14
  -5  -4   6   20.71    2.09
   5  -4  -6   -0.34    1.01
  -5   4   6   -0.34    1.01
  -5   4  -6   -0.97    1.94
  -5  -4   6    8.69    0.66
   5  -4  -6    0.82    1.11
  -5   4  -7   15.55    2.14
   5  -4  -7    6.44    1.49
  -5  -4   7   18.74    1.43
   5   4   7   35.72    2.97
   5  -4  -7   11.66    1.68
  -5   4  -7   33.45    2.56
  -5   4  -7   11.52    2.55
   5  -4  -7   10.81    0.73
  -5   4  -8    5.16    1.86
  -5  -4  -8    0.71    0.60
  -5  -4   8   22.54    1.49
   5  -4  -8    8.68    1.59
   5   4   8   15.07    2.33
  -5   4  -8   18.95    2.45
  -5   4  -8    6.33    2.30
   5  -4  -8    5.57    0.54
  -5   4  -9   11.77    2.31
  -5  -4   9   18.15    1.32
   5   4   9   17.58    2.39
   5  -4  -9    4.19    1.31
  -5   4  -9   20.82    2.70
  -5  -4  -9    0.48    0.42
  -5   4  -9    6.45    2.33
   5  -4  -9    4.03    0.46
   5  -4 -10    1.08    0.38
  -5  -4 -10    0.25    0.55
   5  -4 -10    2.21    1.06
  -5   4 -10    0.85    2.10
   5  -4 -11    0.50    0.36
  -5   4 -11   -0.07    0.71
   5  -4 -11    0.87    0.87
  -5   4 -11   -1.07    2.18
   5  -4 -12   -0.01    0.38
   5  -4 -12    0.55    0.80
  -5   4 -12   -1.10    2.19
  -5   4 -12    0.17    0.47
   5   4 -13    1.50    2.38
  -5   4 -13   -0.05    0.48
  -5   4 -13   -0.47    2.13
  -5   4  14    5.37    2.36
  -5   4 -14   -0.75    2.63
   5   4 -14    2.50    2.59
  -5   4 -14    0.48    2.23
  -5  -4  15    3.71    1.63
  -5   4 -15    1.80    2.87
  -5   4  15    2.78    1.93
   5   4 -15    1.74    2.81
  -5   4 -15   -1.49    2.43
  -5  -4  16    5.67    1.28
   5   4 -16    8.24    3.43
  -5   4 -16    0.52    2.29
   5   4 -17    3.34    3.40
  -5   4 -17   -1.04    2.52
   5  -5   0    1.60    1.43
  -5   5   0    0.40    0.68
  -5   5   0    0.44    0.85
   5  -5  -1    0.29    1.02
   5  -5  -1    1.64    1.37
  -5   5  -1    3.22    0.72
  -5   5   1    3.70    0.98
  -5   5  -1    2.36    0.92
  -5   5   1    3.21    0.79
  -5  -5   2   93.62    5.07
   5  -5  -2   18.57    2.40
  -5   5  -2   44.92    2.17
  -5   5   2   66.74    2.37
   5  -5  -2   23.54    2.10
  -5   5  -2   64.94    2.05
  -5  -5   3   15.49    1.14
   5  -5  -3    2.46    0.92
   5  -5  -3    4.86    0.98
  -5  -5   3   13.81    2.93
   5  -5  -3    2.51    1.57
  -5   5   3    9.42    1.14
  -5   5  -3    9.25    1.02
  -5  -5   4   69.39    1.88
  -5  -5   4  129.03    5.20
   5  -5  -4   21.92    2.48
  -5   5   4   79.80    2.55
   5  -5  -4   17.66    1.83
   5  -5  -4   39.85    2.06
  -5   5  -4  167.41    4.48
   5  -5  -5    2.43    1.23
  -5  -5  -5    0.32    0.82
  -5  -5   5   33.01    2.83
   5  -5  -5    2.47    1.17
  -5   5   5   17.07    1.53
   5  -5  -5    6.94    0.76
  -5   5  -5   19.85    1.47
  -5  -5   5   17.84    0.86
   5  -5  -6    0.36    0.95
  -5   5  -6    6.61    1.11
  -5  -5   6    8.78    1.82
   5  -5  -6    2.15    1.26
  -5   5  -6    3.51    2.10
   5  -5  -6    2.89    0.57
  -5   5  -6   10.63    1.36
  -5  -5   6    6.45    0.68
   5  -5  -7    1.26    1.06
  -5   5  -7    7.91    1.35
   5  -5  -7    3.97    1.37
  -5  -5   7   15.90    1.53
  -5  -5   7   16.81    1.13
  -5   5  -7   13.58    1.53
  -5   5  -7    4.76    2.23
   5  -5  -7    4.89    0.61
  -5   5  -8   56.39    2.77
  -5  -5   8   75.45    2.29
   5   5   8   95.46    4.10
  -5   5  -8   26.08    3.42
   5  -5  -8    5.85    1.30
  -5   5  -8   79.62    3.04
   5  -5  -8   19.27    1.08
  -5   5  -9    3.40    1.50
   5  -5  -9    0.37    0.39
  -5   5  -9    4.11    1.67
  -5  -5   9    3.61    0.91
  -5   5  -9   -0.33    2.11
   5  -5  -9   -0.56    0.77
   5   5  10    6.80    1.63
  -5   5 -10    3.92    1.63
   5  -5 -10    0.64    0.40
  -5   5 -10    1.69    1.56
  -5  -5  10    5.52    0.94
  -5   5 -10   -0.88    2.26
   5  -5 -10    0.06    0.63
  -5   5 -11    1.57    1.74
   5  -5 -11    0.59    0.35
  -5   5 -11   -0.03    0.76
  -5   5 -11   -0.27    2.17
   5  -5 -11   -0.08    0.60
  -5   5 -12    0.58    0.49
  -5   5 -12    1.42    2.29
  -5   5  13    3.86    2.36
  -5   5 -13   -0.19    2.26
  -5   5  14   12.32    2.47
  -5   5 -14   11.08    2.32
  -5  -5  15    7.18    1.40
  -5   5 -15   -0.72    2.53
   5  -6   0    0.72    1.41
  -5   6   0   -0.31    0.95
  -5   6   0    1.08    0.82
  -5   6  -1    4.60    0.92
  -5   6  -1    4.83    0.81
  -5   6   1    5.02    0.92
  -5   6  -2    8.89    0.97
   5  -6  -2    3.92    0.97
  -5  -6   2    5.75    3.07
   5  -6  -2    1.49    1.45
  -5   6  -2    9.69    1.11
  -5   6   2    8.90    1.08
  -5   6  -2    6.83    2.53
  -5  -6  -3   -0.65    1.14
   5  -6  -3    0.61    0.73
  -5  -6   3   -1.67    2.51
  -5   6  -3    1.31    0.83
   5  -6  -3    2.55    1.43
  -5  -6   3    0.10    0.70
  -5   6  -3    1.99    0.91
  -5   6   3    0.38    0.94
  -5   6  -3    0.51    1.90
  -5  -6   4    9.55    0.87
   5  -6  -4    3.02    0.67
  -5  -6   4    9.27    2.76
   5  -6  -4    2.14    1.32
  -5   6  -4    6.07    0.98
  -5  -6  -4   -0.80    0.97
  -5   6  -4    9.95    1.18
   5  -6  -5    1.64    0.52
  -5  -6   5    6.48    2.63
   5  -6  -5    0.54    1.15
  -5   6  -5    4.80    1.05
  -5  -6  -5   -0.24    0.65
  -5   6  -5    7.70    1.20
  -5  -6   5    3.38    0.61
  -5  -6  -6    0.27    0.54
   5  -6  -6    0.74    0.73
   5  -6  -6    0.46    0.47
  -5  -6   6    0.25    0.74
  -5   6  -6    0.92    1.13
  -5  -6   6    1.83    1.67
   5  -6  -6   -0.18    1.12
   5  -6  -7    0.92    0.71
   5  -6  -7    2.39    0.82
  -5  -6  -7    0.15    0.47
  -5  -6   7    5.79    0.89
  -5   6  -7    3.80    2.26
   5  -6  -8    1.39    0.71
  -5   6  -8    6.22    1.44
   5  -6  -8    0.81    0.45
  -5  -6   8    6.32    1.17
  -5  -6   8    6.20    1.26
  -5   6  -8    0.94    2.14
   5  -6  -9    1.51    0.67
  -5   6  -9    2.26    1.37
   5  -6  -9    0.15    0.39
  -5  -6   9    2.68    0.88
   5   6   9   -2.18    2.03
  -5   6  -9    1.58    2.15
   5   6  10    6.64    2.01
   5  -6 -10    0.73    0.57
   5  -6 -10    0.12    0.41
  -5  -6  10   17.92    1.20
  -5   6 -10   16.64    2.00
  -5   6 -10    3.40    2.45
   5  -6 -11    0.20    0.39
  -5   6 -11    0.10    2.24
  -5   6 -11   -0.08    0.68
  -5   6 -12    0.10    2.43
  -5   6 -13   -1.62    2.59
  -5  -6  14    3.50    1.31
  -5   6 -14   -1.37    2.59
   5  -7   0   11.86    1.84
  -5   7   0    0.20    0.77
  -5   7  -1   11.16    1.45
   5  -7  -1    3.68    1.08
   5  -7   1    6.36    1.87
   5  -7  -1    5.11    1.64
  -5   7  -1    7.75    1.01
  -5   7   1   13.64    1.30
  -5  -7  -1   -0.49    1.12
  -5   7  -2   82.11    2.59
  -5  -7   2   62.73    2.41
  -5  -7   2   60.41    4.88
   5  -7  -2   25.41    2.61
  -5   7  -2   44.84    4.10
  -5   7  -2   55.89    1.88
  -5  -7  -2    0.64    1.08
   5  -7  -2   26.94    1.96
   5  -7  -3    0.89    0.62
  -5  -7   3    6.18    3.22
  -5   7  -3    1.32    1.04
   5  -7  -3    6.55    1.68
  -5  -7   3    3.22    0.78
  -5   7  -3    1.91    0.74
  -5  -7  -3   -0.71    0.84
  -5   7  -3   -0.44    2.19
  -5   7  -4   15.67    1.27
  -5  -7   4   12.81    0.93
  -5  -7  -4   -0.51    0.76
   5  -7  -4    3.38    0.72
  -5  -7   4   16.03    3.16
   5  -7  -4    1.96    1.22
  -5   7  -4   10.75    0.95
  -5   7  -4    7.67    2.51
   5  -7  -5    0.47    0.48
  -5   7  -5    4.92    1.16
   5  -7  -5    0.89    1.23
  -5   7  -5    4.65    0.90
  -5  -7  -5   -0.27    0.53
  -5  -7   5    3.58    0.67
  -5   7  -6    4.11    1.15
   5  -7  -6    0.36    0.43
  -5  -7   6    2.74    0.92
  -5  -7   6    2.64    1.88
   5  -7  -6   -0.83    1.24
  -5  -7  -6   -0.35    0.64
  -5   7  -6    3.35    0.86
  -5  -7   7    0.70    0.71
   5  -7  -7    0.21    0.50
  -5   7  -7    1.46    0.81
   5  -7  -8    1.85    0.54
  -5   7  -8    8.06    1.01
  -5  -7   8   15.32    1.35
  -5  -7   8   15.05    1.53
  -5   7  -8    8.84    2.83
  -5   7  -8   20.48    1.82
   5  -7  -9    0.10    0.48
  -5  -7   9    7.67    0.98
  -5   7  -9    2.62    0.92
   5   7   9    0.81    2.11
  -5   7  -9    5.70    1.35
  -5   7  -9    1.27    2.22
   5  -7 -10    1.14    0.49
  -5  -7  10   12.15    1.08
   5   7  10   14.54    1.99
  -5   7 -10   21.77    2.09
  -5   7 -10    2.95    2.43
  -5   7  11   10.92    2.53
   5   7  11    8.93    1.41
  -5   7  12    6.23    2.31
  -5   7 -12   -1.78    2.57
  -5   7 -13   -0.94    2.63
   5  -8   0   -0.25    0.84
  -5  -8   0   -0.85    0.98
   5  -8  -1    4.89    1.15
  -5  -8  -1    0.07    0.78
   5  -8   1    7.90    2.06
   5  -8  -1    3.18    1.72
  -5  -8   1   -0.39    1.21
  -5   8  -1    4.23    2.54
  -5  -8   2   10.66    1.22
   5  -8  -2    1.59    0.75
  -5  -8   2   16.44    4.06
   5  -8  -2    4.31    1.85
  -5   8  -2    8.41    1.78
  -5   8  -2    3.89    0.91
  -5   8  -2    4.60    2.59
  -5  -8   2    0.41    1.22
  -5  -8  -2    0.03    0.61
  -5  -8   3   14.65    1.17
  -5   8  -3   19.30    1.76
   5  -8  -3    3.65    1.64
  -5   8  -3    9.26    1.02
  -5  -8  -3    0.28    0.57
  -5   8  -3    7.02    2.64
   5  -8  -3    3.06    0.75
   5  -8  -4    0.15    0.45
  -5  -8   4    2.15    2.94
  -5  -8   4    0.78    0.62
  -5   8  -4    0.93    1.06
   5  -8  -4    0.08    1.20
  -5  -8  -4   -0.34    0.68
  -5   8  -4    0.24    0.64
  -5   8  -4   -0.86    2.34
   5  -8  -5    0.19    0.43
  -5  -8  -5   -0.27    0.62
  -5  -8   5    0.32    0.71
  -5  -8   5    2.32    2.84
  -5   8  -5    0.98    1.22
   5  -8  -5    0.23    1.25
  -5   8  -5   -0.28    0.66
  -5   8  -5   -1.43    2.50
   5  -8  -6    0.02    0.46
  -5  -8   6    0.58    0.93
  -5   8  -6    0.99    1.00
  -5  -8   6    3.36    2.17
   5  -8  -6   -0.23    1.24
  -5   8  -6    0.12    0.57
  -5   8  -6   -0.43    2.42
  -5  -8   7    2.91    0.91
   5  -8  -7    0.37    0.51
  -5   8  -7    2.87    1.32
  -5   8  -7    0.89    0.66
  -5  -8   8   -0.15    1.03
   5  -8  -8   -0.26    0.42
  -5   8  -8    1.30    1.28
  -5  -8   8    0.11    1.01
  -5   8  -8   -0.02    0.59
  -5  -8   9    6.75    1.68
   5  -8  -9    0.94    0.55
  -5  -8   9    9.77    0.94
  -5   8  -9    3.08    0.66
  -5   8  -9    0.88    2.30
  -5   8  -9   11.45    1.60
  -5   8  10    4.70    2.26
  -5   8 -10    5.85    1.59
   5   8  10    2.05    1.69
  -5   8 -10    2.29    2.39
  -5   8  11    1.05    2.03
  -5   8 -11   -1.05    2.65
   5  -9   0    0.44    0.89
   5  -9   0    0.56    1.68
  -5  -9   0   -0.17    0.72
   5  -9  -1    0.24    0.73
   5  -9   1    2.83    2.01
   5  -9  -1    0.94    1.59
  -5  -9  -1    0.70    0.76
  -5  -9   1    1.24    1.10
  -5  -9   1   -0.02    0.60
  -5   9  -1   -0.08    2.77
   5  -9  -2    0.45    0.65
  -5  -9  -2    0.53    0.71
  -5  -9   2    3.30    3.86
   5  -9  -2    0.94    1.66
  -5  -9   2    2.33    0.82
  -5   9  -2   -0.94    2.75
  -5  -9   2   -0.16    0.89
  -5  -9   3   -0.03    1.00
  -5  -9  -3    0.57    0.69
   5  -9  -3    0.05    0.51
  -5  -9   3    1.63    0.82
   5  -9  -3   -1.62    1.72
  -5   9  -3   -1.19    1.73
  -5  -9   4    9.70    1.05
  -5   9  -4   20.75    2.12
  -5  -9   4   19.55    3.62
   5  -9  -4    1.84    0.62
  -5  -9   4    3.46    1.11
   5  -9  -4    1.95    1.35
  -5   9  -4    4.29    2.75
   5  -9  -5    0.05    0.46
  -5  -9   5    2.99    1.15
   5  -9  -5    1.03    1.44
  -5   9  -5    5.12    1.50
  -5   9  -5    3.84    2.74
  -5  -9   5    7.29    1.02
   5  -9  -6   -0.36    0.47
  -5  -9   6    0.99    1.28
  -5   9  -6    1.02    1.30
   5  -9  -6   -0.92    1.36
  -5  -9   6   -0.36    1.04
  -5   9  -6   -1.16    2.75
  -5  -9   7    3.76    1.02
   5  -9  -7   -0.03    0.60
  -5   9  -7    2.33    1.44
  -5  -9   7    0.63    1.08
  -5   9  -7   -1.62    2.82
  -5   9  -8   20.43    2.04
  -5   9   8   23.82    2.84
   5  -9  -8    1.89    0.58
  -5  -9   8    9.76    1.12
  -5  -9   8    6.82    1.38
  -5  -9   8    9.59    1.43
  -5   9   9    1.07    2.04
  -5  -9   9    0.54    1.56
  -5   9  -9    0.84    1.26
  -5  -9   9    1.55    0.77
  -5   9  10    1.92    1.86
  -5   9 -10    1.92    1.47
  -5   9 -10   -2.64    2.86
  -5 -10   0    0.91    0.78
   5 -10   0    3.47    1.70
  -5 -10   1    1.15    0.85
   5 -10  -1    1.84    1.77
  -5  10  -1   -1.90    3.11
  -5 -10  -1    2.11    0.73
  -5 -10   2    0.69    0.84
  -5  10  -2   -1.89    2.98
  -5 -10  -2    0.78    0.62
   5 -10  -3    4.64    1.80
  -5 -10   3   10.28    1.32
  -5  10  -3    8.39    3.25
  -5 -10   4    2.67    1.03
   5 -10  -4    2.64    1.45
  -5  10  -4   -1.06    3.07
  -5 -10   5    2.39    1.02
   5 -10  -5   -0.19    1.55
  -5  10  -5    4.03    2.23
  -5  10  -5   -0.54    3.00
  -5  10   6    1.81    1.98
  -5 -10   6    3.80    2.29
   5 -10  -6    0.09    1.38
  -5  10  -7   19.90    2.32
  -5  10   7   23.54    2.70
  -5 -10   7    8.60    1.25
  -5  10  -7    3.20    3.04
  -5  10   8    3.00    1.86
  -5  10  -8    0.57    1.61
  -5  10  -8   -0.19    3.05
  -5  10   9    9.38    1.99
  -5  11   0    0.55    1.58
  -5 -11   0    1.08    0.82
  -5  11   0   -2.89    3.73
  -5  11   1    1.47    1.67
   5 -11  -1    2.28    1.85
  -5 -11   1    0.98    0.75
  -5  11  -1   -2.73    3.47
  -5  11   2    0.17    1.66
   5 -11  -2   -0.94    1.94
  -5 -11   2    1.45    0.75
  -5  11   3    0.97    1.71
  -5 -11   3   -2.84    3.81
   5 -11  -3   -1.83    1.87
  -5  11  -3   -3.58    3.49
  -5  11   4    0.95    1.71
  -5 -11   4    3.47    3.63
   5 -11  -4   -1.72    1.80
  -5  11  -4   -2.94    3.56
  -5  11   5    0.44    1.59
   5 -11  -5   -0.55    1.61
  -5  11  -5   -3.90    3.64
  -5  11   6    0.57    1.50
   5 -11  -6   -0.73    1.69
  -5  11   7    0.04    1.87
  -5  12   1    7.78    1.61
  -5  12  -1   13.27    4.26
  -5  12   2    2.10    1.62
   5 -12  -2    3.23    2.27
  -5  12  -2   -0.09    3.75
  -5  12   3   13.02    2.19
  -5  12  -3    7.14    4.00
  -5  12   4   -0.68    1.96
   5 -12  -4   -0.25    1.83
  -5  12   5   -0.50    2.20
   5 -12  -6   -0.45    1.68
   5 -12  -7   -0.95    1.76
  -6   0   0    2.98    2.26
  -6   0  -1   19.76    2.88
  -6   0   1   21.88    2.64
  -6   0  -2  102.68    5.28
  -6   0   2  106.36    4.19
  -6   0   3  318.10    6.46
   6   0   3  288.17    8.09
   6   0   4   50.84    3.65
  -6   0   5  333.81    7.68
   6   0   5  355.46    9.30
   6   0  -6    4.31    2.19
  -6   0   6    0.94    1.21
  -6   0   7  180.95    4.61
   6   0   7  200.03    5.75
  -6   0   8   49.73    2.28
   6   0   8   61.36    3.30
   6   0  -9   26.03    3.54
  -6   0   9   68.48    2.59
   6   0 -10   10.86    2.59
  -6   0  10   29.95    1.88
  -6   0 -11    0.60    0.70
   6   0 -11    9.01    2.57
   6   0 -12    1.63    2.26
   6   0 -13    7.02    2.81
   6   0 -14    5.70    2.82
   6   0 -15   26.34    4.21
  -6   0  17   39.46    3.06
  -6  -1   0   19.24    3.02
  -6   1   0   22.14    2.49
  -6   1  -1   14.63    2.62
  -6   1   1   10.77    1.68
  -6  -1  -1   10.50    2.89
   6  -1   1   11.57    2.78
  -6   1   1    5.64    0.83
  -6  -1  -2  195.96    7.29
  -6   1  -2  189.48    6.34
  -6   1   2  173.29    4.78
  -6   1   3   77.65    1.76
  -6   1  -3  242.12    6.75
  -6   1  -4  199.28    7.96
   6   1   4  311.71    9.03
  -6   1  -5    9.03    2.98
   6  -1   5   12.49    2.62
   6   1   5    8.05    2.45
   6   1  -6   44.91    4.26
   6  -1  -6   40.13    3.72
  -6  -1   6   60.15    2.57
  -6   1   6   68.17    2.69
   6   1   6   77.22    4.17
   6  -1   6   67.14    3.29
   6   1   7   10.67    2.52
   6   1  -7    3.72    2.04
   6  -1  -7    4.01    2.09
  -6   1   7    7.14    1.18
  -6  -1   7    4.10    1.24
   6  -1   7    9.11    1.93
   6   1  -8   55.27    5.12
   6  -1  -8  102.83    6.09
  -6  -1   8   84.50    3.28
  -6   1   8  218.77    4.45
   6   1   8  279.82    6.04
   6   1  -9   33.15    3.80
   6  -1  -9   21.68    3.25
  -6  -1   9   55.05    2.22
  -6   1   9   55.75    2.34
   6   1   9   74.33    3.47
   6   1 -10   23.57    3.24
   6  -1 -10   28.99    3.66
   6  -1 -11    2.60    2.15
  -6   1 -11    0.32    0.75
   6  -1 -12    0.09    2.05
  -6   1 -12    0.34    0.61
   6   1 -13    5.26    2.71
   6  -1 -13    0.75    2.24
   6   1 -14   24.67    3.79
   6  -1 -14    7.36    2.90
   6   1 -15   10.62    3.29
   6  -1 -15    8.94    3.18
  -6   1  16   51.89    3.49
   6   1 -16   15.49    3.74
  -6  -1  17    2.71    2.00
  -6   2   0    1.31    0.71
  -6  -2   0    1.92    2.76
  -6   2   0    1.16    1.41
   6  -2   0    1.57    2.05
  -6  -2  -1  391.10   10.98
  -6   2  -1  372.52    8.85
  -6   2   1  289.08    7.57
   6  -2  -1  310.03    9.55
   6  -2   1  269.95    9.11
  -6   2  -1  259.99    6.89
  -6   2   1  359.58    6.88
  -6   2  -2   78.19    3.88
   6  -2  -2   82.71    4.68
   6  -2   2   62.14    3.63
  -6   2  -2   56.24    2.70
  -6   2   2   46.12    1.44
  -6   2  -3  151.47    5.74
  -6   2   3  151.70    4.50
  -6  -2   4   38.02    1.00
  -6   2  -4   38.35    3.34
  -6   2   4   39.76    2.26
  -6   2  -5   -1.01    2.46
  -6  -2   5    2.33    1.65
   6  -2   6    5.04    1.76
  -6   2  -6   -0.71    2.41
  -6  -2   6    1.33    1.28
   6   2   7   11.43    2.53
  -6  -2   7    1.17    1.20
   6   2  -8   18.93    3.20
   6  -2  -8   12.40    2.77
  -6  -2   8   28.28    1.75
  -6   2   8   28.73    1.78
   6   2   8   40.88    3.33
   6   2  -9   80.39    5.58
   6  -2  -9   62.39    4.81
  -6  -2   9  161.59    3.51
  -6   2   9  168.22    3.87
   6   2   9  157.29    4.34
   6   2 -10   10.83    2.95
   6  -2 -10    8.84    2.59
  -6  -2  10   28.53    1.77
   6   2  10   26.46    2.41
  -6   2 -11    9.99    1.81
   6  -2 -11   31.77    3.72
   6  -2 -12   -1.29    1.95
  -6   2 -12    0.11    0.62
   6   2 -13   14.72    3.13
   6  -2 -13    7.42    2.53
   6   2 -14   11.35    2.99
   6  -2 -14    7.09    2.51
   6   2 -15    8.41    3.09
   6  -2 -15    4.74    2.56
   6   2 -16    5.80    3.20
  -6  -2  17   18.07    2.40
   6  -3   0  262.84    7.71
  -6   3   0  239.58    5.23
  -6   3  -1    9.74    1.17
   6  -3  -1    9.81    2.22
  -6   3   1    5.49    0.71
  -6   3   2  227.59    4.83
   6  -3  -2  159.65    7.62
  -6  -3   2  425.00    9.73
  -6   3  -2  196.74    6.06
  -6   3   2  238.90    6.01
   6  -3  -2  356.84    8.96
   6  -3   2  294.00    8.49
  -6   3  -2  207.92    5.41
   6  -3  -3   38.02    3.83
  -6   3  -3  119.36    4.54
  -6   3   3   67.76    3.00
   6  -3  -3   83.78    4.49
   6  -3   3   89.84    3.93
  -6   3  -3   83.82    3.04
  -6  -3   4   14.64    0.72
   6  -3  -4   13.03    2.35
  -6   3  -4   21.21    2.68
  -6  -3   4   36.06    3.11
  -6   3   4   25.96    1.79
   6  -3  -4   25.28    2.92
  -6   3  -4   28.91    2.28
  -6   3  -5    5.70    1.80
   6  -3  -5    2.70    1.74
  -6   3  -5    0.99    1.98
  -6  -3   5    4.88    1.92
  -6   3   5    6.23    1.12
   6  -3  -5    4.25    2.12
  -6  -3   5    4.21    0.56
  -6   3  -6    1.15    1.85
  -6   3  -6   -1.83    2.17
   6  -3  -6    3.15    1.97
  -6   3   6    4.24    1.10
   6   3   6    2.64    2.44
  -6   3  -7    4.05    2.73
  -6   3  -7   -0.17    2.33
  -6  -3   7    2.97    1.21
   6   3   7    0.08    2.26
  -6  -3   8   69.67    2.50
   6   3   8   68.10    3.69
  -6  -3   9   73.44    2.51
   6   3   9   71.92    4.39
  -6  -3  10  139.04    3.55
   6   3  10  134.42    4.33
   6   3 -11    3.10    2.71
   6  -3 -11    4.51    2.05
  -6  -3  11    4.49    1.28
  -6   3 -12    4.32    1.05
   6  -3 -12    7.32    2.26
   6   3 -13    2.42    2.74
   6  -3 -13    4.10    2.10
  -6   3 -13   -0.24    0.52
   6   3 -14    8.59    3.34
   6  -3 -14    1.86    2.02
   6   3 -15   21.04    4.19
   6   3 -16    4.60    3.55
  -6  -3  17    3.49    1.81
   6  -4   0    2.26    1.60
  -6   4   0    0.91    0.65
  -6   4   0    0.05    1.17
  -6   4   1    4.67    0.79
   6  -4  -1   13.98    2.54
  -6  -4   1    3.78    3.34
  -6   4   1   11.54    1.48
   6  -4  -1   18.30    2.86
   6  -4   1    8.10    1.55
  -6   4  -1    5.83    0.90
  -6   4   2   38.62    1.78
   6  -4  -2   18.13    2.88
  -6   4   2   31.89    2.04
   6  -4  -2   48.49    3.29
   6  -4   2   43.89    2.93
  -6   4  -2   61.81    2.73
   6  -4  -3   96.27    5.71
  -6   4  -3  128.03    4.44
  -6   4   3  184.26    4.58
   6  -4  -3  130.42    5.38
   6  -4   3  171.62    5.64
  -6   4  -3  173.02    4.31
  -6  -4   4   30.73    1.26
  -6   4   4   33.17    1.94
   6  -4  -4   30.27    2.85
   6  -4  -5   32.74    3.73
  -6   4  -5   76.98    3.65
  -6  -4   5  147.07    4.77
  -6   4   5   95.54    3.07
   6  -4  -5   63.56    3.90
  -6   4  -5   94.24    3.30
  -6  -4   5   87.81    2.14
  -6   4  -6   57.13    3.67
  -6  -4   6   50.03    3.19
   6  -4  -6   -0.21    1.68
  -6   4   6    1.33    1.09
  -6   4  -6    8.23    1.84
  -6  -4   6   29.56    1.01
   6  -4  -6    0.71    1.55
  -6   4  -7   36.93    3.25
   6  -4  -7   14.70    2.75
  -6  -4   7   50.92    2.50
   6   4   7   66.78    4.28
   6  -4  -7   27.74    2.74
  -6   4   7   55.63    2.50
  -6   4  -7   59.12    3.13
  -6   4  -8   16.57    2.71
   6  -4  -8   14.17    2.52
  -6  -4   8   30.15    1.95
   6  -4  -8   14.14    2.16
   6   4   8   23.78    3.26
  -6   4  -8   29.17    2.84
  -6   4  -9   92.32    4.58
  -6  -4   9   60.61    2.25
   6   4   9   67.96    3.85
  -6   4  -9  104.74    4.73
  -6   4 -10   10.56    2.73
  -6  -4  10   22.33    1.53
   6   4  10   25.68    2.59
   6  -4 -10    9.69    1.95
  -6   4 -10   20.77    3.03
  -6   4 -11    8.26    2.75
  -6   4 -11    4.85    2.74
  -6  -4  11    7.82    1.31
   6   4  11    9.35    1.92
   6  -4 -11    4.66    1.44
  -6   4 -12    0.11    0.73
  -6   4 -12   -1.72    2.65
   6  -4 -12    2.13    1.70
   6  -4 -12    3.88    1.32
  -6   4 -13    3.62    2.93
   6  -4 -13    0.07    1.66
  -6   4 -13    0.98    0.57
   6  -4 -14    1.48    1.84
  -6   5   0    8.32    0.96
  -6   5   0    6.82    1.29
   6  -5   0    8.23    1.74
  -6   5  -1    7.85    0.99
  -6   5   1    8.07    1.08
   6  -5  -1    4.60    1.96
  -6  -5   1    2.84    3.35
  -6   5   1    6.93    1.28
  -6   5  -1    4.59    1.12
   6  -5  -1    6.56    1.70
   6  -5  -2   12.48    2.38
  -6  -5   2   29.01    3.74
  -6   5  -2   23.87    1.89
  -6   5   2   26.79    1.67
   6  -5  -2   16.25    1.76
  -6   5  -2   28.83    1.45
  -6   5   3   44.34    2.19
  -6   5  -3   40.71    1.80
  -6  -5   4  159.10    3.81
   6  -5  -4   56.92    5.06
  -6   5   4  193.42    4.86
   6  -5  -4  139.45    5.94
  -6  -5   4  364.68    8.72
  -6   5  -4  369.27    7.15
   6  -5  -5    4.63    1.76
  -6   5  -5    4.55    1.17
   6  -5  -5    2.37    2.02
  -6   5   5    4.16    1.22
  -6  -5   5    5.06    0.62
   6  -5  -6   45.22    4.55
  -6   5  -6   99.17    3.68
  -6  -5   6  181.83    5.38
  -6   5   6  169.51    4.44
   6  -5  -6   82.44    4.30
  -6   5  -6  157.05    4.24
  -6  -5   6  120.69    2.84
   6  -5  -7    2.71    1.94
   6  -5  -7    3.54    1.39
  -6   5  -8   52.09    2.85
   6  -5  -8   17.55    2.79
  -6  -5   8   68.48    2.63
   6   5   8   82.13    4.53
   6  -5  -8   12.93    1.84
  -6   5  -8   75.08    2.97
  -6   5  -9  108.59    4.19
   6  -5  -9    7.40    2.02
  -6  -5   9   82.74    2.26
   6   5   9   25.54    3.19
  -6   5  -9   14.90    3.58
  -6   5  -9   53.26    3.02
   6  -5  -9    0.28    1.18
   6   5  10    3.06    2.45
  -6   5 -10    4.93    1.77
  -6   5 -10    6.01    2.18
   6  -5 -10    0.43    1.40
  -6  -5  10    3.64    1.07
  -6   5 -10   -0.74    2.60
   6  -5 -10   -0.87    0.85
   6   5  11    5.28    1.84
  -6   5 -11    1.57    1.74
  -6  -5  11    2.57    1.14
  -6   5 -11   -1.61    2.67
   6  -5 -11   -0.47    0.79
  -6   5 -12    5.68    2.01
  -6   5 -12    0.78    2.63
  -6   5 -13    2.39    2.09
  -6   5 -13    0.35    2.64
  -6   5 -14    8.27    3.34
  -6   6   0    0.33    0.94
  -6   6   0    1.17    0.91
  -6   6  -1   19.85    1.41
  -6   6  -1   20.60    1.62
  -6   6   1   20.78    1.62
  -6   6  -2   21.05    1.34
  -6  -6   2   24.76    4.45
  -6   6  -2   19.38    1.70
  -6   6   2   21.88    1.58
  -6  -6   3   78.99    2.51
  -6  -6   3  120.87    6.20
   6  -6  -3   25.85    3.21
  -6   6  -3   61.06    2.54
  -6   6   3   99.70    3.04
   6  -6  -3   20.05    2.30
  -6   6  -3  109.54    2.98
  -6  -6   4   22.55    1.20
   6  -6  -4    5.26    1.45
   6  -6  -4   11.13    2.69
  -6  -6   4   39.82    4.41
  -6   6  -4   17.76    1.75
  -6   6   4   33.97    2.07
  -6   6  -4   24.37    1.64
  -6  -6  -5    0.31    0.79
   6  -6  -5    3.72    1.32
   6  -6  -5   11.41    2.69
  -6   6  -5   49.12    2.16
  -6  -6   5   36.85    1.28
   6  -6  -6    1.35    0.91
   6  -6  -6   -0.06    1.05
  -6  -6   6    0.75    0.79
  -6   6  -6    2.73    1.26
  -6  -6   6    1.65    2.04
   6  -6  -7    5.00    1.92
   6  -6  -7    7.23    1.11
   6  -6  -8    0.37    0.75
   6  -6  -8    4.79    0.93
   6  -6  -8    4.73    1.85
  -6  -6   8   12.61    1.53
   6   6   8   20.41    3.56
  -6  -6   8   15.27    1.57
  -6   6  -8    4.20    2.66
  -6   6  -8   17.32    1.86
   6  -6  -9    1.74    0.73
   6  -6  -9    6.82    2.03
  -6  -6   9   36.80    1.70
   6   6   9   41.24    3.43
  -6   6  -9   14.92    3.64
  -6   6  -9   45.79    2.48
   6  -6 -10    1.39    1.64
  -6  -6  10   28.22    1.55
  -6   6 -10    4.55    2.88
  -6   6 -10   24.19    2.21
   6   6  10    9.80    2.42
   6  -6 -11    0.07    1.67
  -6  -6  11   12.72    1.37
   6   6  11    9.66    1.79
  -6   6 -11    2.13    2.72
  -6   6 -11   13.07    2.04
  -6   6 -12    6.01    1.99
   6  -6 -12   -0.28    1.78
  -6   6 -12    1.16    3.01
   6  -7   0   68.71    4.71
  -6   7   0  122.86    3.56
  -6   7  -1    3.21    1.32
  -6   7  -1    5.52    1.24
  -6   7   1    5.98    1.20
  -6   7  -2  109.61    3.30
  -6   7   2  106.50    3.41
  -6   7  -3   30.48    1.88
  -6  -7   3   29.00    1.51
  -6  -7  -4   -0.04    0.70
  -6   7  -4   11.57    1.22
  -6  -7   4    8.00    0.91
  -6  -7   4   16.99    3.94
   6  -7  -4    3.57    2.02
  -6   7  -4   11.30    1.35
  -6   7  -5    9.12    1.37
   6  -7  -5    1.22    0.88
   6  -7  -5    0.84    2.00
  -6  -7   5   13.05    3.39
  -6   7  -5    9.71    1.45
  -6  -7   5    3.29    0.69
   6  -7  -6    1.67    0.90
  -6  -7   6    4.59    0.98
   6  -7  -6    0.80    1.78
  -6  -7   6    4.45    2.14
  -6   7  -6    4.06    1.15
  -6   7  -6    7.29    1.29
   6  -7  -7    0.83    0.67
  -6  -7   7    2.20    0.78
  -6   7  -7    4.34    1.40
   6  -7  -7    3.54    1.90
  -6   7  -7    2.63    1.03
   6  -7  -8    2.28    1.68
  -6   7  -8   16.20    1.56
  -6  -7   8   14.56    1.58
  -6  -7   8   19.53    1.72
  -6   7  -8    8.07    3.23
   6  -7  -8    4.36    0.80
  -6   7  -8   27.94    2.00
   6  -7  -9    3.36    1.82
  -6  -7   9   17.95    1.34
  -6   7  -9    5.14    3.04
   6   7   9   11.96    2.94
  -6   7  -9   16.44    1.73
   6  -7 -10    8.64    2.51
  -6   7 -10   35.36    4.97
  -6  -7  10   99.62    2.56
   6   7  10   75.89    3.73
  -6   7 -10  108.80    3.97
  -6   7 -11    5.81    2.33
   6  -7 -11    0.07    1.78
  -6   7 -11    0.93    2.98
   6  -8   0   27.96    3.19
  -6   8   0   16.20    1.56
   6  -8  -1   29.98    3.22
  -6   8  -1   52.63    2.15
  -6  -8   2   18.45    1.54
  -6   8  -2   18.95    2.06
   6  -8  -2   21.19    3.00
  -6   8  -2   14.94    1.36
  -6  -8   3   22.27    1.40
  -6   8  -3   41.42    2.25
  -6  -8   3   36.00    4.56
   6  -8  -3   10.37    2.49
  -6   8  -3   27.07    1.63
   6  -8  -3   11.85    1.94
  -6  -8   4    9.33    0.87
  -6   8  -4   13.45    1.61
   6  -8  -4    2.80    1.06
  -6  -8   4   15.43    3.89
   6  -8  -4    7.82    2.43
  -6   8  -4    7.94    1.05
  -6   8  -4    5.09    3.30
   6  -8  -5    0.41    0.78
  -6  -8   5    1.45    0.73
  -6   8  -5    1.77    1.31
  -6  -8   5    6.56    3.46
   6  -8  -5    1.54    1.89
  -6   8  -5    1.39    0.92
  -6   8  -5    0.10    2.68
   6  -8  -6    0.03    0.64
  -6  -8   6    0.05    0.96
  -6   8  -6    2.15    1.12
   6  -8  -6   -1.04    1.84
  -6  -8   6    2.36    2.37
  -6   8  -6    0.77    0.79
  -6   8  -6   -0.61    2.94
  -6  -8   7    3.82    0.94
   6  -8  -7    1.64    1.84
  -6   8  -7    2.01    0.79
   6  -8  -8    1.29    1.69
  -6  -8   8    8.21    1.61
  -6   8  -8    4.93    1.01
  -6  -8   8   10.79    1.45
  -6   8  -8   13.05    1.80
   6  -8  -9    5.99    2.17
  -6  -8   9   40.67    1.70
   6   8   9   75.43    4.47
  -6   8  -9   15.38    4.02
  -6   8  -9   51.52    2.65
  -6  -8  10   11.36    1.35
  -6   8 -10   12.30    1.93
  -6  -9   0   -0.59    0.89
   6  -9   0    5.76    2.34
   6  -9  -1    3.79    2.28
  -6  -9   1    1.83    1.29
  -6  -9   2   11.70    1.24
   6  -9  -2    6.54    2.42
  -6  -9   3   15.57    1.33
  -6   9  -3   15.40    2.31
   6  -9  -3    2.48    1.09
   6  -9  -3   10.05    2.69
  -6  -9   3    0.47    1.21
  -6  -9   4   41.24    1.84
  -6  -9   4    7.73    1.77
   6  -9  -4   12.23    2.70
  -6   9  -4   31.74    4.68
  -6   9  -4   30.11    1.70
   6  -9  -4   10.49    1.60
   6  -9  -5   -0.04    0.77
  -6   9  -5    2.15    1.39
  -6   9  -5   -0.20    0.88
  -6   9  -5    1.06    3.23
  -6  -9   5    4.64    0.95
  -6   9  -6   34.75    2.36
   6  -9  -6    8.52    2.49
  -6   9  -6   15.14    1.29
  -6   9  -6   12.00    3.88
  -6  -9   6   44.48    2.52
  -6  -9   7    2.98    1.07
  -6   9  -7    1.28    1.57
   6  -9  -7    0.89    1.92
  -6   9  -7   -1.86    3.46
  -6  -9   8   17.53    1.90
  -6  -9   8   23.06    1.83
   6  -9  -9    0.50    1.82
   6 -10  -1    9.38    2.73
  -6 -10   1    0.33    0.81
   6 -10  -2   22.40    3.33
  -6 -10   2    1.65    0.82
   6 -10  -3   15.12    2.84
  -6 -10   3    5.76    0.98
  -6  10  -4    2.68    3.56
  -6 -10   4    1.34    0.82
   6 -10  -5   16.63    3.22
  -6  10  -5   25.79    4.76
   6 -10  -6    6.07    2.56
  -6  10  -6    4.25    1.99
  -6  10   7   47.53    3.48
   6 -10  -7    6.44    2.40
   6 -10  -8   -0.30    1.84
   6 -11  -1   21.04    3.35
   6 -11  -2   10.63    2.72
   6 -11  -3   16.33    3.11
  -6  11   4   17.36    2.56
   6 -11  -4    3.45    2.81
  -6  11   5    1.47    2.17
   6 -11  -5    3.72    2.70
   6 -11  -6    2.33    2.32
   6 -11  -7   -1.83    2.26
  -6  12   2    0.93    1.79
  -6  12   3    9.67    2.10
   6 -12  -4    3.90    2.73
   6 -12  -5   -0.07    2.49
   6 -12  -6   -0.99    2.64
  -7   0   0    0.97    2.52
  -7   0   1   14.44    2.58
  -7   0  -1   13.21    3.05
  -7   0  -2   70.84    4.75
  -7   0   2   68.21    3.35
  -7   0  -3  121.08    5.68
   7   0   3  122.86    5.67
  -7   0  -4    4.81    3.23
   7   0   4    4.34    2.58
  -7   0   5   29.88    2.28
   7   0   5   31.62    3.18
   7   0   6    3.46    2.51
  -7   0   6   -1.59    1.55
  -7   0   7   73.46    3.02
   7   0   7   91.59    4.38
   7   0   8    5.07    1.87
   7   0  -8    3.33    2.64
  -7   0   8    1.99    1.22
  -7   0   9   34.28    1.98
   7   0   9   47.24    3.15
   7   0 -10    5.77    2.77
  -7   0  10   11.20    1.51
   7   0 -11    2.90    2.35
  -7   0  11    5.49    1.62
   7   0 -12    4.23    2.80
   7   0 -13    3.67    2.80
   7   0 -14    5.19    3.14
  -7   1   0    0.05    1.06
  -7  -1   0    0.53    2.71
  -7   1   0    0.15    2.03
   7  -1   0    1.70    2.56
  -7  -1  -1   32.45    3.82
  -7  -1   1   48.40    3.97
  -7   1  -1   38.12    3.55
  -7   1   1   24.64    2.28
   7  -1   1   19.95    3.40
  -7   1   1   13.41    1.00
  -7   1   2    1.76    0.55
  -7  -1  -2    0.59    2.89
  -7   1  -2    3.36    2.64
  -7  -1   2    3.53    2.38
  -7   1   2    2.81    1.55
  -7  -1  -3    3.08    3.17
  -7   1  -3    3.11    2.64
  -7   1   3    1.50    0.37
  -7  -1   3    8.54    1.99
  -7  -1  -4   24.78    4.45
  -7   1  -4   30.05    3.54
   7  -1   4   32.87    3.16
  -7   1  -5    6.39    3.23
   7  -1   5   12.79    2.95
   7   1   5    4.65    2.51
   7  -1   6    3.02    1.83
  -7   1  -6   -1.12    3.00
  -7  -1   6   -0.62    1.41
  -7   1   6   -0.18    1.38
   7   1   6   -1.68    2.40
   7   1   7    7.94    2.72
   7  -1  -7    4.57    2.65
  -7  -1   7    5.75    1.55
  -7   1   7    4.99    1.23
   7  -1   7   11.40    2.22
   7  -1  -8   29.82    3.82
   7  -1   8   35.40    2.91
   7   1   9    2.79    1.96
   7   1  -9    3.75    2.67
   7  -1  -9    0.09    2.21
  -7  -1   9    3.27    1.37
  -7   1   9    0.71    1.28
   7   1 -10    2.73    2.70
   7  -1 -10    3.47    2.48
  -7  -1  10    2.26    1.38
  -7   1  10    2.60    1.48
   7   1 -11    4.98    3.07
   7  -1 -11    1.55    2.48
  -7  -1  11    1.30    1.40
   7   1 -12    1.86    2.86
   7  -1 -12    0.72    2.49
   7   1 -13    5.26    3.31
   7  -1 -13    0.73    2.52
   7   1 -14    7.31    3.25
  -7   2   0    0.65    0.74
  -7  -2   0    0.49    3.01
  -7   2   0    0.09    1.48
   7  -2   0   -2.32    2.37
  -7  -2  -1   97.22    5.65
  -7   2  -1   88.24    3.86
   7  -2  -1   74.80    4.82
   7  -2   1   57.40    4.22
  -7   2  -1   56.71    2.34
  -7   2   1   60.29    1.91
  -7   2  -2    1.11    1.38
  -7  -2  -2    3.27    3.40
  -7   2   2    1.13    0.45
  -7   2  -2    2.82    2.10
   7  -2  -2    2.53    2.41
   7  -2   2    0.53    2.03
  -7  -2  -3   62.07    5.56
  -7   2   3   57.33    2.96
  -7   2  -3   66.12    3.27
   7  -2  -4   15.49    2.99
  -7   2  -4   21.69    3.15
  -7   2   4   20.07    1.86
  -7  -2   4   15.27    0.54
   7  -2   5    3.28    1.74
  -7   2  -5   -0.39    2.56
   7   2   5    0.27    2.69
  -7   2  -6   -1.28    2.44
  -7  -2   6    2.21    1.60
   7   2   6   -2.06    2.57
  -7   2  -7    0.18    3.09
  -7  -2   7    0.78    1.41
  -7  -2   8   23.21    1.95
  -7   2   8   23.66    1.87
  -7   2  -9    6.03    3.54
   7  -2  -9   10.34    3.00
  -7  -2   9   26.11    1.78
  -7   2   9   25.14    1.95
   7   2   9   27.57    2.55
   7   2  10    9.07    2.24
  -7  -2  10    6.44    1.35
   7   2 -11    7.24    3.11
  -7  -2  11    7.25    1.45
   7   2 -12    1.17    2.95
   7  -2 -12   -0.31    2.46
   7   2 -13   13.11    3.89
   7  -2 -13    5.79    3.21
   7   2 -14    1.68    3.31
  -7   3   0    1.72    0.66
   7  -3   0    0.09    1.92
   7  -3   1    7.18    2.47
  -7   3  -1    4.13    0.86
   7  -3  -1    5.84    2.33
  -7   3   1    3.98    0.68
  -7   3   2   71.12    2.05
  -7  -3  -2  149.82    7.41
  -7   3  -2   78.12    3.47
  -7   3   2   79.39    3.38
   7  -3  -2  129.97    5.64
   7  -3   2  105.57    5.37
  -7   3  -2   67.88    2.50
   7  -3   3    5.03    1.81
  -7   3  -3    2.48    1.10
  -7  -3   3    5.84    3.00
  -7   3  -3    5.33    1.99
  -7   3   3    0.17    1.38
   7  -3  -3    1.51    2.19
  -7  -3   4    4.41    0.49
  -7   3  -4    4.99    1.48
   7  -3  -4    5.33    2.44
  -7   3  -4    5.35    2.29
  -7   3   4    4.70    1.49
   7  -3  -4    4.88    2.49
  -7   3  -5    5.21    1.88
  -7  -3   5   10.38    2.31
   7  -3  -5    3.83    2.38
  -7   3  -5    4.35    2.43
  -7   3   5    5.24    1.22
   7  -3  -5    4.11    2.41
  -7  -3   5    4.08    0.39
  -7   3  -6    1.08    1.84
   7  -3  -6    1.17    1.87
  -7   3  -6   -0.34    2.40
  -7   3   6    2.50    1.39
   7  -3  -6   -0.06    2.41
   7   3   6   -2.73    2.99
  -7   3  -7   11.69    3.11
  -7  -3   7   15.24    1.87
  -7   3  -7   20.40    2.81
   7   3   7   16.26    3.08
  -7   3  -8   11.74    3.03
  -7   3  -8    7.69    2.82
  -7  -3   8   10.90    1.75
   7   3   8    7.92    2.51
  -7   3  -9    5.23    3.35
  -7   3  -9   -1.80    3.00
  -7  -3   9    5.06    1.24
  -7  -3  10   23.23    1.70
   7   3  10   22.76    2.28
  -7   3 -10   25.67    4.17
  -7   3 -11   -0.38    3.60
   7   3  11    7.04    2.07
   7  -3 -11    4.15    2.86
  -7  -3  11    3.22    1.26
  -7   3 -12    0.96    3.82
   7  -3 -12   -0.95    2.66
  -7   3 -13   -1.37    4.04
   7  -4   0    3.07    2.16
  -7  -4   0   -2.78    3.79
  -7   4   0    0.48    0.69
  -7   4   0   -1.18    1.59
   7  -4  -1    6.21    2.50
   7  -4   1    2.63    1.65
  -7  -4   1    3.76    3.29
  -7   4   1    2.49    0.72
  -7   4   1    1.90    1.32
  -7   4  -1    3.82    0.85
  -7  -4   2   19.32    3.84
   7  -4  -2   15.46    2.51
  -7   4   2    8.93    1.63
   7  -4   2   15.50    2.14
  -7   4  -2   15.81    1.36
  -7   4  -3    8.81    1.61
   7  -4  -3    8.39    2.65
  -7   4   3   12.20    1.64
   7  -4   3   13.15    2.29
  -7   4  -3    9.90    1.18
   7  -4  -3    9.22    2.21
  -7  -4   4    3.91    0.59
   7  -4  -4    1.27    2.30
  -7   4   4    2.80    1.26
   7  -4  -4    3.22    2.10
  -7   4  -5   13.06    2.09
  -7  -4   5   25.51    2.72
   7  -4  -5    6.66    2.38
  -7   4   5   18.36    1.75
  -7   4  -5   18.70    1.73
   7  -4  -5    8.27    2.36
  -7  -4   5   12.58    0.70
  -7   4  -6    1.36    1.41
   7  -4  -6    1.57    2.28
  -7   4   6    1.48    1.33
   7  -4  -6    0.05    1.85
  -7   4  -7   16.66    2.81
   7  -4  -7    7.46    2.61
  -7  -4   7   14.99    2.01
   7   4   7   19.51    3.58
  -7   4   7   20.02    1.76
  -7   4  -7   19.64    2.20
   7  -4  -7    8.89    2.22
  -7   4  -8    3.69    1.98
   7  -4  -8    1.01    2.34
  -7   4  -8    3.74    2.53
  -7  -4   8    3.18    1.61
   7  -4  -8    2.59    1.81
   7   4   8   -0.50    2.67
  -7   4  -9   17.62    3.08
   7  -4  -9    2.69    2.58
  -7  -4   9    9.88    1.47
  -7   4  -9   12.32    2.59
   7  -4  -9    2.75    1.84
   7   4   9    8.74    2.66
   7   4  10    6.16    2.34
  -7   4 -10    5.64    2.65
  -7   4 -10    1.29    2.57
  -7  -4  10    7.47    1.44
   7  -4 -10    2.42    1.67
   7   4  11    5.87    2.13
  -7   4 -11    2.67    2.62
  -7  -4  11    4.06    1.29
   7  -4 -11    2.99    1.56
  -7   4 -12    1.55    2.77
   7  -5   0    1.08    1.83
  -7  -5   0   -0.07    3.90
  -7   5   0    0.32    0.79
  -7   5   0   -0.73    1.43
  -7   5  -1   12.58    1.07
  -7   5   1   13.72    1.29
  -7  -5  -1    9.67    4.46
  -7  -5   1    9.65    3.66
  -7   5   1   12.39    1.68
  -7   5  -1    7.40    1.50
   7  -5  -1   15.57    2.04
   7  -5   1   14.15    2.19
  -7   5   2   22.48    1.69
   7  -5  -2   22.98    2.28
  -7   5  -2   23.77    1.42
   7  -5  -3    5.53    1.96
   7  -5  -3    2.91    2.54
  -7  -5   3    9.15    3.75
  -7   5   3    7.95    1.42
  -7   5  -3    7.94    1.19
  -7  -5   4   48.54    1.69
  -7   5   4   54.13    2.45
   7  -5  -4   59.67    4.11
   7  -5  -5    4.25    2.03
  -7   5  -5    2.92    1.28
  -7  -5   5    2.32    0.55
   7  -5  -5    1.35    2.16
  -7   5   5    1.91    1.29
   7  -5  -6    4.57    1.88
  -7   5  -6    5.09    1.38
   7  -5  -6   -0.66    2.15
  -7   5  -6    3.84    1.43
  -7   5   6    2.61    1.38
  -7  -5   6    3.12    0.68
  -7   5  -7    2.09    1.53
   7  -5  -7    1.42    2.33
  -7   5  -7    4.54    1.56
  -7  -5   7    2.50    1.70
   7   5   7   -0.32    3.15
  -7   5   7    0.64    1.52
   7  -5  -7    3.22    1.71
  -7   5  -8   33.67    2.43
   7  -5  -8   13.19    3.40
  -7  -5   8   41.86    2.38
   7   5   8   58.66    4.41
   7  -5  -8   21.47    2.40
  -7   5  -8   51.01    2.70
  -7   5  -9    2.37    1.69
   7  -5  -9   -2.04    2.57
  -7  -5   9    4.26    1.45
   7   5   9   -3.57    2.72
   7  -5  -9    1.18    1.26
   7   5  10    4.61    2.78
  -7   5 -10    1.55    1.84
   7  -5 -10    0.71    2.46
  -7  -5  10    3.24    1.27
   7  -5 -10    0.72    1.06
   7   5  11    2.42    1.67
  -7   5 -11    0.50    1.88
   7  -5 -11   -0.32    2.61
  -7  -5  11    1.99    1.24
  -7   6   0   -0.83    1.10
  -7   6   0    2.21    1.13
  -7   6  -1    3.25    0.99
  -7   6  -1    4.33    1.46
  -7   6   1    5.46    1.26
   7  -6  -2    3.06    1.69
   7  -6  -2    4.84    2.57
  -7   6  -2    4.46    0.95
  -7   6  -2    2.75    1.47
  -7   6   2    5.84    1.32
   7  -6  -3   -0.65    1.56
   7  -6  -3    2.78    2.42
  -7   6  -3    1.03    0.98
  -7  -6   3    0.61    0.81
  -7   6  -3   -0.60    1.27
  -7   6   3    0.94    1.27
  -7  -6   4    3.96    0.75
   7  -6  -4    1.96    1.50
  -7   6  -4    3.86    1.09
   7  -6  -4    2.63    2.23
  -7   6  -4    1.79    1.48
  -7   6   4    4.71    1.35
   7  -6  -5    0.15    1.27
   7  -6  -5    2.82    2.46
  -7   6   5    4.16    1.47
  -7  -6   5    3.17    0.62
   7  -6  -6   -0.25    1.11
  -7  -6   6    0.80    0.60
  -7   6  -6    2.62    1.16
   7  -6  -6    1.02    2.35
  -7  -6   7    3.86    0.92
   7  -6  -7    1.52    2.61
  -7   6  -8    3.37    1.69
   7  -6  -8   -0.76    2.63
  -7  -6   8    1.85    1.34
   7   6   8   -0.05    3.17
  -7   6  -9    2.28    1.45
   7  -6  -9   -1.48    2.72
  -7  -6   9    2.04    1.41
   7   6   9   -3.22    2.92
   7  -6 -10   -0.30    2.67
  -7  -6  10   14.12    1.57
  -7   6 -10   11.07    2.03
   7   6  10    0.04    2.44
  -7   6 -11    4.81    1.85
  -7  -6  11    3.56    1.26
  -7   7   0    2.28    1.25
  -7   7  -1   -1.04    1.29
  -7   7  -1    2.02    1.21
  -7   7   1    1.63    1.28
  -7   7  -2   48.57    2.27
  -7   7  -2   42.85    2.09
  -7   7   2   47.06    2.34
  -7   7  -3    3.41    1.26
  -7  -7   3    0.17    0.78
  -7   7  -3    3.49    1.27
  -7   7   3    0.95    1.41
  -7   7  -4    5.56    1.09
  -7  -7   4    5.71    0.75
   7  -7  -4    3.51    2.35
  -7   7  -4    7.16    1.47
  -7  -7   5    1.73    0.69
  -7   7  -5    1.88    1.18
   7  -7  -5    0.88    2.27
  -7   7  -5    1.99    1.38
  -7  -7   6    1.19    0.81
  -7   7  -6    2.74    1.23
   7  -7  -6    0.09    2.41
  -7   7  -6    1.69    1.19
  -7   7  -7    5.33    1.41
  -7  -7   7    5.35    0.98
   7  -7  -8    0.48    2.72
  -7   7  -8    5.58    1.56
  -7  -7   8    5.26    1.52
   7   7   8    6.18    3.45
  -7   7  -8   11.01    1.83
  -7   7  -9    5.72    1.50
   7  -7  -9   -1.42    2.87
  -7  -7   9    3.16    1.40
   7   7   9   -2.82    3.04
   7  -7 -10    0.19    2.53
  -7  -7  10   13.30    1.58
  -7  -7  11    1.61    1.15
  -7   8   0   -0.21    1.14
  -7   8  -1    8.96    1.43
  -7   8   1    7.35    1.54
   7  -8  -2    3.84    2.78
  -7  -8   2    1.01    1.02
  -7   8  -2   -0.41    1.60
  -7   8  -2    2.69    1.20
  -7  -8   3    8.41    1.04
  -7   8  -3    9.36    1.61
  -7   8  -3    9.93    1.37
   7  -8  -4    6.54    2.77
  -7  -8   4    3.04    0.76
  -7   8  -4    3.67    1.36
  -7   8  -4    4.92    1.20
  -7  -8   5    0.47    0.77
   7  -8  -5    1.63    2.58
  -7   8  -5    1.39    1.38
  -7   8  -5    1.36    1.02
  -7  -8   6   -1.36    1.13
   7  -8  -6    0.63    2.62
  -7   8  -6    1.61    1.19
  -7   8  -6    2.58    1.03
  -7   8  -7    2.14    1.51
   7  -8  -7   -1.37    2.89
  -7   8  -7    3.16    1.16
  -7   8  -8    6.54    1.69
  -7  -8   8    6.14    1.56
   7  -8  -9    1.48    2.83
  -7  -8   9    6.47    1.40
   7  -9  -2    1.79    2.92
   7  -9  -3    3.50    2.70
  -7  -9   3    0.46    0.93
  -7   9  -3   -0.33    2.00
  -7   9  -3   -0.21    1.19
  -7  -9   4    8.61    1.10
   7  -9  -4    2.91    2.82
  -7   9  -4    7.63    1.89
  -7   9  -4    4.99    1.14
   7  -9  -5    0.66    2.64
  -7   9  -5   -1.19    1.58
  -7   9  -5   -0.84    1.03
   7  -9  -6   -0.36    2.83
  -7   9  -6    0.97    1.51
   7  -9  -7    1.29    3.02
   7  -9  -8   -0.10    2.91
   7 -10  -2    7.46    3.31
   7 -10  -3    7.14    3.04
   7 -10  -4    5.48    2.88
   7 -10  -5    2.89    2.80
   7 -10  -6    1.16    2.94
   7 -10  -7    3.43    3.15
   7 -11  -2    4.80    3.22
   7 -11  -3    4.20    3.14
   7 -11  -4    4.89    2.95
   7 -11  -5   -0.57    2.85
  -8   0   0    4.25    3.22
  -8   0  -1  610.47   12.84
  -8   0   1  305.47    7.35
  -8   0  -2   12.02    3.89
  -8   0   2    5.82    0.69
  -8   0  -3   23.91    4.14
  -8   0   3   12.89    0.53
  -8   0   5   14.29    2.12
  -8   0   6   55.13    3.11
  -8   0   7   18.67    2.10
  -8   0   8    2.27    1.41
  -8   0   9   29.58    2.14
   8   0 -10    9.72    3.63
  -8   0  10   12.53    1.72
   8   0 -11   74.36    7.20
  -8   0  11  159.44    4.61
  -8   1   0  367.20    8.16
  -8   1   0  205.18    5.37
  -8   1   1    1.16    0.76
  -8   1  -1    6.64    2.98
  -8   1   1    4.54    2.30
  -8   1  -1    5.32    1.75
  -8   1  -2  122.86    5.97
  -8   1   2   52.66    1.55
  -8   1  -3   10.00    3.75
  -8  -1   3    3.04    0.51
  -8   1  -4   37.18    4.28
  -8   1  -5   10.72    3.98
  -8  -1   5   15.21    2.28
  -8  -1   6   85.90    3.53
  -8   1   6   87.45    3.57
  -8  -1   7   11.80    1.98
  -8   1   7    6.45    1.48
  -8  -1   8   30.84    2.22
  -8   1   8   31.58    2.28
   8  -1  -9    6.42    3.38
  -8  -1   9    6.43    1.54
  -8   1   9    4.53    1.58
   8  -1 -10   32.55    5.00
  -8  -1  10   38.50    2.33
  -8   1  10   39.78    2.35
   8  -1 -11    4.47    3.54
  -8  -1  11    3.34    1.56
  -8   1  11    3.04    1.75
  -8   2   0   63.78    3.52
  -8   2   0   38.98    1.62
  -8   2  -1   17.21    1.30
  -8   2   1   20.03    1.08
  -8   2  -2    0.74    1.22
  -8   2   2    0.18    0.56
  -8   2  -2    0.50    2.23
  -8   2   3   31.36    2.58
  -8   2  -3   31.32    2.50
  -8   2  -4    8.18    2.15
  -8   2   4    7.65    1.87
  -8   2  -5  259.69    9.37
  -8   2  -5  289.27    8.61
  -8   2  -6    1.94    3.28
  -8  -2   6    4.36    2.04
  -8   2  -7  141.47    7.15
  -8  -2   7  147.07    4.76
  -8  -2   8    2.81    1.73
  -8   2   8    3.90    1.48
  -8  -2   9    7.66    1.56
  -8   2   9    6.71    1.56
   8  -2 -10    5.71    3.26
  -8   2  10    7.74    1.92
  -8  -2  10    4.12    1.43
   8  -2 -11    5.61    3.16
  -8  -2  11   10.67    1.63
  -8  -2  12   23.70    2.16
  -8   3   0   45.63    1.76
  -8   3   1   15.46    0.93
  -8   3   1   18.68    2.33
  -8   3   2   20.24    1.19
  -8   3  -2   22.60    2.55
  -8   3   2   22.19    2.20
  -8   3  -2   17.87    1.46
  -8   3  -3    4.71    1.19
  -8   3  -3    6.25    2.10
  -8   3   3    4.78    1.82
  -8   3  -4   66.80    2.79
  -8  -3   4   47.83    1.27
  -8   3  -5    2.09    1.75
  -8   3  -5    2.42    2.78
  -8   3   5    5.85    1.49
   8  -3  -6  238.78   11.09
  -8   3  -6  268.81    9.02
  -8   3  -6  246.16    7.54
  -8   3  -7    2.37    2.45
   8  -3  -7    7.17    3.39
  -8   3  -7    3.97    3.24
  -8  -3   7    1.10    1.68
  -8   3  -8   55.74    4.53
  -8  -3   8   44.00    2.72
  -8   3  -8   51.69    3.89
  -8   3  -9    0.98    2.59
  -8   3  -9   -0.39    3.27
  -8  -3   9    2.02    1.37
  -8   3   9    1.05    1.60
  -8   3 -10    3.59    2.92
  -8  -3  10    6.05    1.63
  -8   3 -11    9.02    3.45
  -8  -3  11   12.66    1.75
  -8  -3  12   22.03    2.04
  -8   4   0    3.42    0.77
  -8   4   0    4.75    1.93
  -8   4   1  134.72    4.52
  -8   4  -1  157.27    3.59
  -8   4   2    3.40    1.70
  -8   4  -2    6.97    1.05
  -8   4   3   24.33    2.23
  -8   4  -3   23.37    2.03
  -8  -4   4    0.69    0.52
  -8   4   4    3.96    1.50
   8  -4  -5   26.81    4.45
  -8   4  -5   27.77    2.55
  -8   4   5   36.88    2.31
  -8   4  -5   34.21    2.17
  -8  -4   5   22.14    0.87
  -8   4   6   17.31    1.88
  -8   4  -6   17.59    2.01
  -8   4  -7   27.38    3.19
  -8  -4   7   36.11    2.70
  -8   4   7   34.94    2.26
  -8   4  -7   35.34    2.52
  -8   4  -8    1.83    1.80
   8  -4  -8    3.60    2.65
  -8   4  -8    4.63    2.85
  -8  -4   8    0.29    1.77
  -8  -4   9   16.76    1.85
  -8   4  -9   15.87    2.54
  -8   4 -10    2.19    2.32
   8  -4 -10    7.39    3.36
  -8  -4  10    3.44    1.49
  -8  -4  11   66.75    2.88
  -8   4 -11   85.54    4.71
  -8  -4  12    6.18    1.65
  -8   5   0  213.41    5.05
  -8   5   0  221.68    6.36
  -8   5  -1    4.51    0.96
  -8   5   1    3.30    1.32
  -8   5  -1    5.82    1.81
  -8   5   1    6.80    1.86
  -8   5  -2  101.69    4.37
  -8   5  -2   84.76    2.82
  -8   5  -3    3.56    1.17
  -8  -5   3    0.58    0.87
  -8   5   3    2.65    1.39
  -8  -5   4    7.90    0.77
   8  -5  -4    7.94    3.27
  -8   5   4    6.21    1.64
   8  -5  -5   10.41    3.54
  -8  -5   5   15.06    0.82
   8  -5  -6    8.93    3.56
  -8   5   6   17.11    1.86
  -8  -5   6    8.50    0.86
  -8   5  -6   16.98    1.74
  -8   5   7   17.18    2.08
  -8   5  -7   23.93    2.13
  -8  -5   8   10.53    1.95
  -8   5  -8   14.60    1.95
  -8   5  -9    7.36    1.91
   8  -5  -9    6.41    3.32
  -8  -5   9   12.82    1.96
  -8  -5  10   53.78    2.50
  -8   5 -10   44.09    2.95
  -8  -5  11    3.05    1.52
  -8  -5  12   87.60    3.21
  -8   6   0    2.44    1.33
  -8   6   0    6.52    1.54
  -8   6  -1   52.46    2.24
  -8   6  -1   51.82    2.86
  -8   6   1   51.80    2.60
  -8   6  -2    1.72    1.16
  -8   6  -2    2.16    1.77
  -8   6   2    4.15    1.65
  -8   6  -3   16.77    1.58
  -8  -6   3   13.76    1.21
  -8   6   3   17.86    1.81
   8  -6  -4    5.10    3.23
  -8   6  -4    2.65    1.15
  -8  -6   4    0.57    0.56
  -8   6  -4    0.35    1.61
  -8   6   4    3.03    1.55
  -8   6  -5   35.62    2.82
  -8   6   5   40.42    2.49
  -8  -6   5   34.10    1.41
   8  -6  -6    6.73    3.26
  -8   6   6    7.28    1.89
  -8   6  -6    7.67    1.50
   8  -6  -7    7.33    3.33
  -8   6  -7   85.14    3.20
   8  -6  -8   -0.44    2.88
  -8  -6   8    0.45    1.61
  -8  -6   9   16.82    2.05
  -8   6  -9   17.35    2.68
  -8  -6  10    9.56    1.63
  -8  -6  11   37.45    2.18
  -8   7   0   20.02    1.97
  -8   7  -1   11.27    1.77
  -8   7  -1   11.75    1.64
  -8   7  -2    8.33    1.43
  -8  -7   2    7.44    1.31
  -8   7  -2    7.74    1.48
  -8   7   2   10.94    1.74
  -8   7  -3    2.22    1.25
  -8  -7   3    1.35    0.79
  -8   7  -3    2.73    1.56
  -8   7  -4   36.42    2.00
  -8   7  -4   37.74    2.54
  -8   7  -5    6.36    1.53
  -8   7  -5    4.80    1.81
  -8   7  -6   75.20    3.36
  -8   7  -6  109.56    3.56
  -8   7  -7    4.98    1.49
   8  -7  -7    7.03    3.40
  -8   7  -7    2.47    1.64
  -8   7  -8   27.16    2.56
  -8  -7   8   32.95    2.40
  -8  -7   9    0.80    1.66
  -8  -7  10    7.12    1.53
  -8   8   0   12.31    1.71
  -8   8  -1   13.56    1.71
  -8   8   1   14.62    1.82
  -8  -8   2   -0.13    1.06
  -8   8  -2   -1.32    1.93
  -8   8  -2    2.54    1.34
  -8   8   2    1.34    1.59
  -8   8  -3   14.12    2.02
  -8   8  -3   18.25    1.90
  -8   8  -4    1.53    1.38
  -8   8  -4    3.08    1.37
  -8   8  -5   62.82    2.94
  -8   8  -5   45.28    2.33
  -8   8  -6    1.15    1.34
  -8   8  -6    2.60    1.29
  -8  -8   8   -1.19    1.65
  -8   9  -1    1.59    1.50
  -8   9  -2   18.93    1.87
  -8   9  -3    1.53    1.27
   8  -9  -4    9.13    3.90
  -8   9  -4    4.67    1.92
  -8   9  -4    4.36    1.36
   8  -9  -5   12.06    4.08
   8 -10  -4    9.22    3.98
  -9   0   0   -0.80    1.37
  -9   0   1   -0.06    0.82
  -9   0   2   33.13    1.16
  -9   0   4    4.71    2.22
  -9   0   5   23.10    2.48
  -9   0   6    1.50    1.95
  -9   0   7   23.18    2.31
  -9   0   8    5.88    1.66
  -9   0   9    9.40    1.86
  -9   1   0    0.64    0.84
  -9   1  -1   25.79    1.97
  -9   1   1    5.54    0.88
  -9   1  -2    2.72    1.76
  -9  -1   2    2.84    0.82
  -9   1   2    2.47    0.49
  -9   1  -3    1.44    1.97
  -9  -1   3    0.71    0.20
  -9  -1   5   12.21    2.62
  -9  -1   6   -1.83    1.76
  -9   1   6   -0.14    1.85
  -9  -1   7   -0.24    1.87
  -9   1   7    1.33    1.45
  -9  -1   8   10.81    1.84
  -9   1   8   27.92    2.34
  -9  -1   9    2.31    1.59
  -9   1   9    1.97    1.68
  -9  -1  10    4.87    1.62
  -9   2   0    1.38    0.77
  -9   2  -1   18.54    1.36
  -9   2   1   18.71    1.05
  -9   2  -2    3.03    1.19
  -9   2   2    2.45    0.62
  -9   2   2    4.03    2.29
  -9   2   3   10.32    2.15
  -9  -2   3   12.57    0.92
  -9   2  -3   12.84    1.77
  -9   2   4   19.55    2.48
  -9   2  -4   24.08    2.55
  -9   2  -5    0.41    2.18
  -9   2  -6    1.51    2.38
  -9  -2   6    0.74    2.00
  -9   2  -7   -1.05    2.75
  -9  -2   7   -1.09    2.06
  -9   2   7    2.28    1.62
  -9   2  -8   19.54    3.92
  -9  -2   8   18.88    2.36
  -9   2   8   18.27    1.95
  -9   2  -9    8.07    4.07
  -9  -2   9   10.68    1.74
  -9  -2  10    1.90    1.64
  -9   3   0    1.20    0.80
  -9   3  -1    1.74    0.89
  -9   3   1    0.66    0.71
  -9   3   1   -0.46    2.08
  -9   3   2   37.91    2.72
  -9   3  -2   40.60    2.29
  -9   3   3   11.52    2.27
  -9   3  -3   13.64    1.53
  -9   3  -4    1.65    1.27
  -9   3   4    1.04    1.87
  -9   3  -5    5.64    1.60
  -9   3   5    4.53    1.58
  -9   3  -6    1.45    1.80
  -9  -3   6   -0.49    2.19
  -9  -3   7   13.56    2.15
  -9   3  -7   12.97    2.46
  -9   3  -8    1.37    2.51
  -9  -3   8    0.57    1.93
  -9   3  -9    3.32    2.79
  -9  -3   9    4.12    1.61
  -9  -3  10   15.39    2.06
  -9   4   0    0.26    0.88
  -9   4   0   -0.91    1.98
  -9   4  -1    1.84    0.93
  -9   4   1    0.66    0.89
  -9   4  -1   -0.26    2.12
  -9   4   1   -0.71    1.88
  -9   4   2    8.56    2.11
  -9   4  -2   13.62    1.37
  -9   4   3    4.51    1.87
  -9   4  -3    6.26    1.22
  -9   4   4    1.24    1.48
  -9   4  -4    9.09    1.66
  -9   4   5    6.34    1.76
  -9   4  -5    8.24    1.55
  -9   4  -6    2.40    1.70
  -9   4   6    1.93    1.57
  -9   4  -7    7.41    1.77
   9  -4  -7   10.75    4.27
  -9  -4   7    5.68    2.09
  -9   4  -8    1.93    1.81
  -9  -4   8   -0.38    1.95
  -9   4  -9    2.42    2.14
  -9  -4   9    2.13    1.74
  -9  -4  10    4.69    1.66
  -9  -4  11    5.03    1.70
  -9   5   0   -1.05    1.13
  -9   5   0   -1.02    1.97
  -9   5  -1    8.59    1.22
  -9   5  -1    5.40    1.80
  -9   5   1    8.90    2.10
  -9   5  -2    1.06    1.08
  -9   5  -2   -0.70    1.98
  -9   5   2    0.97    1.59
  -9   5   3   12.95    1.84
  -9   5  -3    7.59    2.35
  -9   5  -3   11.97    1.33
  -9   5   4   29.98    2.43
  -9   5  -4   32.87    2.02
  -9   5  -5    3.58    1.28
  -9   5   5    0.87    1.68
  -9   5  -6    2.64    1.90
  -9   5  -7    4.62    1.70
  -9  -5   7    3.32    2.24
  -9  -5   8   20.54    2.52
  -9   5  -8   21.06    2.14
  -9  -5   9   12.30    2.07
  -9  -5  10    2.24    1.59
  -9  -5  11    5.09    1.67
  -9   6   0    0.96    1.57
  -9   6  -1    1.83    1.28
  -9   6  -1    2.24    1.93
  -9   6   1    2.87    1.58
  -9   6  -2    2.94    1.22
  -9   6  -2    1.05    1.88
  -9   6   2    3.44    1.70
  -9   6  -3    1.14    1.03
  -9   6  -3   -1.07    1.87
  -9   6   3    1.93    1.58
  -9   6  -4    0.82    1.23
  -9   6  -4   -0.66    1.79
  -9   6  -5    4.60    1.35
  -9   6  -5    2.56    2.11
  -9   6  -6    2.05    1.48
  -9   6  -6    0.38    2.11
  -9   6  -7    6.35    1.59
  -9  -6   7    5.02    2.42
  -9  -6   8   -0.69    2.00
  -9  -6   9    2.21    1.91
  -9  -6  10    6.81    1.69
  -9   7   0    0.99    1.71
  -9   7  -1    2.66    1.53
  -9   7   1    3.56    1.59
  -9   7  -2   16.38    1.94
  -9   7  -2   15.35    1.83
  -9   7  -3    9.34    1.52
  -9   7  -3   10.76    1.99
  -9   7  -4    0.16    1.39
  -9   7  -4   -0.03    1.80
  -9   7  -5    3.61    1.27
  -9   7  -5    3.51    1.97
  -9   7  -6    2.33    1.53
  -9   7  -6    0.28    1.87
  -9  -7   7    5.71    2.43
  -9   7  -7    3.43    1.73
  -9  -7   8   -0.69    2.02
  -9   8  -1    5.99    1.72
  -9   8  -2    4.21    1.57
  -9   8  -3   -0.17    1.84
  -9   8  -3    5.53    1.74
  -9   8  -4    2.70    1.58
  -9   8  -4    6.00    1.61
  -9   8  -5    1.93    1.43
 -10   0   0    4.26    1.11
 -10   0  -1    4.60    1.69
 -10   0  -2   -1.00    2.12
 -10  -1   0   10.59    1.85
 -10   1   0   12.70    1.68
 -10   1  -1    2.09    1.16
 -10   1  -2   41.90    2.25
 -10   1  -3    0.54    2.02
 -10   1  -4   51.83    3.63
 -10   1  -5   11.52    2.90
 -10   1  -6   14.31    3.61
 -10   2   0   44.99    1.68
 -10   2  -1   39.07    1.86
 -10   2  -2    6.81    1.35
 -10   2  -3   57.66    2.60
 -10   2  -4    2.72    1.74
 -10   2  -5    7.50    2.16
 -10   2  -6    0.62    2.37
 -10   2  -7    8.28    2.98
 -10   2  -8    2.37    3.10
 -10   3   0   17.61    1.14
 -10   3  -1   22.28    1.43
 -10   3  -2   55.66    2.22
 -10   3  -3    3.20    2.24
 -10   3  -4   30.02    2.11
 -10   3  -5    0.76    1.61
 -10   3  -6    3.08    1.66
 -10   3  -7    2.08    2.02
 -10   3  -8   34.36    3.06
 -10   4  -1   10.54    1.14
 -10   4  -2    2.01    1.12
 -10   4  -3   53.26    2.41
 -10   4  -4   11.80    1.51
 -10   4  -5   36.97    3.24
 -10   4  -6   20.76    2.06
 -10   4  -7   19.43    2.24
 -10   5  -2   26.09    1.82
 -10   5  -3    3.57    1.35
 -10   5  -4   55.23    2.47
 -10   5  -5   36.34    2.31
 -10   5  -6   19.22    1.83
 -10   6  -3   34.52    2.15
 -10   6  -4    2.65    1.22
 -10   6  -5   18.75    1.94
 -10   7  -4   12.46    1.75
   0   0   0    0.00    0.00
;
_shelx_hkl_checksum              43282
loop_
_space_group_symop_operation_xyz
'x, y, z'
'-x+1/2, -y, z+1/2'
'-x, y+1/2, -z'
'x+1/2, -y+1/2, -z+1/2'
'-x, -y, -z'
'x-1/2, y, -z-1/2'
'x, -y-1/2, z'
'-x-1/2, y-1/2, z-1/2'
loop_
_atom_site_label
_atom_site_type_symbol
_atom_site_fract_x
_atom_site_fract_y
_atom_site_fract_z
_atom_site_U_iso_or_equiv
_atom_site_adp_type
_atom_site_occupancy
_atom_site_site_symmetry_order
_atom_site_calc_flag
_atom_site_refinement_flags_posn
_atom_site_refinement_flags_adp
_atom_site_refinement_flags_occupancy
_atom_site_disorder_assembly
_atom_site_disorder_group
Pb1 Pb 0.47096(18) 0.2500 0.24889(8) 0.0320(4) Uani 1 2 d S TU P . .
I1 I 0.7085(2) 0.04474(17) 0.33999(14) 0.0415(5) Uani 1 1 d . U . . .
I2 I 0.2328(3) 0.2500 0.4173(2) 0.0446(7) Uani 1 2 d S TU P . .
C1 C 0.88237(17) 0.1291(17) 0.6008(4) 0.034(3) Uani 1 1 d D U . . .
H1A H 0.9312 0.0609 0.6347 0.041 Uiso 1 1 d R U . . .
H1B H 0.8991 0.1120 0.5382 0.041 Uiso 1 1 d R U . . .
C2 C 0.960(4) 0.2500 0.625(2) 0.032(4) Uani 1 2 d S TU P . .
H2A H 1.0724 0.2500 0.6044 0.038 Uiso 1 2 d R U P . .
C3 C 0.614(4) 0.2500 0.576(3) 0.038(4) Uani 1 2 d S TU P . .
H3A H 0.4966 0.2500 0.5837 0.045 Uiso 1 2 d R U P . .
H3B H 0.6407 0.2500 0.5131 0.045 Uiso 1 2 d R U P . .
C4 C 0.69828(17) 0.1367(17) 0.6205(5) 0.036(3) Uani 0.5 1 d D U P . .
F1 F 0.955(3) 0.2500 0.7260(15) 0.053(6) Uani 1 2 d S TU P . .
N1 N 0.69828(17) 0.1367(17) 0.6205(5) 0.036(3) Uani 0.5 1 d . U P . .
H1C H 0.6825 0.1484 0.6802 0.043 Uiso 0.5 1 d R U P . .
H1D H 0.6480 0.0633 0.6055 0.043 Uiso 0.5 1 d R U P . .
loop_
_atom_site_aniso_label
_atom_site_aniso_U_11
_atom_site_aniso_U_22
_atom_site_aniso_U_33
_atom_site_aniso_U_23
_atom_site_aniso_U_13
_atom_site_aniso_U_12
Pb1 0.0057(7) 0.0387(8) 0.0516(9) 0.000 0.0007(5) 0.000
I1 0.0147(9) 0.0406(9) 0.0692(12) 0.0068(10) -0.0039(7) 0.0011(6)
I2 0.0077(10) 0.0687(16) 0.0574(15) 0.000 0.0011(11) 0.000
C1 0.012(5) 0.036(6) 0.055(6) 0.004(5) 0.006(5) 0.001(5)
C2 0.010(7) 0.036(8) 0.050(7) 0.000 0.007(8) 0.000
C3 0.012(7) 0.039(7) 0.061(8) 0.000 0.003(7) 0.000
C4 0.011(4) 0.038(5) 0.059(5) 0.005(5) 0.007(5) -0.002(4)
F1 0.021(10) 0.079(13) 0.058(7) 0.000 -0.030(9) 0.000
N1 0.011(4) 0.038(5) 0.059(5) 0.005(5) 0.007(5) -0.002(4)
loop_
_atom_type_symbol
_atom_type_description
_atom_type_scat_dispersion_real
_atom_type_scat_dispersion_imag
_atom_type_scat_source
C C 0.0033 0.0016 'International Tables Vol C Tables 4.2.6.8 and 6.1.1.4'
H H 0.0000 0.0000 'International Tables Vol C Tables 4.2.6.8 and 6.1.1.4'
N N 0.0061 0.0033 'International Tables Vol C Tables 4.2.6.8 and 6.1.1.4'
F F 0.0171 0.0103 'International Tables Vol C Tables 4.2.6.8 and 6.1.1.4'
I I -0.4742 1.8119 'International Tables Vol C Tables 4.2.6.8 and 6.1.1.4'
Pb Pb -3.3944 10.1111 'International Tables Vol C Tables 4.2.6.8 and 6.1.1.4'
loop_
_geom_angle_atom_site_label_1
_geom_angle_atom_site_label_2
_geom_angle_atom_site_label_3
_geom_angle
_geom_angle_site_symmetry_1
_geom_angle_site_symmetry_3
_geom_angle_publ_flag
I2 Pb1 I1 91.61(6) . 7_565 ?
I2 Pb1 I1 91.61(6) . . ?
I1 Pb1 I1 84.76(7) 7_565 . ?
I2 Pb1 I2 176.97(8) . 6_656 ?
I1 Pb1 I2 86.16(6) 7_565 6_656 ?
I1 Pb1 I2 86.16(6) . 6_656 ?
I2 Pb1 I1 85.86(6) . 6_556 ?
I1 Pb1 I1 176.99(6) 7_565 6_556 ?
I1 Pb1 I1 96.93(5) . 6_556 ?
I2 Pb1 I1 96.43(6) 6_656 6_556 ?
I2 Pb1 I1 85.86(6) . 4_455 ?
I1 Pb1 I1 96.93(5) 7_565 4_455 ?
I1 Pb1 I1 176.99(6) . 4_455 ?
I2 Pb1 I1 96.43(6) 6_656 4_455 ?
I1 Pb1 I1 81.27(7) 6_556 4_455 ?
Pb1 I1 Pb1 77.14(4) . 6_656 ?
Pb1 I2 Pb1 77.95(7) . 6_556 ?
C2 C1 C4 109.1(15) . . ?
C1 C2 C1 121(2) 7_565 . ?
C1 C2 F1 103.6(16) 7_565 . ?
C1 C2 F1 103.6(16) . . ?
N1 C3 C4 0.0 7_565 7_565 ?
N1 C3 C4 102.5 7_565 . ?
C4 C3 C4 102(2) 7_565 . ?
C3 C4 C1 113.2(16) . . ?
loop_
_geom_bond_atom_site_label_1
_geom_bond_atom_site_label_2
_geom_bond_distance
_geom_bond_site_symmetry_2
_geom_bond_publ_flag
Pb1 I2 3.167(3) . ?
Pb1 I1 3.187(2) 7_565 ?
Pb1 I1 3.187(2) . ?
Pb1 I2 3.262(3) 6_656 ?
Pb1 I1 3.298(2) 6_556 ?
Pb1 I1 3.298(2) 4_455 ?
I1 Pb1 3.298(2) 6_656 ?
I2 Pb1 3.262(3) 6_556 ?
C1 C2 1.46(2) . ?
C1 C4 1.5200(17) . ?
C2 C1 1.46(2) 7_565 ?
C2 F1 1.51(4) . ?
C3 N1 1.52(3) 7_565 ?
C3 C4 1.52(3) 7_565 ?
C3 C4 1.52(3) . ?
