#------------------------------------------------------------------------------
#$Date: 2020-04-07 01:45:39 +0300 (Tue, 07 Apr 2020) $
#$Revision: 250407 $
#$URL: file:///home/coder/svn-repositories/cod/cif/4/13/46/4134616.cif $
#------------------------------------------------------------------------------
#
# This file is available in the Crystallography Open Database (COD),
# http://www.crystallography.net/
#
# All data on this site have been placed in the public domain by the
# contributors.
#
data_4134616
loop_
_publ_author_name
'Deng, Bin-Bin'
'Xu, Chu-Chu'
'Cheng, Ting-Ting'
'Yang, Yi-Ting'
'Hu, Yan-Ting'
'Wang, Pan'
'He, Wen-Hui'
'Yang, Meng-Juan'
'Liao, Wei-Qiang'
_publ_section_title
;
 Homochiral Nickel Nitrite ABX<sub>3</sub> (X =
 NO<sub>2</sub><sup>-</sup>) Perovskite Ferroelectrics.
;
_journal_name_full               'Journal of the American Chemical Society'
_journal_paper_doi               10.1021/jacs.0c02580
_journal_year                    2020
_chemical_absolute_configuration R
_chemical_formula_moiety         'N3 Ni O6, C8 H15 F N O'
_chemical_formula_sum            'C8 H15 F N4 Ni O7'
_chemical_formula_weight         356.95
_space_group_crystal_system      monoclinic
_space_group_IT_number           4
_space_group_name_Hall           'P 2yb'
_space_group_name_H-M_alt        'P 1 21 1'
_atom_sites_solution_hydrogens   geom
_audit_creation_method           SHELXL-2014/7
_cell_angle_alpha                90
_cell_angle_beta                 114.028(4)
_cell_angle_gamma                90
_cell_formula_units_Z            2
_cell_length_a                   9.9291(3)
_cell_length_b                   6.8700(2)
_cell_length_c                   10.4570(3)
_cell_measurement_reflns_used    3055
_cell_measurement_temperature    293(2)
_cell_measurement_theta_max      75.8540
_cell_measurement_theta_min      4.8590
_cell_volume                     651.49(4)
_computing_cell_refinement       'CrysAlisPro 1.171.39.46 (Rigaku OD, 2018)'
_computing_data_collection       'CrysAlisPro 1.171.39.46 (Rigaku OD, 2018)'
_computing_data_reduction        'CrysAlisPro 1.171.39.46 (Rigaku OD, 2018)'
_computing_molecular_graphics    'DIAMOND (Brandenburg & Putz, 2005)'
_computing_publication_material  'SHELXL-2014/7 (Sheldrick, 2014)'
_computing_structure_refinement  'SHELXL-2014/7 (Sheldrick, 2014)'
_computing_structure_solution    'SHELXL-2014/7 (Sheldrick, 2014)'
_diffrn_ambient_temperature      293(2)
_diffrn_measured_fraction_theta_full 0.998
_diffrn_measured_fraction_theta_max 0.949
_diffrn_measurement_device_type  'XtaLAB Synergy R, DW system, HyPix'
_diffrn_measurement_method       'four-circle diffractometer'
_diffrn_radiation_type           CuK\a
_diffrn_radiation_wavelength     1.54178
_diffrn_reflns_av_R_equivalents  0.0348
_diffrn_reflns_av_unetI/netI     0.0421
_diffrn_reflns_Laue_measured_fraction_full 0.998
_diffrn_reflns_Laue_measured_fraction_max 0.949
_diffrn_reflns_limit_h_max       12
_diffrn_reflns_limit_h_min       -12
_diffrn_reflns_limit_k_max       8
_diffrn_reflns_limit_k_min       -8
_diffrn_reflns_limit_l_max       13
_diffrn_reflns_limit_l_min       -13
_diffrn_reflns_number            4055
_diffrn_reflns_point_group_measured_fraction_full 0.998
_diffrn_reflns_point_group_measured_fraction_max 0.946
_diffrn_reflns_theta_full        67.679
_diffrn_reflns_theta_max         76.103
_diffrn_reflns_theta_min         4.630
_diffrn_source                   'Rotating-anode X-ray tube'
_exptl_absorpt_coefficient_mu    2.704
_exptl_absorpt_correction_T_max  0.780
_exptl_absorpt_correction_T_min  0.763
_exptl_absorpt_correction_type   multi-scan
_exptl_absorpt_process_details   'CrysAlisPro 1.171.39.46 (Rigaku OD, 2018)'
_exptl_crystal_colour            Brown
_exptl_crystal_density_diffrn    1.820
_exptl_crystal_description       Prism
_exptl_crystal_F_000             368
_exptl_crystal_size_max          0.110
_exptl_crystal_size_mid          0.110
_exptl_crystal_size_min          0.100
_refine_diff_density_max         0.777
_refine_diff_density_min         -0.456
_refine_diff_density_rms         0.089
_refine_ls_abs_structure_details
;
 Refined as an inversion twin.
;
_refine_ls_abs_structure_Flack   -0.01(11)
_refine_ls_extinction_method     none
_refine_ls_goodness_of_fit_ref   1.006
_refine_ls_hydrogen_treatment    constr
_refine_ls_matrix_type           full
_refine_ls_number_parameters     192
_refine_ls_number_reflns         2742
_refine_ls_number_restraints     1
_refine_ls_restrained_S_all      1.006
_refine_ls_R_factor_all          0.0505
_refine_ls_R_factor_gt           0.0437
_refine_ls_shift/su_max          0.000
_refine_ls_shift/su_mean         0.000
_refine_ls_structure_factor_coef Fsqd
_refine_ls_weighting_details
'w=1/[\s^2^(Fo^2^)+(0.0359P)^2^+1.8062P] where P=(Fo^2^+2Fc^2^)/3'
_refine_ls_weighting_scheme      calc
_refine_ls_wR_factor_gt          0.1042
_refine_ls_wR_factor_ref         0.1243
_reflns_Friedel_coverage         0.835
_reflns_Friedel_fraction_full    0.998
_reflns_Friedel_fraction_max     0.942
_reflns_number_gt                2742
_reflns_number_total             2742
_reflns_threshold_expression     'I > 2\s(I)'
_cod_data_source_file            ja0c02580_si_003.cif
_cod_data_source_block           P21_TEST
_cod_original_sg_symbol_H-M      'P 21'
_cod_database_code               4134616
_shelx_shelxl_version_number     2014/7
_shelx_space_group_comment
;
The symmetry employed for this shelxl refinement is uniquely defined
by the following loop, which should always be used as a source of
symmetry information in preference to the above space-group names.
They are only intended as comments.
;
_shelx_estimated_absorpt_t_min   0.755
_shelx_estimated_absorpt_t_max   0.774
_shelx_res_file
;

    P21_TEST.res created by SHELXL-2014/7


TITL P21_TEST in P2(1)
CELL 1.54178   9.9291   6.8700  10.4570  90.000 114.028  90.000
ZERR    2.00   0.0003   0.0002   0.0003   0.000   0.004   0.000
LATT -1
SYMM -X, 0.5+Y, -Z
SFAC C  H  N  O  F  Ni
UNIT 16 30 8 14 2 2
MERG 1
L.S. 20
ACTA
BOND
FMAP 2
PLAN 2
CONF
TWIN
TEMP 20
SIZE 0.10 0.11 0.11
WGHT    0.035900    1.806200
BASF  -0.01211
FVAR       0.67114
MOLE 2
C1    1    0.449878    0.710422    0.607625    11.00000    0.04168    0.04740 =
         0.04398    0.00641    0.00667    0.00420
AFIX  23
H1A   2    0.371882    0.619137    0.598267    11.00000   -1.20000
H1B   2    0.410494    0.841310    0.599005    11.00000   -1.20000
AFIX   0
C2    1    0.516997    0.709285    0.857439    11.00000    0.05339    0.06837 =
         0.06054   -0.00166    0.03434    0.00448
AFIX  23
H2A   2    0.452896    0.600912    0.853751    11.00000   -1.20000
H2B   2    0.460059    0.828434    0.841665    11.00000   -1.20000
AFIX   0
C3    1    0.640512    0.486389    0.756807    11.00000    0.05350    0.04439 =
         0.03735    0.00155    0.00930    0.00987
AFIX  23
H3A   2    0.690476    0.476332    0.694373    11.00000   -1.20000
H3B   2    0.563058    0.389092    0.729435    11.00000   -1.20000
AFIX   0
C4    1    0.690168    0.839514    0.765755    11.00000    0.04746    0.05949 =
         0.06418    0.00132    0.01444   -0.02461
AFIX  23
H4A   2    0.652940    0.966833    0.775146    11.00000   -1.20000
H4B   2    0.715940    0.841879    0.685705    11.00000   -1.20000
AFIX   0
C5    1    0.645526    0.716272    0.999929    11.00000    0.09006    0.07355 =
         0.04415   -0.01321    0.02756   -0.01165
AFIX  23
H5A   2    0.660318    0.848701    1.035154    11.00000   -1.20000
H5B   2    0.624559    0.635119    1.065520    11.00000   -1.20000
AFIX   0
C6    1    0.750483    0.450565    0.908305    11.00000    0.04561    0.05650 =
         0.04973    0.01101    0.00720    0.00913
AFIX  13
H6    2    0.842156    0.397676    0.908323    11.00000   -1.20000
AFIX   0
C7    1    0.826766    0.787495    0.900097    11.00000    0.04779    0.07882 =
         0.06567    0.00476    0.00505   -0.02295
AFIX  23
H7A   2    0.902276    0.730441    0.875333    11.00000   -1.20000
H7B   2    0.866805    0.904454    0.954238    11.00000   -1.20000
AFIX   0
C8    1    0.782902    0.644339    0.986592    11.00000    0.04949    0.07296 =
         0.03583   -0.00337    0.00030   -0.00911
AFIX  13
H8    2    0.863292    0.628895    1.079474    11.00000   -1.20000
AFIX   0
F1    5    0.499335    0.677570    0.505957    11.00000    0.07470    0.08668 =
         0.03670    0.00982    0.01195    0.00753
MOLE 1
N1    3   -0.196479    0.711749    0.411049    11.00000    0.04205    0.03872 =
         0.03800    0.00076    0.01411   -0.00119
N2    3    0.090136    0.712027    0.387304    11.00000    0.03841    0.04943 =
         0.05269    0.01236    0.00458    0.00338
N3    3    0.083831    0.696868    0.678646    11.00000    0.05193    0.03785 =
         0.03022    0.00692    0.00400    0.00166
MOLE 2
N4    3    0.574991    0.685865    0.746086    11.00000    0.03411    0.03048 =
         0.03992    0.00127    0.01226   -0.00048
MOLE 1
NI1   6   -0.008804    0.541102    0.489519    11.00000    0.03327    0.02725 =
         0.03908    0.00242    0.00982   -0.00114
O1    4   -0.321628    0.647913    0.344309    11.00000    0.03086    0.05757 =
         0.07199   -0.01019    0.01089   -0.01249
O2    4    0.131411    0.608214    0.789194    11.00000    0.08997    0.05740 =
         0.03636    0.00839    0.00014   -0.00322
O3    4   -0.094878    0.377114    0.310756    11.00000    0.05981    0.03735 =
         0.04434    0.00013    0.01130    0.00196
O4    4    0.188123    0.393397    0.569709    11.00000    0.03620    0.03283 =
         0.06894    0.00351    0.01059   -0.00764
O5    4   -0.115319    0.388016    0.589665    11.00000    0.04726    0.04291 =
         0.06760   -0.00132    0.02136   -0.00246
O6    4    0.140104    0.642883    0.304517    11.00000    0.06591    0.05976 =
         0.07254   -0.01399    0.04531    0.00235
MOLE 2
O7    4    0.685710    0.310758    0.965731    11.00000    0.07745    0.06825 =
         0.05911    0.02337    0.00431   -0.00548
AFIX 147
H7    2    0.746139    0.276937    1.043030    11.00000   -1.50000
AFIX   0
HKLF 4

REM  P21_TEST in P2(1)
REM R1 =  0.0437 for    3799 Fo > 4sig(Fo)  and  0.0505 for all    4055 data
REM    192 parameters refined using      1 restraints

END

WGHT      0.0341      1.3337

REM Highest difference peak  0.777,  deepest hole -0.456,  1-sigma level  0.089
Q1    1   0.0767  0.7938  0.4581  11.00000  0.05    0.78
Q2    1   0.1584  0.7955  0.3561  11.00000  0.05    0.64
;
_shelx_res_checksum              27045
_shelx_hkl_file
;
   0  -3   3  185.17    6.25
   0  -3   4  124.40    4.50
   0  -3   5   73.55    3.07
   0  -3   6   88.03    3.73
   0  -3   7   40.95    2.41
   0  -3   8    8.79    1.40
   0  -3   9   32.78    2.06
   0  -2   1  616.94   19.66
   0  -2   2   91.67    3.16
   0  -2   3  960.89   30.80
   0  -2   4  557.03   18.18
   0  -2   5  316.07   10.74
   0  -2   6  318.79   10.94
   0  -2  -6  309.48   11.16
   0  -2  -7  244.92    9.04
   0  -2   7  231.78    8.66
   0  -2  -8   93.30    4.45
   0  -2   8   88.97    4.16
   0  -2   9   19.92    1.98
   0  -2  10   17.82    1.70
   0  -2  11    3.65    0.95
   0  -1   1  365.66   11.70
   0  -1   2  930.64   29.72
   0  -1   3  782.01   25.13
   0  -1   4  101.46    3.73
   0  -1   5   72.71    3.02
   0  -1   6  116.93    4.52
   0  -1  -6  103.00    4.37
   0  -1   7  105.64    4.53
   0  -1  -7  100.85    4.51
   0  -1   8   38.58    2.73
   0  -1  -8   42.55    2.69
   0  -1  -9   14.52    1.72
   0  -1  10   25.35    2.13
   0  -1  11   12.36    1.42
   0   0   1 2067.10   65.61
   0   0   2  913.86   29.18
   0   0   3    5.33    0.67
   0   0   4  766.54   24.80
   0   0   5  150.43    5.50
   0   0   6  162.80    5.85
   0   0  -6  142.88    5.64
   0   0  -7   93.84    4.21
   0   0   7   99.35    4.38
   0   0   8  140.26    6.02
   0   0  -8  141.67    5.87
   0   0  -9   14.98    1.70
   0   0   9   13.03    1.80
   0   0  10  103.91    4.60
   0   0 -10   98.95    4.02
   0   0  11   60.88    2.94
   0   1   0    0.06    0.25
   0   1   1  354.13   11.32
   0   1  -1  352.86   11.50
   0   1   2  954.17   30.47
   0   1   3  810.92   26.05
   0   1   4  102.73    3.76
   0   1   5   71.74    2.98
   0   1   6  113.41    4.54
   0   1  -6  111.63    4.43
   0   1   7   97.36    4.36
   0   1  -7  101.56    4.28
   0   1  -8   39.12    2.45
   0   1   8   34.37    2.48
   0   1  -9   14.72    1.60
   0   1 -10   25.27    1.70
   0   1  10   22.12    1.96
   0   1 -11   11.41    0.94
   0   1  11   10.75    1.28
   0   2   0 1532.18   48.88
   0   2   1  628.92   20.00
   0   2   1  619.65   19.77
   0   2  -1  614.36   20.03
   0   2   2   90.11    3.09
   0   2   3  943.36   30.25
   0   2   4  562.92   18.37
   0   2   5  317.10   10.78
   0   2  -6  319.41   11.59
   0   2   6  344.49   11.74
   0   2  -6  360.68   11.68
   0   2   7  224.74    8.57
   0   2  -7  245.94    8.54
   0   2  -8  103.94    4.25
   0   2   8   89.40    4.28
   0   2   9   22.47    1.98
   0   2  -9   25.75    1.88
   0   2  10   16.22    1.61
   0   2 -10   21.00    1.53
   0   2  11    3.88    0.93
   0   2 -11    4.50    0.76
   0   3   0   -0.12    0.61
   0   3  -1  113.92    4.19
   0   3   1  117.67    4.19
   0   3   2   29.21    1.16
   0   3   2   34.18    1.56
   0   3   3  199.60    6.72
   0   3   4  125.45    4.56
   0   3  -5   72.53    3.22
   0   3   5   71.86    3.05
   0   3  -6   90.79    4.01
   0   3   6   96.08    3.97
   0   3  -6   96.62    3.77
   0   3   7   39.16    2.36
   0   3  -7   44.52    2.48
   0   3  -7   41.08    2.35
   0   3  -8   11.63    1.25
   0   3  -8    9.72    1.36
   0   3   8    9.88    1.48
   0   3  -9   37.58    2.13
   0   3   9   31.92    2.11
   0   3  10   -0.17    0.41
   0   3 -10    9.17    1.06
   0   3 -11    5.41    0.67
   0   4   0  148.82    5.52
   0   4   1    0.65    0.75
   0   4  -1    0.97    0.71
   0   4   2  318.22   10.84
   0   4  -3  435.97   14.62
   0   4  -3  432.31   14.45
   0   4   3  440.18   14.65
   0   4  -4  214.41    7.48
   0   4   4  206.00    7.63
   0   4  -4  214.05    7.86
   0   4  -5   90.39    3.71
   0   4   5   85.43    3.77
   0   4  -5   87.25    3.96
   0   4  -6   58.19    2.88
   0   4  -6   57.51    3.07
   0   4  -7  105.70    4.33
   0   4  -7   99.71    4.41
   0   4  -8   49.79    2.57
   0   4  -9   25.57    1.69
   0   4  10   -0.02    0.67
   0   4 -10    0.73    0.68
   0   5   0    0.42    1.02
   0   5   0   -0.91    1.34
   0   5   0   -0.08    0.91
   0   5   0    0.81    0.78
   0   5  -1   11.21    1.31
   0   5   1   12.27    1.35
   0   5  -1    9.42    1.27
   0   5   1   10.40    1.35
   0   5  -1   11.33    1.59
   0   5  -1    7.58    1.26
   0   5   1   12.46    1.50
   0   5  -2   13.23    1.73
   0   5  -2   10.57    1.16
   0   5   2   13.02    1.55
   0   5  -2    9.89    1.38
   0   5   2   11.06    1.37
   0   5   2    9.82    1.22
   0   5  -2   10.64    1.34
   0   5  -3   69.04    3.12
   0   5   3   74.23    3.38
   0   5   3   74.51    3.40
   0   5   3   78.36    3.55
   0   5  -3   76.98    3.64
   0   5  -3   74.59    3.42
   0   5  -4  139.72    5.26
   0   5   4  133.92    5.44
   0   5  -4  142.96    5.49
   0   5   4  133.96    5.62
   0   5  -5   37.33    2.17
   0   5   5   35.62    2.21
   0   5  -5   39.14    2.50
   0   5  -6    8.50    1.44
   0   5  -6    8.42    1.28
   0   5  -7    9.38    1.27
   0   5   7    7.63    1.29
   0   5  -7    8.76    1.32
   0   5  -8    9.32    1.10
   0   5   8   11.43    1.25
   0   5  -8   10.12    1.11
   0   5  -9    7.04    0.89
   0   5   9    8.88    0.97
   0   6   0  352.36   11.80
   0   6   0  364.70   11.89
   0   6   0  366.76   12.12
   0   6   1  349.80   12.47
   0   6  -1  350.38   12.33
   0   6   1  352.39   12.26
   0   6   1  345.48   12.18
   0   6  -1  353.92   12.19
   0   6  -1  361.32   12.52
   0   6   2  113.45    4.69
   0   6   2  114.25    4.88
   0   6  -2  110.61    4.82
   0   6  -2  111.81    4.59
   0   6   2  110.76    4.59
   0   6   3   54.67    2.90
   0   6   3   55.41    2.77
   0   6  -3   55.16    3.05
   0   6  -3   53.22    2.77
   0   6   3   54.89    2.99
   0   6  -4   45.38    2.41
   0   6   4   50.95    2.61
   0   6   4   53.13    2.88
   0   6  -4   52.07    2.67
   0   6  -4   52.96    2.96
   0   6  -5   22.29    1.61
   0   6   5   26.99    1.98
   0   6   5   24.43    1.72
   0   6  -6   22.77    1.79
   0   6  -6   21.06    1.53
   0   6   6   23.27    1.50
   0   6  -7    1.16    0.78
   0   6  -7    0.71    0.84
   0   7   0    0.09    1.17
   0   7   0    0.27    0.93
   0   7   1   10.53    1.22
   0   7   1   11.26    1.49
   0   7  -1   10.42    1.27
   0   7   2    3.52    0.98
   0   7   2    4.34    1.22
   0   7  -2    3.60    1.03
   0   7  -3    2.54    0.99
   0   7  -3    3.76    1.05
   0   7   3    2.91    0.95
   0   7   3    1.69    1.17
   0   7   4   11.37    1.08
   0   7   4   12.98    1.44
   0   7  -4   12.55    1.35
   0   7   5    0.07    0.25
   0   7   5    2.69    1.02
   0   7   6    3.04    0.88
   0   7   7   13.60    0.88
   0   8   0   28.05    1.42
   0   8  -1   32.12    1.52
   0   8   1   29.86    1.45
   0   8   2   44.37    1.54
   0   8   2   -0.17    0.22
   0   8   3   18.54    1.22
   0   8   4   15.25    0.97
  -1  -3  10   13.19    1.34
  -1  -3   9    7.64    1.34
  -1  -3   8   60.28    3.06
  -1  -3   7   13.06    1.54
  -1  -3   6   35.23    1.98
  -1  -3   5   34.63    1.79
  -1  -3   4   47.85    2.05
  -1  -3   3  158.75    5.44
   1  -3   2  138.55    4.60
  -1  -3  -2  133.99    4.59
   1  -3   3  138.18    4.81
   1  -3   4   29.50    1.59
   1  -3   5   63.83    2.84
   1  -3   6   65.69    2.98
  -1  -3  -6   54.82    3.39
  -1  -3  -7   75.74    4.04
   1  -3   8   30.55    2.06
   1  -3   9    7.97    1.13
  -1  -2  11   18.07    1.55
  -1  -2  10   18.85    1.86
  -1  -2   9   92.32    4.19
  -1  -2   9   88.54    4.20
  -1  -2   8  133.45    5.40
  -1  -2   8  126.14    5.39
   1  -2  -7  117.43    5.17
  -1  -2   7  133.14    5.10
  -1  -2   6  183.61    6.61
   1  -2  -6  177.24    6.71
  -1  -2   5  253.19    8.70
  -1  -2   4  677.64   22.00
  -1  -2   3  743.43   23.95
  -1  -2   2  512.67   16.50
   1  -2   0  984.54   31.82
  -1  -2   0  998.45   31.69
  -1  -2  -1  631.12   20.39
   1  -2   1  641.65   20.35
   1  -2   2 1172.23   37.42
   1  -2   3  631.63   20.45
   1  -2   4  536.34   17.58
   1  -2   5   86.85    3.48
  -1  -2  -5   81.20    3.67
  -1  -2  -6  344.80   12.41
   1  -2   6  351.07   12.11
   1  -2   7  115.44    5.02
  -1  -2  -7  123.86    5.40
   1  -2   8  102.92    4.64
  -1  -2  -8  108.07    4.92
   1  -2   9   14.57    1.70
   1  -2  10   12.80    1.35
  -1  -1  12    2.78    0.85
  -1  -1  11   20.94    1.88
  -1  -1  10   43.79    2.85
  -1  -1   9   79.65    4.17
  -1  -1   9   87.49    4.17
   1  -1  -8   90.87    4.24
  -1  -1   8   97.59    4.47
   1  -1  -7   59.81    2.99
  -1  -1   7   66.50    3.19
   1  -1  -6  107.63    4.37
  -1  -1   6  122.09    4.55
  -1  -1   5  117.65    4.41
  -1  -1   4  309.41   10.29
  -1  -1   3  177.72    6.02
  -1  -1   2   53.12    2.00
   1  -1  -1  574.38   17.64
  -1  -1   1  530.55   17.57
  -1  -1   0  342.85   11.02
  -1  -1  -1   56.72    2.14
   1  -1   2  590.84   19.05
   1  -1   3  366.46   12.03
   1  -1   4  430.67   14.27
   1  -1   5   82.91    3.45
  -1  -1  -6  109.29    4.56
   1  -1   6  105.94    4.46
  -1  -1  -7  118.22    5.20
   1  -1   7  124.20    5.25
   1  -1   8   33.10    2.51
  -1  -1  -8   34.38    2.44
  -1  -1  -9   30.48    2.21
   1  -1  10   25.44    1.98
   1  -1  11    7.22    1.05
  -1   0  12    1.24    0.90
  -1   0  11   13.93    1.66
  -1   0  10   63.19    3.50
  -1   0   9    7.13    1.58
  -1   0   9    6.73    1.70
   1   0  -8    5.35    1.27
  -1   0   8    3.22    1.54
   1   0  -7  172.89    6.70
  -1   0   7  193.47    7.01
  -1   0   6  137.36    5.24
  -1   0   5   30.60    1.65
  -1   0   4  355.96   11.75
  -1   0   3  130.06    4.49
  -1   0   2 2574.50   81.83
   1   0  -1 1117.25   35.95
  -1   0   1 1130.64   35.83
  -1   0   0  917.17   29.19
  -1   0  -1 2634.65   83.82
   1   0   2   99.75    3.51
   1   0   3   20.30    1.13
   1   0   4   86.20    3.36
   1   0   5  690.44   22.71
   1   0   6   76.52    3.48
  -1   0  -6   77.60    3.48
  -1   0  -7    1.27    1.17
   1   0   7    0.63    1.36
  -1   0  -8   27.68    2.20
   1   0   8   27.93    2.31
  -1   0  -9   39.58    2.48
  -1   0 -10   61.56    2.74
   1   0  10   68.37    3.29
   1   0  11   13.45    1.31
  -1   1  12    3.19    0.86
   1   1 -11   19.36    1.28
  -1   1  11   17.92    1.65
   1   1 -10   50.50    2.50
  -1   1  10   45.08    2.82
   1   1  -9   82.06    3.62
  -1   1   9   79.89    3.98
  -1   1   9   77.12    3.99
  -1   1   8   89.05    4.25
   1   1  -8   91.33    4.02
  -1   1   7   59.98    3.02
   1   1  -7   59.22    2.79
  -1   1   6  119.72    4.68
   1   1  -6  121.84    4.56
  -1   1   5  125.98    4.64
  -1   1   4  306.92   10.20
  -1   1   3  177.35    5.96
  -1   1   2   55.46    2.04
   1   1  -1  527.61   18.19
   1   1  -1  563.94   18.17
  -1   1   0  367.13   11.25
  -1   1   0  329.54   11.29
  -1   1  -1   61.16    2.24
   1   1   2  590.95   19.06
   1   1   3  370.25   12.14
   1   1   4  419.61   13.92
   1   1   5   84.00    3.44
   1   1   6  108.28    4.52
  -1   1  -6  114.93    4.56
  -1   1  -7  120.52    4.90
   1   1   7  108.54    4.89
   1   1   8   31.54    2.32
  -1   1  -8   34.34    2.32
  -1   1  -9   30.22    2.09
   1   1  10   21.58    1.76
  -1   1 -10   23.79    1.55
   1   1  11    5.88    1.00
  -1   2  11   15.53    1.43
   1   2 -11   18.93    1.27
  -1   2  10   16.36    1.73
   1   2 -10   21.59    1.61
   1   2  -9   93.86    3.92
  -1   2   9   81.77    4.04
  -1   2   8  119.37    5.19
  -1   2   8  126.30    5.19
   1   2  -8  124.13    4.98
   1   2  -7  138.93    5.18
  -1   2   7  128.93    5.35
   1   2  -6  169.65    6.04
  -1   2   6  166.69    6.58
  -1   2   6  166.35    6.20
  -1   2   5  245.29    8.45
  -1   2   4  671.28   21.78
  -1   2   3  777.67   25.01
  -1   2   2  500.14   16.08
  -1   2   1  407.22   13.21
   1   2  -1  406.39   13.24
  -1   2   0  991.89   31.23
   1   2   0  962.86   31.39
   1   2   0  985.04   31.44
  -1   2   0  972.20   31.46
  -1   2  -1  610.41   19.43
   1   2   1  603.34   19.41
   1   2   2 1168.88   37.33
   1   2   3  605.80   19.64
   1   2   4  520.54   17.09
  -1   2  -5   81.51    3.27
   1   2   5   77.35    3.29
   1   2   6  330.48   12.01
  -1   2  -6  366.17   12.05
  -1   2  -7  136.09    5.17
   1   2   7  114.32    5.08
  -1   2  -8  102.54    4.22
   1   2   8   88.34    4.21
   1   2   9   14.11    1.60
  -1   2  -9   15.11    1.54
  -1   2 -10   15.23    1.23
   1   2  10   13.25    1.35
   1   3 -11    0.77    0.66
   1   3 -10   19.47    1.37
  -1   3  10   -0.17    0.58
  -1   3   9    7.98    1.43
   1   3  -9    7.12    1.28
  -1   3   8   58.06    3.10
   1   3  -8   61.02    3.05
   1   3  -8   67.49    3.08
  -1   3   7   13.60    1.62
   1   3  -7   15.38    1.48
   1   3  -7   13.79    1.48
  -1   3   7   14.99    1.46
  -1   3   6   35.20    2.10
   1   3  -6   36.32    2.05
  -1   3   6   36.60    2.45
  -1   3   6   35.80    2.03
  -1   3   5   40.17    1.98
   1   3  -5   39.64    2.30
  -1   3   4   47.01    2.03
  -1   3   3  165.93    5.62
   1   3  -2  206.99    7.26
  -1   3   2  214.75    7.24
   1   3  -1  205.53    7.06
   1   3   0   61.34    2.47
   1   3   1    4.68    0.74
   1   3   1    3.54    0.49
   1   3   1    4.42    0.31
  -1   3  -2  142.54    4.85
   1   3   2  146.82    4.88
   1   3   3  138.52    4.85
   1   3   4   29.70    1.61
  -1   3  -5   59.39    2.88
   1   3   5   61.95    2.78
  -1   3  -6   70.72    3.05
  -1   3  -6   68.43    3.19
   1   3   6   67.98    3.17
  -1   3  -7   88.65    3.80
   1   3   7   80.42    3.84
  -1   3  -7   92.13    3.74
  -1   3  -7   90.94    3.94
  -1   3  -8   36.70    2.20
   1   3   8   33.85    2.21
  -1   3  -9    9.95    1.16
   1   3   9    0.28    0.58
  -1   3 -10    2.02    0.75
   1   4 -10   21.73    1.41
   1   4  -9   37.11    2.10
   1   4  -9   36.70    2.06
   1   4  -8  123.68    5.00
   1   4  -8  116.62    4.81
   1   4  -7   74.36    3.58
  -1   4   7   69.93    3.37
  -1   4   6  127.63    5.22
   1   4  -6  134.04    5.50
   1   4  -6  132.68    5.16
  -1   4   5  185.99    7.41
  -1   4   5  196.50    7.18
   1   4  -5  202.19    7.10
   1   4  -5  201.41    7.49
   1   4  -5  190.27    7.26
  -1   4   4  336.46   11.58
   1   4  -4  335.15   11.65
   1   4  -4  350.31   11.49
  -1   4   4  326.31   11.66
   1   4  -3  322.93   11.60
   1   4  -3  337.22   11.27
   1   4  -3  327.99   11.58
  -1   4   3  340.98   11.39
   1   4  -3  338.95   11.46
   1   4  -2  253.00    9.40
   1   4  -2  277.55    9.24
   1   4  -1  186.18    6.66
   1   4   0  373.53   12.62
   1   4   1  441.62   14.74
   1   4   1  439.11   14.87
   1   4   2  433.18   14.60
   1   4   2  436.81   14.73
   1   4   2  444.40   14.75
  -1   4  -2  427.45   14.72
  -1   4  -3  637.78   21.01
  -1   4  -3  633.37   20.89
   1   4   3  633.51   21.10
   1   4   3  644.80   21.14
  -1   4  -3  642.31   21.26
   1   4   4  232.48    8.53
  -1   4  -4  244.12    8.69
  -1   4  -4  237.25    8.36
  -1   4  -5  156.40    5.84
  -1   4  -5  153.77    6.05
   1   4   5  148.62    5.93
  -1   4  -6   60.55    3.04
  -1   4  -6   59.35    2.94
   1   4   6   57.55    2.98
  -1   4  -7  128.71    5.24
  -1   4  -7  134.97    5.23
  -1   4  -8   99.55    3.97
  -1   4  -8   91.25    3.82
   1   4   9   21.65    1.44
  -1   4 -10    0.84    0.54
   1   4  10   -0.04    0.47
  -1   5   9   12.38    1.19
   1   5  -9   11.78    1.07
   1   5  -8   19.27    1.62
  -1   5   8   20.47    1.66
   1   5  -8   18.64    1.49
   1   5  -7   65.02    3.25
   1   5  -7   63.24    3.00
  -1   5   7   62.55    3.14
  -1   5   7   58.86    2.73
  -1   5   6    0.64    0.96
   1   5  -6    0.42    1.06
  -1   5   6    1.25    0.88
  -1   5   6    0.73    1.09
   1   5  -6    1.81    1.18
  -1   5   5   93.82    3.84
   1   5  -5   87.65    3.77
   1   5  -5   87.93    4.00
  -1   5   5   88.55    3.89
  -1   5   5   85.24    4.01
   1   5  -4   15.04    1.67
  -1   5   4   13.19    1.57
   1   5  -4   13.26    1.38
  -1   5   4   13.26    1.45
   1   5  -4   14.48    1.61
  -1   5   4   12.58    1.29
  -1   5   3   28.72    2.00
   1   5  -3   30.29    2.08
  -1   5   3   30.64    1.86
  -1   5   3   25.47    1.81
   1   5  -3   25.74    1.72
   1   5  -2    5.67    1.59
   1   5  -2    6.67    1.25
   1   5  -2    5.47    1.33
  -1   5   2   11.61    1.42
  -1   5   2   11.24    1.28
   1   5  -1   51.53    2.87
  -1   5   1   54.60    2.75
   1   5  -1   52.21    2.63
   1   5  -1   47.98    2.53
  -1   5   1   51.00    2.44
  -1   5   1   49.86    2.46
   1   5  -1   52.84    2.73
  -1   5   0   25.58    1.77
   1   5   0   31.73    3.48
   1   5   0   31.36    2.08
  -1   5   0   25.45    1.73
  -1   5   0   28.19    2.06
   1   5   0   28.83    1.93
   1   5   1   31.84    2.13
  -1   5  -1   31.15    2.19
   1   5   1   36.96    3.32
  -1   5  -1   30.39    1.88
  -1   5  -1   32.47    2.06
   1   5   1   32.70    2.05
   1   5   2   18.21    1.54
   1   5   2   17.19    1.70
  -1   5  -2   17.52    1.61
  -1   5  -2   18.62    1.50
   1   5   2   16.37    1.72
   1   5   3   65.02    3.06
  -1   5  -3   62.39    2.82
  -1   5  -3   62.82    3.00
   1   5   3   63.85    3.27
   1   5   4  163.84    6.43
  -1   5  -4  161.28    5.99
   1   5   4  157.98    6.26
  -1   5  -4  162.70    6.48
   1   5   5   -0.15    1.14
   1   5   5    1.81    0.94
  -1   5  -5    1.32    1.03
  -1   5  -5    1.28    1.11
  -1   5  -6   32.80    2.16
   1   5   6   32.93    2.18
  -1   5  -6   30.10    1.94
  -1   5  -7   25.24    1.76
   1   5   7   24.53    1.79
  -1   5  -7   25.27    1.69
   1   5   8    1.82    0.81
  -1   5  -8    1.08    0.80
   1   5   8    1.66    0.81
  -1   5  -9   11.78    0.85
   1   5   9   14.17    0.93
   1   6  -8    3.56    0.82
  -1   6   8    4.46    0.84
   1   6  -7   34.80    1.91
   1   6  -7   33.95    2.09
  -1   6   7   39.97    2.12
   1   6  -6   68.14    3.43
   1   6  -6   69.07    3.11
  -1   6   6   76.84    3.38
   1   6  -5   88.04    3.77
   1   6  -5   94.19    4.29
  -1   6   5   88.90    3.67
  -1   6   5   98.03    4.11
   1   6  -4   21.59    1.96
  -1   6   4   21.44    1.58
  -1   6   4   23.44    1.88
  -1   6   3   71.21    3.34
  -1   6   3   69.41    3.39
   1   6  -3   67.02    3.31
   1   6  -3   70.81    3.55
  -1   6   3   70.19    3.15
  -1   6   2  119.97    4.56
   1   6  -2  111.77    4.93
  -1   6   2  117.54    4.84
   1   6  -2  108.54    4.66
   1   6  -2  105.97    4.30
   1   6  -2  114.60    4.82
  -1   6   2  111.90    4.69
  -1   6   1  296.25   10.25
   1   6  -1  278.62   10.09
   1   6  -1  273.47   10.06
  -1   6   1  286.12    9.93
   1   6  -1  284.63   10.38
  -1   6   0  165.03    6.26
   1   6   0  175.16    6.57
   1   6   0  160.28    6.65
   1   6   0  173.46    6.53
  -1   6   0  163.23    6.51
   1   6   1  117.88    4.88
  -1   6  -1  117.56    4.99
  -1   6  -1  123.46    5.00
   1   6   1  115.86    4.89
  -1   6  -1  121.40    4.72
  -1   6  -2   72.59    3.31
   1   6   2   77.93    3.56
  -1   6  -2   78.31    3.64
   1   6   2   70.30    3.47
  -1   6  -3   23.04    1.67
   1   6   3   20.70    1.73
  -1   6  -3   22.47    1.90
   1   6   3   19.40    1.76
   1   6   4   70.16    3.35
  -1   6  -4   58.45    2.74
   1   6   4   65.64    3.13
   1   6   5   45.94    2.50
  -1   6  -5   39.12    2.09
   1   6   5   46.74    2.42
  -1   6  -5   42.86    2.52
  -1   6  -6    9.41    1.04
  -1   6  -6   10.62    1.24
   1   6   6   11.60    1.29
   1   6   6   10.88    1.19
   1   6   7    0.09    0.39
  -1   6  -7    0.02    0.42
   1   6   8    6.62    0.73
  -1   7   7    1.74    0.61
  -1   7   6    2.67    0.88
   1   7  -6    4.94    0.89
  -1   7   5    4.51    1.04
   1   7  -5    5.77    1.03
  -1   7   4    2.99    1.10
   1   7  -4    3.28    1.05
   1   7  -4    2.71    1.04
   1   7  -3    6.66    1.17
  -1   7   3    5.11    0.89
   1   7  -3    5.90    1.13
  -1   7   3    6.67    1.23
  -1   7   2    6.34    1.00
   1   7  -2    5.68    1.09
  -1   7   2    5.50    1.22
   1   7  -2    5.79    1.16
  -1   7   1    2.79    1.18
  -1   7   1    3.72    0.97
   1   7  -1    2.60    1.10
   1   7  -1    4.82    1.36
  -1   7   0    1.80    1.14
   1   7   0    1.14    1.25
   1   7   0    2.28    1.06
  -1   7   0    1.97    0.91
   1   7   1    6.72    1.46
   1   7   1    5.64    1.15
  -1   7  -1    7.88    1.10
  -1   7  -2    6.90    1.07
   1   7   2    7.47    1.19
   1   7   3   19.32    1.49
   1   7   4   10.39    1.09
   1   7   5    2.87    0.72
   1   7   6   11.52    1.00
  -1   8   4   15.36    0.92
   1   8  -2   31.63    1.57
   1   8  -1   21.10    1.27
   1   8   0   31.92    1.61
   1   8   1   23.69    1.29
   1   8   2   21.92    1.36
   1   8   2   16.71    1.02
   1   8   3   23.27    1.32
   1   8   4   10.70    0.77
  -2  -3  10   15.36    1.48
  -2  -3   9   24.19    1.95
  -2  -3   8   50.19    2.78
  -2  -3   7   22.56    1.70
  -2  -3   6    3.04    0.94
  -2  -3   5   11.90    1.13
  -2  -3   4    3.62    0.72
   2  -3   1  135.24    4.51
   2  -3   1  125.12    5.90
  -2  -3  -2   84.84    3.14
   2  -3   2   85.23    3.08
   2  -3   3   11.18    0.94
  -2  -3  -3   12.18    0.93
  -2  -3  -4   71.39    2.98
   2  -3   4   70.62    2.95
  -2  -3  -5   35.81    2.00
   2  -3   5   35.40    2.00
  -2  -3  -6   82.98    4.27
  -2  -3  -7    2.24    1.48
   2  -3   8   24.81    1.74
  -2  -2  11   17.59    1.61
  -2  -2  10   34.62    2.40
  -2  -2   9   38.74    2.55
  -2  -2   9   36.30    2.33
  -2  -2   8  115.88    4.95
  -2  -2   8  115.89    4.88
  -2  -2   7   16.90    1.52
  -2  -2   7   16.91    1.64
  -2  -2   6   87.31    3.55
  -2  -2   6   83.24    3.60
  -2  -2   5  273.70    9.36
  -2  -2   4 1164.35   37.45
  -2  -2   3  783.77   25.30
   2  -2  -2  666.51   21.52
   2  -2  -1  423.96   14.10
   2  -2   0  898.42   29.55
  -2  -2  -1  428.69   14.21
  -2  -2  -1  456.11   14.49
   2  -2   2 1212.95   37.86
  -2  -2  -2 1146.28   37.87
   2  -2   3  438.18   14.41
   2  -2   4  152.58    5.58
  -2  -2  -5  107.92    4.60
   2  -2   5  106.66    4.32
  -2  -2  -6  103.73    4.70
   2  -2   6  101.45    4.35
  -2  -2  -7  177.87    7.19
   2  -2   7  168.57    6.81
  -2  -2  -7  176.85    6.90
  -2  -2  -8   12.79    1.77
   2  -2   9   23.08    1.83
   2  -2  10    2.41    0.83
  -2  -1  12    1.95    0.99
  -2  -1  11   16.51    1.86
  -2  -1  10   10.15    1.83
  -2  -1   9    4.15    1.44
  -2  -1   9    3.75    1.62
  -2  -1   8   29.51    2.37
  -2  -1   8   30.26    2.28
  -2  -1   7   70.96    3.44
  -2  -1   7   74.29    3.39
  -2  -1   6   43.10    2.21
  -2  -1   5  102.77    3.95
  -2  -1   4  140.55    5.00
  -2  -1   3  932.96   29.98
   2  -1  -2 1941.50   60.19
  -2  -1   2 1848.21   59.98
   2  -1  -1  115.74    4.52
  -2  -1   0 1200.94   38.38
  -2  -1  -1  888.37   29.66
  -2  -1  -1  937.60   29.48
  -2  -1  -2  384.83   12.80
   2  -1   3  203.50    7.02
   2  -1   4    4.86    0.88
  -2  -1  -5  116.68    4.86
   2  -1   5  125.45    4.84
  -2  -1  -6   74.26    3.62
   2  -1   6   80.93    3.64
  -2  -1  -7   11.86    1.66
   2  -1   7   14.54    1.74
  -2  -1  -8   22.42    2.00
  -2  -1  -9   31.81    2.15
   2  -1  10   19.44    1.61
  -2   0  12   14.33    1.48
  -2   0  11   23.64    2.12
  -2   0  10    3.62    1.65
  -2   0   9  233.31    8.98
  -2   0   9  232.48    9.06
  -2   0   8  304.00   11.11
  -2   0   8  306.32   11.05
  -2   0   7  348.32   12.13
  -2   0   6  595.92   19.72
  -2   0   5 2151.29   68.83
  -2   0   4  731.89   23.70
  -2   0   3  164.85    5.63
  -2   0   2   14.40    0.95
   2   0  -2   15.22    1.26
   2   0  -1 4900.35  155.97
  -2   0   0  259.91    8.53
  -2   0  -1 1174.90   37.76
  -2   0  -2  527.21   17.29
   2   0   3 3919.59  124.83
   2   0   4  207.18    7.26
  -2   0  -5  101.28    4.23
   2   0   5  104.24    4.21
  -2   0  -6  279.74   10.13
   2   0   6  285.54   10.13
  -2   0  -7   52.33    2.85
   2   0   7   48.85    2.87
  -2   0  -8   52.15    2.94
   2   0   8   52.11    3.08
  -2   0  -9   88.66    3.95
   2   0  10   47.91    2.42
  -2   0 -10   40.77    1.93
  -2   1  12    1.49    0.96
  -2   1  11   14.92    1.72
  -2   1  10   11.92    1.81
   2   1 -10   12.61    1.35
  -2   1   9    6.34    1.50
  -2   1   9    2.10    1.54
   2   1  -9    3.69    1.08
  -2   1   8   31.44    2.24
   2   1  -8   25.36    1.72
  -2   1   8   30.84    2.33
   2   1  -7   62.16    2.79
  -2   1   7   70.62    3.30
  -2   1   7   69.18    3.37
  -2   1   7   69.98    3.21
  -2   1   6   45.34    2.23
  -2   1   5  105.24    3.97
  -2   1   4  134.86    4.77
  -2   1   3  913.64   29.33
  -2   1   2 1921.61   60.39
   2   1  -2 1853.91   60.59
  -2   1   1  118.36    3.74
   2   1  -1  112.08    4.28
   2   1  -1  106.92    3.74
  -2   1   0 1218.77   38.92
  -2   1  -1  905.20   29.93
  -2   1  -1  945.30   29.79
  -2   1  -2  402.38   13.28
   2   1   3  186.69    6.46
   2   1   4    3.41    0.77
   2   1   5  126.10    5.02
  -2   1  -5  133.97    5.09
  -2   1  -6   76.00    3.38
   2   1   6   66.32    3.29
   2   1   7   11.18    1.59
  -2   1  -7   10.30    1.43
  -2   1  -8   26.50    2.01
  -2   1  -9   39.14    2.26
  -2   1 -10   18.05    1.24
   2   1  10   15.32    1.47
  -2   2  11   17.01    1.59
   2   2 -11   20.73    1.41
  -2   2  10   36.45    2.44
   2   2 -10   41.71    2.25
   2   2  -9   39.80    2.21
  -2   2   9   35.20    2.35
  -2   2   9   32.72    2.43
   2   2  -8  122.87    4.84
  -2   2   8  120.24    5.19
  -2   2   8  124.11    5.08
  -2   2   7   16.21    1.55
  -2   2   7   17.27    1.72
   2   2  -7   18.81    1.46
  -2   2   6   74.84    3.37
   2   2  -6   83.16    3.24
  -2   2   6   78.41    3.34
  -2   2   5  288.86    9.81
  -2   2   4 1195.62   38.40
  -2   2   3  859.10   27.65
   2   2  -2  583.13   20.08
   2   2  -2  637.79   20.11
  -2   2   2  645.82   20.06
   2   2  -1  372.02   12.84
  -2   2   1  401.75   12.66
   2   2  -1  387.34   12.65
  -2   2   0  856.52   27.46
  -2   2   0  873.28   27.43
   2   2   0  826.05   27.74
   2   2   0  850.07   27.42
  -2   2  -1  474.21   15.54
  -2   2  -1  488.84   15.63
   2   2   2 1137.18   37.93
  -2   2  -2 1238.10   38.01
   2   2   3  417.07   13.73
   2   2   4  138.02    5.08
  -2   2  -5  122.13    4.47
   2   2   5  102.04    4.36
   2   2   6   91.32    4.11
  -2   2  -6  106.02    4.23
  -2   2  -7  167.88    6.65
   2   2   7  164.84    6.62
  -2   2  -7  180.02    6.66
  -2   2  -8   13.20    1.38
  -2   2  -9   27.45    1.78
  -2   2 -10    3.47    0.75
   2   2  10    3.28    0.94
   2   3 -11   21.29    1.39
  -2   3  10   16.36    1.57
   2   3 -10   19.05    1.53
  -2   3   9   23.18    1.98
   2   3  -9   25.65    1.83
   2   3  -9   25.45    1.81
  -2   3   8   50.18    2.71
   2   3  -8   50.45    2.62
   2   3  -8   55.44    2.82
  -2   3   8   46.36    2.77
  -2   3   7   29.39    2.33
  -2   3   7   26.00    1.83
   2   3  -7   24.66    1.80
  -2   3   7   25.70    2.01
   2   3  -6    2.04    0.94
  -2   3   6    3.42    1.21
  -2   3   6    2.08    0.93
   2   3  -5   15.54    1.25
   2   3  -5   13.75    1.55
  -2   3   5   14.37    1.21
  -2   3   4    3.80    0.67
  -2   3   3   64.43    2.60
  -2   3   2   70.44    2.71
   2   3  -2   67.93    2.73
  -2   3   1  291.49    9.56
   2   3  -1  279.61    9.55
  -2   3   1  283.92    9.20
  -2   3   0  202.09    6.61
   2   3   0  207.22    6.65
   2   3   1  120.37    4.81
   2   3   1  126.89    4.34
  -2   3  -2   91.13    3.17
   2   3   2   80.01    3.06
  -2   3  -3   12.02    0.92
   2   3   3   12.26    0.95
  -2   3  -4   75.62    3.31
   2   3   4   74.50    3.08
  -2   3  -4   74.38    3.13
   2   3   5   34.17    1.99
  -2   3  -5   35.49    2.11
  -2   3  -5   34.89    1.90
  -2   3  -5   36.49    2.03
   2   3   6   83.47    3.81
  -2   3  -6   91.36    3.83
  -2   3  -6   85.87    3.79
  -2   3  -6   87.59    3.68
  -2   3  -7    3.86    0.96
   2   3   8   24.88    1.86
   2   3   9   -0.28    0.39
  -2   3  -9   14.81    1.16
  -2   3 -10    4.48    0.65
  -2   4  11   10.34    0.87
   2   4 -11    9.80    0.83
   2   4 -10   19.08    1.34
   2   4 -10   22.20    1.48
   2   4  -9   11.33    1.34
   2   4  -9   10.86    1.32
   2   4  -8    6.31    1.29
   2   4  -8    5.82    1.19
  -2   4   7   33.25    2.08
  -2   4   7   30.13    2.31
   2   4  -7   33.22    2.09
   2   4  -7   31.58    2.25
  -2   4   6   45.42    2.37
   2   4  -6   44.13    2.64
  -2   4   6   39.35    2.58
  -2   4   5   59.55    3.00
   2   4  -5   57.05    2.76
   2   4  -5   52.32    2.90
  -2   4   4   54.60    2.60
  -2   4   4   55.90    2.54
   2   4  -4   55.49    2.77
   2   4  -4   54.63    2.58
   2   4  -3  219.66    7.92
   2   4  -3  218.38    8.09
   2   4  -3  214.86    8.12
  -2   4   3  229.49    7.81
   2   4  -3  221.51    7.76
   2   4  -2  423.45   14.52
   2   4  -2  412.75   14.25
   2   4  -2  429.11   14.23
  -2   4   2  442.35   14.31
  -2   4   1  272.64    9.17
   2   4  -1  258.21    9.13
   2   4   0  203.92    7.52
   2   4   0  200.65    7.20
  -2   4   0  201.36    7.10
   2   4   1  250.68    9.17
  -2   4  -1  273.93    9.26
   2   4   1  273.21    9.45
   2   4   1  250.56    9.02
  -2   4  -2  187.87    6.95
   2   4   2  180.66    6.81
   2   4   2  195.90    7.24
  -2   4  -2  191.49    6.67
  -2   4  -2  183.78    6.54
   2   4   2  190.50    6.95
   2   4   3   64.48    3.50
  -2   4  -3   58.02    2.65
   2   4   3   55.81    2.77
  -2   4  -3   62.47    2.93
   2   4   4   69.62    3.26
  -2   4  -4   68.12    3.31
  -2   4  -4   72.34    3.18
  -2   4  -5   40.97    2.42
  -2   4  -5   43.16    2.36
   2   4   5   39.92    2.35
   2   4   6   92.30    4.17
  -2   4  -6  101.54    4.19
  -2   4  -6  100.95    4.24
  -2   4  -7   15.12    1.43
   2   4   8   21.43    1.50
  -2   4  -8   25.22    1.56
   2   4   9    1.66    0.59
  -2   4  -9    1.94    0.66
  -2   5  10    7.36    0.79
   2   5  -9   13.25    1.27
  -2   5   9   13.46    1.26
  -2   5   8   22.70    1.72
   2   5  -8   22.32    1.82
   2   5  -7   13.35    1.45
  -2   5   7   12.30    1.48
   2   5  -7   12.49    1.55
  -2   5   6   12.81    1.52
  -2   5   6   11.14    1.43
   2   5  -6   13.70    1.66
   2   5  -6   13.78    1.42
  -2   5   6   14.87    1.42
  -2   5   5   11.91    1.32
  -2   5   5   11.19    1.46
   2   5  -5   13.25    1.65
   2   5  -5   11.17    1.34
  -2   5   5   12.48    1.38
   2   5  -5   14.03    1.69
  -2   5   4    1.20    1.11
   2   5  -4    1.56    1.27
  -2   5   4    1.66    0.89
   2   5  -4    0.87    1.07
   2   5  -4    1.03    1.30
   2   5  -3   69.00    3.37
  -2   5   3   69.29    3.24
   2   5  -3   69.41    3.63
   2   5  -3   71.98    3.48
  -2   5   3   72.76    3.24
   2   5  -2  145.25    5.92
   2   5  -2  139.49    5.67
  -2   5   2  154.85    5.64
   2   5  -2  147.41    6.24
  -2   5   2  149.07    5.62
   2   5  -2  144.42    5.77
  -2   5   2  139.88    5.33
   2   5  -1   74.72    3.67
   2   5  -1   72.54    3.25
   2   5  -1   71.42    3.22
  -2   5   1   70.45    3.03
  -2   5   1   70.25    3.21
   2   5  -1   74.77    3.12
  -2   5   1   78.33    3.40
  -2   5   0  146.83    5.65
  -2   5   0  143.15    5.54
   2   5   0  146.27    5.60
   2   5   0  157.64    6.31
   2   5   0  141.61    5.28
   2   5   0  147.02    5.88
  -2   5   0  137.07    5.27
  -2   5  -1   46.27    2.28
   2   5   1   53.27    3.81
  -2   5  -1   49.01    2.61
  -2   5  -1   46.48    2.49
   2   5   1   44.74    2.67
   2   5   1   47.45    2.51
   2   5   1   41.57    2.62
  -2   5  -2    1.38    1.01
   2   5   2    1.97    1.28
  -2   5  -2    1.95    1.12
   2   5   2    0.57    2.73
   2   5   2    2.52    1.01
  -2   5  -3   24.07    1.94
   2   5   3   26.36    2.04
   2   5   3   27.69    3.04
  -2   5  -3   26.00    1.63
   2   5   3   26.26    1.82
   2   5   4    9.33    1.47
  -2   5  -4    9.04    1.36
  -2   5  -4    8.69    1.15
   2   5   4    9.48    1.29
  -2   5  -5   25.27    1.92
  -2   5  -5   23.87    1.67
   2   5   5   24.16    1.89
   2   5   6   14.00    1.43
  -2   5  -6   13.20    1.28
   2   5   7   38.06    1.98
  -2   5  -7   34.13    1.82
   2   5   8    1.47    0.71
   2   5   8    2.38    0.69
  -2   5  -8    1.87    0.63
   2   6  -9   11.04    0.85
   2   6  -9    8.90    0.76
  -2   6   8   43.26    2.04
   2   6  -8   38.95    2.11
  -2   6   7   98.66    3.85
   2   6  -7   83.74    3.91
  -2   6   6  164.44    6.22
   2   6  -5   83.62    3.84
   2   6  -5   85.86    4.06
  -2   6   5   87.81    3.80
   2   6  -4    8.00    1.39
   2   6  -4    7.84    1.45
  -2   6   4    8.16    1.31
   2   6  -3   21.96    1.90
   2   6  -3   19.63    1.53
   2   6  -3   23.81    1.91
  -2   6   3   24.75    1.83
  -2   6   3   23.86    1.72
  -2   6   2  127.68    4.81
   2   6  -2  104.36    4.69
  -2   6   2  121.13    4.66
   2   6  -2  101.58    4.32
  -2   6   2  115.33    4.36
  -2   6   1  122.23    4.84
   2   6  -1  113.47    4.48
  -2   6   1  115.57    4.51
  -2   6   1  122.52    4.83
   2   6  -1  119.79    5.18
  -2   6   0  246.45    8.66
   2   6   0  233.24    8.79
   2   6   0  241.70    8.70
   2   6   0  237.02    8.98
  -2   6   0  238.96    8.39
   2   6   1   20.90    2.06
  -2   6  -1   24.55    1.62
   2   6   1   19.20    1.81
   2   6   1   22.44    1.76
   2   6   2   24.02    1.96
  -2   6  -2   29.69    2.09
   2   6   2   27.72    2.24
  -2   6  -2   25.47    1.68
   2   6   2   26.94    1.93
   2   6   3   63.86    3.31
   2   6   3   73.48    3.50
   2   6   4   93.45    4.19
   2   6   4  101.20    4.31
   2   6   5   76.01    2.40
   2   6   5   78.35    2.45
   2   6   6    2.30    0.85
   2   6   6    3.86    0.94
   2   6   7    7.01    0.73
   2   6   7    8.95    0.83
   2   7  -7    1.92    0.67
  -2   7   7    1.77    0.59
  -2   7   6    3.25    0.83
   2   7  -6    2.44    0.82
  -2   7   5    5.83    0.99
   2   7  -5    6.38    1.09
  -2   7   4    7.64    1.12
   2   7  -4    6.69    1.11
   2   7  -3    2.07    0.95
  -2   7   3    2.35    1.02
   2   7  -2    0.95    0.80
  -2   7   2    1.28    0.99
  -2   7   1    8.83    1.23
  -2   7   1    9.07    0.95
   2   7  -1    8.83    1.30
  -2   7   0    3.29    0.85
   2   7   0    3.91    1.14
   2   7   0    3.02    1.30
   2   7   1    0.70    0.98
   2   7   1    2.37    1.27
   2   7   2    6.90    1.15
   2   7   2    7.50    1.41
   2   7   3    6.10    1.07
   2   7   3    7.06    1.27
   2   7   4    9.78    1.05
   2   7   4   10.34    1.20
   2   7   5    0.53    0.71
   2   7   5    0.12    0.61
   2   8  -2   22.83    1.33
   2   8  -1   18.02    1.19
   2   8   0   24.31    1.35
   2   8   1   43.46    1.91
   2   8   2   11.69    0.85
   2   8   2   14.80    1.08
   2   8   3    9.95    0.82
  -3  -3  10    2.88    1.18
  -3  -3   9    1.59    1.23
  -3  -3   8    4.37    1.33
  -3  -3   7   10.41    1.30
  -3  -3   6    0.87    0.90
   3  -3  -1  132.57    5.19
  -3  -3   0   34.36    1.91
   3  -3   0   29.55    2.92
   3  -3   1   13.50    2.81
   3  -3   1   15.29    0.97
   3  -3   2   53.46    2.17
   3  -3   2   44.40    4.08
   3  -3   3   14.63    1.14
  -3  -3  -3   15.15    1.21
  -3  -3  -4   11.40    1.15
   3  -3   4   12.23    1.19
  -3  -3  -5    4.47    1.49
  -3  -3  -6   60.84    3.55
  -3  -3  -7   32.51    2.52
  -3  -2  12    9.05    1.03
  -3  -2  11   27.55    2.02
  -3  -2  10   53.05    3.06
  -3  -2   9   85.29    3.95
  -3  -2   9   78.43    3.93
  -3  -2   8  105.93    4.56
  -3  -2   8   98.77    4.40
  -3  -2   7   35.29    2.16
  -3  -2   7   37.02    2.32
  -3  -2   6  104.44    4.26
  -3  -2   6  103.51    4.19
  -3  -2   5  539.56   17.91
  -3  -2   4  198.65    6.93
   3  -2  -3 1212.88   39.18
   3  -2  -2  405.93   13.92
   3  -2  -1 1208.62   39.86
   3  -2   0  893.42   30.02
  -3  -2  -1 1161.67   39.42
  -3  -2  -1 1249.16   39.10
  -3  -2  -2  338.73   11.31
   3  -2   3  341.45   11.18
  -3  -2  -3  320.08   11.18
   3  -2   4  201.75    6.97
  -3  -2  -4  187.62    7.31
  -3  -2  -4  187.99    7.01
  -3  -2  -5  143.98    5.92
   3  -2   5  142.43    5.62
  -3  -2  -5  143.66    5.61
  -3  -2  -6   41.45    2.68
  -3  -2  -6   39.65    2.41
   3  -2   6   39.47    2.43
  -3  -2  -7   82.04    4.14
  -3  -2  -8   43.18    2.69
   3  -2   9   21.01    1.55
  -3  -1  12    0.37    1.13
  -3  -1  11   30.20    2.35
  -3  -1  10   56.34    3.32
  -3  -1   9   37.90    2.69
  -3  -1   9   36.03    2.52
  -3  -1   8   30.43    2.33
  -3  -1   8   30.83    2.12
  -3  -1   7   60.74    3.02
  -3  -1   7   61.88    2.95
  -3  -1   6   20.36    1.50
  -3  -1   5  129.35    4.82
  -3  -1   4  574.85   18.85
   3  -1  -3  137.92    5.10
  -3  -1   3  133.25    4.81
   3  -1  -2  626.16   20.92
   3  -1  -1 1065.29   35.01
   3  -1   0  741.50   24.72
  -3  -1  -1  656.09   22.46
  -3  -1  -1  700.05   22.16
  -3  -1  -2   99.34    4.11
  -3  -1  -2  113.78    4.05
   3  -1   3  327.56   10.99
  -3  -1  -3  318.86   11.01
   3  -1   4  241.90    8.36
  -3  -1  -4  241.25    8.47
  -3  -1  -4  226.96    8.52
   3  -1   5   53.22    2.75
  -3  -1  -5   49.73    2.74
  -3  -1  -5   51.75    2.76
  -3  -1  -6    8.82    1.40
  -3  -1  -6    8.31    1.34
   3  -1   6    7.77    1.46
   3  -1   7   37.10    2.51
  -3  -1  -7   37.33    2.44
  -3  -1  -7   35.10    2.43
  -3  -1  -8   53.36    2.95
  -3  -1  -9   25.09    1.73
   3  -1  10    6.50    0.93
  -3   0  12   13.22    1.56
  -3   0  11   17.27    2.01
  -3   0  10    8.80    1.80
  -3   0   9    1.45    1.54
  -3   0   9    0.96    1.37
  -3   0   8  308.76   11.17
  -3   0   8  309.23   11.06
  -3   0   7  663.70   22.17
  -3   0   7  659.52   22.05
  -3   0   7  665.13   22.02
  -3   0   6  303.76   10.42
  -3   0   5   33.95    1.76
  -3   0   4  266.51    9.01
  -3   0   3    6.13    0.78
   3   0  -3    5.10    1.01
   3   0  -2    1.24    1.24
   3   0  -1   40.09    2.43
  -3   0   0   12.66    0.98
   3   0   0   10.19    1.61
  -3   0  -1   33.10    2.01
  -3   0  -1   39.56    1.82
  -3   0  -2  457.46   16.26
  -3   0  -2  519.97   16.20
   3   0   3   20.49    1.34
   3   0   4  969.49   31.40
  -3   0  -4  958.93   31.56
   3   0   5  146.33    5.66
  -3   0  -5  143.94    5.70
   3   0   6  137.96    5.67
  -3   0  -6  140.46    5.66
  -3   0  -6  140.53    5.73
  -3   0  -7    7.10    1.33
   3   0   7    6.81    1.45
  -3   0  -7    7.37    1.30
  -3   0  -8   11.12    1.40
  -3   0  -9   19.77    1.51
   3   0  10    0.36    0.85
  -3   1  12   -0.14    1.01
  -3   1  11   28.45    2.27
  -3   1  10   59.65    3.39
   3   1 -10   57.82    2.72
  -3   1   9   35.73    2.57
  -3   1   9   39.32    2.51
   3   1  -9   35.15    1.98
  -3   1   8   32.49    2.30
  -3   1   8   28.91    2.28
  -3   1   8   28.32    2.05
   3   1  -8   23.72    1.53
  -3   1   7   67.64    3.09
  -3   1   7   62.82    3.00
  -3   1   7   63.14    2.87
  -3   1   6   18.43    1.37
  -3   1   5  114.60    4.27
  -3   1   4  533.34   17.48
   3   1  -3  131.02    4.94
  -3   1   3  134.75    4.71
  -3   1   2  617.87   19.69
   3   1  -2  608.74   20.45
   3   1  -1 1024.72   32.87
   3   1  -1 1096.66   33.77
   3   1   0  708.44   23.53
  -3   1  -1  693.28   22.91
  -3   1  -1  705.49   22.69
  -3   1  -2  101.58    3.96
  -3   1  -2  105.01    3.91
   3   1   3  308.01   10.67
  -3   1  -3  323.45   10.78
  -3   1  -4  241.97    8.29
   3   1   4  219.15    8.09
  -3   1  -4  238.33    8.32
  -3   1  -5   49.74    2.66
   3   1   5   50.87    2.67
  -3   1  -5   55.78    2.71
  -3   1  -6    6.22    1.20
  -3   1  -6    6.82    1.26
   3   1   6    6.26    1.28
   3   1   7   34.64    2.39
  -3   1  -7   36.64    2.32
  -3   1  -7   40.48    2.38
  -3   1  -8   58.50    2.97
  -3   1  -9   31.87    1.81
   3   1  10    4.95    0.91
  -3   1 -10    4.27    0.61
  -3   2  12    7.58    0.97
   3   2 -11   26.85    1.63
  -3   2  11   22.97    1.88
  -3   2  10   48.50    2.95
   3   2 -10   54.10    2.62
  -3   2   9   75.24    3.76
   3   2  -9   73.46    3.29
  -3   2   9   78.20    3.76
  -3   2   8   95.66    4.37
  -3   2   8   96.71    4.25
   3   2  -8   92.08    3.90
  -3   2   7   40.20    2.39
  -3   2   7   40.08    2.25
   3   2  -7   39.16    2.03
  -3   2   7   43.10    2.57
  -3   2   6   89.15    3.85
  -3   2   6   92.41    3.78
   3   2  -6   95.14    3.62
  -3   2   5  509.24   16.89
  -3   2   4  201.78    6.97
   3   2  -3 1139.15   36.84
  -3   2   3 1142.89   36.53
   3   2  -2  394.01   12.77
   3   2  -2  379.66   13.20
  -3   2   2  394.74   12.73
   3   2  -1 1157.03   37.34
   3   2  -1 1162.34   37.96
  -3   2   1 1180.47   37.33
   3   2   0  745.03   25.63
   3   2   0  785.46   24.94
  -3   2  -1 1222.62   41.09
  -3   2  -1 1326.98   41.04
  -3   2  -2  356.99   11.88
  -3   2  -3  322.09   10.59
   3   2   3  299.79   10.46
   3   2   4  165.96    6.39
  -3   2  -4  188.34    6.58
  -3   2  -4  182.34    6.55
   3   2   5  131.37    5.41
  -3   2  -5  136.58    5.47
  -3   2  -6   46.76    2.48
  -3   2  -6   42.67    2.46
   3   2   6   40.81    2.46
  -3   2  -7   74.25    3.48
  -3   2  -8   38.33    2.14
   3   2   9   20.10    1.54
  -3   2  -9   20.29    1.39
  -3   3  11   -0.03    0.30
   3   3 -11   14.90    1.15
   3   3 -10    2.02    0.94
  -3   3  10    1.75    1.13
   3   3 -10    1.83    1.01
   3   3  -9    3.21    1.15
  -3   3   9    2.92    1.30
   3   3  -9    2.47    1.06
  -3   3   8    5.50    1.48
  -3   3   8    4.11    1.13
  -3   3   8    4.57    1.48
   3   3  -8    4.43    1.13
  -3   3   7    9.01    1.53
  -3   3   7   10.82    1.34
  -3   3   7   11.31    1.61
   3   3  -7   10.20    1.32
   3   3  -6    1.29    1.31
  -3   3   6    1.25    0.89
  -3   3   6    1.77    0.96
   3   3  -6    0.95    0.99
  -3   3   5   38.80    2.08
  -3   3   5   46.29    2.30
   3   3  -5   46.17    2.22
  -3   3   5   43.92    2.04
   3   3  -4   67.92    2.87
  -3   3   4   63.92    2.64
  -3   3   3  179.71    6.20
   3   3  -2   66.05    2.56
  -3   3   2   68.42    2.54
   3   3  -1  134.53    4.69
   3   3  -1  125.78    4.79
  -3   3   1  128.78    4.59
  -3   3   0   38.72    1.60
   3   3   0   33.45    2.04
   3   3   0   35.83    1.71
   3   3   1   12.36    0.89
   3   3   1   10.82    1.54
   3   3   1   13.22    1.06
   3   3   2   45.09    2.76
   3   3   2   50.15    2.08
  -3   3  -3   12.99    1.29
   3   3   3   12.70    1.09
  -3   3  -3   12.89    1.16
   3   3   4   11.72    1.21
  -3   3  -4   10.67    1.16
  -3   3  -4   11.29    1.07
  -3   3  -4   12.55    1.32
  -3   3  -5    7.68    1.17
  -3   3  -5    8.39    1.19
  -3   3  -5    8.22    1.06
   3   3   5    7.43    1.22
  -3   3  -6   63.91    2.95
  -3   3  -7   37.74    2.00
   3   3   8    0.23    0.55
  -3   4  11   23.40    1.27
   3   4 -10   41.31    2.18
   3   4 -10   39.67    2.10
   3   4  -9  102.58    4.48
   3   4  -9  104.55    4.26
   3   4  -8   17.40    1.56
   3   4  -8   16.74    1.73
  -3   4   8   16.52    1.89
  -3   4   7    3.22    1.29
   3   4  -7    3.19    1.18
  -3   4   7    1.99    0.85
  -3   4   6   50.78    2.90
  -3   4   6   58.11    2.68
   3   4  -6   54.55    2.93
  -3   4   5  211.02    7.76
  -3   4   5  217.89    7.58
   3   4  -5  204.33    7.71
   3   4  -4  497.25   17.22
   3   4  -4  499.54   17.33
  -3   4   4  500.71   17.11
   3   4  -4  541.15   17.21
  -3   4   4  525.15   17.07
   3   4  -3  289.63   10.71
  -3   4   3  316.46   10.33
   3   4  -3  295.27   10.51
   3   4  -3  287.36   10.62
   3   4  -3  309.74   10.41
   3   4  -2  541.90   17.88
   3   4  -2  522.41   17.61
   3   4  -2  514.79   17.89
  -3   4   2  554.51   17.63
   3   4  -2  525.03   17.93
   3   4  -1  677.41   21.85
   3   4  -1  682.41   22.23
  -3   4   1  634.16   21.76
   3   4  -1  679.95   21.89
   3   4  -1  665.67   22.15
   3   4   0  748.47   25.08
  -3   4   0  811.95   25.15
   3   4   0  720.82   25.10
   3   4   0  752.44   24.80
   3   4   0  768.80   24.90
   3   4   1  313.32   11.46
   3   4   1  339.17   11.21
  -3   4  -1  334.17   11.10
   3   4   1  305.99   11.25
   3   4   2  248.39    9.03
  -3   4  -2  254.18    9.06
   3   4   2  263.20    9.35
  -3   4  -2  249.50    8.66
   3   4   2  250.91    8.89
   3   4   3  175.28    6.74
  -3   4  -3  177.81    6.79
   3   4   3  182.63    7.11
   3   4   3  179.26    6.64
  -3   4  -4  130.25    5.19
   3   4   4  123.81    5.06
   3   4   4  125.73    5.14
   3   4   5    9.75    1.34
   3   4   5   11.36    1.25
  -3   4  -5   10.23    1.33
   3   4   6   41.40    2.28
  -3   4  -6   39.39    2.23
  -3   4  -7   33.41    1.86
   3   4   7   31.65    1.83
   3   4   8   26.66    1.41
  -3   4  -8   26.72    1.45
  -3   5  10   24.36    1.26
   3   5 -10   23.37    1.36
  -3   5   9   28.04    1.66
   3   5  -9   26.46    1.81
   3   5  -9   27.58    1.69
  -3   5   8   20.94    1.58
   3   5  -8   18.44    1.71
  -3   5   7    1.83    1.12
   3   5  -7    2.15    1.19
  -3   5   7    2.64    1.01
   3   5  -6   15.56    1.53
  -3   5   6   16.30    1.40
  -3   5   6   12.10    1.45
  -3   5   6   13.94    1.46
   3   5  -6   15.22    1.63
  -3   5   5   27.98    1.91
  -3   5   5   29.30    1.93
   3   5  -5   29.66    2.23
   3   5  -5   27.53    1.94
  -3   5   5   30.08    1.90
   3   5  -5   29.75    2.11
   3   5  -4   95.40    4.18
   3   5  -4   97.45    4.28
  -3   5   4   91.36    3.89
  -3   5   4  100.69    3.99
   3   5  -3   92.15    4.30
   3   5  -3   86.31    4.05
   3   5  -3   90.12    4.73
   3   5  -3   92.15    4.12
  -3   5   3   94.88    3.86
  -3   5   3   91.86    3.82
   3   5  -2   11.09    2.95
   3   5  -2    7.61    1.68
  -3   5   2    7.21    1.21
   3   5  -2    7.82    1.26
   3   5  -2    8.28    1.23
   3   5  -2   10.46    1.57
  -3   5   2    8.58    1.12
   3   5  -1   14.65    1.84
   3   5  -1   14.19    2.12
  -3   5   1   19.46    1.58
   3   5  -1   17.41    1.52
   3   5  -1   17.71    1.53
   3   5   0   71.61    3.57
   3   5   0   74.22    3.73
   3   5   0   77.03    3.38
   3   5   0   73.77    3.20
  -3   5   0   72.21    3.01
   3   5   0   81.53    4.57
   3   5   1   95.18    4.35
   3   5   1   96.92    4.32
  -3   5  -1   95.15    3.79
   3   5   1  107.61    5.09
   3   5   1   92.09    3.81
   3   5   1  100.83    4.14
   3   5   2   19.19    1.82
   3   5   2   15.65    1.47
   3   5   2   21.26    3.15
   3   5   3    7.58    1.36
  -3   5  -3    5.29    1.16
   3   5   3    8.25    2.63
  -3   5  -3    5.82    0.94
   3   5   3    7.46    1.12
   3   5   4   28.01    2.00
  -3   5  -4   26.78    1.65
   3   5   5   51.62    2.60
  -3   5  -5   46.26    2.29
   3   5   6   37.94    2.02
  -3   5  -6   36.26    1.84
   3   5   7   11.71    0.98
  -3   5  -7    9.90    0.87
   3   6  -9    5.72    0.68
   3   6  -9    6.40    0.77
  -3   6   8   34.22    1.68
   3   6  -8   30.56    1.86
  -3   6   7  123.89    4.71
   3   6  -6  137.63    5.81
  -3   6   6  149.33    5.50
  -3   6   5   58.90    2.77
   3   6  -5   55.01    2.92
   3   6  -5   56.24    3.07
   3   6  -4   41.29    2.55
   3   6  -4   42.35    2.42
  -3   6   4   42.11    2.28
   3   6  -4   36.52    2.11
  -3   6   3   25.73    1.77
   3   6  -3   25.93    1.98
  -3   6   3   26.90    1.72
   3   6  -3   23.41    1.64
   3   6  -3   26.24    1.97
   3   6  -2   77.86    3.70
   3   6  -2   80.23    3.94
   3   6  -2   76.82    3.57
   3   6  -2   74.17    3.31
  -3   6   2   83.32    3.47
  -3   6   2   82.80    3.43
  -3   6   1   17.34    1.43
   3   6  -1   18.74    2.01
   3   6  -1   14.55    1.33
   3   6  -1   17.19    1.70
  -3   6   0   35.42    1.74
   3   6   0   32.93    1.98
   3   6   0   31.16    2.24
   3   6   0   33.20    3.32
   3   6   0   30.49    1.76
   3   6   0   29.99    2.31
   3   6   1   22.23    2.02
   3   6   2   24.40    2.05
   3   6   3  114.86    4.88
   3   6   3  118.02    4.87
   3   6   4  131.48    5.29
   3   6   4  134.43    5.23
   3   6   5   77.50    3.32
   3   6   5   76.23    3.24
   3   6   6   14.08    1.06
   3   6   6   16.37    1.16
   3   7  -7    4.67    0.73
   3   7  -7    3.44    0.57
   3   7  -6    8.49    1.02
   3   7  -6    8.55    0.79
   3   7  -5    5.73    1.03
   3   7  -5    5.60    0.81
   3   7  -4    7.23    1.16
   3   7  -4    6.25    1.02
   3   7  -4    4.80    0.78
  -3   7   3    0.75    0.54
   3   7  -3   19.44    1.26
   3   7  -3    0.17    0.40
   3   7  -3   23.13    1.51
   3   7  -2    3.71    1.14
   3   7  -1    4.08    1.32
   3   7   0   20.72    1.82
   3   7   1    5.91    1.17
   3   7   1    7.41    1.34
   3   7   2    9.84    1.19
   3   7   2    7.98    1.31
   3   7   3   17.44    1.40
   3   7   3   15.29    1.27
   3   7   4   12.93    1.04
   3   7   4   12.78    1.08
   3   8   0   18.11    1.13
   3   8   1   19.51    1.08
  -4  -3  10   19.60    1.69
  -4  -3   9   12.27    1.57
  -4  -3   8   13.74    1.67
   4  -3  -2   94.32    4.35
  -4  -3   1   14.64    1.79
   4  -3  -1   17.22    2.91
  -4  -3   0   43.92    2.69
   4  -3   0   42.40    4.26
   4  -3   1   63.51    5.32
   4  -3   2    6.68    0.89
   4  -3   2    8.00    3.41
   4  -3   3   23.45    1.48
   4  -3   3   13.54    3.81
  -4  -3  -4   34.22    2.09
  -4  -3  -4   26.26    2.29
  -4  -3  -5   10.74    1.75
  -4  -3  -6    2.15    1.45
  -4  -3  -7   20.96    1.88
  -4  -2  12   10.48    1.13
  -4  -2  11    9.71    1.50
  -4  -2  10   47.22    2.83
  -4  -2   9   82.64    3.90
  -4  -2   9   87.16    4.12
  -4  -2   8   53.96    3.11
  -4  -2   8   55.15    2.91
  -4  -2   7   74.42    3.57
  -4  -2   7   67.82    3.32
  -4  -2   6   63.59    3.15
  -4  -2   6   64.52    2.99
   4  -2  -3  403.30   14.22
   4  -2  -2 1441.03   47.68
   4  -2  -1  872.12   29.95
  -4  -2   0  334.03   12.28
   4  -2   0  376.89   13.56
  -4  -2  -1  258.93    9.33
   4  -2   1  239.16   10.47
  -4  -2  -2  262.63    9.19
   4  -2   3   67.14    2.94
  -4  -2  -3   65.74    3.34
  -4  -2  -3   63.76    2.95
   4  -2   4   46.89    2.45
  -4  -2  -4   45.86    2.76
  -4  -2  -4   46.20    2.46
   4  -2   5   66.78    3.21
  -4  -2  -5   63.12    3.15
  -4  -2  -5   61.99    3.48
  -4  -2  -6  125.34    5.56
   4  -2   6  128.42    5.24
  -4  -2  -7   31.80    2.36
  -4  -2  -8   30.23    2.01
  -4  -1  12    5.37    1.24
  -4  -1  11    1.41    1.51
  -4  -1  10    0.87    1.48
  -4  -1   9   32.09    2.33
  -4  -1   9   26.89    2.36
  -4  -1   8   52.08    2.88
  -4  -1   8   48.34    2.94
   4  -1  -7   30.42    2.01
  -4  -1   7   32.89    2.14
  -4  -1   7   31.59    2.23
  -4  -1   6   69.40    3.19
  -4  -1   6   70.28    3.32
  -4  -1   5   30.18    1.78
   4  -1  -4  318.39   11.25
   4  -1  -3  156.90    6.35
   4  -1  -2   12.84    1.87
   4  -1  -1  119.03    5.42
   4  -1   0  468.51   16.70
  -4  -1  -1  181.39    6.04
  -4  -1  -1  140.43    6.09
  -4  -1  -2  150.54    6.00
  -4  -1  -2  165.15    5.83
  -4  -1  -3    2.54    1.06
  -4  -1  -3    1.68    0.81
   4  -1   3    2.45    1.03
   4  -1   4  122.86    4.79
  -4  -1  -4  113.58    4.90
  -4  -1  -4  116.76    4.77
   4  -1   5   83.45    3.75
  -4  -1  -5   70.73    3.65
  -4  -1  -5   78.21    3.62
  -4  -1  -6   22.82    1.89
  -4  -1  -6   26.12    1.99
   4  -1   6   28.10    2.12
  -4  -1  -7   30.81    2.18
  -4  -1  -8   27.34    1.89
  -4   0  13   16.34    1.15
  -4   0  12   10.68    1.54
  -4   0  11    7.72    1.73
  -4   0  10   17.19    2.15
  -4   0   9  168.44    7.07
  -4   0   9  178.60    7.03
  -4   0   8  463.17   15.61
  -4   0   8  474.14   15.56
   4   0  -7  474.55   16.28
  -4   0   7  474.26   16.20
  -4   0   7  484.78   16.45
  -4   0   7  498.43   16.42
  -4   0   6  960.80   30.39
  -4   0   6  895.60   30.41
  -4   0   5  145.77    5.37
   4   0  -4   50.57    2.70
  -4   0   4   54.00    2.36
   4   0  -3  584.78   19.76
   4   0  -2 1294.07   42.31
   4   0  -1  422.05   14.79
   4   0   0    1.97    1.44
  -4   0  -1  114.85    5.03
  -4   0  -1  150.75    5.08
  -4   0  -2 1339.09   45.40
  -4   0  -2 1456.23   45.26
   4   0   3 1380.80   42.61
  -4   0  -3 1249.46   42.68
  -4   0  -3 1311.77   42.58
   4   0   4  687.81   22.45
  -4   0  -4  663.21   22.54
  -4   0  -4  674.51   22.46
   4   0   5  437.11   14.75
  -4   0  -5  420.84   14.75
  -4   0  -5  422.28   14.72
   4   0   6   17.49    1.76
  -4   0  -6   15.33    1.54
  -4   0  -6   14.45    1.52
  -4   0  -7    4.90    1.15
  -4   0  -8    8.55    1.19
  -4   0  -9   22.38    1.36
  -4   1  12    8.00    1.29
  -4   1  11   -0.77    1.40
  -4   1  10    0.74    1.51
  -4   1   9   27.50    2.20
  -4   1   9   27.21    2.32
  -4   1   9   26.21    2.35
  -4   1   8   45.24    2.79
  -4   1   8   51.69    2.86
   4   1  -8   41.29    2.05
  -4   1   8   48.71    2.70
  -4   1   7   33.67    2.03
  -4   1   7   29.41    2.09
   4   1  -7   28.28    1.90
   4   1  -7   26.44    1.48
  -4   1   7   28.46    1.92
  -4   1   6   62.38    2.86
  -4   1   6   58.60    2.96
  -4   1   5   29.06    1.67
   4   1  -4  310.59   10.87
   4   1  -3  153.83    5.83
  -4   1   3  142.08    4.68
   4   1  -2   10.44    1.57
   4   1  -1  115.97    4.80
   4   1  -1   97.01    3.23
   4   1   0  478.13   16.72
  -4   1  -1  147.44    6.00
  -4   1  -1  175.05    5.97
  -4   1  -2  149.55    5.86
  -4   1  -2  167.40    5.85
  -4   1  -3    0.93    0.83
   4   1   3    1.68    0.96
  -4   1  -3    1.29    0.80
   4   1   4  113.53    4.59
  -4   1  -4  119.62    4.73
  -4   1  -4  111.39    4.61
   4   1   5   75.76    3.56
  -4   1  -5   78.19    3.51
  -4   1  -5   70.61    3.40
  -4   1  -6   25.64    1.91
  -4   1  -6   31.49    2.05
   4   1   6   28.98    2.10
  -4   1  -7   37.91    2.29
  -4   1  -8   28.43    1.82
  -4   1  -9   11.62    0.99
  -4   2  12   10.05    1.13
  -4   2  11    9.01    1.48
   4   2 -11   13.29    1.21
  -4   2  10   45.12    2.85
   4   2 -10   49.99    2.42
  -4   2   9   92.19    4.33
  -4   2   9  101.36    4.74
  -4   2   9   92.48    4.17
   4   2  -9   88.27    3.74
  -4   2   8   58.04    3.25
  -4   2   8   58.42    3.07
   4   2  -8   59.25    2.73
  -4   2   7   75.52    3.57
  -4   2   7   67.89    3.28
   4   2  -7   70.91    3.03
  -4   2   6   67.08    3.31
   4   2  -6   72.21    2.95
  -4   2   6   66.44    3.13
  -4   2   5  392.14   12.87
   4   2  -4  303.03   10.55
  -4   2   4  303.40    9.96
   4   2  -3  389.52   13.57
  -4   2   3  398.69   12.88
   4   2  -2 1302.38   43.49
  -4   2   2 1341.47   42.57
   4   2  -1  785.49   26.26
   4   2  -1  783.17   25.17
  -4   2   0  342.47   11.56
   4   2   0  334.38   12.25
   4   2   0  337.75   11.11
  -4   2  -1  252.04    8.54
   4   2   1  221.41    9.22
  -4   2  -2  283.34    9.86
   4   2   3   77.56    3.38
  -4   2  -3   83.44    3.52
  -4   2  -3   85.30    3.54
   4   2   4   52.25    2.66
  -4   2  -4   60.96    2.79
  -4   2  -4   53.56    2.71
   4   2   5   56.60    2.93
  -4   2  -5   53.05    2.83
  -4   2  -5   60.20    2.89
  -4   2  -6  121.38    5.15
  -4   2  -6  131.74    5.10
   4   2   6  122.49    5.14
  -4   2  -7   29.68    1.91
  -4   2  -8   29.67    1.67
  -4   2  -9    2.98    0.62
  -4   3  11    0.03    0.36
   4   3 -10   25.87    1.82
   4   3 -10   23.92    1.64
   4   3  -9   10.02    1.25
  -4   3   9   11.53    1.56
  -4   3   8   17.85    1.86
   4   3  -8   16.69    1.47
  -4   3   8   17.05    1.31
  -4   3   7   14.62    1.63
  -4   3   7   12.47    1.70
   4   3  -7   13.88    1.40
  -4   3   7   13.13    1.15
  -4   3   6   75.81    3.66
  -4   3   6   88.29    3.77
   4   3  -6   84.31    3.52
  -4   3   6   80.14    3.26
   4   3  -6   79.87    3.63
   4   3  -5   12.04    1.35
  -4   3   5   13.32    1.24
   4   3  -5   12.22    1.32
  -4   3   5   12.74    0.96
   4   3  -4   82.87    3.45
  -4   3   4   80.60    3.09
   4   3  -3   39.89    2.03
  -4   3   3   43.24    1.84
   4   3  -2   88.77    3.83
   4   3  -2   97.48    3.54
  -4   3   2   95.67    3.44
  -4   3   1   16.79    1.18
   4   3  -1   15.87    1.63
   4   3  -1   19.66    1.42
   4   3  -1   18.01    1.18
  -4   3   0   50.64    2.21
   4   3   0   46.78    2.90
   4   3   0   53.38    2.38
   4   3   0   47.29    2.12
   4   3   1   54.62    3.32
   4   3   1   58.09    2.51
   4   3   2    6.45    1.06
   4   3   2    6.87    0.93
   4   3   2    6.53    1.78
   4   3   2    5.17    0.84
   4   3   3   20.40    2.39
   4   3   3   24.32    1.60
  -4   3  -3   25.92    1.54
   4   3   4   32.08    1.99
  -4   3  -4   31.16    1.79
  -4   3  -5   14.02    1.24
  -4   3  -6    4.45    0.90
   4   3   6    4.47    0.99
  -4   3  -7    0.10    0.38
  -4   3  -8   26.81    1.47
  -4   4  11   16.87    0.97
   4   4 -11   18.28    1.06
   4   4 -10   34.71    2.06
   4   4  -9    8.28    1.22
   4   4  -9    8.24    1.37
  -4   4   8    9.29    1.58
   4   4  -8   10.27    1.30
  -4   4   7    4.20    1.23
   4   4  -7    3.85    1.17
  -4   4   7    3.73    0.84
  -4   4   6   77.15    3.56
   4   4  -6   77.38    3.48
  -4   4   6   72.73    3.16
   4   4  -6   69.98    3.42
  -4   4   5  114.37    4.45
  -4   4   5  112.94    4.65
   4   4  -5  108.46    5.24
  -4   4   5  119.61    4.42
   4   4  -5  112.14    4.65
   4   4  -4  377.83   13.15
   4   4  -4  378.46   13.41
  -4   4   4  378.03   13.09
  -4   4   4  397.55   12.94
   4   4  -3  218.20    8.16
  -4   4   3  222.89    7.81
   4   4  -3  202.32    8.18
   4   4  -3  223.08    7.98
  -4   4   3  221.62    7.60
  -4   4   2  111.55    4.29
   4   4  -2   93.42    4.89
   4   4  -2  108.00    4.28
   4   4  -2  109.59    4.65
   4   4  -2  109.26    4.50
   4   4  -2  110.95    4.16
  -4   4   2  105.17    4.02
   4   4  -1  139.31    5.98
  -4   4   1  146.37    5.68
   4   4  -1  172.25    5.92
   4   4  -1  175.68    6.31
   4   4  -1  138.35    5.55
   4   4   0  292.04   10.62
  -4   4   0  318.12   10.52
   4   4   0  292.57   10.83
   4   4   0  300.79   10.39
   4   4   0  299.26   10.35
   4   4   1  400.86   14.20
   4   4   1  424.45   14.04
   4   4   1  400.60   13.99
   4   4   2   50.09    2.60
   4   4   2   52.77    3.73
   4   4   2   44.96    2.33
   4   4   3   26.38    1.91
   4   4   3   26.95    1.73
   4   4   4    8.12    1.19
   4   4   5   29.52    1.83
  -4   4  -5   27.92    1.79
   4   4   6   19.85    1.41
  -4   4  -6   16.31    1.36
  -4   4  -7   29.96    1.55
  -4   5  10   -0.05    0.20
   4   5 -10    1.40    0.75
  -4   5   9    1.30    0.70
   4   5  -9    1.43    0.96
  -4   5   8    1.08    0.83
   4   5  -8    2.84    1.12
  -4   5   7   14.12    1.31
  -4   5   7   13.95    1.57
   4   5  -6    4.00    1.26
  -4   5   6    3.73    0.99
  -4   5   6    4.05    1.08
  -4   5   6    4.06    0.94
   4   5  -5    2.70    1.23
  -4   5   5    3.32    0.94
  -4   5   5    3.33    0.97
  -4   5   5    2.55    0.89
  -4   5   4   52.43    2.68
   4   5  -4   50.93    3.78
   4   5  -4   55.75    2.80
  -4   5   4   58.44    2.64
   4   5  -4   58.58    2.97
   4   5  -3   31.42    2.23
   4   5  -3   33.08    2.51
   4   5  -3   32.38    2.03
  -4   5   3   30.32    1.80
   4   5  -3   30.20    3.44
  -4   5   3   34.16    1.83
   4   5  -2   22.75    1.96
   4   5  -2   18.05    1.61
   4   5  -2   19.85    1.67
  -4   5   2   20.33    1.38
   4   5  -2   21.87    3.33
   4   5  -2   20.89    2.16
   4   5  -1   49.44    3.15
   4   5  -1   69.07    4.33
   4   5  -1   62.48    2.92
   4   5  -1   57.92    3.14
   4   5  -1   53.65    2.69
   4   5   0   39.39    3.70
   4   5   0   35.40    2.05
   4   5   0   36.45    2.50
   4   5   0   32.89    1.99
   4   5   0   36.60    2.44
   4   5   1   40.85    2.70
   4   5   1   40.66    2.59
   4   5   1   47.09    3.82
   4   5   2   38.43    2.37
   4   5   2   38.55    3.38
   4   5   3   28.39    1.95
   4   5   3   33.48    3.09
   4   5   4   18.03    1.43
  -4   5  -4    0.02    0.31
   4   5   5   14.54    1.19
  -4   5  -5    0.29    0.35
   4   5   6   24.11    1.13
  -4   5  -6    0.09    0.26
   4   5   7    5.40    0.68
   4   6  -9   20.61    1.27
   4   6  -8   25.14    1.44
   4   6  -7   85.10    2.65
   4   6  -7   76.79    2.07
   4   6  -6   79.85    3.06
  -4   6   6   51.21    2.63
   4   6  -6   77.41    3.29
  -4   6   6   45.00    2.43
   4   6  -6   70.90    2.82
   4   6  -5   61.58    3.24
   4   6  -5   61.05    2.84
   4   6  -5   67.53    3.12
   4   6  -4   21.06    1.74
   4   6  -4   17.70    1.70
   4   6  -4   17.17    1.47
   4   6  -3   36.28    2.25
   4   6  -3   34.01    2.16
   4   6  -3   32.18    1.94
   4   6  -2   38.26    2.37
   4   6  -2   43.02    2.66
   4   6  -2   35.21    2.03
   4   6  -1   70.61    4.20
   4   6  -1   65.76    3.27
   4   6  -1   62.53    3.32
   4   6  -1   60.60    2.82
   4   6   0   42.11    3.60
   4   6   0   41.69    2.58
   4   6   0   44.46    2.56
   4   6   1   67.18    3.41
   4   6   1   68.75    3.44
   4   6   2   72.18    3.42
   4   6   2   77.19    3.57
   4   6   3  175.39    6.50
   4   6   4   78.31    3.25
   4   6   5    9.35    0.86
   4   6   5    9.05    1.00
   4   6   6    3.16    0.49
   4   7  -7    2.88    0.65
   4   7  -7    2.47    0.51
   4   7  -6    5.00    0.84
   4   7  -6    4.38    0.69
   4   7  -5    1.32    0.76
   4   7  -5    1.50    0.69
   4   7  -5    2.70    0.87
   4   7  -4   11.33    1.17
   4   7  -4   10.21    0.89
   4   7  -3   14.18    1.28
   4   7  -3    0.30    0.42
   4   7  -2    1.65    0.93
   4   7  -1   18.50    1.55
   4   7   0    3.25    1.04
   4   7   0    4.73    1.14
   4   7   1    6.94    1.12
   4   7   1    8.00    1.15
   4   7   2   23.85    1.52
   4   7   3   16.66    1.11
   4   7   4    0.46    0.49
   4   8  -3   13.39    0.87
   4   8  -2   19.26    1.11
   4   8  -1   26.60    1.33
  -5  -3  10    1.82    1.12
  -5  -3   9    9.65    1.46
  -5  -3   8   14.57    1.71
  -5  -3   7    6.54    1.47
   5  -3  -3   13.65    2.17
   5  -3  -2   24.52    3.30
  -5  -3   1    2.71    1.48
   5  -3  -1    6.23    3.20
  -5  -3   0   37.60    2.73
   5  -3   0   48.42    5.11
   5  -3   1  108.43    7.60
   5  -3   2  133.09    8.76
  -5  -3  -2  121.67    5.83
  -5  -3  -3    9.27    1.63
  -5  -3  -4    7.87    1.56
  -5  -3  -5    9.69    1.63
  -5  -3  -6   18.65    1.80
  -5  -2  12    8.43    1.09
  -5  -2  11   14.34    1.57
  -5  -2  10   19.88    1.93
  -5  -2   9   93.37    4.36
  -5  -2   8   67.19    3.54
   5  -2  -7  106.71    4.76
  -5  -2   7  113.21    4.86
  -5  -2   6  328.40   11.35
   5  -2  -6  306.14   11.36
  -5  -2   5  278.28    9.98
   5  -2  -4  419.64   15.20
   5  -2  -3   65.70    4.30
   5  -2  -2  381.28   14.76
   5  -2  -1  351.15   14.10
  -5  -2   0  447.15   16.36
   5  -2   0  502.43   18.10
  -5  -2  -1  202.26    8.03
   5  -2   1  212.60    9.96
   5  -2   2  109.97    6.59
  -5  -2  -2  107.95    4.89
   5  -2   3  180.97    6.49
   5  -2   3  165.04    8.58
  -5  -2  -3  161.20    6.92
   5  -2   4  104.13    6.32
   5  -2   4   97.77    4.24
  -5  -2  -4  104.84    4.52
  -5  -2  -4   96.63    4.67
   5  -2   5   44.89    2.54
  -5  -2  -5   41.19    2.73
  -5  -2  -6   55.06    3.11
  -5  -2  -7   25.78    1.92
  -5  -1  12   21.32    1.76
  -5  -1  11   14.90    1.80
  -5  -1  10    1.74    1.45
  -5  -1   9   20.61    1.91
  -5  -1   9   22.07    2.12
   5  -1  -8   23.26    2.03
  -5  -1   8   20.22    1.96
  -5  -1   8   25.78    2.28
  -5  -1   7   31.76    2.44
   5  -1  -7   31.34    2.24
  -5  -1   7   31.45    2.18
  -5  -1   6   57.94    3.12
   5  -1  -6   55.83    3.07
   5  -1  -5   28.63    2.26
   5  -1  -4    7.16    1.66
   5  -1  -3   70.94    3.97
   5  -1  -2   80.20    4.47
   5  -1  -1   53.74    3.89
   5  -1   0   80.39    4.92
  -5  -1  -1    7.34    1.23
   5  -1   1    7.33    2.33
  -5  -1  -2    7.23    1.25
  -5  -1  -2    6.47    1.28
  -5  -1  -2    6.34    1.24
   5  -1   2    5.60    2.11
   5  -1   3   98.25    4.14
  -5  -1  -3   96.97    4.22
   5  -1   4  169.61    6.35
  -5  -1  -4  147.62    6.34
  -5  -1  -4  164.41    6.43
   5  -1   5   38.76    2.49
  -5  -1  -5   38.42    2.51
  -5  -1  -5   34.12    2.37
  -5  -1  -6   30.05    2.11
  -5  -1  -7   20.76    1.70
  -5  -1  -8    6.60    0.95
  -5   0  13   15.28    1.14
  -5   0  12   43.61    2.57
  -5   0  11    0.59    1.44
  -5   0  10    6.14    1.72
  -5   0   9   10.84    1.42
  -5   0   9    9.70    1.74
  -5   0   9   11.16    1.61
   5   0  -8   57.93    3.02
  -5   0   8   52.37    3.09
  -5   0   8   51.81    2.73
  -5   0   8   49.30    2.89
  -5   0   7   42.52    2.52
   5   0  -7   46.23    2.65
  -5   0   7   47.89    2.84
  -5   0   7   47.18    2.33
   5   0  -6    2.16    1.28
  -5   0   6    1.05    1.18
   5   0  -5   33.51    2.35
   5   0  -4  173.30    6.93
   5   0  -3  488.69   17.20
   5   0  -2  985.01   32.99
   5   0  -1  172.38    7.44
   5   0   0    1.31    1.93
  -5   0  -1   66.63    3.24
   5   0   1   58.57    3.92
  -5   0  -2  199.87    7.68
  -5   0  -2  176.28    7.51
   5   0   3  258.34    8.92
  -5   0  -3  250.86    8.90
   5   0   4  155.88    5.99
  -5   0  -4  142.92    5.94
  -5   0  -4  149.46    6.01
   5   0   5   13.52    1.61
  -5   0  -5   13.15    1.55
  -5   0  -5    9.91    1.37
  -5   0  -6    2.28    1.01
  -5   0  -7    1.50    0.99
  -5   0  -8   32.42    1.76
  -5   1  12   23.57    1.81
  -5   1  11   13.62    1.79
  -5   1  10    0.30    1.38
  -5   1   9   18.22    1.77
  -5   1   9   16.72    1.95
  -5   1   9   21.21    1.99
   5   1  -8   27.63    2.05
  -5   1   8   23.61    1.92
  -5   1   8   22.27    2.12
  -5   1   8   24.54    1.99
   5   1  -7   36.20    2.25
  -5   1   7   34.16    2.37
  -5   1   7   31.10    2.13
  -5   1   7   35.91    2.14
  -5   1   6   56.91    3.06
   5   1  -6   58.80    3.04
  -5   1   6   66.50    2.83
   5   1  -5   26.56    2.03
   5   1  -4    8.37    1.44
   5   1  -3   72.28    3.84
   5   1  -2   79.26    4.12
   5   1  -1   53.03    3.46
   5   1   0   72.62    4.42
  -5   1  -1   10.27    1.23
   5   1   1    8.62    2.09
  -5   1  -2    6.53    1.19
  -5   1  -2    5.42    1.03
  -5   1  -2    5.49    1.10
   5   1   2    3.92    1.85
   5   1   3   96.15    4.06
  -5   1  -3   84.97    4.00
  -5   1  -3   94.92    4.12
   5   1   4  165.82    6.51
  -5   1  -4  167.17    6.57
  -5   1  -4  176.79    6.70
   5   1   5   37.53    2.39
  -5   1  -5   32.59    2.30
  -5   1  -5   33.11    2.17
  -5   1  -6   32.13    2.06
  -5   1  -7   22.22    1.62
  -5   1  -8    8.32    0.90
  -5   2  12   10.37    1.09
  -5   2  11   15.70    1.61
  -5   2  10   25.85    2.14
   5   2 -10   25.06    1.60
  -5   2   9   89.95    4.31
  -5   2   9  101.30    4.64
   5   2  -9   88.70    3.66
  -5   2   8   60.27    3.36
   5   2  -8   60.79    2.76
   5   2  -7  109.01    4.44
  -5   2   7  100.99    4.60
   5   2  -7   98.66    4.05
  -5   2   6  301.73   11.20
  -5   2   6  333.56   11.12
   5   2  -6  319.02   10.81
   5   2  -6  315.70   11.11
  -5   2   5  284.42    9.54
  -5   2   5  258.94    9.66
   5   2  -4  401.34   13.97
   5   2  -3   58.54    3.32
   5   2  -2  334.95   12.30
   5   2  -1  285.98   10.94
  -5   2   0  467.68   15.47
   5   2   0  437.66   16.31
   5   2   0  446.89   15.00
  -5   2  -1  205.02    7.39
   5   2   1  185.94    8.34
   5   2   2  100.36    5.62
  -5   2  -2  123.44    4.72
   5   2   3  169.76    6.32
  -5   2  -3  175.92    6.39
   5   2   4  106.18    4.48
  -5   2  -4  117.13    4.75
  -5   2  -4  112.80    4.53
   5   2   5   41.97    2.50
  -5   2  -5   45.78    2.38
  -5   2  -6   57.42    2.80
  -5   2  -7   27.25    1.65
   5   3 -11    4.98    0.90
  -5   3  11   -0.13    0.33
  -5   3  10    2.02    1.06
  -5   3   9    9.42    1.62
  -5   3   9   10.42    1.52
   5   3  -9    8.94    1.17
  -5   3   8   16.56    1.81
   5   3  -8   13.61    1.36
  -5   3   7    5.86    1.54
   5   3  -7    5.82    1.14
  -5   3   6    2.24    1.29
   5   3  -6    2.26    1.00
   5   3  -6    2.27    1.06
  -5   3   5   71.11    3.10
   5   3  -5   57.63    3.52
  -5   3   4   20.63    1.47
  -5   3   4   17.40    1.01
   5   3  -3   12.24    1.41
  -5   3   3   16.11    1.30
   5   3  -3   13.02    1.40
  -5   3   3   13.27    0.85
   5   3  -2   21.65    1.99
  -5   3   2   26.10    1.63
   5   3  -2   23.43    1.63
  -5   3   1    5.28    0.87
  -5   3   1    6.32    1.03
   5   3  -1    4.15    1.58
  -5   3   0   47.38    2.31
   5   3   0   45.98    3.21
   5   3   0   49.07    2.44
   5   3   1   96.01    4.98
   5   3   2  149.57    5.65
   5   3   2  135.81    6.68
  -5   3  -2  155.10    5.64
   5   3   3   14.71    1.40
   5   3   3   11.45    2.25
  -5   3  -3   11.84    1.18
  -5   3  -4   15.17    1.27
  -5   3  -5   11.74    1.14
  -5   3  -6    0.40    0.44
  -5   3  -7   11.22    0.98
   5   4 -11   19.50    1.18
   5   4 -11   14.77    1.02
  -5   4  10    0.17    0.32
   5   4 -10   60.32    2.20
  -5   4   9   74.69    3.78
  -5   4   8   50.24    2.96
  -5   4   7   68.67    3.46
  -5   4   6  182.18    6.82
   5   4  -6  169.60    6.53
   5   4  -5  276.38    9.49
  -5   4   5  279.01    9.60
   5   4  -4   61.04    3.01
  -5   4   4   64.04    2.96
   5   4  -4   56.48    3.92
   5   4  -3  193.26    7.17
  -5   4   3  195.78    6.91
   5   4  -3  188.06    6.95
   5   4  -3  170.10    7.28
  -5   4   3  179.10    6.40
   5   4  -2   63.05    3.24
   5   4  -2   69.85    3.38
  -5   4   2   66.42    3.08
   5   4  -2   67.22    3.11
   5   4  -1  318.50   11.32
   5   4  -1  315.73   11.25
  -5   4   1  345.55   11.22
   5   4  -1  296.44   11.48
   5   4  -1  315.67   11.06
  -5   4   0  227.59    8.00
   5   4   0  214.02    8.55
   5   4   0  210.36    7.93
   5   4   0  214.42    7.81
   5   4   1  138.98    5.60
   5   4   1  164.63    6.57
   5   4   2  117.07    4.81
   5   4   2  138.51    5.79
   5   4   3   34.60    2.02
   5   4   3   45.57    3.21
  -5   4  -4   16.73    1.34
  -5   4  -5   59.92    2.60
  -5   4  -6   51.60    2.16
   5   5 -10    8.91    0.94
   5   5 -10    7.46    0.80
   5   5  -9    9.16    1.20
   5   5  -9    7.97    0.97
  -5   5   8    0.68    1.04
  -5   5   7   37.16    2.38
  -5   5   6   26.82    1.92
   5   5  -6   29.09    1.94
   5   5  -5   10.05    1.42
   5   5  -5    8.69    2.65
  -5   5   5    7.73    1.12
   5   5  -4    2.57    1.17
  -5   5   4    1.85    0.86
   5   5  -4    3.54    2.73
   5   5  -4    1.96    1.09
   5   5  -3    2.13    1.25
  -5   5   3    2.63    0.89
   5   5  -3    2.86    2.69
   5   5  -3    2.97    1.16
   5   5  -2    0.05    1.16
   5   5  -2    1.27    1.39
  -5   5   2    0.97    0.75
   5   5  -2    0.34    1.07
   5   5  -1   21.39    1.90
   5   5  -1   22.43    1.97
  -5   5   1   23.60    1.56
   5   5  -1   20.24    3.34
   5   5  -1   18.68    1.59
   5   5   0   12.56    1.68
  -5   5   0   12.70    1.21
   5   5   0   12.09    1.58
   5   5   0   13.86    3.03
   5   5   1   28.63    2.13
   5   5   1   26.32    1.91
  -5   5  -1   25.66    1.64
   5   5   1   32.65    3.35
   5   5   2   12.88    1.42
   5   5   2   15.39    1.71
   5   5   3   56.10    2.74
   5   5   3   69.44    3.76
   5   5   4   10.61    1.12
   5   5   5    9.15    1.09
   5   5   6    8.76    0.83
   5   6  -9    3.51    0.58
   5   6  -8   19.00    1.41
   5   6  -7   25.80    1.78
   5   6  -7   24.73    1.52
  -5   6   6    7.70    1.02
   5   6  -6    7.91    1.27
   5   6  -6    7.49    1.05
   5   6  -6    8.65    1.19
   5   6  -5   14.69    1.52
  -5   6   5   14.99    1.25
   5   6  -5   15.61    1.36
   5   6  -5   17.05    1.53
   5   6  -4   76.34    3.52
   5   6  -4   75.56    3.31
   5   6  -4   84.20    3.55
   5   6  -3   97.51    4.06
   5   6  -3   94.46    4.82
   5   6  -3   89.27    3.78
   5   6  -2   82.44    3.62
   5   6  -2   75.47    3.28
   5   6  -1   64.61    3.09
   5   6  -1   60.23    3.08
   5   6  -1   57.29    3.91
   5   6   0   35.46    2.23
   5   6   0   35.07    2.17
   5   6   0   35.36    3.38
   5   6   1   47.29    2.60
   5   6   1   45.95    2.42
   5   6   1   51.81    3.68
   5   6   2   36.74    2.16
   5   6   2   34.04    1.91
   5   6   3   24.36    1.59
   5   6   3   22.86    1.38
   5   6   4   18.61    1.23
   5   6   5    4.59    0.53
   5   7  -6   -0.16    0.35
   5   7  -6    4.25    0.62
   5   7  -5    1.87    0.76
   5   7  -5    0.45    0.58
   5   7  -4    4.26    0.90
   5   7  -4    2.77    0.67
   5   7  -3    3.66    0.93
   5   7  -3    1.50    0.54
   5   7  -2   -0.25    0.81
   5   7  -1    5.93    1.02
   5   7   0    1.39    0.84
   5   7   1    6.17    0.91
   5   7   2    1.46    0.69
   5   7   3    4.51    0.52
  -6  -3  10   29.63    1.94
  -6  -3   9    9.31    1.43
  -6  -3   8    9.55    1.51
   6  -3  -7   13.78    1.85
  -6  -3   7   16.51    1.78
  -6  -3   6    7.81    1.51
   6  -3  -4   16.84    2.61
   6  -3  -3   15.66    2.98
   6  -3  -2   42.89    4.70
  -6  -3   1   59.93    3.70
   6  -3  -1   67.14    5.99
  -6  -3   0   36.21    2.66
   6  -3   0   42.04    5.14
  -6  -3   0   28.70    2.53
  -6  -3  -1   15.73    2.03
  -6  -3  -2   11.25    1.75
  -6  -3  -3   63.43    3.48
  -6  -3  -4   24.00    2.01
  -6  -3  -5   19.35    1.66
  -6  -2  12    7.70    0.98
  -6  -2  11   26.32    1.90
  -6  -2  10   54.37    2.98
  -6  -2   9   28.68    2.28
   6  -2  -8   58.25    3.44
  -6  -2   8   59.72    3.35
   6  -2  -7  131.62    5.97
  -6  -2   7  143.54    5.89
   6  -2  -6  342.05   12.88
  -6  -2   6  356.42   12.53
   6  -2  -5   90.57    4.92
   6  -2  -5   94.71    5.09
  -6  -2   5   85.42    4.09
   6  -2  -4  163.81    7.46
  -6  -2   4  142.36    6.14
  -6  -2   4  161.31    5.65
  -6  -2   3  127.07    5.53
  -6  -2   3  128.89    4.78
  -6  -2   2   62.42    3.86
   6  -2  -2   69.25    5.34
  -6  -2   2   69.20    2.87
   6  -2  -1  237.86   11.01
  -6  -2   0  156.52    6.92
   6  -2   0  172.88    9.11
  -6  -2  -1  398.23   14.14
   6  -2   1  423.22   16.64
  -6  -2  -1  371.44   13.94
   6  -2   2   43.21    2.46
  -6  -2  -2   41.10    2.88
   6  -2   3   53.31    2.70
   6  -2   3   55.11    5.00
  -6  -2  -3   46.67    3.05
  -6  -2  -4   67.82    3.62
  -6  -2  -5   61.23    3.21
  -6  -2  -6    8.24    1.26
  -6  -2  -7    7.53    0.84
  -6  -1  12    1.80    1.14
  -6  -1  11    6.07    1.50
  -6  -1  10   61.86    3.42
  -6  -1   9    8.75    1.61
   6  -1  -8    4.97    1.54
  -6  -1   8    5.06    1.54
   6  -1  -7  100.92    4.76
  -6  -1   7  106.82    4.77
   6  -1  -6    7.80    1.96
  -6  -1   6    7.54    1.68
   6  -1  -5   69.76    3.90
   6  -1  -5   71.96    4.04
  -6  -1   5   72.10    3.61
   6  -1  -4  176.50    7.43
  -6  -1   4  162.20    6.47
  -6  -1   3    7.83    1.45
   6  -1  -3    8.05    2.23
  -6  -1   2    5.33    1.66
   6  -1  -2    3.36    2.31
   6  -1  -1   14.16    2.98
  -6  -1   0  193.68    7.85
   6  -1   0  206.38    9.41
  -6  -1  -1   91.97    4.35
   6  -1   1   84.26    5.56
   6  -1   2  156.39    7.82
  -6  -1  -2  161.98    6.51
   6  -1   3   53.68    4.30
  -6  -1  -3   64.44    3.51
   6  -1   4   37.16    3.63
  -6  -1  -4   44.49    2.73
  -6  -1  -5   11.53    1.45
  -6  -1  -6   14.26    1.41
  -6  -1  -7   13.62    1.16
  -6   0  13   11.60    1.02
  -6   0  12   21.18    1.81
  -6   0  11   23.57    2.10
  -6   0  10   14.81    1.90
  -6   0   9    8.22    1.28
  -6   0   9    9.62    1.69
   6   0  -8   25.32    2.19
  -6   0   8   24.55    2.25
  -6   0   8   25.75    1.80
   6   0  -7   98.62    4.52
  -6   0   7  101.91    4.59
  -6   0   7   96.49    4.04
   6   0  -6  430.60   15.64
  -6   0   6  461.34   15.03
  -6   0   6  445.58   15.58
   6   0  -5  315.84   11.47
  -6   0   5  302.41   10.97
   6   0  -4  509.25   17.52
  -6   0   4  478.65   16.69
   6   0  -3  904.67   29.44
  -6   0   3  833.87   28.35
   6   0  -2  973.07   32.17
  -6   0   2  917.46   30.97
   6   0  -1  352.62   13.86
  -6   0   0  345.32   12.74
   6   0   0  380.87   14.24
  -6   0  -1   94.61    4.30
   6   0   1   80.48    5.21
  -6   0  -2  154.05    5.99
  -6   0  -2  150.34    5.90
   6   0   3   57.58    4.48
  -6   0  -3   79.69    3.86
   6   0   4   54.25    2.87
  -6   0  -4   50.75    2.79
  -6   0  -5    8.55    1.26
  -6   0  -6   17.89    1.49
  -6   0  -7   21.98    1.44
  -6   1  12    1.31    1.06
  -6   1  11    5.31    1.45
  -6   1  10   55.51    3.06
  -6   1  10   48.00    3.00
  -6   1   9    7.70    1.41
  -6   1   9    7.51    1.54
   6   1  -8    5.70    1.46
  -6   1   8    4.82    1.16
  -6   1   8    4.91    1.53
   6   1  -7  112.04    4.82
  -6   1   7  103.99    4.78
  -6   1   7  112.15    4.54
   6   1  -6    5.98    1.57
  -6   1   6    7.57    1.05
  -6   1   6    7.80    1.52
   6   1  -5   70.16    3.79
   6   1  -5   75.89    3.96
  -6   1   5   70.19    3.56
  -6   1   5   76.35    3.23
   6   1  -5   81.76    3.14
   6   1  -4  176.22    7.17
  -6   1   4  166.14    6.52
  -6   1   3    6.91    1.43
   6   1  -3    5.03    1.94
  -6   1   2    8.14    1.65
   6   1  -2    6.38    0.91
   6   1  -2    6.12    2.00
   6   1  -1   14.52    2.69
  -6   1   0  200.45    7.73
   6   1   0  197.79    8.94
  -6   1  -1  107.05    4.62
   6   1   1   93.18    5.61
   6   1   2  163.54    8.22
  -6   1  -2  202.18    7.26
   6   1   3   75.67    3.55
  -6   1  -3   69.20    3.35
   6   1   4   47.70    2.66
  -6   1  -4   44.03    2.54
  -6   1  -5   11.48    1.32
  -6   1  -6   12.70    1.26
  -6   1  -7   14.83    1.15
  -6   2  12    8.93    1.02
  -6   2  11   24.14    1.83
  -6   2  10   58.89    3.25
  -6   2  10   58.84    3.16
  -6   2   9   34.09    2.37
  -6   2   9   31.72    2.37
   6   2  -8   62.06    3.07
  -6   2   8   60.36    3.16
  -6   2   8   52.65    3.16
   6   2  -7  142.71    5.62
  -6   2   7  127.02    5.72
  -6   2   7  143.74    5.61
   6   2  -6  365.71   12.77
  -6   2   6  347.81   12.74
  -6   2   6  370.22   12.51
   6   2  -5  102.63    4.60
   6   2  -5   97.63    4.64
  -6   2   5   97.36    4.45
  -6   2   5  105.04    4.15
   6   2  -5  102.35    4.00
   6   2  -4  139.81    6.16
  -6   2   4  154.48    5.55
  -6   2   4  135.95    5.78
   6   2  -4  150.56    5.43
  -6   2   4  144.65    5.37
   6   2  -3  117.12    5.67
  -6   2   3  126.40    4.77
  -6   2   3  121.68    5.17
   6   2  -3  126.22    4.71
  -6   2   3  122.37    4.59
   6   2  -2   70.12    4.29
  -6   2   2   69.24    3.10
  -6   2   2   69.65    3.63
   6   2  -2   72.43    3.02
  -6   2   2   68.52    2.90
   6   2  -1  208.46    8.97
   6   2  -1  212.19    7.48
  -6   2   0  168.08    6.56
   6   2   0  158.68    7.66
  -6   2  -1  433.25   14.65
   6   2   1  391.10   15.82
  -6   2  -1  428.41   14.56
   6   2   2   53.98    2.80
  -6   2  -2   54.66    2.79
   6   2   3   61.90    3.01
  -6   2  -3   57.32    2.93
  -6   2  -4   70.63    3.29
  -6   2  -5   70.92    3.18
  -6   2  -6   10.03    1.06
  -6   2  -7    7.82    0.67
   6   3 -11   10.26    1.06
  -6   3  11    0.07    0.26
  -6   3  10   30.66    2.13
   6   3 -10   31.94    1.54
  -6   3   9   11.83    1.58
  -6   3   9    9.02    1.47
  -6   3   8   10.15    1.45
  -6   3   8    9.68    1.53
   6   3  -7   17.96    1.54
  -6   3   7   16.52    1.62
  -6   3   7   20.18    1.92
   6   3  -6    7.57    1.28
  -6   3   6    8.14    1.54
   6   3  -6    7.99    1.23
   6   3  -5   21.39    1.79
  -6   3   5   24.72    1.98
   6   3  -5   23.80    1.71
   6   3  -4   14.97    1.72
   6   3  -4   16.24    1.63
  -6   3   4   17.03    1.73
  -6   3   4   15.38    1.38
   6   3  -4   16.17    1.49
   6   3  -3   12.87    1.74
  -6   3   3   15.25    1.37
  -6   3   3   15.05    1.67
   6   3  -3   14.61    1.49
   6   3  -2   38.77    2.96
  -6   3   2   43.52    2.34
   6   3  -2   39.81    2.30
  -6   3   1   64.56    2.98
   6   3  -1   57.17    3.75
  -6   3   1   59.98    2.91
   6   3  -1   56.72    2.83
  -6   3   0   40.65    2.13
   6   3   0   35.23    3.16
  -6   3   0   37.12    2.07
   6   3   1   27.53    1.88
   6   3   1   25.03    2.95
  -6   3  -1   25.92    1.74
   6   3   2   17.75    1.57
   6   3   2   15.82    2.44
  -6   3  -2   18.53    1.45
   6   3   3   99.59    4.47
  -6   3  -3   83.39    3.64
  -6   3  -4   33.11    1.79
  -6   3  -5   -0.10    0.38
  -6   3  -6   17.87    1.14
   6   4 -11    9.97    0.94
   6   4 -10   19.55    1.50
   6   4 -10   16.12    1.17
  -6   4   9   45.43    2.62
   6   4  -9   41.99    2.11
  -6   4   8   71.63    3.43
   6   4  -8   62.27    2.89
  -6   4   7   80.81    3.75
   6   4  -7   78.23    3.48
  -6   4   6    4.81    1.13
   6   4  -6    5.80    2.37
   6   4  -6    5.35    1.22
  -6   4   5   60.55    3.02
   6   4  -5   56.25    3.83
   6   4  -5   68.14    3.13
   6   4  -4   51.61    2.73
  -6   4   4   55.34    2.76
   6   4  -4   44.63    3.78
   6   4  -4   62.49    2.93
   6   4  -3   29.07    2.05
  -6   4   3   33.53    2.03
   6   4  -3   29.45    3.28
   6   4  -2   31.48    2.23
  -6   4   2   35.65    2.19
   6   4  -1   14.95    1.69
  -6   4   1   16.28    1.48
   6   4  -1   13.86    1.48
   6   4   0  132.04    5.59
  -6   4   0  143.37    5.53
   6   4   0  140.40    6.34
  -6   4  -1   34.11    2.18
   6   4   1   38.46    3.44
   6   4   2   49.57    3.57
   6   4   3   35.61    3.04
  -6   4  -4   43.73    1.69
  -6   4  -4    0.04    0.27
  -6   4  -5   -0.19    0.34
  -6   4  -5    0.14    0.19
   6   5 -10    8.09    0.89
   6   5 -10    7.05    0.71
   6   5  -9    5.50    1.05
   6   5  -9    5.39    0.85
   6   5  -8    2.45    1.07
  -6   5   8    3.06    1.07
   6   5  -8    2.43    0.88
  -6   5   7   17.01    1.55
   6   5  -7   17.38    1.45
  -6   5   6   49.36    2.62
   6   5  -6   49.75    2.52
   6   5  -6   45.41    2.43
   6   5  -5   38.01    2.18
  -6   5   5   36.03    2.14
   6   5  -5   31.69    3.17
   6   5  -4   18.10    1.63
  -6   5   4   16.56    1.41
   6   5  -4   16.99    2.90
   6   5  -3    6.66    1.30
  -6   5   3    7.31    1.05
   6   5  -3    6.85    2.85
   6   5  -3    6.56    1.26
   6   5  -2   10.48    1.43
  -6   5   2   10.24    1.15
   6   5  -2    8.14    1.24
   6   5  -1   52.34    2.77
   6   5  -1   43.97    2.47
  -6   5   1   52.04    2.50
   6   5  -1   47.89    3.80
   6   5   0   22.81    1.88
  -6   5   0   22.09    1.54
   6   5   0   20.81    3.15
  -6   5  -1   56.76    2.73
   6   5   1   63.15    3.15
   6   5   2   17.36    1.62
  -6   5  -2   15.64    1.17
   6   5   3    3.20    1.04
   6   5   4   19.50    1.34
   6   5   5    5.33    0.69
   6   6  -9    6.25    0.66
   6   6  -8   13.38    1.13
   6   6  -8   13.89    0.97
   6   6  -7    6.67    1.02
  -6   6   7    0.32    0.52
   6   6  -6   14.50    1.36
  -6   6   6   14.35    1.20
   6   6  -6   14.19    1.19
   6   6  -5   33.66    1.99
  -6   6   5   35.61    1.88
   6   6  -5   33.75    1.88
   6   6  -5   38.43    1.98
   6   6  -4  113.83    4.26
  -6   6   4  106.75    4.12
   6   6  -4  106.21    4.96
   6   6  -4   99.32    4.11
   6   6  -3  161.13    5.50
  -6   6   3  124.64    5.10
   6   6  -3  169.22    6.30
   6   6  -3  139.71    5.25
   6   6  -2   99.87    4.11
   6   6  -1   43.89    2.37
   6   6  -1   44.21    3.39
   6   6   0    9.50    1.21
   6   6   0    8.93    2.66
   6   6   1    4.66    1.04
   6   6   1    6.32    2.35
   6   6   2   40.98    2.02
   6   6   3   32.30    1.57
   6   7  -5    4.51    0.60
   6   7  -4    1.68    0.66
   6   7  -3    2.28    0.69
   6   7  -2    7.61    0.87
   6   7  -1    8.20    0.86
   6   7   0    2.40    0.61
   6   7   1    6.69    0.62
  -7  -3  10    3.59    1.02
  -7  -3   9    5.85    1.22
  -7  -3   8    1.18    1.19
   7  -3  -7    9.07    1.86
  -7  -3   7   15.95    1.75
   7  -3  -6    3.68    1.85
  -7  -3   6    2.91    1.32
   7  -3  -5    5.65    2.52
  -7  -3   5    7.87    1.61
  -7  -3   4    5.72    1.64
  -7  -3   2    3.14    0.81
  -7  -3   2    3.09    1.41
  -7  -3   1   11.15    1.08
  -7  -3   0   36.82    2.58
  -7  -3  -1   48.04    2.94
  -7  -3  -2   29.90    2.19
  -7  -3  -3   23.10    1.80
  -7  -3  -4   24.43    1.61
  -7  -2  12    5.44    0.81
  -7  -2  11   13.58    1.41
  -7  -2  10   31.67    2.21
  -7  -2   9   42.16    2.70
   7  -2  -8   50.75    3.34
  -7  -2   8   57.84    3.27
   7  -2  -7   71.87    4.24
  -7  -2   7   80.29    4.05
   7  -2  -6  261.91   10.44
  -7  -2   6  257.68    9.76
   7  -2  -5  116.50    6.33
   7  -2  -5  134.46    6.72
  -7  -2   5  121.39    5.41
   7  -2  -4   22.80    3.23
  -7  -2   4   18.19    2.04
  -7  -2   4   16.92    1.35
   7  -2  -3  115.59    6.89
  -7  -2   3  112.34    5.22
  -7  -2   3  105.49    4.21
   7  -2  -2  103.52    7.02
  -7  -2   2   98.77    4.00
  -7  -2   1  228.57    9.20
   7  -2  -1  236.26   11.49
  -7  -2   0  124.85    5.82
   7  -2   0  133.45    8.28
   7  -2   1   72.63    6.23
  -7  -2  -1   78.51    3.99
   7  -2   2  265.32    9.17
   7  -2   2  243.70   11.78
  -7  -2  -2  231.60    9.43
  -7  -2  -3   44.18    2.71
  -7  -2  -4   53.34    2.86
  -7  -2  -5   15.71    1.36
  -7  -2  -6   12.42    0.91
  -7  -1  12    6.16    1.18
  -7  -1  11    2.49    1.23
  -7  -1  10    8.56    1.57
   7  -1  -9    5.15    1.48
  -7  -1   9    4.65    1.51
   7  -1  -8    3.33    1.59
  -7  -1   8    2.95    1.48
   7  -1  -7   80.36    4.30
  -7  -1   7   82.77    4.15
   7  -1  -6   54.87    3.66
  -7  -1   6   59.64    3.41
   7  -1  -5   22.90    2.69
  -7  -1   5   25.83    2.23
   7  -1  -4   17.94    2.78
  -7  -1   4   16.45    1.87
  -7  -1   4   17.57    1.39
  -7  -1   3    1.43    0.84
  -7  -1   3    1.67    1.44
   7  -1  -3   -0.12    2.50
  -7  -1   2    6.65    1.88
   7  -1  -2    6.54    2.98
  -7  -1   1   66.89    3.74
   7  -1  -1   71.04    5.56
  -7  -1   0  145.87    6.41
   7  -1   0  149.82    8.21
  -7  -1  -1   30.71    2.28
   7  -1   1   31.28    3.72
  -7  -1  -1   27.21    2.22
  -7  -1  -2   16.05    1.81
   7  -1   2   11.52    2.70
  -7  -1  -3    7.62    1.41
  -7  -1  -4   54.04    2.89
  -7  -1  -5   11.41    1.24
  -7  -1  -6   39.41    1.94
  -7   0  12   -0.46    1.10
  -7   0  11    5.82    1.37
  -7   0  10   26.02    2.19
   7   0  -9   22.49    1.95
  -7   0   9   20.36    1.63
  -7   0   9   20.79    2.06
   7   0  -8    5.92    1.60
  -7   0   8    5.17    1.00
  -7   0   8    6.02    1.61
   7   0  -7   28.10    2.47
  -7   0   7   27.29    1.73
  -7   0   7   29.68    2.42
   7   0  -6    4.55    1.78
  -7   0   6    3.83    0.84
  -7   0   6    2.34    1.49
   7   0  -6    3.55    1.66
   7   0  -5  167.40    7.35
  -7   0   5  173.55    6.27
  -7   0   5  169.11    6.87
  -7   0   5  175.03    6.37
   7   0  -4  397.30   15.27
  -7   0   4  408.34   13.67
  -7   0   4  383.67   14.24
  -7   0   4  417.73   13.70
   7   0  -3  576.73   20.86
  -7   0   3  570.51   18.94
  -7   0   3  539.49   19.53
  -7   0   3  586.12   18.94
   7   0  -2  262.60   11.24
  -7   0   2  257.99    9.94
   7   0  -1  139.03    7.69
  -7   0   0   39.78    2.71
   7   0   0   39.44    3.95
  -7   0  -1   32.27    2.27
   7   0   1   26.10    3.33
  -7   0  -1   25.89    2.06
   7   0   2   30.05    3.33
  -7   0  -2   45.98    2.76
  -7   0  -3    0.43    0.98
   7   0   3    1.72    1.24
   7   0   3    0.10    1.64
  -7   0  -4    2.69    1.02
  -7   0  -5   17.32    1.42
  -7   0  -6    1.74    0.69
  -7   1  12    4.81    1.07
  -7   1  11    2.43    1.24
  -7   1  10    6.96    1.30
  -7   1  10    8.89    1.53
   7   1  -9    6.18    1.46
  -7   1   9    5.40    1.18
  -7   1   9    3.64    1.40
   7   1  -8    4.15    1.38
  -7   1   8    3.61    1.07
  -7   1   8    2.28    1.41
   7   1  -7   81.98    4.12
  -7   1   7   84.50    3.65
  -7   1   7   80.49    4.06
   7   1  -6   59.23    3.49
  -7   1   6   58.08    2.74
  -7   1   6   54.80    3.20
   7   1  -5   30.35    2.65
  -7   1   5   26.71    1.73
  -7   1   5   25.36    2.14
   7   1  -5   29.77    1.77
   7   1  -4   18.97    2.60
  -7   1   4   14.53    1.27
  -7   1   4   16.63    1.88
   7   1  -4   16.06    1.35
  -7   1   4   16.37    1.27
  -7   1   3    1.35    0.82
  -7   1   3    1.15    0.88
  -7   1   3    1.33    1.38
   7   1  -3    1.07    0.88
   7   1  -3    0.90    2.06
  -7   1   2    8.00    1.81
   7   1  -2    3.73    2.55
  -7   1   1   70.16    3.70
   7   1  -1   77.38    5.22
  -7   1   0  150.63    6.35
   7   1   0  153.79    7.80
  -7   1  -1   31.32    2.16
   7   1   1   30.98    3.28
  -7   1  -1   29.50    2.10
   7   1   2   17.98    1.81
  -7   1  -2   17.19    1.74
  -7   1  -3    8.23    1.28
  -7   1  -4   49.35    2.60
  -7   1  -5    9.57    1.09
  -7   1  -6   39.88    1.89
  -7   2  12    4.42    0.76
  -7   2  11   15.12    1.48
  -7   2  10   32.24    2.23
  -7   2  10   33.10    2.25
  -7   2   9   42.03    2.52
  -7   2   9   39.38    2.58
   7   2  -8   53.19    2.80
  -7   2   8   55.21    2.81
  -7   2   8   48.09    2.95
   7   2  -8   45.40    2.22
   7   2  -7   78.28    3.73
  -7   2   7   78.43    3.44
  -7   2   7   74.18    3.80
   7   2  -7   69.28    3.07
   7   2  -6  247.93    9.19
  -7   2   6  242.03    8.72
  -7   2   6  235.46    9.12
   7   2  -6  245.02    8.50
   7   2  -5  109.43    5.27
   7   2  -5  122.46    5.53
  -7   2   5  116.74    4.70
  -7   2   5  119.27    5.20
   7   2  -5  120.24    4.61
  -7   2   4   16.02    1.35
  -7   2   4   13.66    1.85
   7   2  -4   15.18    1.41
   7   2  -4   10.76    1.97
  -7   2   4   13.60    1.22
   7   2  -3  102.64    5.45
  -7   2   3  101.81    4.17
  -7   2   3  104.44    4.74
   7   2  -3  103.36    4.11
  -7   2   3   97.70    3.94
   7   2  -2   90.62    5.38
  -7   2   2   90.91    3.92
   7   2  -2   99.90    3.89
  -7   2   2   87.50    3.70
  -7   2   1  232.32    8.65
   7   2  -1  211.65    9.70
  -7   2   0  135.06    5.54
   7   2   0  121.82    6.73
   7   2   1   77.79    5.08
  -7   2  -1   85.64    3.83
   7   2   2  264.67    9.14
  -7   2  -2  251.16    8.94
  -7   2  -3   48.28    2.55
  -7   2  -4   56.63    2.69
  -7   2  -5   16.17    1.21
  -7   2  -6   -0.05    0.30
   7   3 -11    0.70    0.75
  -7   3  10    4.04    1.08
   7   3 -10    2.62    0.71
  -7   3   9    4.25    1.17
  -7   3   9    5.53    1.22
   7   3  -9    4.89    0.86
  -7   3   8    1.50    1.01
  -7   3   8    2.16    1.21
   7   3  -8    0.91    0.81
   7   3  -7   19.91    1.58
  -7   3   7   16.52    1.49
  -7   3   7   17.78    1.84
   7   3  -7   13.84    1.31
   7   3  -6    2.96    1.17
  -7   3   6    1.88    0.89
   7   3  -6    3.54    2.34
  -7   3   6    4.00    1.41
   7   3  -6    3.18    1.01
   7   3  -5    5.48    1.50
  -7   3   5    7.11    1.51
   7   3  -5    6.52    1.21
   7   3  -4    4.26    1.62
   7   3  -4    6.41    1.51
  -7   3   4    8.47    1.60
   7   3  -4    7.71    1.33
   7   3  -3   17.01    2.08
   7   3  -3   21.86    1.74
  -7   3   3   19.58    1.37
  -7   3   2    2.60    0.84
  -7   3   2    3.04    1.04
  -7   3   2    2.18    1.00
   7   3  -2    2.07    1.13
   7   3  -2    3.61    1.86
  -7   3   1   12.51    1.30
  -7   3   1   12.76    1.39
   7   3  -1   12.36    2.27
  -7   3   1   12.46    1.12
   7   3   0   45.96    3.59
  -7   3   0   51.30    2.52
  -7   3  -1   63.55    2.94
  -7   3  -2   38.30    2.04
  -7   3  -3   29.79    1.64
  -7   3  -4    0.24    0.31
  -7   3  -5    0.15    0.29
   7   4 -11   13.52    0.95
   7   4 -10   25.29    1.62
   7   4 -10   21.24    1.20
   7   4  -9   18.37    1.23
   7   4  -8   46.60    2.23
  -7   4   7   94.27    4.15
   7   4  -7   96.75    3.90
  -7   4   6  139.05    5.50
   7   4  -6  133.84    5.81
   7   4  -6  142.01    5.37
  -7   4   5   28.69    1.89
   7   4  -5   29.95    3.09
   7   4  -5   32.76    2.06
  -7   4   4   41.96    2.31
   7   4  -4   42.86    2.43
  -7   4   3    8.17    1.20
   7   4  -3    9.27    2.87
   7   4  -3    7.85    1.33
   7   4  -2  103.94    4.29
  -7   4   2   98.19    4.26
   7   4  -1   25.16    1.87
  -7   4   1   25.18    1.76
   7   4  -1   28.84    3.13
   7   4   0  109.34    4.63
  -7   4   0  111.85    4.66
   7   4   0  124.60    5.44
   7   4   1  104.64    4.53
  -7   4  -1  112.08    4.57
   7   4   1  120.96    5.27
  -7   4  -2   87.84    3.88
   7   4   2  106.50    4.59
  -7   4  -3   64.56    2.82
   7   4   4   17.39    1.23
  -7   4  -4   14.47    0.98
   7   5 -10    2.90    0.61
  -7   5   9    1.15    0.75
   7   5  -9    1.28    0.61
   7   5  -8   12.82    1.34
  -7   5   8   10.84    1.21
   7   5  -8    9.96    1.01
  -7   5   7   22.33    1.62
   7   5  -7   21.47    1.47
  -7   5   6    7.13    1.12
   7   5  -6    4.44    1.79
   7   5  -6    6.63    1.12
  -7   5   5    2.37    0.90
   7   5  -5    0.95    2.48
   7   5  -5    2.66    1.06
   7   5  -4    2.74    0.99
  -7   5   4    1.30    0.79
   7   5  -4    2.75    2.70
   7   5  -3   15.63    1.44
  -7   5   3   17.05    1.35
   7   5  -3   17.22    2.95
   7   5  -3   13.31    1.44
   7   5  -2   50.98    2.52
  -7   5   2   45.44    2.36
   7   5  -1   10.14    1.26
  -7   5   1    8.69    1.03
   7   5  -1   10.13    2.73
   7   5   0   17.49    1.49
  -7   5   0   19.38    1.37
   7   5   0   22.31    2.95
   7   5   1   12.18    1.24
  -7   5  -1   12.10    1.02
   7   5   2   14.23    1.14
   7   5   2   15.20    2.30
   7   5   3   13.51    1.03
   7   6  -8    5.58    0.68
   7   6  -8    5.54    0.61
   7   6  -7    5.08    0.75
   7   6  -7    5.23    0.70
   7   6  -6   -0.35    0.45
  -7   6   6    0.24    0.52
  -7   6   5   24.36    1.45
   7   6  -5   33.60    1.62
   7   6  -4   95.43    3.31
   7   6  -4   87.84    2.06
   7   6  -4   95.50    1.98
   7   6  -3  105.66    2.15
   7   6  -3  115.61    3.61
   7   6  -2   53.44    2.36
   7   6  -1   13.03    1.10
   7   6  -1   12.57    2.38
   7   6   0    3.76    0.80
   7   6   0    5.82    2.04
   7   6   1    9.94    0.87
   7   6   2    5.10    0.56
  -8  -3   9    2.65    1.02
  -8  -3   8   10.19    1.46
   8  -3  -7    3.72    1.76
  -8  -3   7    4.87    1.39
   8  -3  -6   18.79    2.50
  -8  -3   6   18.67    1.90
   8  -3  -5   21.80    2.99
  -8  -3   5   19.21    2.03
   8  -3  -4    6.28    2.77
  -8  -3   3    3.72    0.82
  -8  -3   2   18.94    1.32
  -8  -3   1    7.16    1.27
  -8  -3   1    6.91    0.92
  -8  -3   0   10.91    1.41
  -8  -3   0    8.54    0.99
  -8  -3  -1    5.00    0.85
  -8  -3  -1    5.66    1.13
  -8  -3  -2   17.05    1.34
  -8  -3  -2   14.79    1.09
  -8  -3  -3   14.60    0.94
  -8  -2  11   13.91    1.27
  -8  -2  10   16.02    1.57
  -8  -2   9   17.64    1.78
   8  -2  -8   48.18    3.21
  -8  -2   8   54.38    3.10
   8  -2  -7   56.11    3.68
  -8  -2   7   58.22    3.35
   8  -2  -6   30.13    3.13
  -8  -2   6   30.90    2.51
   8  -2  -5   97.59    5.72
   8  -2  -5  108.13    6.11
  -8  -2   5   95.88    4.80
   8  -2  -4  117.97    6.55
  -8  -2   4  105.26    5.14
  -8  -2   4  105.69    4.28
   8  -2  -3   99.56    6.69
  -8  -2   3   96.63    3.96
  -8  -2   2   73.04    3.93
   8  -2  -2   78.88    6.06
  -8  -2   2   68.76    3.13
  -8  -2   1  128.16    5.64
   8  -2  -1  122.97    7.84
  -8  -2   1  115.61    4.69
  -8  -2   0  166.73    6.65
   8  -2   0  150.48    8.83
  -8  -2   0  154.46    6.48
  -8  -2  -1   19.39    1.87
  -8  -2  -2   37.19    2.37
  -8  -2  -3   32.70    2.00
  -8  -2  -4   25.16    1.50
  -8  -1  12    1.30    0.83
  -8  -1  11    4.87    1.20
  -8  -1  10    3.93    1.35
   8  -1  -9    7.17    1.47
  -8  -1   9    4.12    1.53
   8  -1  -8    5.35    1.57
  -8  -1   8    4.87    1.53
   8  -1  -7   35.24    2.82
  -8  -1   7   32.18    2.61
   8  -1  -6   24.74    2.75
  -8  -1   6   28.05    2.45
  -8  -1   5    1.71    1.65
   8  -1  -5    2.13    1.95
  -8  -1   5   -0.26    0.90
  -8  -1   4    6.25    1.09
  -8  -1   4    5.97    1.78
   8  -1  -4    3.68    2.56
   8  -1  -3   48.14    4.50
  -8  -1   3   47.39    3.33
  -8  -1   3   46.17    2.45
   8  -1  -2    5.50    3.19
  -8  -1   2    8.28    1.24
  -8  -1   1   48.34    3.12
   8  -1  -1   41.26    4.49
  -8  -1   0   10.87    1.56
   8  -1   0   10.33    2.81
   8  -1   1   26.47    3.42
  -8  -1  -1   29.09    2.14
  -8  -1  -2   36.97    2.38
  -8  -1  -3   25.52    1.81
  -8  -1  -4   11.20    1.12
  -8  -1  -5   19.32    1.17
  -8   0  12    7.34    1.10
  -8   0  11   20.09    1.78
  -8   0  10   61.96    3.34
   8   0  -9   99.73    4.44
  -8   0   9   98.41    4.63
   8   0  -8   30.85    2.36
  -8   0   8   26.63    1.72
  -8   0   8   26.47    2.31
   8   0  -7   31.24    2.54
  -8   0   7   31.03    1.81
  -8   0   7   31.51    2.58
   8   0  -6   72.72    4.19
   8   0  -6   77.22    4.37
  -8   0   6   72.30    3.18
  -8   0   6   78.21    4.02
   8   0  -5  243.28    9.89
  -8   0   5  228.66    8.33
  -8   0   5  239.33    9.22
  -8   0   5  241.64    8.49
   8   0  -4  371.99   14.47
  -8   0   4  360.67   12.43
  -8   0   4  348.66   13.20
  -8   0   4  370.82   12.48
   8   0  -3  344.58   14.00
  -8   0   3  337.47   11.69
  -8   0   3  329.86   12.49
  -8   0   3  338.15   11.70
   8   0  -2   51.03    4.83
  -8   0   2   54.66    2.81
  -8   0   2   54.59    2.80
  -8   0   1    8.78    1.57
   8   0  -1    7.64    2.92
  -8   0   0   11.73    1.55
   8   0   0    8.73    2.72
   8   0   1   44.28    3.85
  -8   0  -1   52.87    2.89
  -8   0  -2   77.05    3.69
  -8   0  -3   57.53    2.87
  -8   0  -4    6.91    0.99
  -8   0  -5   17.94    1.15
  -8   1  12    1.90    0.84
  -8   1  11    4.72    1.22
  -8   1  10    3.93    1.03
  -8   1  10    3.24    1.31
   8   1  -9    6.03    1.31
  -8   1   9    4.32    1.02
  -8   1   9    5.21    1.45
   8   1  -8    3.75    1.38
  -8   1   8    5.24    1.02
  -8   1   8    4.35    1.44
   8   1  -7   29.29    2.42
  -8   1   7   30.53    1.85
  -8   1   7   30.77    2.44
   8   1  -6   21.47    2.50
  -8   1   6   22.55    1.58
  -8   1   6   25.47    2.28
  -8   1   5    0.08    0.81
  -8   1   5    1.85    1.47
   8   1  -5    1.31    1.81
  -8   1   4    6.17    1.01
  -8   1   4    6.53    1.06
  -8   1   4    4.22    1.63
   8   1  -4    5.96    2.37
   8   1  -3   50.00    4.27
  -8   1   3   45.47    2.48
  -8   1   3   44.89    3.12
  -8   1   3   45.75    2.36
  -8   1   2    7.21    1.24
   8   1  -2    8.53    2.86
  -8   1   2    8.04    1.18
  -8   1   1   47.73    2.97
   8   1  -1   42.41    4.05
  -8   1   0   12.66    1.55
   8   1   0    9.66    2.60
   8   1   1   27.14    3.23
  -8   1  -1   34.64    2.23
  -8   1  -2   35.33    2.22
  -8   1  -3   26.42    1.77
  -8   1  -4    8.89    0.98
  -8   1  -5   17.69    1.09
  -8   2  11   15.25    1.32
  -8   2  10   16.23    1.48
  -8   2  10   16.18    1.57
  -8   2   9   16.83    1.54
  -8   2   9   17.89    1.79
   8   2  -8   50.47    2.74
  -8   2   8   46.78    2.55
  -8   2   8   50.04    2.93
   8   2  -7   56.11    3.04
  -8   2   7   49.70    2.61
  -8   2   7   56.96    3.19
   8   2  -7   52.53    2.42
   8   2  -6   34.64    2.63
  -8   2   6   35.01    2.04
  -8   2   6   35.66    2.55
   8   2  -6   35.97    1.96
   8   2  -5   91.73    4.75
   8   2  -5   99.84    4.97
  -8   2   5   90.95    3.96
  -8   2   5   97.06    4.59
   8   2  -5   96.48    3.89
   8   2  -4  110.67    5.62
  -8   2   4  111.90    4.55
  -8   2   4  115.56    5.19
   8   2  -4  117.20    4.50
  -8   2   4  105.29    4.35
   8   2  -3  106.34    5.74
  -8   2   3  102.52    4.25
  -8   2   3   99.16    4.04
  -8   2   2   69.72    3.57
   8   2  -2   59.48    4.49
  -8   2   2   65.06    3.17
  -8   2   2   68.98    3.01
  -8   2   1  112.96    4.92
   8   2  -1  101.91    5.99
  -8   2   1  111.30    4.66
  -8   2   1  108.35    4.39
  -8   2   0  157.36    6.20
  -8   2   0  159.82    6.12
  -8   2  -1   21.15    1.71
  -8   2  -2   41.30    2.25
  -8   2  -3   36.00    1.94
  -8   2  -4   26.96    1.45
  -8   3  10    1.15    0.82
  -8   3  10    0.33    0.35
  -8   3   9    3.33    0.89
   8   3  -9    2.91    0.69
  -8   3   8    8.63    1.16
  -8   3   8   11.37    1.46
   8   3  -8    7.88    0.92
   8   3  -7    6.39    1.16
  -8   3   7    4.61    0.96
  -8   3   7    5.46    1.36
   8   3  -7    4.98    0.92
   8   3  -6   21.87    1.75
  -8   3   6   17.51    1.42
  -8   3   6   23.46    2.00
   8   3  -6   17.09    2.58
   8   3  -6   16.34    1.37
   8   3  -5   18.24    1.87
  -8   3   5   17.17    1.43
  -8   3   5   22.75    1.99
   8   3  -5   18.66    1.51
   8   3  -4    4.33    1.50
  -8   3   4    4.82    1.00
   8   3  -4    5.49    1.16
   8   3  -3    5.61    1.17
  -8   3   3    4.29    0.83
  -8   3   2   23.87    1.48
  -8   3   1    7.06    1.02
  -8   3   1    9.14    1.00
  -8   3   0   10.74    1.31
  -8   3   0    9.11    1.10
  -8   3   0    9.26    1.02
  -8   3  -1    5.09    0.85
  -8   3  -1    4.37    0.81
  -8   3  -1    4.61    1.08
  -8   3  -2   18.04    1.35
   8   3   2   18.06    2.37
  -8   3  -2   14.51    0.99
  -8   3  -3   -0.15    0.30
  -8   3  -3   -0.03    0.20
  -8   3  -4   12.26    0.91
   8   4 -10    3.61    0.84
  -8   4  10    3.34    0.76
   8   4  -9    6.31    0.76
   8   4  -8   21.86    1.32
   8   4  -7   44.61    2.15
  -8   4   6   44.20    2.34
   8   4  -6   46.85    3.21
   8   4  -6   45.68    2.27
  -8   4   5   18.79    1.46
   8   4  -5   20.12    2.76
   8   4  -5   17.17    1.53
  -8   4   4   14.34    1.28
   8   4  -4   17.46    2.86
   8   4  -4   13.87    1.42
  -8   4   3    8.91    1.13
   8   4  -3    9.27    2.80
  -8   4   2   45.66    2.40
  -8   4   1  127.48    5.00
   8   4  -1  125.17    5.68
  -8   4   0   35.23    2.00
   8   4   0   38.63    3.01
   8   4   1   36.40    1.89
  -8   4  -1   40.71    2.07
   8   4   1   44.45    2.92
   8   4   2    1.58    0.70
  -8   4  -2    2.15    0.68
   8   4   2    3.03    1.91
   8   4   3    8.20    0.72
  -8   4  -3   10.70    0.75
   8   5  -9    0.96    0.62
  -8   5   9    1.62    0.61
   8   5  -9    0.91    0.44
   8   5  -8    2.18    0.81
  -8   5   8    2.84    0.75
   8   5  -8    2.23    0.63
  -8   5   7   -0.28    0.68
   8   5  -7   -0.02    0.67
  -8   5   6    4.87    0.85
   8   5  -6    3.22    0.85
  -8   5   5    3.65    0.83
   8   5  -5    4.76    2.32
   8   5  -5    3.72    0.98
  -8   5   4    1.89    0.71
   8   5  -4    3.27    0.96
  -8   5   3    2.07    0.75
   8   5  -3    3.11    2.56
  -8   5   2    6.76    0.85
  -8   5   1    7.81    0.86
   8   5  -1   10.36    2.36
   8   5   0    9.17    0.85
  -8   5   0    9.91    0.86
   8   5   1    6.59    0.65
   8   5   1   12.11    1.77
  -8   6   5    0.05    0.25
  -8   6   4   -0.02    0.21
   8   6  -3   29.19    2.41
   8   6  -1    4.71    1.67
  -9  -3   8    1.40    1.00
   9  -3  -7    2.62    1.51
   9  -3  -6    0.99    1.71
   9  -3  -5    2.43    2.09
   9  -3  -4    8.48    2.69
   9  -3  -3    1.96    2.64
  -9  -3   2    1.73    0.69
  -9  -3   2    1.91    0.87
  -9  -3   1   14.02    1.29
  -9  -3   1   11.94    0.99
  -9  -3   0   16.56    1.25
  -9  -3   0   14.53    1.02
  -9  -3  -1    3.66    0.60
  -9  -3  -1    3.87    0.71
  -9  -2  11    8.67    0.92
  -9  -2  10    5.74    1.11
  -9  -2   9    4.64    1.26
   9  -2  -8   16.96    2.02
  -9  -2   8   18.88    1.84
   9  -2  -7   70.38    4.08
  -9  -2   7   76.28    3.87
   9  -2  -6   81.64    4.69
  -9  -2   6   80.24    4.17
   9  -2  -5   56.46    4.18
  -9  -2   4   78.92    3.38
  -9  -2   3   98.23    3.99
  -9  -2   2   62.87    2.84
  -9  -2   1   15.04    1.53
  -9  -2   1   14.88    1.25
  -9  -2   0   31.17    2.04
  -9  -2   0   29.53    1.71
  -9  -2  -1   24.34    1.65
  -9  -2  -1   19.98    1.35
  -9  -2  -2   10.62    1.04
  -9  -2  -2    9.77    0.92
  -9  -2  -3   20.55    1.13
  -9  -2  -3   18.67    1.04
  -9  -1  11    2.03    0.99
  -9  -1  10    3.85    1.21
   9  -1  -9    2.99    1.30
  -9  -1   9    2.82    1.32
   9  -1  -8    2.09    1.40
  -9  -1   8    2.49    1.45
   9  -1  -7    1.74    1.67
  -9  -1   7    1.91    1.45
   9  -1  -6   43.79    3.35
  -9  -1   6   44.99    3.15
   9  -1  -5   10.58    2.36
   9  -1  -5   13.91    2.47
  -9  -1   5   12.03    1.95
  -9  -1   4    2.56    0.97
   9  -1  -4    3.43    2.37
  -9  -1   3   39.66    2.76
   9  -1  -3   45.55    4.24
  -9  -1   3   43.72    2.34
  -9  -1   2   19.33    1.97
   9  -1  -2   16.65    3.23
  -9  -1   2   20.91    1.60
  -9  -1   1   11.98    1.17
  -9  -1   1   13.94    1.35
  -9  -1   0   21.82    1.76
  -9  -1  -1   12.57    1.38
  -9  -1  -2   23.08    1.58
  -9  -1  -3   16.34    1.16
  -9  -1  -4    3.30    0.52
  -9  -1  -4    3.69    0.53
  -9   0  12    1.86    0.75
  -9   0  11   19.86    1.63
  -9   0  10   60.43    3.09
   9   0  -9   79.92    3.65
  -9   0   9   70.88    3.71
   9   0  -8   44.97    2.81
  -9   0   8   43.98    2.86
   9   0  -7    5.80    1.68
  -9   0   7    6.09    1.55
   9   0  -6    0.93    1.91
  -9   0   6    1.16    0.69
  -9   0   6    0.85    1.44
   9   0  -6    1.61    1.58
   9   0  -5   28.03    2.98
  -9   0   5   27.81    1.68
  -9   0   5   28.06    2.54
  -9   0   5   27.54    1.84
   9   0  -4   81.92    5.21
  -9   0   4   80.73    3.54
  -9   0   4   84.16    4.39
  -9   0   4   84.49    3.67
  -9   0   3    2.94    1.03
  -9   0   3    3.07    0.99
   9   0  -3    5.40    2.48
  -9   0   2    3.06    1.06
  -9   0   2    4.42    1.25
  -9   0   2    4.37    1.06
   9   0  -2    3.61    2.39
  -9   0   1   30.30    1.98
  -9   0   1   32.81    2.03
  -9   0   0  107.57    4.60
  -9   0  -1   78.30    3.60
  -9   0  -2   40.12    2.16
  -9   0  -3    3.77    0.76
  -9   0  -4    3.99    0.58
  -9   1  11    0.40    0.88
  -9   1  10    2.08    0.81
  -9   1  10    3.53    1.16
   9   1  -9    1.84    1.18
  -9   1   9    1.26    0.86
  -9   1   9    2.74    1.24
   9   1  -8    0.87    1.23
  -9   1   8    0.30    0.73
  -9   1   8    0.58    1.27
   9   1  -7    1.16    1.49
  -9   1   7    0.62    0.72
  -9   1   7    1.88    1.32
   9   1  -6   43.67    3.11
  -9   1   6   42.46    2.22
  -9   1   6   40.90    2.86
   9   1  -5   13.38    2.30
  -9   1   5   11.58    1.20
  -9   1   5   13.00    1.91
   9   1  -5   12.76    2.31
  -9   1   4    2.50    0.90
  -9   1   4    4.27    0.98
   9   1  -4    4.03    2.12
  -9   1   3   31.59    2.43
   9   1  -3   42.11    3.91
  -9   1   3   40.13    2.26
  -9   1   3   38.58    2.15
  -9   1   2   21.85    2.01
  -9   1   2   23.31    1.73
   9   1  -2   18.40    2.94
  -9   1   2   23.08    1.64
  -9   1   1   12.19    1.42
  -9   1   1   12.42    1.30
  -9   1   0   19.27    1.59
  -9   1  -1   12.49    1.31
  -9   1  -2   23.59    1.55
  -9   1  -3   15.51    1.10
  -9   1  -4    2.56    0.46
  -9   1  -4    2.32    0.45
  -9   1  -4    2.74    0.51
  -9   2  11    7.20    0.90
  -9   2  10    7.18    1.00
  -9   2  10    7.95    1.16
  -9   2   9    5.08    0.96
  -9   2   9    5.07    1.24
   9   2  -8   22.12    1.73
  -9   2   8   19.37    1.47
  -9   2   8   17.64    1.79
   9   2  -7   69.47    3.41
  -9   2   7   60.20    2.94
  -9   2   7   70.93    3.58
   9   2  -6   71.24    3.68
  -9   2   6   64.92    3.06
  -9   2   6   73.95    3.74
   9   2  -6   66.66    2.86
   9   2  -5   53.94    3.43
  -9   2   5   58.40    2.76
  -9   2   5   59.43    3.39
  -9   2   4   87.35    3.67
  -9   2   4   79.10    3.45
  -9   2   3  100.90    4.22
  -9   2   3   98.61    3.99
  -9   2   2   65.54    3.10
  -9   2   2   62.78    2.85
  -9   2   1   15.59    1.43
  -9   2   1   15.01    1.43
  -9   2   1   15.22    1.27
  -9   2   0   27.57    1.87
  -9   2   0   33.80    1.98
  -9   2   0   31.20    1.75
  -9   2  -1   20.34    1.53
  -9   2  -1   19.98    1.45
  -9   2  -1   23.74    1.40
  -9   2  -2   10.67    1.04
  -9   2  -2   10.42    0.95
  -9   2  -2    9.73    0.91
  -9   2  -3   15.87    1.09
  -9   2  -3   18.15    0.99
  -9   2  -3   15.93    0.93
   9   3 -11    0.32    0.51
  -9   3  10    0.76    0.67
  -9   3   9    2.54    0.79
  -9   3   9   -0.09    0.37
  -9   3   8    1.46    0.73
  -9   3   8    0.12    0.68
   9   3  -8    1.03    0.59
   9   3  -7    2.15    0.93
  -9   3   7    2.35    0.81
   9   3  -7    2.25    0.70
   9   3  -6    1.20    1.04
  -9   3   6    0.14    0.67
   9   3  -6    0.89    2.31
   9   3  -6    0.25    0.74
   9   3  -5    2.36    1.24
  -9   3   5    2.37    0.78
   9   3  -4    8.39    1.57
  -9   3   4    8.14    1.05
  -9   3   3    5.19    0.98
  -9   3   2    1.50    0.70
  -9   3   2    2.05    0.74
  -9   3   1   14.66    1.17
  -9   3   1   14.08    1.07
  -9   3   0    0.28    0.40
  -9   3   0   14.07    0.91
  -9   3  -1   -0.03    0.34
  -9   3  -1   -0.02    0.23
  -9   3  -1    3.90    0.80
   9   3   1    4.60    1.98
  -9   3  -2    6.11    0.76
  -9   3  -3    4.95    0.54
  -9   4   9    2.94    0.69
  -9   4   8   13.52    1.09
   9   4  -8   11.65    0.85
   9   4  -7   38.94    1.78
   9   4  -6   21.11    2.15
   9   4  -6   56.35    2.07
  -9   4   5   38.59    2.04
   9   4  -5   46.16    3.07
  -9   4   4   32.93    1.81
   9   4  -4   33.25    2.93
  -9   4   3   94.46    3.88
   9   4  -3  103.59    4.68
  -9   4   2   62.67    2.78
  -9   4   1   40.53    2.05
   9   4  -1   44.38    2.88
  -9   4   0    3.31    0.73
   9   4   0    5.78    1.97
  -9   4  -1    5.11    0.68
   9   4   1    6.92    1.78
  -9   5   8    1.92    0.51
   9   5  -7    0.23    0.29
  -9   5   7    0.66    0.55
  -9   5   6    8.04    0.83
  -9   5   5    5.32    0.74
   9   5  -5    5.27    2.05
  -9   5   4    6.46    0.75
   9   5  -4    7.44    2.15
  -9   5   3    6.20    0.71
   9   5  -3    4.74    2.04
  -9   5   2    7.57    0.71
  -9   5   1    4.65    0.55
   9   5  -1    4.50    1.66
   9   5   0    9.07    1.42
  10  -3  -6    1.53    1.26
  10  -3  -5    3.87    1.60
  10  -3  -4    3.78    1.84
  10  -3  -3   16.27    2.34
 -10  -3   3   23.51    1.37
 -10  -3   2   13.88    1.03
 -10  -2  10    5.79    0.85
 -10  -2   9   14.13    1.36
  10  -2  -8   26.52    2.01
 -10  -2   8   24.62    1.90
  10  -2  -7   28.97    2.32
  10  -2  -6   35.87    2.89
  10  -2  -5   50.46    3.62
  10  -2  -4   36.03    3.31
 -10  -2   3   42.56    2.07
 -10  -2   2   56.24    2.68
 -10  -2   2   52.37    2.38
 -10  -2   1   24.13    1.54
 -10  -2   1   18.02    1.22
 -10  -2   0    1.62    0.60
 -10  -2   0    2.44    0.70
 -10  -2  -1    6.16    0.69
 -10  -2  -1    5.62    0.62
 -10  -1  11    0.87    0.70
 -10  -1  10    3.36    1.02
  10  -1  -9    0.87    1.07
 -10  -1   9    0.54    1.10
  10  -1  -8   13.78    1.65
 -10  -1   8   11.14    1.61
  10  -1  -7   36.17    2.66
 -10  -1   7   35.59    2.59
  10  -1  -6   16.90    2.37
  10  -1  -5    0.25    1.90
 -10  -1   4    5.19    1.00
 -10  -1   3   45.39    2.34
 -10  -1   2   47.47    2.34
 -10  -1   1    8.44    1.09
 -10  -1   1    7.92    0.98
 -10  -1   0   29.13    1.74
 -10  -1   0   25.97    1.52
 -10  -1  -1   29.20    1.60
 -10  -1  -1   28.42    1.48
 -10  -1  -2   12.12    0.85
 -10  -1  -2   10.96    0.80
 -10   0  11   23.04    1.47
 -10   0  10   23.75    1.75
  10   0  -9   48.50    2.51
 -10   0   9   44.60    2.64
  10   0  -8   50.12    2.83
 -10   0   8   49.26    2.90
  10   0  -7   17.94    2.03
 -10   0   7   13.68    1.80
  10   0  -6   27.55    2.56
 -10   0   6   27.74    2.35
  10   0  -5    1.92    1.88
 -10   0   5    0.28    0.61
 -10   0   4   23.47    1.50
 -10   0   4   25.74    1.72
 -10   0   3   54.14    2.59
 -10   0   3   60.99    2.79
 -10   0   2   24.52    1.58
 -10   0   2   27.60    1.73
 -10   0   1   56.53    2.60
 -10   0   1   57.80    2.84
 -10   0   1   62.75    2.72
 -10   0   0   56.51    2.57
 -10   0   0   64.58    2.89
 -10   0   0   63.43    2.66
 -10   0  -1   46.77    2.14
 -10   0  -1   51.10    2.21
 -10   0  -2   23.56    1.21
 -10   0  -2   28.20    1.35
 -10   0  -2   26.68    1.29
 -10   1  11    1.84    0.70
 -10   1  10    3.66    0.98
  10   1  -9    0.18    0.98
 -10   1   9    0.85    0.68
 -10   1   9    0.21    0.99
  10   1  -8   13.60    1.52
 -10   1   8   11.32    1.06
 -10   1   8   11.18    1.52
  10   1  -7   33.92    2.46
 -10   1   7   32.00    1.82
 -10   1   7   34.12    2.36
  10   1  -6   19.07    2.17
 -10   1   6   17.07    1.29
 -10   1   6   15.94    1.82
  10   1  -5   -0.29    1.80
 -10   1   5    0.52    0.79
 -10   1   4    3.44    0.89
 -10   1   4    3.42    0.94
 -10   1   3   43.16    2.32
 -10   1   3   43.21    2.25
 -10   1   2   45.70    2.35
 -10   1   2   47.44    2.30
 -10   1   1    8.67    1.04
 -10   1   1    8.54    1.10
 -10   1   1    9.09    1.01
 -10   1   0   23.91    1.50
 -10   1   0   25.20    1.59
 -10   1   0   25.78    1.46
 -10   1  -1   26.62    1.47
 -10   1  -1   29.40    1.53
 -10   1  -1   28.44    1.44
 -10   1  -2    8.96    0.74
 -10   1  -2   11.42    0.79
 -10   1  -2   10.58    0.74
 -10   2  10    6.42    0.76
 -10   2  10    5.89    0.86
 -10   2   9   14.42    1.15
 -10   2   9   15.68    1.40
  10   2  -8   28.65    1.75
 -10   2   8   23.47    1.52
 -10   2   8   26.11    1.90
  10   2  -7   31.85    2.05
 -10   2   7   30.83    1.77
  10   2  -6   33.59    2.30
 -10   2   6   31.56    1.80
  10   2  -5   50.81    2.95
 -10   2   5   44.55    2.27
  10   2  -4   32.19    2.51
 -10   2   4   38.40    2.03
 -10   2   3   45.86    2.32
 -10   2   3   44.89    2.15
 -10   2   2   58.74    2.70
 -10   2   2   57.17    2.70
 -10   2   2   60.03    2.55
 -10   2   1   20.11    1.40
 -10   2   1   21.94    1.45
 -10   2   1   21.56    1.29
 -10   2   0    2.45    0.61
 -10   2   0    2.45    0.67
 -10   2   0    3.41    0.72
 -10   2  -1    5.03    0.68
  10   2   1    5.00    1.74
 -10   2  -1    5.70    0.61
 -10   2  -1    4.87    0.58
 -10   2  -2    4.91    0.54
 -10   3   9    0.51    0.57
 -10   3   8    2.64    0.71
  10   3  -7   -0.02    0.37
 -10   3   7    3.43    0.73
  10   3  -6    2.28    0.84
 -10   3   6    2.33    0.70
  10   3  -6    1.25    1.43
  10   3  -5    3.56    1.00
 -10   3   5    3.09    0.70
  10   3  -5    4.33    2.23
  10   3  -4    3.08    1.05
 -10   3   4    3.47    0.71
  10   3  -3   22.17    1.47
 -10   3   3   25.21    1.29
 -10   3   2    0.04    0.28
  10   3  -2    3.11    0.86
  10   3  -1    0.03    0.41
 -10   3   1    2.12    0.67
  10   3  -1    2.67    1.90
  10   3   0    6.54    1.71
 -10   4   8    7.01    0.73
 -10   4   7   10.51    0.88
  10   4  -6   -0.15    0.58
  10   4  -5   47.21    2.86
  10   4  -4   29.58    2.44
 -10   4   3   19.74    1.18
 -10   4   2   11.85    0.88
  10   4  -2   13.39    1.90
 -10   4   1   10.32    0.77
  10   4  -1   10.54    1.65
 -10   4   0    4.56    0.46
 -10   5   5    0.60    0.37
 -10   5   4    3.45    0.46
  11  -2  -8   16.41    1.31
  11  -2  -7   17.71    1.53
  11  -2  -6   17.42    1.72
  11  -2  -5   13.96    1.73
  11  -2  -4   31.29    2.37
 -11  -2   4   33.68    1.77
  11  -2  -3   16.73    1.91
 -11  -2   3   23.89    1.35
  11  -2  -2    9.12    1.44
 -11  -2   2   11.48    0.90
  11  -2  -1    6.66    1.10
 -11  -2   1    6.14    0.62
  11  -1  -8    1.20    0.96
  11  -1  -7    4.07    1.27
  11  -1  -6    7.91    1.58
  11  -1  -5    7.14    1.66
  11  -1  -4   15.48    1.94
 -11  -1   3    1.35    0.77
 -11  -1   2   18.27    1.29
 -11  -1   2   18.29    1.14
 -11  -1   1   16.35    1.10
 -11  -1   1   14.68    0.96
 -11  -1   0    4.76    0.60
 -11  -1   0    4.47    0.54
  11   0  -9   10.16    1.11
  11   0  -8   21.82    1.64
  11   0  -7    5.67    1.36
  11   0  -6    7.23    1.60
  11   0  -5   25.82    2.26
  11   0  -4    1.91    1.37
 -11   0   3   13.04    1.22
 -11   0   3   14.80    1.14
 -11   0   2   19.13    1.08
 -11   0   2   21.66    1.41
 -11   0   1   41.36    1.80
 -11   0   1   38.42    1.65
 -11   0   0   16.61    1.00
 -11   0   0   15.08    0.92
 -11   0  -1    9.04    0.56
  11   1  -8    0.99    0.89
  11   1  -7    3.32    1.12
 -11   1   7    2.29    0.61
  11   1  -6    6.64    1.38
 -11   1   6    6.53    0.77
  11   1  -5    4.26    1.41
 -11   1   5    4.22    0.71
  11   1  -4   15.42    1.77
 -11   1   4   17.97    1.17
 -11   1   3    1.42    0.70
 -11   1   3    2.02    0.60
 -11   1   2   18.03    1.12
 -11   1   2   19.59    1.26
 -11   1   2   18.25    1.14
 -11   1   1   13.32    0.89
 -11   1   1   15.64    1.03
 -11   1   1   14.32    0.92
 -11   1   0    4.52    0.49
 -11   1   0    4.18    0.54
 -11   1   0    4.89    0.52
  11   2  -8   15.75    1.09
 -11   2   8   16.82    1.04
  11   2  -7   17.88    1.30
 -11   2   7   18.10    1.15
  11   2  -6   14.37    1.24
 -11   2   6   15.97    1.01
  11   2  -5   13.46    1.38
 -11   2   5   14.35    1.04
  11   2  -4   33.37    2.01
 -11   2   4   33.89    1.65
 -11   2   4   31.45    1.66
 -11   2   3   21.87    1.23
 -11   2   3   20.75    1.23
  11   2  -2    9.17    1.12
 -11   2   2   11.72    0.88
 -11   2   2   11.71    0.86
  11   2  -1    6.12    0.86
 -11   2   1    6.28    0.60
 -11   2   0    2.96    0.40
 -11   3   8    0.21    0.40
 -11   3   7    2.23    0.55
 -11   3   6    1.11    0.51
 -11   3   5    3.89    0.59
  11   3  -5    3.92    1.63
 -11   3   4   11.06    0.82
  11   3  -4   10.53    1.76
 -11   3   3    4.11    0.57
 -11   3   2    6.04    0.58
  11   3  -2    3.68    1.43
 -11   3   1    0.99    0.32
 -11   4   6   13.57    0.76
  12  -1  -7    1.11    0.66
  12  -1  -6    2.61    0.77
 -12  -1   5    4.20    0.61
  12  -1  -5    3.74    0.84
  12  -1  -4    5.35    0.84
 -12  -1   4    6.24    0.66
 -12  -1   3    1.60    0.46
  12  -1  -3    1.71    0.64
  12   0  -8    5.27    0.71
  12   0  -7   35.99    1.75
  12   0  -6   27.66    1.57
  12   0  -5   33.57    1.82
 -12   0   5   34.52    1.66
  12   0  -4   11.41    1.07
 -12   0   4   15.23    0.96
  12   0  -3   11.78    1.04
 -12   0   3   16.78    0.97
  12   0  -2    2.86    0.57
  12   1  -7    0.42    0.57
  12   1  -6    1.66    0.71
  12   1  -5    3.42    0.76
 -12   1   5    4.05    0.57
  12   1  -4    5.52    0.83
 -12   1   4    6.08    0.60
 -12   1   3    1.56    0.38
  12   1  -3    1.39    0.55
   0   0   0    0.00    0.00
;
_shelx_hkl_checksum              65326
loop_
_space_group_symop_operation_xyz
'x, y, z'
'-x, y+1/2, -z'
loop_
_atom_site_label
_atom_site_type_symbol
_atom_site_fract_x
_atom_site_fract_y
_atom_site_fract_z
_atom_site_U_iso_or_equiv
_atom_site_adp_type
_atom_site_occupancy
_atom_site_site_symmetry_order
_atom_site_calc_flag
_atom_site_refinement_flags_posn
_atom_site_refinement_flags_adp
_atom_site_refinement_flags_occupancy
_atom_site_disorder_assembly
_atom_site_disorder_group
C1 C 0.4499(8) 0.7104(14) 0.6076(8) 0.0479(19) Uani 1 1 d . . . . .
H1A H 0.3719 0.6191 0.5983 0.057 Uiso 1 1 calc R U . . .
H1B H 0.4105 0.8413 0.5990 0.057 Uiso 1 1 calc R U . . .
C2 C 0.5170(10) 0.7093(16) 0.8574(9) 0.057(2) Uani 1 1 d . . . . .
H2A H 0.4529 0.6009 0.8538 0.069 Uiso 1 1 calc R U . . .
H2B H 0.4601 0.8284 0.8417 0.069 Uiso 1 1 calc R U . . .
C3 C 0.6405(9) 0.4864(12) 0.7568(8) 0.048(2) Uani 1 1 d . . . . .
H3A H 0.6905 0.4763 0.6944 0.058 Uiso 1 1 calc R U . . .
H3B H 0.5631 0.3891 0.7294 0.058 Uiso 1 1 calc R U . . .
C4 C 0.6902(9) 0.8395(13) 0.7658(10) 0.060(3) Uani 1 1 d . . . . .
H4A H 0.6529 0.9668 0.7751 0.072 Uiso 1 1 calc R U . . .
H4B H 0.7159 0.8419 0.6857 0.072 Uiso 1 1 calc R U . . .
C5 C 0.6455(12) 0.7163(17) 0.9999(10) 0.069(3) Uani 1 1 d . . . . .
H5A H 0.6603 0.8487 1.0352 0.083 Uiso 1 1 calc R U . . .
H5B H 0.6246 0.6351 1.0655 0.083 Uiso 1 1 calc R U . . .
C6 C 0.7505(10) 0.4506(13) 0.9083(10) 0.055(2) Uani 1 1 d . . . . .
H6 H 0.8422 0.3977 0.9083 0.066 Uiso 1 1 calc R U . . .
C7 C 0.8268(9) 0.787(2) 0.9001(10) 0.070(3) Uani 1 1 d . . . . .
H7A H 0.9023 0.7304 0.8753 0.084 Uiso 1 1 calc R U . . .
H7B H 0.8668 0.9045 0.9542 0.084 Uiso 1 1 calc R U . . .
C8 C 0.7829(10) 0.6443(15) 0.9866(9) 0.058(2) Uani 1 1 d . . . . .
H8 H 0.8633 0.6289 1.0795 0.070 Uiso 1 1 calc R U . . .
F1 F 0.4993(6) 0.6776(10) 0.5060(5) 0.0695(15) Uani 1 1 d . . . . .
N1 N -0.1965(7) 0.7117(10) 0.4110(7) 0.0403(14) Uani 1 1 d . . . . .
N2 N 0.0901(7) 0.7120(12) 0.3873(8) 0.0514(18) Uani 1 1 d . . . . .
N3 N 0.0838(7) 0.6969(10) 0.6786(6) 0.0441(16) Uani 1 1 d . . . . .
N4 N 0.5750(6) 0.6859(9) 0.7461(6) 0.0357(13) Uani 1 1 d . . . . .
Ni1 Ni -0.00880(12) 0.5411(3) 0.48952(12) 0.0348(3) Uani 1 1 d . . . . .
O1 O -0.3216(6) 0.6479(9) 0.3443(7) 0.0567(15) Uani 1 1 d . . . . .
O2 O 0.1314(8) 0.6082(9) 0.7892(6) 0.0696(19) Uani 1 1 d . . . . .
O3 O -0.0949(6) 0.3771(9) 0.3108(6) 0.0504(14) Uani 1 1 d . . . . .
O4 O 0.1881(6) 0.3934(8) 0.5697(6) 0.0495(15) Uani 1 1 d . . . . .
O5 O -0.1153(6) 0.3880(10) 0.5897(7) 0.0532(15) Uani 1 1 d . . . . .
O6 O 0.1401(7) 0.6429(9) 0.3045(7) 0.0605(16) Uani 1 1 d . . . . .
O7 O 0.6857(8) 0.3108(14) 0.9657(7) 0.0759(19) Uani 1 1 d . . . . .
H7 H 0.7461 0.2769 1.0430 0.114 Uiso 1 1 calc R U . . .
loop_
_atom_site_aniso_label
_atom_site_aniso_U_11
_atom_site_aniso_U_22
_atom_site_aniso_U_33
_atom_site_aniso_U_23
_atom_site_aniso_U_13
_atom_site_aniso_U_12
C1 0.042(4) 0.047(4) 0.044(4) 0.006(4) 0.007(3) 0.004(4)
C2 0.053(5) 0.068(6) 0.061(5) -0.002(5) 0.034(4) 0.004(4)
C3 0.053(4) 0.044(5) 0.037(4) 0.002(3) 0.009(3) 0.010(4)
C4 0.047(4) 0.059(7) 0.064(6) 0.001(4) 0.014(4) -0.025(4)
C5 0.090(7) 0.074(7) 0.044(5) -0.013(5) 0.028(5) -0.012(6)
C6 0.046(4) 0.056(5) 0.050(5) 0.011(4) 0.007(4) 0.009(4)
C7 0.048(4) 0.079(6) 0.066(6) 0.005(6) 0.005(4) -0.023(5)
C8 0.049(5) 0.073(6) 0.036(4) -0.003(4) 0.000(4) -0.009(4)
F1 0.075(3) 0.087(4) 0.037(3) 0.010(3) 0.012(2) 0.008(3)
N1 0.042(3) 0.039(4) 0.038(3) 0.001(3) 0.014(3) -0.001(3)
N2 0.038(3) 0.049(5) 0.053(4) 0.012(4) 0.005(3) 0.003(3)
N3 0.052(4) 0.038(4) 0.030(3) 0.007(3) 0.004(3) 0.002(3)
N4 0.034(3) 0.030(3) 0.040(3) 0.001(3) 0.012(2) 0.000(3)
Ni1 0.0333(5) 0.0272(5) 0.0391(6) 0.0024(6) 0.0098(4) -0.0011(5)
O1 0.031(3) 0.058(4) 0.072(4) -0.010(3) 0.011(3) -0.012(2)
O2 0.090(5) 0.057(4) 0.036(3) 0.008(3) 0.000(3) -0.003(3)
O3 0.060(4) 0.037(4) 0.044(3) 0.000(3) 0.011(3) 0.002(3)
O4 0.036(3) 0.033(3) 0.069(4) 0.004(3) 0.011(3) -0.008(2)
O5 0.047(3) 0.043(4) 0.068(4) -0.001(3) 0.021(3) -0.002(3)
O6 0.066(4) 0.060(4) 0.073(4) -0.014(3) 0.045(3) 0.002(3)
O7 0.077(4) 0.068(4) 0.059(4) 0.023(4) 0.004(3) -0.005(4)
loop_
_atom_type_symbol
_atom_type_description
_atom_type_scat_dispersion_real
_atom_type_scat_dispersion_imag
_atom_type_scat_source
C C 0.0181 0.0091 'International Tables Vol C Tables 4.2.6.8 and 6.1.1.4'
H H 0.0000 0.0000 'International Tables Vol C Tables 4.2.6.8 and 6.1.1.4'
N N 0.0311 0.0180 'International Tables Vol C Tables 4.2.6.8 and 6.1.1.4'
O O 0.0492 0.0322 'International Tables Vol C Tables 4.2.6.8 and 6.1.1.4'
F F 0.0727 0.0534 'International Tables Vol C Tables 4.2.6.8 and 6.1.1.4'
Ni Ni -3.0029 0.5091 'International Tables Vol C Tables 4.2.6.8 and 6.1.1.4'
loop_
_geom_angle_atom_site_label_1
_geom_angle_atom_site_label_2
_geom_angle_atom_site_label_3
_geom_angle
_geom_angle_site_symmetry_1
_geom_angle_site_symmetry_3
_geom_angle_publ_flag
F1 C1 N4 108.6(6) . . ?
N4 C2 C5 109.3(7) . . ?
N4 C3 C6 109.2(6) . . ?
N4 C4 C7 107.4(7) . . ?
C8 C5 C2 109.2(7) . . ?
O7 C6 C8 113.4(8) . . ?
O7 C6 C3 106.9(7) . . ?
C8 C6 C3 108.7(7) . . ?
C8 C7 C4 109.5(7) . . ?
C5 C8 C7 109.4(9) . . ?
C5 C8 C6 109.5(8) . . ?
C7 C8 C6 107.2(8) . . ?
O1 N1 O4 115.4(7) . 2_556 ?
O1 N1 Ni1 124.1(6) . . ?
O4 N1 Ni1 120.5(5) 2_556 . ?
O5 N2 O6 113.5(8) 2_556 . ?
O5 N2 Ni1 123.4(7) 2_556 . ?
O6 N2 Ni1 122.9(6) . . ?
O2 N3 O3 115.3(7) . 2_556 ?
O2 N3 Ni1 119.3(6) . . ?
O3 N3 Ni1 125.4(5) 2_556 . ?
C1 N4 C3 110.0(6) . . ?
C1 N4 C2 108.1(6) . . ?
C3 N4 C2 109.3(7) . . ?
C1 N4 C4 109.9(6) . . ?
C3 N4 C4 110.3(6) . . ?
C2 N4 C4 109.1(7) . . ?
O3 Ni1 O4 94.3(3) . . ?
O3 Ni1 O5 94.2(3) . . ?
O4 Ni1 O5 98.1(3) . . ?
O3 Ni1 N1 88.6(2) . . ?
O4 Ni1 N1 175.0(3) . . ?
O5 Ni1 N1 85.7(3) . . ?
O3 Ni1 N2 87.2(3) . . ?
O4 Ni1 N2 85.3(3) . . ?
O5 Ni1 N2 176.2(4) . . ?
N1 Ni1 N2 90.8(3) . . ?
O3 Ni1 N3 177.2(3) . . ?
O4 Ni1 N3 83.6(3) . . ?
O5 Ni1 N3 84.3(3) . . ?
N1 Ni1 N3 93.6(3) . . ?
N2 Ni1 N3 94.5(3) . . ?
N3 O3 Ni1 118.5(5) 2_546 . ?
N1 O4 Ni1 122.9(5) 2_546 . ?
N2 O5 Ni1 119.6(6) 2_546 . ?
loop_
_geom_bond_atom_site_label_1
_geom_bond_atom_site_label_2
_geom_bond_distance
_geom_bond_site_symmetry_2
_geom_bond_publ_flag
C1 F1 1.359(10) . ?
C1 N4 1.484(9) . ?
C2 N4 1.503(10) . ?
C2 C5 1.517(14) . ?
C3 N4 1.501(10) . ?
C3 C6 1.534(12) . ?
C4 N4 1.508(10) . ?
C4 C7 1.546(13) . ?
C5 C8 1.510(14) . ?
C6 O7 1.418(12) . ?
C6 C8 1.527(13) . ?
C7 C8 1.515(15) . ?
N1 O1 1.232(8) . ?
N1 O4 1.261(7) 2_556 ?
N1 Ni1 2.068(7) . ?
N2 O5 1.238(9) 2_556 ?
N2 O6 1.253(10) . ?
N2 Ni1 2.084(8) . ?
N3 O2 1.219(8) . ?
N3 O3 1.244(7) 2_556 ?
N3 Ni1 2.103(7) . ?
Ni1 O3 2.048(6) . ?
Ni1 O4 2.054(6) . ?
Ni1 O5 2.055(7) . ?
O3 N3 1.244(7) 2_546 ?
O4 N1 1.261(7) 2_546 ?
O5 N2 1.238(9) 2_546 ?
loop_
_geom_torsion_atom_site_label_1
_geom_torsion_atom_site_label_2
_geom_torsion_atom_site_label_3
_geom_torsion_atom_site_label_4
_geom_torsion
_geom_torsion_site_symmetry_1
_geom_torsion_site_symmetry_2
_geom_torsion_site_symmetry_3
_geom_torsion_site_symmetry_4
_geom_torsion_publ_flag
N4 C2 C5 C8 -15.1(12) . . . . ?
N4 C3 C6 O7 109.2(8) . . . . ?
N4 C3 C6 C8 -13.5(10) . . . . ?
N4 C4 C7 C8 -17.3(12) . . . . ?
C2 C5 C8 C7 67.3(11) . . . . ?
C2 C5 C8 C6 -49.9(11) . . . . ?
C4 C7 C8 C5 -48.1(12) . . . . ?
C4 C7 C8 C6 70.6(11) . . . . ?
O7 C6 C8 C5 -52.0(10) . . . . ?
C3 C6 C8 C5 66.7(10) . . . . ?
O7 C6 C8 C7 -170.6(7) . . . . ?
C3 C6 C8 C7 -51.9(10) . . . . ?
F1 C1 N4 C3 -57.0(9) . . . . ?
F1 C1 N4 C2 -176.3(7) . . . . ?
F1 C1 N4 C4 64.7(9) . . . . ?
C6 C3 N4 C1 -170.0(7) . . . . ?
C6 C3 N4 C2 -51.5(9) . . . . ?
C6 C3 N4 C4 68.6(9) . . . . ?
C5 C2 N4 C1 -171.3(8) . . . . ?
C5 C2 N4 C3 69.0(9) . . . . ?
C5 C2 N4 C4 -51.7(10) . . . . ?
C7 C4 N4 C1 -171.4(8) . . . . ?
C7 C4 N4 C3 -50.0(10) . . . . ?
C7 C4 N4 C2 70.2(9) . . . . ?
