#------------------------------------------------------------------------------
#$Date: 2020-03-04 01:49:04 +0200 (Wed, 04 Mar 2020) $
#$Revision: 248665 $
#$URL: file:///home/coder/svn-repositories/cod/cif/4/13/43/4134320.cif $
#------------------------------------------------------------------------------
#
# This file is available in the Crystallography Open Database (COD),
# http://www.crystallography.net/
#
# All data on this site have been placed in the public domain by the
# contributors.
#
data_4134320
loop_
_publ_author_name
'Zhou, Jinjie'
'Wu, Hongping'
'Yu, Hongwei'
'Jiang, Shutong'
'Hu, Zhanggui'
'Wang, Jiyang'
'Wu, Yicheng'
'Halasyamani, P. Shiv'
_publ_section_title
;
 BaF<sub>2</sub>TeF<sub>2</sub>(OH)<sub>2</sub>: A UV Nonlinear Optical
 Fluorotellurite Material Designed by Band-Gap Engineering.
;
_journal_name_full               'Journal of the American Chemical Society'
_journal_paper_doi               10.1021/jacs.0c00702
_journal_year                    2020
_chemical_formula_sum            'Ba0.5 F2 H O Te0.5'
_chemical_formula_weight         187.48
_space_group_crystal_system      orthorhombic
_space_group_IT_number           31
_space_group_name_Hall           'P 2ac -2'
_space_group_name_H-M_alt        'P m n 21'
_atom_sites_solution_hydrogens   difmap
_audit_creation_method           SHELXL-2018/3
_cell_angle_alpha                90
_cell_angle_beta                 90
_cell_angle_gamma                90
_cell_formula_units_Z            4
_cell_length_a                   7.5013(4)
_cell_length_b                   8.6517(4)
_cell_length_c                   4.2142(2)
_cell_measurement_reflns_used    2354
_cell_measurement_temperature    300(2)
_cell_measurement_theta_max      27.50
_cell_measurement_theta_min      3.59
_cell_volume                     273.50(2)
_computing_structure_refinement  'SHELXL-2018/3 (Sheldrick, 2018)'
_computing_structure_solution    'SHELXT 2014/5 (Sheldrick, 2014)'
_diffrn_ambient_temperature      300(2)
_diffrn_measured_fraction_theta_full 0.994
_diffrn_measured_fraction_theta_max 0.995
_diffrn_measurement_device_type  'Bruker APEX-II CCD'
_diffrn_measurement_method       '\f and \w scans'
_diffrn_radiation_type           MoK\a
_diffrn_radiation_wavelength     0.71073
_diffrn_reflns_av_R_equivalents  0.0366
_diffrn_reflns_av_unetI/netI     0.0307
_diffrn_reflns_Laue_measured_fraction_full 0.994
_diffrn_reflns_Laue_measured_fraction_max 0.995
_diffrn_reflns_limit_h_max       9
_diffrn_reflns_limit_h_min       -9
_diffrn_reflns_limit_k_max       10
_diffrn_reflns_limit_k_min       -11
_diffrn_reflns_limit_l_max       5
_diffrn_reflns_limit_l_min       -5
_diffrn_reflns_number            2822
_diffrn_reflns_point_group_measured_fraction_full 0.985
_diffrn_reflns_point_group_measured_fraction_max 0.975
_diffrn_reflns_theta_full        25.242
_diffrn_reflns_theta_max         27.496
_diffrn_reflns_theta_min         2.354
_exptl_absorpt_coefficient_mu    12.492
_exptl_absorpt_correction_type   none
_exptl_crystal_colour            transparent
_exptl_crystal_density_diffrn    4.553
_exptl_crystal_description       slice
_exptl_crystal_F_000             324
_exptl_crystal_size_max          0.035
_exptl_crystal_size_mid          0.030
_exptl_crystal_size_min          0.027
_refine_diff_density_max         1.918
_refine_diff_density_min         -1.044
_refine_diff_density_rms         0.222
_refine_ls_abs_structure_details
;
 Flack x determined using 274 quotients [(I+)-(I-)]/[(I+)+(I-)]
 (Parsons, Flack and Wagner, Acta Cryst. B69 (2013) 249-259).
;
_refine_ls_abs_structure_Flack   0.02(3)
_refine_ls_extinction_coef       0.011(2)
_refine_ls_extinction_expression Fc^*^=kFc[1+0.001xFc^2^\l^3^/sin(2\q)]^-1/4^
_refine_ls_extinction_method     'SHELXL-2018/3 (Sheldrick 2018)'
_refine_ls_goodness_of_fit_ref   1.011
_refine_ls_hydrogen_treatment    constr
_refine_ls_matrix_type           full
_refine_ls_number_parameters     44
_refine_ls_number_reflns         662
_refine_ls_number_restraints     2
_refine_ls_restrained_S_all      1.009
_refine_ls_R_factor_all          0.0201
_refine_ls_R_factor_gt           0.0200
_refine_ls_shift/su_max          0.000
_refine_ls_shift/su_mean         0.000
_refine_ls_structure_factor_coef Fsqd
_refine_ls_weighting_details
'w=1/[\s^2^(Fo^2^)+(0.0314P)^2^+0.6534P] where P=(Fo^2^+2Fc^2^)/3'
_refine_ls_weighting_scheme      calc
_refine_ls_wR_factor_gt          0.0521
_refine_ls_wR_factor_ref         0.0522
_reflns_Friedel_coverage         0.728
_reflns_Friedel_fraction_full    0.974
_reflns_Friedel_fraction_max     0.949
_reflns_number_gt                654
_reflns_number_total             662
_reflns_threshold_expression     'I > 2\s(I)'
_cod_data_source_file            ja0c00702_si_002.cif
_cod_data_source_block           1_b
_cod_original_formula_sum        'Ba0.50 H F2 O  Te0.50'
_cod_database_code               4134320
_shelx_shelxl_version_number     2018/3
_shelx_space_group_comment
;
The symmetry employed for this shelxl refinement is uniquely defined
by the following loop, which should always be used as a source of
symmetry information in preference to the above space-group names.
They are only intended as comments.
;
_shelx_res_file
;
TITL 1_b.res in Pmn2(1)
    1_b.res
    created by SHELXL-2018/3 at 20:51:44 on 02-Nov-2019
REM Old TITL 1 in Pmn2(1)
REM SHELXT solution in Pmn2(1)
REM R1 0.040,  Rweak 0.012,  Alpha 0.002,  Orientation a'=c, b'=-b, c'=a
REM Flack x = -0.023 ( 0.055 ) from Parsons' quotients
REM Formula found by SHELXT:  F O2 Te
CELL  0.71073   7.5013   8.6517   4.2142   90.000   90.000   90.000
ZERR    4.000   0.0004   0.0004   0.0002    0.000    0.000    0.000
LATT -1
SYMM 1/2-X, -Y, 1/2+Z
SYMM 1/2+X, -Y, 1/2+Z
SYMM -X, Y, Z
SFAC F O SR TE Ba H
UNIT 8 4 0 2 2 4
TEMP 26.850
L.S. 10
BOND $H
LIST 4
DFIX 0.96 O1 H1
ACTA
FMAP 2
PLAN 50
WGHT    0.031400    0.653400
EXTI    0.010926
FVAR       0.62614
BA1   5    1.000000    0.951553    0.747100    10.50000    0.01174    0.01352 =
         0.01159   -0.00046    0.00000    0.00000
O1    2    0.686216    0.613001    0.271814    11.00000    0.02419    0.01374 =
         0.02147   -0.00207    0.00565   -0.00129
TE1   4    0.500000    0.563103    0.555074    10.50000    0.01622    0.01021 =
         0.01500    0.00086    0.00000    0.00000
F1    1    0.799204    0.883159    0.246580    11.00000    0.01736    0.01442 =
         0.01821    0.00175   -0.00074   -0.00073
F3    1    0.500000    0.364536    0.323769    10.50000    0.03164    0.00971 =
         0.03185   -0.00474    0.00000    0.00000
F2    1    0.500000    0.793540    0.671062    10.50000    0.02829    0.01764 =
         0.02396   -0.00145    0.00000    0.00000
AFIX   3
H1    6    0.701012    0.578542    0.057278    11.00000   -1.20000
REM #####
REM #####
REM #####
REM #####
AFIX   0
HKLF 4




REM  1_b.res in Pmn2(1)
REM wR2 = 0.052199, GooF = S = 1.01064, Restrained GooF = 1.00901 for all data
REM R1 = 0.019961 for 654 Fo > 4sig(Fo) and 0.020132 for all 662 data
REM 44 parameters refined using 2 restraints

END

WGHT      0.0240      0.4615

REM Highest difference peak  1.918,  deepest hole -1.044,  1-sigma level  0.222
Q1    1   0.5000  0.5678  0.9196  10.50000  0.05    1.92
Q2    1   1.0000  0.9386  0.3895  10.50000  0.05    1.66
Q3    1   0.4573  0.4477  0.7629  11.00000  0.05    0.61
Q4    1   1.0000  1.0423  0.5790  10.50000  0.05    0.58
Q5    1   0.5000  0.6936  0.8000  10.50000  0.05    0.58
Q6    1   1.0000  0.8388  0.5788  10.50000  0.05    0.56
Q7    1   0.7176  0.7193  0.2658  11.00000  0.05    0.56
Q8    1   1.0902  1.0823  0.7482  11.00000  0.05    0.55
Q9    1   0.4177  0.4238  0.5657  11.00000  0.05    0.54
Q10   1   0.5000  0.4324  0.2127  10.50000  0.05    0.53
Q11   1   0.5000  0.9276  0.8613  10.50000  0.05    0.52
Q12   1   1.0000  1.0417  0.9068  10.50000  0.05    0.51
Q13   1   0.6456  0.4161  0.1049  11.00000  0.05    0.51
Q14   1   0.5000  0.4368 -0.0781  10.50000  0.05    0.49
Q15   1   1.0000  0.7933  0.7340  10.50000  0.05    0.48
Q16   1   1.1194  1.0565  0.9724  11.00000  0.05    0.47
Q17   1   0.5000  0.7029  0.2016  10.50000  0.05    0.45
Q18   1   0.8357  0.5876  0.2564  11.00000  0.05    0.44
Q19   1   0.7744  0.7594  0.0512  11.00000  0.05    0.42
Q20   1   0.8486  0.8194  0.2341  11.00000  0.05    0.42
Q21   1   0.6022  0.6637  0.3214  11.00000  0.05    0.41
Q22   1   0.5000  0.9010  0.6450  10.50000  0.05    0.40
Q23   1   0.3640  0.4235  0.2946  11.00000  0.05    0.38
Q24   1   1.0000  0.8149  0.1084  10.50000  0.05    0.38
Q25   1   0.8956  0.8421 -0.0235  11.00000  0.05    0.37
Q26   1   0.3626  0.9258  0.6723  11.00000  0.05    0.36
Q27   1   0.4432  0.7044  0.5583  11.00000  0.05    0.35
Q28   1   0.3440  0.7152  0.7877  11.00000  0.05    0.34
Q29   1   1.0000  0.8108  0.4008  10.50000  0.05    0.32
Q30   1   0.6899  0.6635  0.0501  11.00000  0.05    0.31
Q31   1   1.1429  0.9682  0.8369  11.00000  0.05    0.30
Q32   1   0.6593  0.9234  0.0580  11.00000  0.05    0.30
Q33   1   0.3713  0.7798  0.5937  11.00000  0.05    0.29
Q34   1   0.7046  0.9176 -0.0820  11.00000  0.05    0.27
Q35   1   0.3989  0.6346  0.7650  11.00000  0.05    0.26
Q36   1   0.8093  0.8049  0.5295  11.00000  0.05    0.26
Q37   1   0.7759  0.6192  0.0884  11.00000  0.05    0.25
Q38   1   0.4257  0.2350  0.4319  11.00000  0.05    0.21
Q39   1   1.1460  0.9588  0.6805  11.00000  0.05    0.19
Q40   1   0.3829  0.5605  0.6578  11.00000  0.05    0.19
Q41   1   0.5000  0.8054  0.8434  10.50000  0.05    0.18
Q42   1   0.3922  0.2842  0.1784  11.00000  0.05    0.18
Q43   1   0.7337  0.5983  0.6151  11.00000  0.05    0.14
Q44   1   0.6403  0.5628  0.4827  11.00000  0.05    0.14
Q45   1   0.2475  0.7636  0.7486  11.00000  0.05    0.07
Q46   1   0.5000  0.5812  0.1936  10.50000  0.05    0.06
Q47   1   0.7526  0.5616 -0.1904  11.00000  0.05    0.02
;
_shelx_res_checksum              27340
_shelx_hkl_file
;
   0   0   1    4.00    0.90
   0   0   1    2.40    0.90
   0   0  -1    3.20    1.00
   0   0   2 3311.97  127.79
   0   0   2 3158.78  127.09
   0   0   2 3070.39  126.49
   0   0  -2 2998.80  127.79
   0   0  -3    3.70    3.70
   0   0   3    2.90    1.30
   0   0   3    2.40    1.10
   0   0   4 2572.14  102.59
   0   0   4 2337.37  100.29
   0   0   4 2460.95  100.89
   0   0  -4 2323.67  128.89
   0   0   5   -3.00    1.20
   1   0   0    1.30    0.40
   1   0   0    1.20    0.30
   1   0   0    0.40    0.70
  -1   0   0    1.30    0.40
  -1   0  -1 4466.55  191.28
   1   0   1 4626.24  192.08
   1   0   2    1.00    0.60
   1   0  -2    1.70    1.20
  -1   0   2    1.50    0.80
  -1   0  -2   -0.50    1.70
   1   0  -2    6.10    1.50
  -1   0   2    1.70    0.70
   1   0   2    2.00    1.00
  -1   0   3 4599.74  190.28
   1   0   3 4464.75  191.98
   1   0   3 5083.69  191.18
   1   0   3 4493.55  193.48
  -1   0   3 4970.90  189.28
  -1   0   3 4667.03  189.08
  -1   0  -3 4727.53  215.98
  -1   0  -4    4.50    5.30
  -1   0   4   -0.70    0.70
  -1   0   4    1.40    1.20
   1   0   4    6.70    2.30
   1   0   4    1.40    1.50
  -1   0   4    2.00    0.90
   1   0   5   26.60    4.40
   1   0   5   34.30    5.90
  -1   0   5   36.20    5.80
  -2   0   1    3.60    1.00
   2   0  -1    3.90    1.90
   2   0  -1    2.30    0.70
   2   0   1    3.10    2.30
   2   0   1    2.10    0.70
  -2   0  -2  968.60   56.79
   2   0   2  796.22   39.20
   2   0   2  814.82   39.80
  -2   0   2  861.71   38.30
   2   0  -2  939.81   41.40
   2   0  -2 1025.30   39.50
  -2   0   2  877.21   37.20
   2   0   3    0.80    1.30
  -2   0  -3   -1.00    3.40
  -2   0   3    0.70    0.60
  -2   0   3    1.00    0.80
   2   0   4 1102.59   51.89
  -2   0   4 1161.98   49.90
  -2   0  -4 1128.79   79.09
   2   0   4 1047.80   53.19
  -2   0   5   -0.90    1.50
   2   0   5   -0.70    2.00
   2   0   5   -3.60    2.10
  -3   0   0    1.40    0.60
   3   0   0    3.20    1.20
  -3   0   0    0.50    0.40
   3   0   0    0.10    2.20
  -3   0   0    2.10    2.50
   3   0   1 3317.77  145.29
   3   0  -1 3116.59  139.19
  -3   0   1 3194.38  125.29
  -3   0  -1 3059.09  126.29
   3   0  -1 2998.50  124.99
   3   0   1 3139.89  124.89
  -3   0   1 3097.89  124.49
  -3   0   1 2909.61  139.99
   3   0  -1 3135.39  125.19
   3   0   1 2986.60  132.89
  -3   0  -1 3106.09  143.69
   3   0   2    5.20    4.10
  -3   0   2    1.40    0.70
   3   0   2    4.50    1.10
   3   0  -2    0.00    0.80
   3   0  -2    5.20    4.00
  -3   0   2    0.60    0.60
  -3   0  -2   -1.60    2.00
  -3   0  -3 4275.17  204.48
  -3   0   3 4201.08  173.28
   3   0   3 4335.77  176.98
  -3   0  -4   -2.30    7.60
   3   0   4    0.10    1.50
   3   0  -4  -13.20    6.30
  -3   0   4    1.80    1.20
  -3   0   5   47.70    6.10
   3   0   5   55.99    8.50
   3   0   5   61.69    8.40
   3   0  -5   43.20   20.80
   4   0   0 9065.99  374.26
   4   0   0 9999.00  395.96
  -4   0   0 9168.48  394.16
  -4   0  -1    0.80    2.70
  -4   0   1    0.60    0.50
  -4   0   1    1.10    1.00
   4   0  -1    2.30    0.90
   4   0  -1    4.00    3.50
   4   0   1    1.10    0.90
   4   0  -1    2.30    1.00
   4   0   1   -0.20    2.60
  -4   0   1   -3.00    1.80
   4   0  -2  892.01   41.20
   4   0   2  879.51   63.29
   4   0  -2  965.00   57.99
  -4   0   2  942.31   39.20
  -4   0   2  937.31   41.40
  -4   0  -2  972.80   64.89
  -4   0  -3   -1.20    5.20
   4   0   3    1.00    1.70
   4   0  -3   -2.20    4.10
  -4   0   3   -0.40    0.70
   4   0  -4 1389.26   87.79
   4   0   4 1329.17   65.69
  -4   0   4 1364.36   60.59
  -5   0   0   -0.40    4.00
  -5   0   0    1.50    0.80
  -5   0   0    1.10    0.90
   5   0   0    7.40    5.50
  -5   0   1 1954.60  103.09
   5   0   1 1881.21  104.49
  -5   0   1 1953.40   79.59
  -5   0   1 1878.91   78.59
  -5   0  -1 1787.52  103.19
   5   0  -1 1862.01   99.29
  -5   0   2    0.40    0.70
   5   0   2    5.20    5.90
  -5   0  -2    1.80    4.80
   5   0  -2    1.80    4.10
  -5   0   2   -0.60    0.80
  -5   0  -3 2663.83  148.79
   5   0  -3 2663.93  135.89
  -5   0   3 2614.24  110.79
   5   0   4    3.20    2.50
  -5   0   4    3.10    2.60
   5   0  -4    8.40    7.40
  -6   0   0 6227.18  245.48
  -6   0   0 6095.79  244.68
  -6   0   0 5803.72  275.57
   6   0   0 6099.89  275.47
   6   0  -1    2.40    3.70
   6   0   1    8.70    6.50
  -6   0   1    5.90    2.00
  -6   0  -1    6.40    6.20
  -6   0   2  660.33   28.80
   6   0   2  642.24   57.79
  -6   0  -2  614.64   54.99
   6   0  -2  647.94   50.09
  -6   0   2  629.94   31.40
  -6   0  -3  -12.80    6.40
   6   0  -3   12.60    8.20
   6   0   3    4.40    8.50
   6   0  -4  961.80   70.09
  -6   0   4  992.50   47.50
   6   0   4 1097.69   53.29
  -6   0  -4  890.41   80.39
  -7   0   0   -0.20    6.10
   7   0   0   -3.20    5.30
  -7   0   0   -0.60    0.80
  -7   0   1 1254.47   56.69
  -7   0   1 1291.67   55.79
   7   0  -1 1186.48   80.99
  -7   0  -1 1242.68   87.59
   7   0   1 1340.87   89.39
   7   0  -2    5.30    6.50
  -7   0  -2    2.80   10.10
   7   0   2   12.50   10.20
  -7   0   2    0.70    1.60
  -7   0  -3 2019.10  130.99
   7   0   3 2017.20  135.09
   7   0  -3 2041.70  116.69
  -7   0   3 2023.90   88.19
   8   0   0 2307.17  130.09
  -8   0   0 2093.09   92.19
  -8   0   0 2065.39  129.59
   8   0   1    5.80   10.30
  -8   0   1    9.00    3.00
   8   0  -1   16.10    8.40
  -8   0  -1    9.80   10.60
   8   0   2  157.28   52.79
  -8   0   2  202.58   14.50
  -8   0  -2  260.87   59.89
  -8   0  -3    1.80   14.40
   8   0  -3  -10.40    9.40
  -8   0   3    1.80    1.80
  -9   0   0    9.30   14.50
  -9   0   0    3.90    2.10
   9   0   0   -6.80   10.80
  -9   0  -1  418.96   57.29
  -9   0   1  534.15   28.10
   9   0  -1  438.96   52.19
   9   0   1  530.15   57.99
   9   0   2   11.70   18.90
  -9   0  -2  -11.30   14.50
   0  -1   0   13.40    1.10
   0  -1   0   13.60    1.30
   0   1   0   13.60    1.30
   0   1  -1  706.13   31.30
   0  -1  -1  749.73   29.40
   0  -1   1  646.44   30.50
   0  -1  -1  766.12   34.80
   0  -1  -1  757.12   29.20
   0  -1   1  622.34   31.20
   0   1   1  720.43   29.00
   0   1   2 5978.70  229.78
   0  -1  -2 5876.51  243.98
   0  -1   2 5238.68  233.08
   0  -1   2 5011.40  231.88
   0   1   2 6494.05  230.78
   0   1  -2 5204.08  233.38
   0  -1  -2 6350.17  231.68
   0   1   2 6118.89  230.18
   0   1   3  108.99    6.50
   0   1   3  107.89    6.30
   0  -1   3  111.99    8.60
   0  -1  -3   85.89   14.60
   0  -1  -3   85.49    8.30
   0   1   3  109.29    7.10
   0  -1   3  120.79    9.20
   0  -1   4 1539.55   68.59
   0   1   4 1523.95   65.99
   0   1  -4 1546.95   96.99
   0  -1   4 1579.14   68.39
   0  -1   5   86.49    8.80
   0  -1   5   79.09    7.60
   0   1   5   94.59    7.70
   1  -1   0   48.40    2.70
   1  -1   0   45.90    5.00
  -1  -1   0   47.60    2.80
   1   1   0   47.30    6.10
  -1   1   0   53.39    5.30
   1   1   0   46.20    3.00
  -1  -1   0   44.40    3.00
  -1  -1   0   48.40    6.40
  -1  -1  -1 5161.48  211.28
   1   1   1 4952.00  210.88
   1  -1   2 1110.49   47.30
  -1  -1  -2 1006.40   57.19
   1   1  -2 1039.30   46.50
  -1   1   2 1014.50   43.00
   1   1   2  945.21   44.90
  -1  -1   2 1118.39   45.00
  -1  -1   2 1120.59   45.10
   1   1   2 1089.09   43.80
  -1   1  -2 1025.50   61.29
   1  -1  -2  971.20   43.70
   1  -1  -2  964.30   44.10
   1  -1   3  157.68   13.00
  -1  -1  -3  162.08   20.70
   1  -1   3  158.48   12.00
  -1   1   3  184.88   10.20
  -1  -1   3  194.88   11.40
   1   1   3  183.68   11.20
  -1   1  -3  135.99   21.40
  -1  -1   3  201.98   11.90
   1  -1  -3  144.39   18.30
   1  -1  -3  153.68   11.30
   1   1   3  207.58   12.20
   1   1   3  218.68   10.90
   1  -1   4  110.29   10.00
   1  -1   4  108.19   10.60
  -1   1   4  118.09    8.40
   1   1   4  133.89    8.90
  -1   1  -4  137.39   23.00
  -1  -1   4  129.69    9.10
  -1  -1   4  130.29   10.00
   1   1   4  125.69    9.10
  -1  -1   4  109.39    9.60
   1  -1   5 1596.34   72.29
  -1   1   5 1556.54   68.89
   1  -1   5 1632.84   71.89
  -1  -1   5 1613.84   71.59
   1   1   5 1647.94   69.79
  -1  -1   5 1521.85   67.69
   2  -1   0    2.50    1.80
  -2  -1   0    4.20    0.90
  -2   1   0    8.60    5.10
   2   1   0    4.80    1.30
   2   1   0    8.10    3.90
   2   1   0    1.90    0.70
  -2  -1  -1 3234.18  122.39
  -2   1   1 2685.63  128.49
   2   1  -1 2890.61  121.69
  -2  -1  -1 3123.39  135.69
   2   1  -1 2781.92  136.39
   2   1  -1 3073.99  121.39
  -2   1   1 3117.99  120.89
   2  -1   1 3079.59  137.59
  -2  -1   1 2982.00  121.49
   2  -1  -1 3003.40  127.09
  -2   1  -1 2974.30  135.99
   2   1   1 3186.18  136.49
   2   1   1 3042.60  121.89
  -2  -1   1 3049.09  121.59
   2  -1  -1 3049.29  120.99
   2   1   1 2967.70  120.69
  -2  -1  -2 5235.78  200.78
  -2  -1  -2 5278.67  220.88
   2   1  -2 4888.31  199.38
   2  -1   2 5131.89  200.98
   2   1  -2 4693.83  199.98
  -2   1   2 4918.81  198.28
   2  -1   2 4780.92  201.08
   2  -1  -2 4833.82  198.18
   2  -1  -2 4653.73  211.58
   2  -1  -2 4689.73  198.58
   2   1   2 4945.21  199.48
   2   1   2 4880.61  200.28
   2   1   2 5018.60  220.48
  -2   1  -2 5538.55  224.38
  -2  -1   2 5124.19  199.58
  -2  -1   2 4858.71  198.88
   2  -1   3   89.69    9.00
  -2  -1  -3  112.49   17.90
  -2   1   3   97.69    6.60
  -2  -1   3   90.69    6.70
   2   1   3   85.09    6.90
  -2  -1   3   95.49    7.50
   2  -1  -3   98.49    7.60
   2  -1  -3   92.59    7.80
  -2   1  -3  107.09   17.90
   2   1   3   80.29    7.90
  -2   1   4 1045.00   46.70
   2  -1   4  976.60   52.39
   2  -1   4 1033.20   50.69
  -2  -1   4 1062.49   46.20
  -2   1  -4 1063.59   76.79
  -2  -1   4 1039.30   46.40
  -2  -1   4 1121.59   49.10
   2   1   4 1103.59   49.99
   2   1   4 1085.89   49.00
  -2   1   5  213.88   14.50
   2  -1   5  220.88   16.40
   2  -1   5  217.98   17.10
   2   1   5  234.48   17.50
  -2  -1   5  239.28   15.90
   2   1   5  235.68   14.40
  -3  -1   0   23.40    2.50
  -3  -1   0   24.40    7.20
  -3  -1   0   21.20    2.70
   3  -1   0   11.60    4.80
  -3   1   0   25.80    2.50
   3   1   0   23.10    2.50
   3  -1   0   22.50    2.40
   3   1   0   22.90    2.80
   3   1   0   19.50    6.60
   3  -1   0   22.40    2.60
   3  -1   1 6299.87  253.07
   3  -1   1 6722.03  274.47
   3   1  -1 6464.05  272.97
  -3  -1  -1 6615.64  273.67
   3   1  -1 6529.25  253.97
  -3   1   1 6053.19  264.97
   3  -1   1 6367.66  254.77
  -3   1  -1 6464.45  272.87
   3  -1  -1 6180.38  252.47
   3  -1  -1 6490.35  253.17
   3   1   1 6172.68  252.77
   3  -1  -1 6398.26  263.57
   3   1   1 6766.12  261.97
   3   1   1 6249.37  272.97
  -3  -1   1 5437.76  271.57
   3   1  -2  773.02   37.40
  -3   1   2  840.32   36.50
  -3  -1  -2  847.62   56.19
  -3  -1  -2  835.02   46.80
   3   1  -2  871.01   57.69
  -3   1  -2  805.32   56.09
   3  -1  -2  834.72   36.70
  -3  -1   2  885.61   37.80
   3   1   2  782.12   55.29
  -3  -1   2  882.31   36.90
   3   1   2  823.72   37.80
   3   1   2  875.81   36.20
   3  -1  -2  782.12   46.60
   3  -1  -2  844.72   36.20
  -3   1   3  435.66   21.00
   3   1  -3  409.56   42.90
   3  -1   3  427.86   24.30
  -3  -1  -3  398.76   39.40
   3   1   3  424.56   23.60
  -3   1  -3  391.96   40.40
   3  -1  -3  451.65   35.20
  -3  -1   3  416.76   20.40
  -3  -1   3  430.96   22.10
   3  -1  -3  417.06   21.80
   3  -1   4   81.29    9.80
  -3   1   4   72.19    6.60
   3   1  -4   51.49   18.50
   3  -1   4   74.79    8.50
  -3  -1   4   71.79    5.50
   3   1   4   66.19    8.40
  -3  -1   4   72.59    7.10
  -3   1  -4   80.59   22.10
   3  -1  -4   91.39   20.30
   3  -1   5 1670.13   78.79
   3  -1   5 1561.44   79.99
  -3   1   5 1712.03   74.49
   3   1  -5 1732.63  123.69
  -3  -1   5 1691.23   76.39
   3   1   5 1784.72   77.19
   3  -1  -5 1740.93  106.89
   3   1   5 1816.32   76.89
  -4  -1   0   40.00    3.90
   4  -1   0   35.90    8.80
  -4  -1   0   47.30   13.10
   4   1   0   42.90    4.10
   4  -1   0   39.50    4.20
  -4  -1   0   44.00    4.40
  -4   1   0   47.70    4.10
   4   1   0   45.10    4.60
   4   1   0   47.90   12.80
   4  -1   1  846.82   55.19
   4   1  -1  828.32   37.30
  -4  -1  -1  830.02   36.10
  -4  -1  -1  802.72   54.69
  -4  -1  -1  847.12   38.10
  -4   1   1  829.32   50.39
  -4   1   1  801.82   36.20
   4   1  -1  820.72   53.69
   4  -1  -1  821.72   36.50
  -4  -1   1  890.31   56.69
  -4   1  -1  789.92   53.79
   4  -1  -1  850.61   36.40
  -4  -1   1  836.82   37.00
   4   1   1  802.02   36.20
   4  -1  -1  840.22   48.50
   4   1   1  802.02   55.09
  -4  -1   1  842.72   37.00
  -4  -1  -2 4385.56  199.38
   4  -1   2 4104.59  200.68
   4   1  -2 4401.16  197.48
  -4  -1  -2 3965.50  171.78
  -4   1   2 4261.87  169.38
   4   1   2 4069.09  198.68
  -4  -1   2 4082.89  169.98
   4  -1  -2 4272.07  184.88
  -4   1  -2 4107.29  198.38
  -4  -1   2 4118.09  168.98
   4  -1  -2 4272.77  169.08
  -4  -1  -3   16.10    8.90
   4   1  -3   19.80    8.10
   4  -1   3   17.50    4.40
  -4   1   3   24.70    4.00
  -4  -1   3   15.30    3.40
   4   1   3   20.60    4.70
  -4  -1   3   15.20    2.30
   4  -1  -3   25.30    9.30
  -4   1  -3   23.70   12.30
   4   1   3   44.60   14.70
  -4  -1  -4 1087.09   82.09
   4   1  -4 1101.79   82.29
   4  -1   4 1136.99   56.09
  -4   1   4 1073.59   49.20
   4  -1  -4 1119.69   69.49
  -4   1  -4 1047.50   82.79
  -4  -1   4 1110.39   50.79
   4   1   4 1055.09   53.89
  -5   1   0    1.70    0.90
  -5  -1   0   -1.50    3.20
   5  -1   0    4.80    4.80
  -5  -1   0    0.20    0.70
   5   1   0    2.30    3.70
  -5  -1   0    1.00    0.70
  -5   1   0    0.70    2.30
  -5  -1  -1 2089.09  114.69
   5  -1   1 1907.51  118.29
  -5   1   1 2047.80   87.99
   5   1  -1 2251.07  113.89
  -5  -1  -1 2258.57   90.69
  -5   1   1 2163.68  109.89
  -5  -1  -1 2196.68   87.99
   5   1   1 2026.60  113.89
  -5   1  -1 2102.59  119.89
   5  -1  -1 2275.97  107.89
  -5  -1   1 2080.39   88.59
   5  -1  -1 2011.30   95.99
  -5  -1   1 2094.09   88.79
  -5  -1   1 2081.59  113.89
  -5  -1  -2  533.95   29.60
   5   1  -2  541.45   46.20
   5  -1   2  578.54   50.79
  -5  -1  -2  542.45   48.20
  -5   1   2  599.14   27.60
  -5  -1   2  584.14   27.00
  -5  -1   2  550.84   27.80
   5   1   2  571.04   50.39
  -5   1  -2  579.74   49.60
   5  -1  -2  577.04   41.20
   5   1  -3   47.40   15.10
  -5   1   3  100.89    7.80
  -5  -1  -3   43.20   15.70
   5  -1  -3  108.59   16.60
   5   1   3   45.30   17.10
  -5  -1   3   90.09    6.30
  -5  -1   3   82.59    7.70
  -5   1  -3   67.19   20.60
   5  -1   4  126.99   12.60
   5   1  -4   90.39   21.90
  -5   1   4   95.59    8.40
  -5  -1  -4   94.49   27.40
  -5  -1   4  106.59    9.70
   5   1   4  103.99   11.20
   6  -1   0    5.90    5.40
  -6  -1   0    2.10    5.40
   6   1   0   13.50    8.10
  -6  -1   0    5.30    1.90
  -6  -1   0    7.80    2.70
  -6   1   0   14.80    8.90
  -6   1   0    6.20    2.00
  -6   1   1  371.56   19.90
  -6  -1  -1  379.26   21.70
   6  -1   1  412.46   40.00
  -6  -1  -1  369.56   39.70
   6   1  -1  404.26   38.50
  -6   1   1  337.67   34.70
  -6  -1  -1  374.56   19.70
   6   1   1  396.16   40.30
  -6  -1   1  349.67   20.00
  -6   1  -1  398.36   40.10
  -6  -1   1  399.66   20.60
   6  -1  -1  351.76   34.10
  -6  -1   1  358.16   38.00
  -6  -1  -2 2312.87  135.59
  -6   1   2 2449.16  101.29
   6  -1   2 2454.75  138.79
   6   1  -2 2385.06  130.09
   6   1   2 2317.17  136.39
  -6   1  -2 2408.86  136.29
  -6  -1   2 2382.36  101.99
   6  -1  -2 2493.15  123.39
  -6  -1   2 2447.56  100.49
   6   1  -3   22.10   11.90
  -6  -1   3   16.40    3.70
   6  -1  -3   17.70    7.80
   6   1   3    2.00   11.30
  -6   1  -3    4.10   12.00
   6  -1   4  681.13   38.30
   6   1  -4  614.24   58.79
  -6   1   4  669.73   33.20
   6  -1  -4  593.64   48.60
  -6   1  -4  752.02   70.69
  -6  -1   4  667.23   34.30
   6   1   4  604.34   36.80
  -7   1   0   17.40    3.80
   7  -1   0   28.40   11.70
  -7  -1   0    0.60    6.10
  -7  -1   0   13.10    3.20
  -7   1   0    8.80    9.70
   7   1   0   16.70    8.50
  -7  -1   0   18.00    4.30
  -7  -1  -1 2039.10   88.09
   7  -1   1 2104.69  122.59
   7   1  -1 2031.20  118.59
  -7   1   1 2166.28  121.19
  -7  -1  -1 2070.39   91.09
  -7  -1  -1 2048.99  123.59
  -7   1   1 2024.40   88.29
  -7  -1   1 2131.19  124.69
  -7  -1   1 2041.90   88.59
   7   1   1 2031.10  122.79
  -7   1  -1 2084.19  123.59
   7  -1  -1 2134.09  116.09
  -7  -1  -2  213.98   34.30
   7   1  -2  241.98   32.50
   7  -1   2  267.97   37.20
  -7   1   2  268.37   16.20
  -7   1  -2  262.07   35.60
   7  -1  -2  264.37   30.60
  -7  -1   2  257.47   15.00
   7   1   2  261.77   37.20
  -7  -1   2  253.57   16.40
  -7  -1  -3  150.38   35.80
   7   1  -3  115.79   28.30
  -7   1   3  168.08   12.30
   7   1   3  204.28   34.20
  -7  -1   3  176.48   13.30
  -7   1  -3  153.38   31.90
   7  -1  -3  190.28   25.80
  -8   1   0   37.70   17.50
  -8  -1   0   18.40    4.60
  -8  -1   0   17.30   13.40
   8  -1   0   34.80   13.50
  -8  -1   0   25.60    5.40
  -8   1   0   21.60    4.20
   8   1   0   25.00   13.10
  -8   1   1  378.56   21.80
  -8  -1  -1  406.26   49.00
   8   1  -1  390.36   44.60
  -8   1   1  330.87   42.80
  -8  -1  -1  373.56   21.70
   8  -1   1  420.76   48.10
  -8  -1   1  320.87   44.80
  -8  -1   1  393.16   22.40
   8   1   1  402.36   46.90
   8  -1  -1  400.86   42.10
  -8  -1   1  401.46   22.20
  -8   1  -1  385.86   46.20
  -8  -1  -2 1518.45  109.19
   8   1  -2 1505.55   99.79
   8  -1   2 1476.05  108.49
  -8   1   2 1527.55   67.49
  -8  -1   2 1462.25   67.59
  -8  -1   2 1557.64   65.49
   8  -1  -2 1451.95   94.49
  -8   1  -2 1455.65  107.09
   8   1   2 1503.25  108.29
  -8   1   3   22.00    4.80
  -8   1  -3   21.10   21.20
  -8  -1   3   24.10    5.90
  -9   1   0  -18.80   12.40
  -9  -1   0    6.70    2.70
   9   1   0   10.80   12.20
   9  -1   0    5.90   11.30
  -9  -1   0   13.60   17.40
  -9  -1  -1  960.20   85.59
  -9   1   1  971.10   46.40
  -9   1   1  943.31   80.99
   9  -1   1  936.01   81.39
   9   1  -1 1009.80   82.09
  -9  -1   1  981.90   47.10
  -9  -1   1  946.11   84.89
   9  -1  -1  954.50   76.19
  -9   1  -1 1031.70   86.49
   9   1   1  843.42   80.49
  -9   1   2  191.58   14.90
   9  -1   2  165.78   40.50
  -9  -1  -2  172.58   44.60
  -9   1  -2  208.48   47.70
   9   1   2  207.28   46.40
  -9  -1   2  176.98   14.10
   0   2   1 1017.50   47.40
   0  -2   1 1067.79   45.90
   0  -2  -1 1093.89   47.70
   0   2  -1 1014.90   45.50
   0  -2   2  456.75   22.90
   0  -2  -2  457.45   20.70
   0   2  -2  451.35   23.90
   0   2   2  468.15   19.70
   0  -2  -2  483.55   29.10
   0  -2   2  449.56   24.10
   0   2   3 1864.11   72.89
   0  -2   3 1689.83   77.99
   0  -2   3 1615.24   76.29
   0  -2  -3 1950.40   91.89
   0   2   4 1136.59   52.79
   0  -2   4 1162.28   53.99
   0  -2   4 1156.58   54.69
   0  -2   5   10.90    3.50
   0  -2   5    6.40    2.30
   0   2   5    7.90    2.50
  -1  -2   0 4403.56  183.78
   1   2   0 4221.58  183.88
   1  -2   1 2381.56   93.29
  -1  -2  -1 2224.78   91.79
  -1  -2  -1 2220.78  101.19
  -1   2   1 2296.37   90.29
   1   2  -1 2129.39   92.99
   1   2   1 2181.28   91.19
   1   2   1 2298.27   90.39
   1  -2  -1 2293.77   90.49
   1   2   1 2247.98  101.79
  -1  -2   1 2280.57   92.49
  -1  -2   1 2413.46   93.59
   1   2  -2  449.86   24.00
   1   2  -2  492.25   22.90
  -1   2   2  456.75   19.70
  -1  -2  -2  485.55   21.70
  -1  -2  -2  488.55   32.60
   1  -2   2  467.15   24.50
   1  -2  -2  462.25   26.20
   1   2   2  420.56   21.10
   1   2   2  427.16   20.20
   1  -2  -2  478.65   20.50
   1   2   2  438.36   32.20
  -1   2  -2  452.15   23.50
   1  -2  -2  458.15   20.50
  -1  -2   2  434.86   22.40
  -1  -2   2  463.75   23.20
   1  -2   3 2791.82  122.39
   1  -2   3 2718.63  124.39
  -1   2   3 2793.32  117.59
  -1  -2  -3 2984.70  140.59
   1   2   3 3006.70  118.49
   1   2   3 3075.69  118.79
   1   2   3 2681.83  117.39
   1  -2  -3 3083.09  133.89
  -1  -2   3 3045.00  122.29
   1  -2  -3 3060.89  119.99
  -1  -2   3 2832.32  121.49
   1  -2   4  684.63   40.70
  -1   2   4  833.42   35.90
   1  -2   4  746.93   39.80
  -1   2  -4  877.01   68.89
   1   2   4  826.42   36.20
  -1  -2   4  860.41   39.60
  -1  -2   4  839.52   40.10
   1  -2   5   29.50    5.50
  -1   2   5   36.80    4.40
   1  -2   5   33.70    6.80
  -1  -2   5   46.90    5.80
  -1  -2   5   44.30    7.20
   1   2   5   42.40    4.80
  -2   2   0 4840.42  195.98
   2  -2   0 4526.25  186.28
   2   2   0 4673.83  186.38
   2   2  -1  880.41   39.70
  -2  -2  -1  828.52   50.49
  -2   2   1  882.21   41.50
  -2   2   1  932.61   38.00
  -2  -2  -1  942.51   39.80
  -2  -2  -1  932.11   38.00
   2   2  -1  957.90   58.19
   2   2   1  912.01   39.20
   2   2   1  945.41   52.59
  -2  -2   1  961.80   39.60
   2  -2  -1  878.81   40.00
  -2   2  -1  867.51   52.59
  -2  -2   1  946.41   40.00
   2  -2  -1  939.11   38.20
   2   2   1  938.21   38.00
  -2   2   2  338.47   16.10
  -2  -2  -2  365.06   18.20
   2   2  -2  412.36   19.60
  -2  -2  -2  352.16   29.50
   2  -2   2  330.47   18.90
  -2  -2   2  353.86   18.30
   2  -2  -2  381.86   16.60
   2   2   2  324.47   15.80
   2   2   2  294.27   28.00
  -2  -2   2  340.67   18.00
   2   2   2  319.87   16.90
   2  -2  -2  367.86   21.30
  -2   2  -2  363.66   33.00
  -2  -2  -3 2378.86  120.59
   2  -2   3 2368.86  101.29
  -2   2   3 2207.58   94.19
  -2  -2   3 2306.57   96.99
   2   2   3 2202.18   97.19
   2  -2  -3 2259.77   96.59
  -2  -2   3 2384.16   97.79
   2  -2  -3 2343.57   95.69
   2  -2  -3 2414.86  107.79
  -2   2  -3 2227.38  125.89
  -2  -2  -4  870.21   79.09
   2  -2   4 1035.50   50.29
  -2   2   4  982.70   44.80
   2  -2   4 1024.50   52.59
   2   2   4 1069.99   46.60
  -2  -2   4 1019.30   48.60
   2   2   4 1071.69   45.30
   2   2   4 1047.60   46.30
  -2  -2   4 1029.80   47.00
  -2   2  -4 1048.10   78.79
   2  -2  -4 1050.39   61.69
   2  -2   5   17.60    5.40
   2  -2   5   32.20    6.40
  -2   2   5   26.00    4.60
  -2  -2   5   39.00    6.60
   2   2   5   33.00    4.90
  -2  -2   5   34.30    4.70
  -3   2   0  827.62   35.10
  -3  -2   0  825.02   35.70
   3   2   0  801.42   35.40
  -3   2   0  867.11   47.10
   3   2   0  857.21   52.39
   3   2   0  876.31   36.90
  -3  -2   0  786.62   50.79
  -3  -2   0  830.82   36.80
   3  -2   0  791.12   45.90
   3  -2   0  788.62   35.30
  -3  -2  -1 1553.14   83.79
   3   2  -1 1717.43   89.69
   3   2  -1 1477.05   65.99
  -3   2   1 1634.14   65.49
  -3   2   1 1645.54   74.59
  -3  -2  -1 1686.03   65.69
  -3  -2  -1 1424.26   66.99
   3  -2   1 1538.85   65.89
   3   2  -1 1533.15   66.99
   3  -2  -1 1598.14   72.39
  -3   2  -1 1536.25   83.59
   3  -2  -1 1642.94   64.69
   3   2   1 1671.53   65.69
  -3  -2   1 1618.14   66.79
   3   2   1 1600.34   84.99
   3   2   1 1460.25   66.69
   3  -2  -1 1658.13   65.89
  -3  -2   1 1659.93   89.79
  -3  -2   1 1622.54   67.09
  -3   2   2  625.44   28.20
  -3  -2  -2  657.33   33.30
   3   2  -2  754.72   55.79
   3  -2   2  572.34   30.50
  -3  -2  -2  728.43   48.80
   3  -2  -2  727.23   35.50
   3   2   2  640.04   30.00
  -3  -2   2  606.14   29.50
   3   2   2  570.14   29.40
   3  -2  -2  675.53   27.50
  -3   2  -2  651.23   49.00
   3   2   2  555.04   45.40
  -3  -2   2  640.74   30.20
  -3   2   3 2557.54  100.89
   3  -2   3 2401.96  105.89
  -3  -2  -3 2520.15  130.79
   3   2  -3 2228.18  138.19
  -3  -2   3 2339.67  101.79
   3  -2  -3 2354.56  101.09
   3  -2  -3 2568.14  113.09
   3   2   3 2340.37  103.69
   3   2   3 2565.44  134.69
  -3   2  -3 2592.24  136.59
  -3  -2   3 2503.25  103.59
   3  -2   4  408.76   23.80
   3  -2   4  361.06   25.00
  -3   2   4  370.46   18.70
   3   2  -4  316.97   45.60
  -3  -2  -4  330.47   39.00
  -3   2  -4  318.47   41.60
   3  -2  -4  376.16   30.60
  -3  -2   4  377.76   21.70
  -3  -2   4  340.97   18.90
   3   2   4  333.97   21.30
   3   2   4  337.47   20.10
   3   2  -5   32.80   25.70
   3  -2   5   36.40    8.20
  -3   2   5   37.10    4.90
   3  -2   5   30.50    6.40
   3   2   5   41.30    5.20
   3   2   5   35.40    5.70
   3  -2  -5   56.39   13.90
  -3  -2   5   45.10    7.60
   4  -2   0 3451.55  157.18
  -4  -2   0 3555.74  142.19
   4  -2   0 3398.26  140.49
  -4   2   0 3626.24  158.48
  -4  -2   0 3215.38  162.88
  -4  -2   0 3403.76  140.69
  -4   2   0 3595.04  140.19
   4   2   0 3202.18  162.88
   4  -2   0 3685.73  141.29
   4   2   0 3477.75  140.69
  -4  -2  -1  533.05   25.70
   4  -2   1  572.34   43.50
   4   2  -1  589.04   45.70
  -4   2   1  579.34   25.80
  -4  -2  -1  568.44   44.10
  -4   2   1  605.04   37.80
  -4  -2  -1  492.05   27.20
  -4  -2   1  644.64   48.40
   4  -2  -1  534.85   25.40
   4   2   1  606.64   26.20
   4   2   1  555.34   44.10
  -4  -2   1  602.84   27.20
  -4   2  -1  514.85   41.80
   4  -2  -1  565.54   35.20
  -4  -2   1  571.54   27.30
   4  -2  -1  566.64   26.20
   4   2  -2  300.37   33.40
  -4  -2  -2  298.67   32.30
  -4  -2  -2  294.37   17.90
  -4   2   2  289.97   15.50
   4   2   2  295.37   32.80
   4  -2  -2  319.37   23.10
  -4   2  -2  325.17   33.40
  -4  -2   2  292.87   17.00
   4  -2  -2  324.87   15.30
  -4   2   3 1279.37   55.39
   4  -2   3 1282.97   59.99
  -4  -2  -3 1234.78   83.29
   4   2  -3 1272.97   89.19
   4   2   3 1186.28   84.89
  -4  -2   3 1267.97   57.79
   4  -2  -3 1307.17   55.79
  -4   2  -3 1240.68   86.49
   4   2   3 1301.67   58.99
   4  -2  -3 1432.66   68.49
  -4  -2   3 1269.77   56.19
  -4  -2  -4  818.42   67.79
  -4   2   4  844.32   38.20
   4  -2   4  846.52   45.40
   4   2  -4  850.61   74.29
  -4  -2   4  816.02   37.80
   4   2   4  852.51   42.90
  -4   2  -4  691.13   67.79
  -4  -2   4  885.11   41.60
   4  -2  -4  773.22   49.99
  -5  -2   0 3250.97  133.29
   5  -2   0 3411.26  155.08
  -5  -2   0 3156.68  134.49
  -5   2   0 3230.88  132.49
   5   2   0 3204.88  160.78
  -5  -2   0 3141.99  160.88
  -5   2   0 3379.86  156.18
   5  -2   1 1023.90   67.79
  -5   2   1 1085.59   45.30
  -5  -2  -1  956.60   44.90
  -5   2   1 1064.69   62.79
  -5  -2  -1  970.40   68.29
  -5  -2  -1  980.80   47.30
   5   2  -1 1047.80   69.69
  -5   2  -1 1033.30   67.99
   5   2   1 1049.79   70.99
   5  -2  -1 1059.19   45.40
  -5  -2   1 1018.30   46.20
  -5  -2   1 1057.59   46.70
  -5  -2   1 1067.09   72.39
   5  -2  -1 1012.00   59.09
  -5  -2  -2  305.07   19.80
   5   2  -2  303.07   35.50
  -5   2   2  348.97   17.70
  -5  -2  -2  353.56   44.40
   5   2   2  318.97   45.20
  -5   2  -2  341.57   37.60
  -5  -2   2  341.27   18.40
   5  -2  -2  330.47   17.30
  -5  -2   2  358.06   19.50
   5  -2  -2  334.97   27.10
   5  -2   3 1663.83   76.39
  -5   2   3 1717.83   72.19
   5   2  -3 1574.74  105.79
  -5  -2  -3 1634.94  106.29
  -5   2  -3 1588.24  116.59
   5   2   3 1746.43  110.79
  -5  -2   3 1650.83   71.99
   5  -2  -3 1823.72   87.19
  -5  -2   3 1711.23   75.99
   5   2  -4  697.13   67.39
  -5   2   4  695.03   33.50
   5  -2   4  702.23   39.90
   5   2   4  657.23   37.30
  -5  -2   4  703.83   36.20
  -5  -2   4  664.53   31.80
  -5   2  -4  740.33   70.89
   5  -2  -4  720.93   46.40
  -6  -2   0 2339.57   99.69
   6   2   0 2360.96  129.99
   6  -2   0 2465.15  124.69
  -6   2   0 2388.76  126.09
  -6  -2   0 2249.97  129.99
  -6   2   0 2355.96   98.79
  -6  -2   0 2446.06  101.39
  -6   2   1  515.15   42.10
   6   2  -1  420.36   42.90
  -6   2   1  452.15   22.90
  -6  -2  -1  407.56   43.10
   6  -2   1  417.96   41.30
  -6  -2  -1  437.96   22.90
  -6  -2  -1  414.96   24.60
   6  -2  -1  459.75   37.40
  -6  -2   1  474.15   24.30
  -6  -2   1  540.45   49.00
  -6   2  -1  438.96   42.50
   6   2   1  494.55   46.20
  -6  -2   1  456.85   24.00
  -6  -2  -2  210.38   16.90
   6   2  -2  213.98   30.10
  -6   2   2  231.68   13.70
  -6  -2  -2  264.97   35.20
  -6  -2   2  209.88   13.70
   6  -2  -2  201.18   22.70
   6   2   2  215.38   32.60
  -6   2  -2  222.78   30.80
  -6  -2   2  209.98   14.30
   6   2  -3  957.60   77.39
   6  -2   3 1049.00   51.39
  -6   2   3 1036.90   47.00
  -6  -2  -3 1086.69   83.79
   6   2   3 1071.49   84.19
  -6  -2   3  991.40   49.00
  -6   2  -3  985.60   81.29
   6  -2  -3 1166.18   83.09
  -6  -2   3  997.20   46.20
   6   2  -4  527.95   63.09
   6  -2   4  609.84   41.10
  -6   2   4  613.84   30.20
   6   2   4  583.14   34.60
  -6  -2   4  592.64   32.70
   6  -2  -4  567.04   41.70
  -7  -2   0  741.53   37.20
   7  -2   0  713.53   56.99
  -7  -2   0  719.03   63.39
   7   2   0  733.93   63.09
  -7  -2   0  739.33   35.90
  -7   2   0  737.23   59.69
  -7   2   0  747.63   35.10
  -7   2   1  614.54   30.30
  -7  -2  -1  524.45   54.69
  -7   2   1  640.04   53.49
  -7  -2  -1  630.84   30.60
   7   2  -1  559.84   57.89
   7  -2   1  656.93   56.69
  -7  -2  -1  591.74   35.70
   7  -2  -1  622.84   48.70
  -7  -2   1  618.84   31.30
  -7  -2   1  644.54   31.80
  -7  -2   1  631.54   62.99
   7   2   1  628.74   58.79
  -7   2  -1  585.24   55.29
   7   2  -2  162.18   32.40
   7  -2   2   70.79   21.50
  -7  -2  -2  150.98   13.10
  -7   2   2  122.39    9.80
  -7  -2  -2  116.19   26.30
  -7  -2   2  116.89   10.50
   7   2   2  137.79   34.20
  -7  -2   2  128.69   10.20
  -7   2  -2  146.29   32.00
   7  -2  -2  153.98   20.90
   7   2  -3  947.11   78.89
  -7   2   3 1107.99   49.99
   7  -2  -3 1133.39   68.19
  -7  -2   3 1092.89   48.40
  -7  -2   3 1057.69   51.59
  -7   2  -3 1078.99   89.09
  -8  -2   0 1216.98   56.99
  -8  -2   0 1346.67   97.39
  -8  -2   0 1264.77   58.69
   8  -2   0 1153.78   83.79
   8   2   0 1191.38   91.39
  -8   2   0 1308.47   92.19
  -8   2   1  234.48   14.70
   8  -2   1  131.69   30.30
  -8   2   1  191.28   31.10
  -8  -2  -1  224.58   16.80
   8   2  -1  205.08   33.30
  -8  -2  -1  218.38   14.60
  -8  -2  -1  228.98   36.30
  -8  -2   1  286.47   41.40
   8  -2  -1  228.98   30.50
  -8  -2   1  230.58   18.00
  -8  -2   1  214.08   15.20
  -8   2  -1  189.88   32.40
   8   2   1  268.17   39.40
   8  -2   2   70.59   21.60
  -8  -2  -2   80.69   25.90
   8   2  -2  136.99   29.80
  -8   2   2  106.99    9.40
  -8  -2   2  117.79   10.50
   8  -2  -2  149.79   23.10
   8   2   2   63.39   20.70
  -8  -2   2  117.79    9.70
  -8   2  -2  122.29   30.60
  -9  -2   0  642.34   33.70
  -9  -2   0  693.73   69.29
   9  -2   0  519.05   54.49
  -9  -2   0  683.43   35.30
  -9   2   0  654.93   64.49
   9   2   0  528.45   61.89
   9   2  -1  358.56   48.40
  -9   2   1  328.27   20.20
  -9   2   1  335.67   48.10
  -9  -2  -1  356.66   21.20
   9  -2   1  295.37   68.29
  -9  -2  -1  349.17   52.39
  -9  -2   1  367.76   30.60
  -9  -2   1  282.27   49.10
  -9   2  -1  354.66   91.59
   9   2   1  399.96   51.99
   9  -2  -1  338.27   39.90
  -9  -2   1  311.47   20.70
   0   3   0  222.38   10.90
   0  -3   0  200.18   10.90
   0  -3   0  208.58   11.10
   0   3   1 2365.06  108.99
   0  -3  -1 2749.92  102.69
   0  -3   1 2499.75  104.69
   0   3  -1 2651.03  106.29
   0  -3   1 2524.65  106.39
   0  -3  -2 1586.14   69.69
   0  -3  -2 1604.44   77.89
   0  -3   2 1809.22   73.39
   0  -3   2 1852.61   75.59
   0  -3   3  357.56   20.10
   0  -3   3  312.57   20.70
   0   3   3  353.26   15.10
   0  -3  -3  299.27   25.40
   0  -3   4  217.98   20.40
   0  -3   4  250.87   18.20
   0   3   4  248.48   12.40
   0  -3   5  821.22   46.20
   0   3   5  974.60   40.60
   0  -3   5  946.81   47.60
   1   3   0   30.50    8.20
  -1  -3   0   39.30    3.00
  -1  -3   0   43.40   10.30
   1   3   0   42.50    2.90
  -1  -3   0   40.90    3.70
   1   3   0   37.30    3.30
   1   3  -1 3070.69  125.19
  -1  -3  -1 3291.87  136.99
  -1  -3  -1 3031.20  124.49
   1  -3   1 3267.07  126.89
   1   3  -1 3169.08  126.69
  -1  -3   1 2914.11  125.29
   1   3   1 2904.21  135.59
   1   3   1 3079.19  123.59
   1  -3   2 4456.85  198.18
   1  -3   2 4488.55  193.68
  -1  -3  -2 5210.78  190.98
  -1  -3  -2 4652.63  204.08
   1   3   2 4693.23  205.98
  -1  -3   2 4670.73  194.18
   1  -3  -2 4995.80  192.68
  -1  -3  -3  251.77   14.80
  -1   3   3  273.87   12.40
  -1  -3  -3  261.97   24.60
   1  -3   3  264.67   18.40
   1  -3   3  293.07   17.30
   1  -3  -3  243.48   13.10
   1  -3  -3  240.28   19.40
  -1  -3   3  257.17   17.10
   1   3   3  250.97   12.40
  -1  -3   3  258.27   16.40
  -1   3   4  903.81   38.40
   1  -3   4  864.31   44.10
   1  -3   4  832.62   45.90
   1   3   4  890.61   38.30
   1  -3  -4  951.30   54.49
  -1  -3   4  844.22   43.90
  -1  -3   4  915.11   44.70
  -1   3  -4  966.30   77.39
   1  -3   5  377.66   24.80
  -1   3   5  414.06   20.00
   1  -3   5  378.46   26.10
  -1  -3   5  425.66   24.80
   1   3   5  396.86   19.60
  -1  -3   5  395.56   25.20
  -2   3   0  277.77   21.20
   2   3   0  302.17   27.00
   2   3   0  295.47   13.70
  -2  -3   0  318.77   26.80
   2  -3   0  284.47   13.60
  -2  -3   0  287.67   15.10
  -2  -3   0  299.57   14.10
   2   3   0  286.57   14.60
  -2  -3  -1 5184.68  212.18
   2  -3   1 5669.73  212.48
  -2   3   1 5427.66  209.58
   2   3  -1 5055.59  212.38
  -2  -3  -1 5485.85  229.38
  -2  -3  -1 5133.49  209.78
   2   3  -1 5182.38  211.28
   2   3  -1 4733.73  237.28
   2   3   1 5157.28  211.28
  -2  -3   1 5233.18  212.08
   2  -3  -1 5478.05  209.98
   2   3   1 5410.36  229.18
   2   3   1 5434.96  209.88
  -2   3   2 1717.33   68.59
   2  -3   2 1932.31   74.59
  -2  -3  -2 1710.33   71.69
  -2  -3  -2 1607.34   87.09
   2   3   2 1574.14   69.79
  -2   3  -2 1657.73   97.19
   2   3   2 1735.53   90.29
  -2  -3   2 1630.44   72.29
   2  -3  -2 1649.23   68.99
  -2  -3   2 1539.55   82.89
   2   3   2 1824.22   68.79
   2  -3   3  456.45   26.50
   2  -3   3  428.96   24.10
  -2  -3  -3  396.46   22.40
  -2  -3  -3  420.46   36.20
  -2   3   3  434.16   19.60
   2   3   3  461.15   21.70
  -2  -3   3  461.85   24.30
  -2  -3   3  403.76   23.40
   2  -3  -3  417.86   24.30
   2  -3  -3  411.66   20.60
  -2   3  -3  435.76   44.40
   2  -3  -3  419.56   25.80
   2  -3  -3  421.36   20.20
   2   3   3  422.36   19.40
   2   3   3  449.06   40.30
   2   3   3  408.46   19.80
   2  -3   4  360.86   22.50
  -2   3   4  342.87   17.30
  -2  -3  -4  320.17   34.40
   2  -3   4  381.96   25.00
  -2  -3   4  357.36   21.90
  -2   3  -4  339.47   43.10
  -2  -3   4  353.96   21.30
   2   3   4  362.36   17.80
   2  -3  -4  325.17   25.80
   2  -3   5 1347.17   68.59
   2  -3   5 1356.76   66.39
  -2   3   5 1480.05   59.89
   2  -3  -5 1394.96   79.49
  -2  -3   5 1361.66   66.19
   2   3   5 1384.76   59.39
  -3  -3   0   22.50    3.20
  -3  -3   0   27.40    2.90
  -3   3   0   21.20    6.20
   3   3   0   17.00    2.30
  -3  -3   0   23.50    8.80
   3   3   0   19.40    2.90
   3   3   0   21.60    8.10
  -3  -3  -1 1092.79   47.30
  -3  -3  -1 1144.89   67.29
  -3  -3  -1 1057.59   49.40
  -3   3   1 1129.49   47.00
   3   3  -1 1142.39   73.49
  -3   3   1 1148.69   53.39
  -3   3  -1 1076.09   66.09
  -3  -3   1 1142.39   49.20
   3   3   1 1166.38   47.50
   3   3   1 1152.18   67.59
  -3  -3   1 1121.49   49.70
   3   3   1 1133.09   48.90
   3  -3  -1 1184.58   47.60
   3  -3   2 3757.52  156.18
  -3  -3  -2 3627.64  182.58
  -3   3   2 3785.72  151.98
   3   3  -2 3629.24  190.38
  -3  -3  -2 4070.49  155.98
   3   3   2 3550.74  153.58
  -3   3  -2 3754.42  184.28
  -3  -3   2 4027.60  156.08
   3   3   2 3928.01  152.28
  -3  -3   2 3845.22  155.58
   3   3   2 3737.33  182.88
   3  -3  -2 3662.43  152.38
  -3   3   3   60.59    4.70
  -3  -3  -3   58.19    6.60
   3  -3   3   55.89    7.40
  -3  -3  -3   48.90   13.80
   3   3  -3   57.19   20.00
  -3  -3   3   57.39    6.30
   3  -3  -3   54.09    6.30
   3  -3  -3   47.70    4.80
  -3  -3   3   58.49    6.70
   3   3   3   64.39    5.60
   3   3   3   68.09    4.90
   3  -3  -3   50.69    5.80
   3  -3  -3   56.39    4.80
   3   3   3   52.69    6.00
   3   3   3   58.99   16.00
  -3   3  -3   36.60   12.90
  -3   3   4  724.73   31.80
   3  -3   4  719.83   40.40
  -3  -3  -4  680.73   57.39
   3   3  -4  678.83   71.59
   3  -3   4  723.93   37.80
  -3   3  -4  707.13   67.19
   3   3   4  692.73   34.10
   3   3   4  675.43   32.90
  -3  -3   4  673.83   34.50
   3  -3  -4  684.03   39.20
   3  -3  -4  690.83   38.20
   3   3   4  686.73   32.30
  -3  -3   4  670.53   36.30
  -3   3   5  239.28   14.30
   3   3   5  260.27   14.70
   3  -3  -5  249.97   23.00
   4   3   0   72.29   15.90
  -4  -3   0  100.29    7.20
  -4  -3   0  104.89    8.20
  -4  -3   0   99.39   16.90
   4  -3   0  101.19   14.10
  -4   3   0   99.49   13.90
   4   3  -1 2565.14  136.59
  -4  -3  -1 2526.65  105.39
  -4  -3  -1 2538.95  108.09
  -4  -3  -1 2711.33  133.69
  -4   3   1 2534.25  104.99
  -4   3   1 2580.64  117.29
  -4  -3   1 2594.84  107.89
  -4  -3   1 2669.73  137.99
   4   3   1 2450.45  131.29
   4  -3  -1 2633.34  115.59
   4  -3  -1 2561.54  105.59
   4   3   1 2612.14  105.59
   4  -3  -1 2613.24  104.69
  -4   3  -1 2501.85  129.09
  -4  -3  -2 1109.79   71.29
  -4  -3  -2  918.81   48.00
  -4   3   2 1076.69   45.30
   4  -3   2 1084.89   48.80
   4   3  -2 1091.89   77.89
  -4  -3   2 1094.89   48.20
   4   3   2 1222.48   74.89
   4   3   2  972.00   45.60
   4  -3  -2 1016.60   45.70
  -4  -3   2 1081.69   48.30
  -4   3  -2 1049.89   72.99
   4  -3  -2 1047.90   44.20
   4  -3  -2 1056.29   49.20
  -4  -3  -3  173.08   26.40
   4   3  -3  149.19   31.80
   4  -3   3  225.08   15.70
  -4   3   3  209.68   11.40
  -4  -3  -3  179.18   13.90
   4   3   3  190.58   29.20
   4  -3  -3  176.98   12.50
  -4   3  -3  208.78   31.50
  -4  -3   3  209.98   13.40
  -4  -3   3  208.18   14.20
   4  -3  -3  163.48   12.20
  -4   3   4  212.48   12.80
   4   3  -4  247.08   48.20
   4  -3   4  214.58   18.30
   4   3   4  212.98   15.50
  -4  -3   4  196.08   13.90
  -4  -3   4  216.68   16.10
   4  -3  -4  231.18   16.10
  -4   3  -4  265.37   39.00
   4  -3  -4  201.38   14.80
   5  -3   0   21.00    6.90
   5   3   0   15.50    9.00
  -5   3   0   26.00    9.30
  -5  -3   0   24.40    4.10
  -5  -3   0   27.60    4.10
  -5  -3   0   25.90   10.20
  -5   3   1 1642.44   68.39
  -5  -3  -1 1663.13   98.39
  -5   3   1 1643.54   85.39
  -5  -3  -1 1559.34   68.79
   5   3  -1 1602.34   99.39
  -5  -3  -1 1582.04   71.59
   5   3   1 1632.84   98.69
  -5  -3   1 1690.13  102.39
  -5  -3   1 1696.53   70.59
   5  -3  -1 1597.74   68.39
  -5  -3   1 1628.34   70.99
  -5   3  -1 1551.24   93.89
   5  -3  -1 1662.93   82.29
  -5   3   2 2830.72  115.79
  -5  -3  -2 2847.02  120.09
  -5  -3  -2 2951.10  152.18
   5   3  -2 2785.62  155.08
   5  -3  -2 2720.23  124.19
   5   3   2 2928.71  152.68
   5  -3  -2 2835.12  115.39
  -5   3  -2 2716.73  150.28
  -5  -3   2 2742.63  118.29
  -5  -3   2 2836.22  118.79
  -5  -3  -3  233.18   17.00
  -5  -3  -3  230.38   35.00
   5   3  -3  248.78   37.70
  -5   3   3  228.08   13.30
   5  -3   3  234.18   17.20
   5   3   3  199.68   31.20
  -5   3  -3  199.28   33.90
   5  -3  -3  235.78   17.00
  -5  -3   3  222.18   16.00
  -5  -3   3  229.48   14.90
   5  -3   4  666.43   39.00
  -5   3   4  650.83   31.40
   5   3  -4  629.04   69.49
  -5   3  -4  667.73   67.89
  -5  -3   4  645.34   32.40
  -5  -3   4  687.43   36.20
   5   3   4  642.94   35.40
  -6  -3   0  115.89   10.00
  -6  -3   0  107.09   23.10
  -6   3   0  110.09   18.30
   6   3   0  105.59   23.40
  -6  -3   0  122.09    9.30
   6  -3   0  124.49   18.90
  -6   3   1 1508.25   84.89
   6   3  -1 1534.35   97.29
  -6  -3  -1 1494.35   96.49
  -6  -3  -1 1422.66   66.09
  -6   3   1 1436.46   62.49
  -6  -3  -1 1517.75   63.59
   6  -3   1 1406.66   91.09
  -6   3  -1 1361.56   89.99
  -6  -3   1 1420.26   64.99
   6   3   1 1483.35   96.89
   6  -3  -1 1478.05   80.09
  -6  -3   1 1419.56   64.49
  -6  -3   1 1463.95   97.89
  -6  -3  -2  770.62   65.39
  -6  -3  -2  763.62   39.70
  -6   3   2  799.72   35.80
   6   3  -2  776.12   66.99
   6  -3  -2  779.02   47.10
  -6  -3   2  761.22   38.10
   6   3   2  742.03   66.09
  -6  -3   2  737.13   37.30
  -6   3  -2  785.72   66.09
   6  -3   3  125.49   11.90
  -6  -3  -3   95.99   10.70
  -6   3   3  119.19    8.90
   6   3  -3  132.59   32.40
  -6  -3   3  116.49    9.50
  -6  -3   3  111.69   10.80
  -6   3  -3   68.39   22.70
   6  -3  -3  116.59   13.20
   6   3   3   73.09   30.60
  -6   3   4  190.88   12.60
   6  -3   4  179.98   16.80
  -6  -3   4  164.58   11.90
  -6  -3   4  177.48   14.90
   6   3   4  198.88   15.90
  -7  -3   0   -2.20    7.20
   7  -3   0    1.30    4.20
   7   3   0   -4.10    7.50
  -7  -3   0   -0.10    1.20
  -7   3   1  482.95   25.00
   7  -3   1  459.15   47.90
   7   3  -1  503.05   52.29
  -7   3   1  520.15   46.50
  -7  -3  -1  537.65   26.50
  -7  -3  -1  502.85   28.70
  -7   3  -1  519.35   51.29
  -7  -3   1  484.15   26.80
  -7  -3   1  459.85   26.80
   7  -3  -1  470.65   40.40
  -7  -3   1  592.14   57.99
  -7  -3  -2 1459.35   68.49
  -7  -3  -2 1442.66  103.39
   7   3  -2 1559.34  106.49
  -7   3   2 1484.25   63.99
   7   3   2 1413.86  102.99
  -7  -3   2 1440.06   66.29
  -7  -3   2 1421.36   65.19
   7  -3  -2 1390.66   84.49
  -7   3  -2 1425.46  101.49
  -7   3   3   48.90    5.70
  -7  -3  -3   46.70   22.60
   7   3  -3   12.10   13.30
   7  -3   3   41.80    8.10
   7   3   3   29.80   24.20
   7  -3  -3   34.80    9.90
  -7  -3   3   46.00    7.40
  -7  -3   3   40.00    5.50
  -7   3  -3   40.70   22.60
   8   3   0   24.50   18.20
  -8  -3   0   43.10   21.00
  -8  -3   0   77.69    8.00
  -8  -3   0   72.09    8.30
   8  -3   0   55.39   18.60
  -8   3   0   66.29   19.00
  -8  -3  -1 1284.07   57.39
  -8   3   1 1241.28   86.39
  -8  -3  -1 1283.87   97.29
  -8   3   1 1291.17   56.49
  -8  -3  -1 1255.67   60.49
   8   3  -1 1160.58   92.29
   8  -3   1 1225.18   91.49
  -8  -3   1 1218.58   97.69
   8  -3  -1 1270.37   81.19
   8   3   1 1278.17   97.69
  -8  -3   1 1278.37   58.69
  -8   3  -1 1209.58   92.39
  -8  -3   1 1199.88   58.39
  -8  -3  -2  461.75   28.80
  -8  -3  -2  429.36   55.09
  -8   3   2  464.85   24.60
  -8  -3   2  452.75   25.50
   8   3   2  420.16   53.89
  -8  -3   2  441.56   26.40
   8  -3  -2  443.96   39.40
  -8   3  -2  424.26   53.69
   9   3   0   -2.10   20.10
  -9  -3   0   -2.10   19.70
  -9  -3   0   17.20    4.60
   9  -3   0   10.20   11.20
  -9  -3   0   17.80    4.70
  -9   3   0   10.40   19.20
   9   3  -1  287.27   46.10
  -9   3   1  266.17   44.10
  -9  -3  -1  343.97   52.89
  -9   3   1  333.27   20.20
   9  -3   1  312.57   48.70
  -9  -3  -1  355.76   21.30
  -9  -3  -1  378.46   32.70
  -9  -3   1  325.87   21.60
  -9  -3   1  351.56   22.20
  -9  -3   1  272.57   52.79
   9   3   1  403.76   50.89
   0  -4   0  194.78   10.20
   0   4   0  202.18   10.80
   0  -4   0  212.48   11.80
   0   4   0  232.88   22.40
   0  -4   1 2796.62  111.99
   0  -4  -1 2467.15  107.89
   0   4  -1 2636.84  111.89
   0  -4   1 2839.72  109.89
   0   4   1 2639.34  117.79
   0  -4   2   53.99    6.60
   0  -4  -2   81.29    9.40
   0  -4   2   60.09    5.90
   0   4   2   51.99    8.30
   0  -4   3 3713.83  154.78
   0  -4  -3 3531.55  159.58
   0  -4   3 3779.12  152.18
   0  -4  -3 3556.64  147.89
   0  -4   4   45.90    8.10
   0  -4  -4   32.10   10.00
   0  -4   4   24.60    6.60
   0  -4   5   27.30    7.60
   0  -4   5   14.40    5.20
   1   4   0 7329.07  314.47
  -1   4   1   81.09    7.60
   1   4  -1   70.59    5.60
   1   4  -1   90.99    7.30
   1  -4   1   75.29    6.70
  -1  -4  -1   84.59    5.80
  -1  -4  -1   84.99   11.50
  -1  -4   1   61.59    5.60
   1   4   1   72.19    4.60
  -1  -4   1   67.89    6.60
   1   4   1   46.80   10.00
   1  -4   2  913.31   42.10
  -1  -4  -2 1024.60   40.30
   1  -4   2  902.21   44.20
  -1  -4  -2  886.91   53.69
  -1  -4   2  824.32   43.40
   1   4   2  953.30   56.89
  -1  -4   2  871.01   41.90
   1  -4   3  129.59   10.70
  -1  -4  -3  124.79    8.90
  -1  -4  -3  139.79   16.90
   1  -4   3  131.89   12.10
  -1  -4   3  105.39   10.80
   1  -4  -3  128.49   11.10
   1  -4  -3  120.89    7.50
  -1  -4   3  115.79   10.20
   1  -4   4 1288.97   60.39
  -1  -4  -4 1204.78   71.69
   1  -4   4 1276.67   57.39
   1  -4  -4 1219.08   61.49
  -1  -4   4 1086.79   56.29
  -1  -4   4 1047.70   62.99
   1  -4   5   93.59   11.70
  -1  -4   5   68.89    9.20
   2   4   0  896.61   58.89
  -2  -4   0  915.31   38.30
  -2  -4   0  821.42   55.49
   2   4   0  876.61   37.40
  -2  -4   0  953.90   40.40
   2   4   0  834.92   38.70
  -2   4   1 2252.67   86.79
   2  -4   1 1994.50   87.49
  -2  -4  -1 1871.41  102.59
   2   4  -1 1981.20   86.39
   2   4  -1 1998.80   87.99
  -2   4   1 2104.89   87.09
   2   4  -1 1927.71  114.49
  -2  -4  -1 1983.20   87.49
  -2  -4  -1 2215.78   84.99
  -2  -4   1 2139.49   87.69
   2   4   1 2265.67   86.39
  -2  -4   1 2109.19   89.59
   2   4   1 2256.67   84.79
   2  -4  -1 2101.39   84.89
   2   4   1 2251.27  107.39
   2   4  -2  659.63   56.39
   2  -4   2  599.64   30.70
  -2  -4  -2  579.64   28.20
  -2  -4  -2  580.84   41.60
  -2  -4   2  616.84   31.20
   2   4   2  567.64   24.90
   2   4   2  593.34   26.10
  -2  -4   2  545.95   29.00
   2   4   2  634.54   44.40
  -2  -4  -3 2865.81  180.38
   2  -4   3 3301.47  142.49
  -2  -4  -3 3278.87  137.39
   2  -4   3 3455.65  139.99
  -2  -4   3 3593.44  141.69
   2   4   3 3451.35  165.08
  -2   4  -3 3356.76  180.68
  -2  -4   3 3142.99  139.19
   2  -4   4  243.28   17.20
  -2  -4  -4  235.68   37.80
  -2   4   4  229.48   11.40
   2  -4   4  239.58   19.00
  -2   4  -4  150.28   33.80
   2   4   4  216.58   11.30
  -2  -4   4  238.58   17.30
   3  -4   0 6222.68  253.77
  -3   4   0 6987.80  272.27
   3   4   0 6348.86  255.37
  -3  -4   0 6048.29  254.37
  -3  -4   0 6137.59  280.47
  -3  -4   0 6311.17  256.67
   3   4   0 6642.04  253.67
   3   4   0 6109.09  283.97
  -3  -4  -1   62.69    4.60
   3   4  -1   40.40   14.40
  -3  -4  -1   73.29   16.40
  -3  -4  -1   56.49    6.00
  -3   4   1   58.99    6.80
   3   4   1   57.59    5.30
   3   4   1   59.59   15.40
   3   4   1   60.99    4.40
  -3  -4   1   70.19    6.00
   3  -4  -1   62.39    4.60
  -3   4  -1   68.19   16.10
  -3  -4   1   60.79    6.30
   3   4  -2  624.94   58.29
   3  -4   2  614.34   32.20
  -3  -4  -2  664.53   31.90
  -3  -4  -2  621.94   47.50
  -3   4   2  628.04   27.90
   3  -4  -2  700.83   28.80
  -3   4  -2  717.53   57.29
   3   4   2  663.33   50.79
  -3  -4   2  603.84   31.90
  -3  -4   2  624.84   33.00
   3   4   2  654.13   30.10
   3   4   2  676.43   28.30
  -3  -4  -3   76.89    7.70
  -3   4   3   78.99    5.20
  -3  -4  -3   67.49   15.80
   3  -4   3   87.59    9.60
   3   4  -3   76.69   21.90
   3  -4  -3   80.99    5.80
   3   4   3   74.59    6.10
  -3  -4   3   63.79    7.80
  -3  -4   3   69.79    8.10
   3   4   3   76.19   18.70
   3   4   3   82.49    7.00
  -3   4  -3   91.99   26.00
   3  -4   4 1050.09   50.19
  -3   4   4 1019.80   42.40
   3  -4   4 1018.60   53.29
   3   4  -4  936.91   90.89
   3   4   4 1002.30   43.30
  -3  -4   4  951.00   49.50
  -3   4  -4  900.31   83.89
  -3  -4   4  954.30   52.89
  -4  -4   0   92.69   20.30
  -4  -4   0   71.69    7.30
  -4   4   0   74.49   12.40
   4   4   0   77.19   19.50
  -4  -4   0   73.49    7.20
  -4   4   1 1689.63   74.39
  -4  -4  -1 1426.26   66.39
  -4  -4  -1 1494.75   63.69
  -4  -4  -1 1504.25   89.99
   4   4  -1 1493.45   96.69
   4   4   1 1493.05   63.39
  -4  -4   1 1602.44   66.09
   4   4   1 1603.54   92.29
  -4  -4   1 1471.15   66.69
  -4   4  -1 1344.37   86.39
   4  -4  -1 1521.55   63.89
  -4  -4  -2  116.49    9.60
  -4   4   2   95.89    6.40
   4   4  -2  122.29   29.70
   4  -4   2  108.39    9.30
  -4  -4  -2  114.59   19.10
   4   4   2  108.89   24.50
   4  -4  -2  105.69    7.20
  -4   4  -2   89.69   23.60
  -4  -4   2   83.49    8.40
   4   4   2   95.19    6.80
  -4  -4   2  100.09    9.00
   4  -4   3 2335.67  107.79
   4   4  -3 2347.77  150.68
  -4   4   3 2546.65  100.99
  -4  -4  -3 2475.65  106.79
   4   4   3 2322.07  137.79
  -4   4  -3 2495.85  146.89
  -4  -4   3 2573.84  106.39
  -4  -4   3 2562.04  107.49
  -4   4   4   81.09    6.10
   4   4  -4   46.70   27.00
   4  -4   4   77.49   10.40
  -4  -4   4   64.69    7.80
   4   4   4   80.09    7.90
  -4  -4   4   82.89    9.40
  -4   4  -4   97.79   26.70
  -5   4   0 5135.49  225.18
  -5  -4   0 4895.11  235.38
  -5  -4   0 4974.60  202.88
   5   4   0 4881.21  238.68
  -5  -4   0 4811.82  200.58
  -5  -4  -1  112.09   42.00
  -5  -4  -1  133.49   10.70
  -5  -4  -1  127.09    8.80
   5   4  -1  185.58   29.60
  -5   4   1  121.19   15.90
   5   4   1   63.79   24.10
  -5  -4   1  107.89    9.80
  -5  -4   1  135.29   29.80
  -5  -4   1  128.49    9.90
   5  -4  -1  116.79    8.00
  -5   4   2  476.15   22.90
   5   4  -2  508.45   54.39
  -5  -4  -2  537.05   49.80
   5  -4   2  460.25   26.20
  -5  -4  -2  448.86   26.70
  -5  -4   2  490.75   26.80
  -5   4  -2  472.55   48.10
  -5  -4   2  493.85   26.60
   5  -4  -2  488.75   22.60
   5   4   2  472.25   47.50
   5   4  -3  105.69   27.60
  -5  -4  -3  125.49   11.50
  -5   4   3  116.39    8.10
   5  -4   3  119.49   11.50
  -5  -4  -3  126.99   27.90
  -5  -4   3  103.49   10.50
   5  -4  -3  121.39    7.90
  -5  -4   3  107.69   10.20
  -5   4  -3  133.99   30.30
   5   4   3   89.39   23.00
   5   4  -4  914.31   89.49
  -5   4   4  897.71   39.70
   5  -4   4  849.91   54.29
   5   4   4  888.81   43.70
  -5  -4   4  896.11   43.60
  -5   4  -4  705.83   76.09
  -5  -4   4  939.41   47.60
   6   4   0   25.60   13.30
  -6  -4   0   15.70    3.50
  -6  -4   0   24.70   12.40
  -6  -4   0   17.00    3.90
  -6  -4  -1 1018.30   50.19
  -6   4   1 1081.09   65.69
  -6  -4  -1 1028.80   78.39
  -6  -4  -1 1066.79   47.30
   6   4  -1  980.70   80.59
  -6  -4   1 1045.80   81.69
  -6  -4   1  988.90   49.10
  -6  -4   1 1078.79   49.10
   6   4   1 1064.09   80.59
  -6  -4  -2   56.99   18.80
  -6   4   2   38.70    4.20
  -6  -4  -2   38.60    6.10
   6   4  -2   26.10   18.90
  -6   4  -2   30.10   13.40
  -6  -4   2   32.90    6.40
  -6  -4   2   38.40    6.70
   6   4   2   20.60   15.00
  -6   4   3 1816.42   76.59
  -6  -4  -3 1807.02   83.39
   6  -4   3 1774.62   82.99
   6   4  -3 1618.94  124.09
  -6  -4  -3 1834.22  119.99
   6   4   3 1809.82  122.49
  -6  -4   3 1887.71   82.79
  -6  -4   3 1784.32   80.29
  -6   4  -3 1861.91  125.99
  -7   4   0 2615.94  143.19
  -7  -4   0 2488.75  111.59
   7   4   0 2577.54  152.08
  -7  -4   0 2582.54  151.88
  -7  -4   0 2630.44  110.09
  -7  -4  -1   31.20   14.30
  -7  -4  -1   16.30    4.30
  -7   4   1   21.20   10.10
   7   4  -1    7.00   13.50
   7  -4  -1   24.20    9.20
  -7  -4   1   18.90   14.30
  -7  -4   1   26.10    5.20
  -7  -4   1   18.40    4.40
  -7   4  -1    4.90    7.70
   7   4   1    7.20   13.10
  -7  -4  -2  253.87   49.10
  -7  -4  -2  263.57   19.40
  -7   4   2  253.27   15.20
   7   4  -2  279.07   44.40
  -7  -4   2  234.38   17.10
   7   4   2  264.77   40.30
   7  -4  -2  267.47   24.40
  -7   4  -2  238.48   38.20
  -7  -4   2  271.57   18.50
   7  -4   3   38.20    8.00
  -7  -4  -3   25.20    9.20
  -7   4   3   29.40    4.90
   7   4  -3   44.70   26.50
  -7  -4   3   22.90    6.10
  -7  -4   3   18.30    4.20
  -7   4  -3   44.10   19.80
  -8  -4   0  181.28   14.90
  -8  -4   0  214.28   42.70
  -8  -4   0  162.88   13.30
  -8   4   0  152.78   33.00
   8   4   0  157.38   38.40
  -8  -4  -1  485.45   59.49
   8   4  -1  588.84   62.79
  -8  -4  -1  511.65   28.00
  -8  -4  -1  510.45   31.00
  -8   4   1  519.05   50.79
   8  -4  -1  426.76   42.30
   8   4   1  528.35   60.49
  -8  -4   1  557.24   29.90
  -8  -4   1  555.64   30.50
  -8  -4   1  507.35   61.89
   8   4  -2  145.39   36.20
  -8   4   2  145.69   10.90
  -8  -4  -2   96.69   28.80
  -8  -4  -2  135.39   15.10
  -8  -4   2  140.29   15.30
   8  -4  -2  177.78   21.90
  -8   4  -2  176.08   41.50
   8   4   2  181.18   39.70
  -8  -4   2  141.09   12.40
  -9  -4   0 1432.66  114.79
  -9  -4   0 1448.66   78.19
  -9  -4   0 1573.14   73.69
   9   4   0 1577.34  118.89
   0   5   0  758.92   51.69
   0   5   0  793.22   33.90
   0  -5   0  771.92   35.30
   0  -5   0  757.52   33.20
   0  -5   1 5256.07  206.48
   0  -5   1 5188.18  203.78
   0   5  -1 5108.29  204.88
   0  -5  -1 4900.61  202.68
   0   5   1 4783.52  215.58
   0  -5   2  163.78   12.70
   0  -5   2  171.78   11.30
   0  -5  -2  146.79    8.80
   0  -5  -2  138.19   14.40
   0   5   2  153.38   15.20
   0  -5  -3  283.17   15.00
   0  -5   3  297.37   20.20
   0  -5  -3  271.37   22.10
   0  -5   3  261.47   17.40
   0  -5   4   93.29   10.00
   0  -5  -4   97.59   15.80
   0  -5   4   94.49   11.20
   1   5   0    5.50    1.60
   1  -5   0    1.90    1.00
  -1  -5   0    5.80    1.60
   1   5   0    4.50    1.30
   1  -5   0    6.70    1.80
   1   5   0    6.20    4.90
   1   5  -1  344.37   19.60
   1  -5   1  311.77   17.40
   1   5  -1  325.57   17.50
  -1  -5  -1  368.56   29.70
   1  -5   1  328.87   19.20
   1   5  -1  343.47   36.00
  -1  -5  -1  335.77   17.70
  -1   5   1  358.86   23.30
   1   5   1  333.37   15.70
   1  -5  -1  349.27   17.70
   1   5   1  330.77   28.60
  -1  -5   1  322.07   17.50
  -1  -5   1  379.66   20.90
  -1  -5  -2 3922.51  156.58
   1  -5   2 3594.94  157.98
  -1  -5  -2 3698.13  171.38
   1  -5   2 3955.50  161.48
  -1  -5   2 3974.00  158.78
  -1  -5   2 4003.50  161.78
   1   5   2 3745.33  173.08
   1  -5   3  228.48   17.30
  -1  -5  -3  216.58   23.10
   1  -5   3  255.57   16.10
  -1  -5  -3  212.78   13.30
  -1  -5   3  204.68   16.70
  -1  -5   3  229.08   15.80
   1  -5   4 1073.69   52.39
   1  -5   4 1036.60   49.00
  -1  -5   4  852.41   49.70
  -1  -5   4  940.01   48.70
   2   5   0  746.53   33.10
   2  -5   0  743.53   33.70
  -2  -5   0  853.91   37.30
  -2  -5   0  752.92   34.00
   2   5   0  776.42   57.59
   2   5   0  754.32   34.90
   2   5  -1 2958.40  155.68
  -2  -5  -1 2929.61  145.39
  -2   5   1 3002.90  125.19
  -2  -5  -1 2996.70  122.19
  -2  -5  -1 3053.89  118.59
   2  -5   1 2730.13  121.99
  -2   5   1 3114.59  124.99
   2   5   1 2867.01  119.69
   2   5   1 2934.51  146.59
  -2  -5   1 2719.83  123.89
   2   5   1 2889.81  118.09
   2  -5  -1 3188.98  118.59
   2   5  -2  197.08   30.80
   2  -5   2  139.59   11.80
  -2  -5  -2  157.68   10.60
  -2  -5  -2  139.89   19.10
   2   5   2  155.08   20.50
  -2  -5   2  140.29   10.90
   2   5   2  157.38    8.10
  -2  -5   2  140.89   12.30
  -2  -5  -3   80.89    7.80
   2  -5   3  110.39    9.80
   2  -5   3   99.89   10.90
  -2  -5   3   95.89   10.50
   2   5   3   65.19   16.20
  -2  -5   3  102.99    9.80
   2  -5   4   45.30    8.10
  -2  -5  -4   39.90    6.00
   2  -5   4   50.69    7.90
  -2   5  -4   28.70   19.60
  -2  -5   4   48.20    8.90
  -2  -5   4   41.80    8.40
   3   5   0    6.40    1.70
  -3  -5   0    7.60    6.70
  -3   5   0    6.50    4.40
  -3  -5   0    9.50    2.70
  -3   5   1  549.35   28.00
   3  -5   1  513.05   25.40
   3   5  -1  488.35   48.10
  -3  -5  -1  479.95   22.90
  -3  -5  -1  497.05   26.20
  -3  -5  -1  520.35   42.60
   3   5   1  459.65   42.30
   3  -5  -1  504.95   23.00
  -3  -5   1  521.75   27.70
   3   5   1  505.65   24.60
   3   5   1  502.75   22.60
  -3  -5   1  489.15   25.40
   3  -5   2 3066.89  135.59
  -3  -5  -2 3461.75  160.88
   3   5  -2 3279.97  178.88
  -3  -5  -2 3226.88  134.79
   3  -5  -2 3116.49  129.99
   3   5   2 3025.70  129.49
  -3   5  -2 3373.76  175.08
   3   5   2 3252.37  131.69
   3   5   2 3360.06  163.28
  -3  -5   2 3062.19  135.09
  -3  -5   2 3419.46  138.19
  -3  -5  -3   32.00    4.90
   3   5  -3   34.50   17.50
   3  -5   3   24.50    5.90
   3   5   3   38.40   18.40
   3   5   3   27.50    3.30
  -3  -5   3   22.40    5.30
  -3  -5   3   18.50    4.70
   3   5   3   23.90    3.10
  -3   5  -3   46.90   18.30
   3   5  -4 1059.69   94.19
   3  -5   4  946.01   51.09
  -3  -5  -4  948.61   46.90
   3  -5   4  963.10   48.00
  -3  -5   4  791.32   47.00
  -3   5  -4 1035.80   91.59
  -3  -5   4  905.81   48.50
  -4  -5   0  299.47   17.50
  -4   5   0  332.17   30.00
  -4  -5   0  349.57   37.30
  -4  -5   0  337.37   20.10
   4   5   0  375.46   39.40
  -4  -5  -1 2616.64  107.39
  -4  -5  -1 2760.32  139.79
  -4  -5  -1 2408.76  110.59
  -4   5   1 2768.22  116.89
   4   5  -1 2561.24  148.99
  -4  -5   1 2691.73  112.19
  -4  -5   1 2589.14  109.99
   4  -5  -1 2708.43  108.09
   4   5   1 2811.22  143.69
   4   5   1 2277.47  109.09
  -4  -5  -2  113.99   10.30
   4   5  -2  170.08   37.30
  -4  -5  -2  123.29   20.80
   4  -5   2  118.99   10.50
  -4  -5   2  122.49   10.60
  -4   5  -2  120.79   28.90
   4  -5  -2  134.19    8.30
   4   5   2  118.79    7.70
   4   5   2  119.09   24.90
  -4  -5   2  139.89   11.90
  -4  -5  -3  144.69   12.20
  -4   5   3  137.29    7.80
   4  -5   3  148.19   13.50
   4   5  -3  166.38   38.20
  -4  -5  -3  164.48   31.10
   4  -5  -3  128.99    8.40
   4   5   3  142.89   10.40
  -4  -5   3  134.69   12.60
   4   5   3   84.29   21.80
   4   5   3  132.39    8.20
  -4  -5   3  144.89   12.80
  -4   5  -3  123.49   29.70
   4   5  -4   56.79   27.40
   4  -5   4   38.40    7.00
  -4  -5  -4   30.30    6.50
  -4   5   4   46.50    5.10
   4  -5   4   52.39   10.40
  -4  -5   4   48.00    7.40
  -4  -5   4   49.80    9.20
  -4   5  -4   44.20   22.90
  -5  -5   0    3.00    1.60
  -5  -5   0    7.30    7.30
  -5   5   0    9.90    5.70
   5   5   0    5.40    9.10
  -5  -5   0    0.90    1.30
   5   5  -1  183.48   38.00
  -5  -5  -1  203.18   14.80
  -5  -5  -1  167.48   26.90
  -5  -5  -1  190.78   12.00
  -5   5   1  192.68   19.50
   5   5   1  182.18   29.10
  -5  -5   1  171.78   13.10
  -5   5  -1  194.18   27.80
  -5  -5   1  212.18   15.20
  -5  -5  -2 1994.50   97.99
   5   5  -2 2011.20  136.09
  -5  -5  -2 2279.17  127.19
  -5  -5   2 2139.69  101.89
   5   5   2 2077.79  127.19
  -5  -5   2 2145.89   92.79
  -5  -5  -3  213.78   33.70
   5   5  -3  164.08   38.30
   5  -5   3  239.78   18.10
  -5  -5  -3  226.48   17.10
  -5   5   3  222.88   12.20
  -5  -5   3  232.18   17.30
  -5  -5   3  231.58   17.50
  -5   5  -3  248.88   40.70
   5   5   3  218.38   34.40
   5  -5   4  627.44   38.30
  -5  -5  -4  607.74   36.10
  -5  -5   4  605.84   34.50
  -5  -5   4  591.94   35.90
   5   5   4  611.64   31.60
  -5   5  -4  696.93   78.99
  -6  -5   0  303.97   17.50
   6   5   0  289.07   41.60
  -6   5   0  265.77   31.10
  -6  -5   0  253.47   37.50
  -6  -5   0  254.77   18.40
  -6  -5  -1 1982.50   82.19
  -6  -5  -1 1925.41  119.59
  -6  -5  -1 1899.11   85.99
  -6   5   1 1856.41   99.69
   6   5  -1 2045.70  128.89
  -6  -5   1 1846.82   84.39
   6   5   1 1990.20  124.19
  -6   5  -1 1871.81  116.39
  -6  -5   1 1870.41   85.69
   6   5  -2   33.00   21.10
   6  -5   2   48.20    6.70
  -6  -5  -2   41.70    6.70
   6   5   2   43.60   17.90
  -6   5  -2   43.90   29.90
  -6  -5   2   56.69    7.50
  -6  -5   2   45.40    7.50
  -6   5   3  118.09    8.20
  -6  -5  -3  112.39   12.00
   6   5  -3   78.29   29.30
   6  -5   3  134.89   12.70
  -6   5  -3   81.49   27.60
  -6  -5   3  132.09   12.50
  -6  -5   3  118.29   11.80
   7   5   0   18.80   15.90
  -7  -5   0   45.10   18.40
  -7   5   0    9.90   10.30
  -7  -5   0   20.40    5.00
  -7  -5   0   25.80    5.40
  -7  -5  -1  116.19    9.90
  -7  -5  -1   91.89   24.50
  -7  -5  -1  122.99   12.00
   7   5  -1  101.89   28.90
  -7   5   1  121.59   35.30
  -7  -5   1  127.59   34.40
  -7   5  -1   91.89   23.50
  -7  -5   1  131.89   11.50
   7   5   1   96.49   29.10
  -7  -5   1  119.89   11.60
  -7  -5  -2 1523.45   73.89
   7   5  -2 1541.55  118.69
  -7  -5  -2 1518.95  109.69
   7   5   2 1577.14  114.49
  -7  -5   2 1615.74   72.79
  -7  -5   2 1544.65   72.59
  -8  -5   0  112.09   10.40
  -8  -5   0  121.69   34.60
   8   5   0  119.39   36.40
  -8   5   0   98.79   28.70
  -8  -5   0  126.49   12.40
  -8  -5  -1  937.01   44.90
   8   5  -1  972.30   90.39
  -8   5   1  796.82   65.39
  -8  -5  -1 1001.80   49.99
   8   5   1  871.51   85.19
  -8  -5   1  919.21   87.89
  -8   5  -1  962.60   81.89
  -8  -5   1  943.61   46.90
  -8  -5   1  853.61   46.80
   0   6   0 1895.61  105.59
   0  -6   0 2034.20   83.69
   0  -6   0 1991.40   80.99
   0   6   0 1933.81   81.09
   0  -6   1 2001.60   83.19
   0  -6  -1 1763.62   79.59
   0  -6   1 1970.10   80.19
   0   6   1 1883.91   95.89
   0   6   2  236.78   20.80
   0  -6  -2  260.37   13.70
   0  -6   2  254.27   17.60
   0  -6   2  246.88   15.30
   0  -6   3 2553.44  109.09
   0  -6   3 2467.45  105.49
   0  -6  -3 2417.66  110.69
   0  -6  -3 2364.16  101.29
   0  -6  -4  345.87   19.70
   0  -6   4  366.66   23.20
   0  -6   4  337.87   24.80
  -1  -6   0 3503.85  140.19
   1   6   0 3332.07  137.79
  -1  -6   0 3360.16  136.59
   1   6   0 3217.68  167.98
   1  -6   0 3468.55  136.49
   1  -6   0 3311.37  138.49
   1  -6   1  527.25   25.30
   1   6  -1  474.95   46.50
  -1   6   1  502.65   33.70
   1  -6   1  502.45   27.10
  -1  -6  -1  536.75   26.10
   1  -6  -1  492.75   23.80
  -1  -6   1  518.15   28.00
   1   6   1  522.75   40.80
  -1  -6   1  544.45   25.60
  -1  -6  -2  280.67   15.20
   1  -6   2  259.37   15.70
   1  -6   2  248.48   17.40
  -1  -6  -2  217.48   23.30
   1   6   2  221.08   23.70
  -1  -6   2  241.38   15.60
  -1  -6   2  257.57   18.00
  -1  -6  -3  793.72   35.40
   1  -6   3  705.93   39.50
  -1  -6  -3  737.33   49.60
   1  -6   3  725.93   36.90
   1   6   3  646.44   50.59
  -1  -6   3  754.32   37.70
  -1  -6   3  748.83   40.70
   1  -6   4  853.61   45.90
   1  -6   4  875.81   43.10
  -1  -6  -4  784.22   40.00
  -1  -6   4  853.91   43.60
  -1  -6   4  781.12   45.60
   2  -6   0  915.91   39.30
   2   6   0  832.02   37.50
   2   6   0  856.71   65.09
  -2  -6   0  838.12   38.30
  -2  -6   0  901.11   42.10
   2   6   0  850.31   39.50
   2   6  -1 1625.94   98.79
  -2  -6  -1 1372.96   58.79
  -2   6   1 1468.65   68.99
  -2  -6  -1 1459.95   84.59
   2  -6   1 1403.36   63.39
  -2  -6  -1 1532.85   63.49
  -2  -6   1 1409.16   65.39
   2  -6  -1 1458.25   58.79
   2   6   1 1357.66   58.29
  -2  -6   1 1336.77   61.89
   2   6   1 1434.46   60.29
   2  -6  -1 1369.16   59.19
   2   6   1 1442.76   85.59
   2   6  -2  443.46   48.40
   2  -6   2  363.86   22.80
   2  -6   2  349.57   20.60
  -2  -6  -2  392.96   21.00
  -2  -6   2  333.47   23.00
  -2  -6   2  347.47   20.90
   2   6   2  394.26   36.30
   2  -6   3 1927.51   84.69
  -2  -6  -3 1803.02   79.29
   2  -6   3 1906.21   81.09
   2   6  -3 1718.23  123.19
  -2  -6   3 1677.03   83.79
   2   6   3 1723.23  103.09
  -2  -6   3 1901.11   82.09
  -2  -6  -4  204.18   15.30
   2  -6   4  225.68   18.80
   2  -6   4  244.38   17.10
  -2   6  -4  164.98   39.00
  -2  -6   4  203.98   16.70
  -2  -6   4  203.28   18.10
  -3  -6   0 4333.07  184.88
   3  -6   0 4532.35  183.88
  -3   6   0 4969.10  211.28
  -3  -6   0 4260.87  187.58
   3   6   0 4717.73  225.98
  -3   6   1  427.56   25.20
   3   6  -1  426.26   46.00
  -3  -6  -1  378.36   37.70
  -3  -6  -1  368.76   22.30
  -3  -6  -1  386.66   18.70
   3  -6   1  362.86   21.10
  -3   6   1  419.36   25.60
  -3   6  -1  431.36   43.90
   3   6   1  397.16   20.60
  -3  -6   1  397.66   24.20
   3   6   1  374.36   39.00
  -3  -6   1  387.36   21.40
   3  -6  -1  380.16   19.10
   3   6  -2  628.94   62.19
  -3  -6  -2  526.85   46.20
   3  -6   2  573.64   32.10
  -3  -6  -2  617.54   31.30
  -3  -6   2  624.84   34.50
  -3   6  -2  569.14   58.39
   3   6   2  575.94   50.39
   3   6   2  630.54   27.70
  -3  -6   2  591.34   31.50
   3   6  -3  664.63   66.99
  -3  -6  -3  590.84   31.30
  -3  -6  -3  603.34   49.90
   3  -6   3  579.94   31.60
   3  -6   3  578.84   34.30
   3   6   3  543.35   50.89
  -3  -6   3  558.54   34.30
  -3   6  -3  663.73   69.09
  -3  -6   3  531.45   32.00
   3  -6   4 1104.99   58.29
   3  -6   4 1024.40   57.89
  -3  -6  -4 1095.49   52.19
   3   6  -4 1121.59  102.79
  -3  -6   4  944.01   54.39
  -3  -6   4 1070.19   58.39
  -3   6  -4 1021.70   96.69
  -4  -6   0  919.41   42.40
  -4  -6   0  934.61   70.99
   4   6   0  837.12   71.39
  -4  -6   0  942.41   45.90
  -4   6   0  973.20   61.79
  -4  -6  -1 1166.28   54.99
  -4  -6  -1 1232.68   59.59
  -4  -6  -1 1186.58   82.79
  -4   6   1 1340.77   68.49
   4  -6   1 1276.97   57.39
   4   6  -1 1274.37  101.39
  -4   6  -1 1322.07   87.79
  -4  -6   1 1413.76   61.29
  -4  -6   1 1249.28   57.89
   4   6   1 1366.16   89.69
  -4  -6  -2  199.68   14.90
   4  -6   2  205.58   15.20
   4   6  -2  208.28   35.40
   4  -6  -2  190.28   11.10
  -4  -6   2  208.18   16.60
   4   6   2  191.48   31.70
  -4   6  -2  208.18   35.20
   4   6   2  207.28   10.90
   4  -6   3 1621.34   79.39
   4   6  -3 1568.74  123.09
  -4  -6  -3 1678.33   77.49
   4   6   3 1868.81   73.79
  -4   6  -3 1779.52  125.29
  -4  -6   3 1541.55   77.69
  -4  -6   3 1785.32   80.99
   4  -6   4  241.28   17.90
   4  -6   4  230.48   19.80
  -4  -6  -4  213.98   17.30
   4   6  -4  221.08   45.20
  -4  -6   4  187.48   17.50
  -4  -6   4  184.68   17.40
  -4   6  -4  259.07   58.39
  -5  -6   0 1513.05   75.39
   5   6   0 1727.03  112.79
  -5   6   0 1626.14   94.29
  -5  -6   0 1685.23  109.19
  -5  -6   0 1632.74   71.19
  -5  -6  -1  281.27   16.30
  -5  -6  -1  311.97   38.20
   5   6  -1  277.87   40.30
   5  -6   1  291.17   17.80
  -5   6   1  286.47   24.00
  -5  -6   1  277.17   20.10
   5   6   1  330.27   41.20
  -5  -6   1  277.77   18.30
  -5   6  -1  317.57   37.90
   5   6  -2  119.39   33.20
  -5  -6  -2  173.58   27.40
  -5  -6  -2  127.89   11.80
   5  -6   2   86.99    9.60
  -5  -6   2  120.59   11.30
  -5  -6   2  119.69   11.90
   5   6   2   79.99   22.90
   5  -6   3  424.76   27.70
   5   6  -3  450.45   61.69
  -5  -6  -3  414.56   26.50
  -5  -6   3  371.06   26.00
  -5  -6   3  451.55   28.00
  -5   6  -3  432.86   59.49
   6   6   0  628.44   65.89
  -6  -6   0  639.54   35.00
  -6  -6   0  638.34   31.90
  -6  -6   0  592.54   60.49
  -6   6   0  541.25   49.30
   6   6  -1  651.93   68.89
  -6  -6  -1  654.13   33.30
  -6  -6  -1  682.33   37.70
  -6   6   1  673.83   46.60
  -6  -6  -1  620.94   60.79
  -6   6  -1  774.02   66.29
  -6  -6   1  691.53   36.00
   6   6   1  697.43   67.49
  -6  -6   1  729.73   38.90
  -6  -6  -2   71.09   23.90
  -6  -6  -2  121.49   12.20
   6   6  -2   77.89   27.20
   6  -6   2  115.49   11.20
  -6  -6   2  103.69   11.20
   6   6   2  137.99   30.30
  -6   6  -2   99.99   26.60
  -6  -6   2  118.29   12.20
   6   6  -3 1026.20  101.79
   6  -6   3 1001.20   53.39
  -6  -6  -3 1008.70   53.69
  -6   6  -3 1132.09  101.59
  -6  -6   3 1072.59   54.09
  -6  -6   3  992.70   52.89
  -7   6   0 1717.13  107.39
  -7  -6   0 1795.52   81.89
   7   6   0 1735.93  127.49
  -7  -6   0 1734.23  122.59
  -7  -6   0 1717.53   77.89
  -7  -6  -1  146.29   11.90
   7   6  -1  173.38   41.50
  -7   6   1  139.29   21.90
  -7  -6  -1  171.88   15.00
  -7  -6   1  164.18   14.70
  -7   6  -1  136.89   32.50
  -7  -6   1  163.68   14.00
   7  -6   2  237.38   18.50
  -7   6  -2  307.97   57.59
  -7  -6   2  291.47   20.70
  -7  -6   2  246.38   21.80
  -8  -6   0  265.97   18.50
  -8  -6   0  196.18   45.70
  -8  -6   0  264.67   20.40
   8   6   0  249.58   50.49
  -8  -6  -1  428.66   28.70
  -8   6   1  452.65   43.70
   8   6  -1  429.26   62.49
  -8  -6  -1  447.86   55.69
  -8  -6  -1  448.56   25.50
  -8  -6   1  452.05   28.70
  -8  -6   1  357.06   28.20
   0  -7   0   64.89    6.60
   0  -7   0   70.39    5.40
   0   7   0   81.59   17.70
   0   7   1 2018.30  108.49
   0  -7   1 2243.78   89.59
   0  -7  -1 2080.49   89.69
   0  -7   1 2157.58   92.49
   0   7   2 1786.72   90.39
   0  -7   2 1850.81   82.59
   0  -7   2 1871.91   79.49
   0  -7  -2 1818.12   77.69
   0  -7   3  520.85   31.70
   0  -7  -3  515.25   26.00
   0  -7   3  553.54   29.30
   0  -7   4  353.66   26.20
   0  -7  -4  381.26   21.00
   1  -7   0  234.78   14.50
  -1  -7   0  213.38   15.10
  -1   7   0  284.87   29.30
  -1  -7   0  240.18   13.10
   1   7   0  196.08   28.00
   1  -7   0  220.58   12.40
   1   7   0  267.67   13.90
   1   7  -1 1528.05   98.49
  -1   7   1 1521.45   79.39
   1  -7   1 1546.15   64.99
   1  -7   1 1538.15   67.79
  -1  -7  -1 1415.26   67.49
  -1  -7   1 1519.25   68.89
   1   7   1 1507.95   88.09
  -1  -7   1 1483.55   65.19
   1  -7  -1 1535.85   64.19
   1  -7   2 1084.59   54.69
   1  -7   2 1191.68   52.49
   1  -7  -2 1093.99   49.30
   1   7   2 1177.88   70.39
  -1  -7   2 1205.68   53.09
  -1  -7   2 1172.98   56.39
  -1  -7  -3  244.18   25.40
   1  -7   3  221.58   15.70
   1  -7   3  228.58   17.90
  -1  -7  -3  230.38   14.70
  -1  -7   3  239.48   16.40
   1   7   3  181.18   23.60
  -1  -7   3  225.18   18.50
   1  -7   4  374.66   30.40
  -1  -7  -4  351.76   20.90
  -1  -7   4  334.47   28.70
  -1  -7   4  332.47   25.20
   2   7   0   21.40   12.20
  -2  -7   0   17.70    4.50
  -2  -7   0   18.70    3.40
   2  -7   0   16.70    3.60
   2  -7   0   15.40    2.90
   2  -7   1  648.84   33.70
   2   7  -1  681.13   60.79
  -2  -7  -1  731.33   34.20
  -2   7   1  655.93   40.10
   2  -7   1  618.44   31.20
  -2  -7  -1  648.34   28.70
  -2  -7   1  619.24   34.90
  -2  -7   1  712.63   32.40
   2  -7  -1  659.43   30.10
   2  -7  -1  658.53   28.40
   2   7   1  653.33   53.49
   2   7   1  603.14   29.70
   2  -7  -1  639.74   28.40
   2  -7   2 1821.92   83.49
   2   7  -2 1920.01  123.59
   2  -7   2 1903.91   80.69
  -2  -7  -2 1748.43   80.69
  -2  -7   2 1787.02   87.09
   2   7   2 1827.32  108.79
  -2  -7   2 1920.41   81.09
  -2  -7  -3   93.59    8.80
   2  -7   3   94.19    9.30
   2   7  -3  111.69   29.10
   2  -7   3   82.49   10.10
  -2  -7   3   73.39    8.70
  -2  -7   3  103.29   11.70
  -2  -7  -4  335.47   23.40
   2  -7   4  401.86   24.30
   2   7  -4  422.46   58.69
   2  -7   4  389.06   26.80
  -2  -7   4  418.06   38.30
  -2   7  -4  247.28   52.49
  -2  -7   4  370.26   24.60
  -3  -7   0  196.58   15.20
   3   7   0  193.68   29.00
  -3  -7   0  196.68   12.50
  -3   7   0  231.78   27.90
  -3   7   1 1109.29   53.99
  -3   7   1 1110.59   59.39
  -3  -7  -1 1141.49   76.39
  -3  -7  -1 1019.00   44.20
   3  -7   1 1080.79   48.90
  -3  -7  -1 1024.50   49.80
   3   7  -1 1032.80   82.69
   3   7   1 1046.20   75.89
  -3  -7   1  944.21   50.89
  -3  -7   1  920.81   46.90
   3  -7  -1 1057.09   44.40
   3   7   1  978.20   43.40
  -3   7  -1  969.70   77.59
   3  -7  -1  989.50   44.00
  -3  -7  -2  962.50   46.00
  -3  -7  -2  914.81   66.79
   3  -7   2  877.51   50.49
   3   7  -2  995.90   82.79
  -3   7  -2 1009.90   85.29
   3   7   2  909.91   69.39
  -3  -7   2  917.81   49.00
   3   7   2  920.71   40.30
  -3  -7   2  928.81   49.20
   3  -7   3  204.08   15.60
   3  -7   3  223.38   18.30
  -3  -7  -3  231.18   16.40
   3   7  -3  211.58   43.30
  -3   7  -3  251.87   53.79
  -3  -7   3  205.28   18.60
  -3  -7   3  212.98   16.60
  -4   7   0   34.70   13.20
  -4  -7   0   42.50    5.00
   4   7   0   45.70   18.30
  -4  -7   0   29.50    6.10
   4  -7   0   38.40    4.70
  -4  -7  -1 1005.40   48.50
  -4  -7  -1  865.51   41.80
   4   7  -1  946.21   82.39
  -4   7   1  963.60   49.80
   4  -7   1  957.20   45.30
  -4  -7  -1  962.50   77.39
  -4  -7   1  938.21   48.70
  -4  -7   1  916.11   45.20
  -4   7  -1 1061.89   78.29
   4   7   1  914.51   75.79
  -4  -7  -2 1130.19   66.19
   4   7  -2 1357.16  103.89
  -4  -7  -2 1360.96   88.79
   4  -7   2 1225.78   59.99
  -4  -7   2 1214.38   58.89
   4  -7  -2 1402.26   54.99
   4   7   2 1154.08   87.49
  -4   7  -2 1211.58   98.09
  -4  -7   2 1130.79   61.69
   4   7   2 1320.47   52.39
   4   7  -3  256.47   53.39
   4  -7   3  209.18   18.00
  -4  -7  -3  194.68   15.90
   4  -7   3  201.78   15.70
  -4   7  -3  124.49   36.70
  -4  -7   3  195.28   16.30
  -4  -7   3  213.48   18.40
  -5  -7   0  148.29   13.90
  -5  -7   0  147.69   11.30
  -5   7   0  114.99   24.10
   5  -7   0  145.49   10.50
   5   7   0  164.68   35.90
  -5  -7  -1  922.01   43.40
  -5   7   1  925.91   52.09
  -5  -7  -1 1019.50   49.70
   5  -7   1  957.30   46.20
   5   7  -1  967.00   86.99
  -5  -7   1 1012.10   50.99
  -5   7  -1  949.80   77.59
   5   7   1  954.90  105.39
  -5  -7   1  912.61   46.50
   5  -7   2  638.34   35.90
   5   7  -2  707.63   77.29
  -5  -7  -2  715.53   37.80
  -5  -7   2  652.13   38.50
  -5   7  -2  680.63   72.49
  -5  -7   2  591.64   35.20
  -5  -7  -3  126.79   12.80
   5   7  -3  145.09   38.50
   5  -7   3  125.39   15.80
  -5  -7   3  108.69   13.00
  -5   7  -3  109.39   36.00
  -5  -7   3  112.49   12.80
  -6  -7   0   16.10    4.00
  -6  -7   0   46.90   17.90
  -6  -7   0   20.50    5.90
  -6   7   0   10.60   10.60
   6   7   0   14.00   19.10
   6   7  -1  724.03   78.39
  -6  -7  -1  744.33   36.10
   6  -7   1  775.72   38.20
  -6  -7  -1  774.52   41.90
  -6  -7  -1  746.43   69.59
  -6   7   1  715.33   46.30
  -6  -7   1  659.93   37.90
   6   7   1  732.83   71.59
  -6   7  -1  510.15  114.49
  -6  -7   1  828.52   43.50
  -6  -7  -2  846.62   46.70
   6   7  -2  732.33   86.09
   6  -7   2  901.91   45.50
  -6  -7   2  942.31   49.20
  -6  -7   2  826.02   45.40
  -6   7  -2  889.81   86.29
  -7   7   0  148.99   31.50
  -7  -7   0  169.08   13.40
  -7  -7   0  180.28   17.20
   7   7   0  109.29   47.50
  -7   7   1  466.75   40.20
  -7  -7  -1  435.86   34.40
  -7  -7  -1  487.25   26.50
   7  -7   1  535.65   28.60
   7   7  -1  464.25   65.19
  -7  -7   1  456.15   28.30
  -7  -7   1  476.65   43.40
  -7   7  -1  455.95   56.19
   0  -8   0 2017.20   81.79
   0  -8   0 1887.51   85.09
   0   8   0 2010.80  113.29
   0   8   1  257.57   28.60
   0  -8   1  236.28   16.90
   0   8  -1  247.48   33.00
   0  -8  -1  259.77   15.90
   0  -8   1  270.57   15.20
   0   8   2  355.56   31.40
   0  -8  -2  477.75   23.60
   0  -8   2  447.16   30.90
   0  -8   2  431.46   26.60
   0  -8   3  201.98   17.30
   0  -8   3  223.18   15.70
   0  -8  -3  203.48   13.40
   1  -8   0  304.67   18.60
  -1   8   0  310.37   34.20
  -1  -8   0  347.67   20.70
   1   8   0  407.66   42.70
   1   8   0  315.37   17.00
   1  -8   0  322.37   16.40
  -1  -8   0  327.37   17.10
  -1   8   1  770.82   50.19
  -1  -8  -1  746.53   36.80
   1  -8   1  707.73   36.80
   1  -8   1  720.23   34.10
   1   8  -1  769.02   64.89
   1  -8  -1  660.23   33.80
  -1  -8   1  740.73   34.70
  -1  -8   1  790.52   39.00
   1   8   1  678.13   54.59
   1  -8   2  266.47   19.50
  -1  -8  -2  299.67   18.40
   1  -8   2  296.17   20.30
   1   8  -2  274.57   40.20
   1  -8  -2  318.77   16.70
  -1  -8   2  320.77   21.00
   1   8   2  236.98   28.70
  -1  -8   2  330.17   21.90
   1  -8   3 1527.05   75.19
  -1  -8  -3 1541.05   70.99
   1  -8   3 1672.63   72.49
  -1  -8   3 1562.14   72.59
  -1  -8   3 1706.63   77.99
  -2  -8   0 3238.38  144.39
  -2  -8   0 3384.76  139.49
   2  -8   0 3394.76  138.69
   2   8   0 3532.05  183.08
   2  -8   0 3482.95  141.69
   2   8  -1  206.68   34.90
  -2  -8  -1  235.78   17.00
  -2   8   1  250.27   23.10
  -2  -8  -1  252.17   12.90
   2  -8   1  237.18   15.00
   2  -8   1  282.27   17.90
   2   8   1  300.17   67.49
   2  -8  -1  258.67   12.40
  -2  -8   1  250.47   20.10
   2  -8  -1  268.77   14.70
  -2  -8   1  270.97   16.10
   2  -8  -1  238.88   12.50
   2   8   1  254.07   13.20
   2   8  -2  406.06   49.00
   2  -8   2  349.77   20.90
   2  -8   2  317.07   22.50
  -2  -8  -2  386.06   22.80
  -2  -8   2  401.56   22.30
  -2  -8   2  382.96   25.30
   2   8   2  295.07   36.20
   2  -8  -2  375.26   18.20
   2  -8   3  186.68   16.40
   2  -8   3  199.88   14.50
  -2  -8  -3  193.88   14.60
   2   8  -3  126.29   31.20
  -2  -8   3  187.28   17.40
  -2  -8   3  199.48   15.20
   3   8   0  487.75   53.09
  -3   8   0  468.55   44.60
   3  -8   0  446.26   24.70
  -3  -8   0  438.66   27.50
  -3  -8   0  479.75   24.00
  -3  -8  -1  569.24   27.60
  -3   8   1  627.24   38.90
   3  -8   1  615.14   30.70
   3   8  -1  638.14   64.09
   3  -8   1  636.44   33.20
  -3  -8  -1  653.93   34.50
  -3   8   1  625.84   44.40
   3   8   1  601.34   27.50
   3  -8  -1  551.44   27.40
  -3  -8   1  587.24   35.10
  -3  -8   1  663.03   31.60
   3   8   1  649.93   59.69
  -3   8  -1  519.55   57.39
   3  -8  -1  593.44   29.10
   3  -8   2  417.86   26.70
   3  -8   2  416.46   23.90
  -3  -8  -2  430.46   26.00
   3   8  -2  397.76   52.19
  -3   8  -2  377.06   52.59
  -3  -8   2  414.46   28.30
  -3  -8   2  439.56   25.00
   3  -8   3 1275.47   59.99
   3  -8   3 1246.38   63.39
   3   8  -3 1334.97  106.49
  -3  -8  -3 1282.57   60.99
  -3  -8   3 1254.27   65.69
  -3   8  -3 1197.18  108.99
  -3  -8   3 1278.97   61.59
   4  -8   0 1911.61   82.79
  -4   8   0 1775.02  108.59
  -4  -8   0 1893.91   82.39
   4   8   0 2003.50  129.59
  -4  -8   0 1973.20   88.49
  -4   8   1  200.18   18.40
  -4  -8  -1  226.78   13.30
   4   8  -1  270.17   40.60
  -4  -8  -1  227.38   18.00
   4  -8   1  237.08   16.70
  -4   8   1  258.07   19.60
  -4  -8   1  232.68   19.00
   4  -8  -1  220.58   13.30
  -4   8  -1  231.68   36.60
   4   8   1  239.88   36.40
  -4  -8   1  209.38   18.00
  -4  -8  -2  264.77   19.20
   4  -8   2  223.48   18.20
   4   8  -2  326.97   59.89
  -4  -8   2  217.28   19.60
  -4  -8   2  241.18   17.50
  -4   8  -2  242.88   49.60
   4  -8   3  166.58   16.40
   4  -8   3  182.08   14.90
   4   8  -3  180.68   40.10
  -4  -8  -3  174.78   15.50
  -4  -8   3  153.28   16.70
  -4  -8   3  176.38   15.30
  -5  -8   0  146.59   14.50
  -5  -8   0  135.09   11.00
  -5   8   0  109.09   22.00
   5  -8   0  142.99   11.10
   5   8   0  191.08   40.60
   5   8  -1  373.46   56.19
  -5  -8  -1  454.95   29.00
  -5   8   1  435.36   28.90
  -5  -8  -1  434.06   22.90
  -5  -8  -1  462.45   73.49
   5  -8   1  472.55   26.50
   5  -8  -1  452.55   22.60
  -5   8  -1  330.57   45.10
  -5  -8   1  422.46   25.70
  -5  -8   1  467.75   30.30
   5   8  -2  242.38   49.99
  -5  -8  -2  159.08   14.60
   5  -8   2  146.39   14.00
  -5   8  -2  114.29   36.90
  -5  -8   2  119.79   12.10
  -5  -8   2  134.19   14.80
   6  -8   0 1174.78   54.79
  -6  -8   0 1172.68   55.49
   6   8   0 1108.29  103.79
  -6  -8   0 1261.77   62.49
  -6   8   0 1169.58   90.59
   6   8  -1  116.99   35.00
  -6   8   1  143.69   15.70
   6  -8   1  143.99   12.70
  -6  -8  -1  152.68   11.40
  -6  -8  -1  165.98   15.90
  -6  -8   1  140.79   12.50
  -6   8  -1  120.29   35.50
  -6  -8   1  176.68   26.20
   0  -9   0    3.20    1.80
   0   9   0   -3.50    5.90
   0  -9   0    1.50    1.40
   0   9   1  186.68   25.70
   0   9  -1  124.59   28.70
   0  -9   1  170.08   11.40
   0  -9   1  183.78   14.10
   0  -9  -1  157.78   12.30
   0   9  -2 1677.73  117.89
   0  -9  -2 1669.43   75.09
   0  -9   2 1786.72   79.79
   0  -9   2 1689.13   75.09
   0  -9  -3  213.28   14.80
   0  -9   3  225.88   16.30
   0  -9   3  258.97   20.40
  -1  -9   0  803.02   38.60
   1  -9   0  697.13   35.70
  -1  -9   0  728.63   33.40
  -1   9   0  626.54   55.09
   1   9   0  690.13   61.69
   1  -9   0  741.13   32.90
  -1   9   1 1764.82   98.09
   1  -9   1 1803.22   77.39
   1   9  -1 1884.41  119.69
  -1  -9  -1 1893.21   81.69
   1   9   1 1616.74  104.69
  -1  -9   1 1960.70   83.29
  -1  -9   1 1820.12   77.99
   1  -9  -1 1835.32   78.39
  -1   9  -1 1654.53  111.39
  -1  -9  -2   55.09    7.00
   1   9  -2   54.29   22.10
   1  -9   2   54.39    6.40
   1  -9   2   56.19    7.90
  -1  -9   2   59.09    8.30
  -1  -9   2   64.19    7.20
   1  -9   3   92.39    9.10
   1  -9   3  102.19   11.20
   1   9  -3   38.10   26.10
  -1  -9  -3   83.79    8.80
  -1  -9   3   99.89   11.70
  -1  -9   3   93.49    9.60
   2  -9   0    0.70    1.10
   2   9   0   -6.10    8.50
   2  -9   0   -0.90    1.10
  -2  -9   0    2.70    1.80
  -2   9   0   23.00   11.70
  -2  -9   0    2.10    2.20
  -2   9   1  178.08   20.50
   2   9  -1  212.88   33.90
  -2  -9  -1  185.18   14.80
   2  -9   1  152.28   17.20
   2  -9   1  162.88   11.60
   2  -9  -1  175.58   11.70
  -2  -9   1  184.78   15.70
  -2  -9   1  183.88   12.80
   2  -9   2 1558.84   70.59
  -2  -9  -2 1579.54   73.59
   2   9  -2 1568.64  116.29
   2  -9   2 1572.84   74.39
  -2  -9   2 1669.13   71.99
   2  -9  -2 1592.84   67.99
  -2  -9   2 1588.24   76.69
   2   9  -3  275.77   54.79
   2  -9   3  280.07   20.80
  -2  -9  -3  251.37   18.00
   2  -9   3  203.78   21.70
  -2  -9   3  281.27   21.90
  -2  -9   3  196.58   20.40
   3   9   0  514.45   58.49
  -3  -9   0  567.44   32.80
   3  -9   0  530.15   29.00
   3  -9   0  539.15   26.50
  -3   9   0  535.85   50.99
  -3  -9   0  516.85   27.00
  -3  -9  -1 1053.79   44.40
  -3  -9  -1  984.90   51.79
   3  -9   1 1016.00   50.39
   3  -9   1 1033.60   50.99
  -3   9   1  901.91   56.19
   3   9  -1 1020.80   88.09
  -3  -9   1 1053.79   53.89
   3  -9  -1 1072.79   46.90
   3  -9  -1 1033.20   43.80
  -3  -9  -2   48.30    7.60
   3  -9   2   43.60    7.10
   3  -9   2   34.90    6.00
   3   9  -2   80.89   29.60
  -3  -9   2   37.80    7.90
  -3  -9   2   51.39    6.60
  -3   9  -2   56.89   23.20
  -4  -9   0    4.70    1.90
  -4   9   0  -12.10    9.10
   4  -9   0    3.00    2.00
  -4  -9   0   -0.60    1.80
   4   9  -1  119.79   28.50
  -4  -9  -1  101.59   11.90
   4  -9   1  135.19   12.20
  -4  -9  -1  115.39    8.40
  -4  -9   1  110.99   10.20
  -4   9  -1   56.89   22.30
   4  -9  -1  115.49    9.40
  -4  -9   1  100.49   12.30
   4   9  -2 1083.09  100.99
  -4  -9  -2 1042.70   56.89
   4  -9   2 1151.58   54.49
   4  -9   2 1160.78   58.29
  -4  -9   2 1163.28   61.09
  -4  -9   2 1167.78   55.49
  -5   9   0  317.37   40.30
  -5  -9   0  453.95   30.60
  -5  -9   0  444.96   24.70
   5  -9   0  472.45   25.90
  -5  -9  -1 1447.16   69.09
  -5  -9  -1 1342.27   58.99
   5   9  -1 1435.16  155.08
   5  -9   1 1339.77   64.39
  -5  -9   1 1318.97   62.89
  -5  -9   1 1216.38   73.39
  -5   9  -1 1324.67  102.89
   5  -9  -1 1344.77   60.09
   0 -10   0 1155.58   51.59
   0 -10   0 1225.98   56.89
   0 -10   1  273.97   19.40
   0 -10   1  300.27   16.90
   0 -10  -1  282.87   18.70
   0 -10   2   88.99    8.60
   0 -10  -2  112.19   10.00
   0 -10   2   72.89    9.70
   1 -10   0  250.17   14.30
  -1 -10   0  268.77   18.90
  -1 -10   0  276.27   15.10
   1 -10   0  255.67   17.40
  -1 -10  -1  641.54   44.70
   1 -10   1  605.84   33.40
   1 -10   1  604.34   30.60
  -1 -10   1  609.14   34.50
  -1 -10   1  583.34   32.60
   1 -10  -1  597.04   31.00
  -1 -10  -2  255.97   18.80
   1 -10   2  285.07   17.50
   1 -10   2  277.87   20.30
   1 -10  -2  286.57   17.60
  -1 -10   2  282.57   17.80
  -1 -10   2  265.17   23.30
  -2 -10   0 1792.42   73.79
   2 -10   0 1652.63   71.99
   2 -10   0 1698.73   76.09
  -2 -10   0 1691.03   79.99
  -2 -10  -1  331.57   22.30
   2 -10   1  306.87   20.90
   2 -10   1  286.97   17.70
  -2 -10   1  334.57   19.20
   2 -10  -1  302.07   18.50
  -2 -10   1  350.66   23.60
   2 -10   2  210.08   14.00
   2 -10   2  170.38   15.40
  -2 -10  -2  190.68   16.10
  -2 -10   2  197.58   17.60
  -2 -10   2  190.38   14.20
  -3 -10   0  420.76   23.40
   3 -10   0  473.65   26.10
   3 -10   0  440.56   22.50
  -3  10   0  438.96   65.09
  -3 -10   0  428.56   28.80
   3 -10   1  566.14   32.20
  -3 -10  -1  550.24   33.60
   3 -10   1  534.35   28.50
  -3 -10   1  564.84   29.60
  -3  10  -1  478.25   59.59
  -3 -10   1  529.55   34.10
   3 -10  -1  588.44   28.70
  -4 -10   0 1157.18   52.29
   4 -10   0 1140.49   55.19
  -4  10   0 1039.90   79.69
  -4 -10   0 1185.48   60.39
   4 -10   0 1122.39   51.49
   4 -10   1  219.28   15.30
  -4 -10  -1  208.08   18.80
   4 -10   1  197.48   16.80
   4 -10  -1  245.58   15.10
  -4 -10   1  174.78   17.80
  -4 -10   1  225.88   15.80
   0 -11   0  154.78   10.00
   0 -11   0  127.59   12.20
   0 -11   1  492.15   29.60
   0 -11   1  502.15   25.80
   0 -11  -1  482.45   28.40
   1 -11   0  162.18   13.70
  -1 -11   0  183.98   15.40
   1 -11   0  181.28   11.00
  -1 -11   0  172.88   11.40
   2 -11   0  103.09   10.30
  -2 -11   0  105.69    8.70
  -2 -11   0   98.59   11.30
   2 -11   0  119.79    8.30
   0   0   0    0.00    0.00

_computing_structure_solution     'SHELXT 2014/5 (Sheldrick, 2014)'
;
_shelx_hkl_checksum              11563
loop_
_space_group_symop_operation_xyz
'x, y, z'
'-x+1/2, -y, z+1/2'
'x+1/2, -y, z+1/2'
'-x, y, z'
loop_
_atom_site_label
_atom_site_type_symbol
_atom_site_fract_x
_atom_site_fract_y
_atom_site_fract_z
_atom_site_U_iso_or_equiv
_atom_site_adp_type
_atom_site_occupancy
_atom_site_site_symmetry_order
_atom_site_calc_flag
_atom_site_refinement_flags_posn
_atom_site_refinement_flags_adp
_atom_site_refinement_flags_occupancy
_atom_site_disorder_assembly
_atom_site_disorder_group
Ba1 Ba 1.000000 0.95155(6) 0.74710(15) 0.0123(2) Uani 1 2 d S T P . .
O1 O 0.6862(7) 0.6130(6) 0.2718(15) 0.0198(11) Uani 1 1 d D . . . .
Te1 Te 0.500000 0.56310(7) 0.55507(14) 0.0138(2) Uani 1 2 d S T P . .
F1 F 0.7992(5) 0.8832(5) 0.2466(12) 0.0167(8) Uani 1 1 d . . . . .
F3 F 0.500000 0.3645(7) 0.3238(19) 0.0244(16) Uani 1 2 d S T P . .
F2 F 0.500000 0.7935(7) 0.6711(17) 0.0233(15) Uani 1 2 d S T P . .
H1 H 0.701012 0.578542 0.057278 0.028 Uiso 1 1 d DR U . . .
loop_
_atom_site_aniso_label
_atom_site_aniso_U_11
_atom_site_aniso_U_22
_atom_site_aniso_U_33
_atom_site_aniso_U_23
_atom_site_aniso_U_13
_atom_site_aniso_U_12
Ba1 0.0117(3) 0.0135(3) 0.0116(3) -0.0005(2) 0.000 0.000
O1 0.024(3) 0.014(2) 0.021(3) -0.002(2) 0.006(3) -0.001(2)
Te1 0.0162(4) 0.0102(3) 0.0150(4) 0.0009(3) 0.000 0.000
F1 0.017(2) 0.014(2) 0.018(2) 0.0018(18) -0.001(2) -0.0007(16)
F3 0.032(3) 0.010(3) 0.032(4) -0.005(3) 0.000 0.000
F2 0.028(3) 0.018(3) 0.024(4) -0.001(3) 0.000 0.000
loop_
_atom_type_symbol
_atom_type_description
_atom_type_scat_dispersion_real
_atom_type_scat_dispersion_imag
_atom_type_scat_source
F F 0.0171 0.0103 'International Tables Vol C Tables 4.2.6.8 and 6.1.1.4'
O O 0.0106 0.0060 'International Tables Vol C Tables 4.2.6.8 and 6.1.1.4'
Sr Sr -1.5307 3.2498 'International Tables Vol C Tables 4.2.6.8 and 6.1.1.4'
Te Te -0.5308 1.6751 'International Tables Vol C Tables 4.2.6.8 and 6.1.1.4'
Ba Ba -0.3244 2.2819 'International Tables Vol C Tables 4.2.6.8 and 6.1.1.4'
H H 0.0000 0.0000 'International Tables Vol C Tables 4.2.6.8 and 6.1.1.4'
loop_
_geom_angle_atom_site_label_1
_geom_angle_atom_site_label_2
_geom_angle_atom_site_label_3
_geom_angle
_geom_angle_site_symmetry_1
_geom_angle_site_symmetry_3
_geom_angle_publ_flag
F1 Ba1 F1 69.12(19) 4_756 1_556 ?
F1 Ba1 F1 154.26(17) 4_756 . ?
F1 Ba1 F1 104.95(14) 1_556 . ?
F1 Ba1 F1 104.95(14) 4_756 4_755 ?
F1 Ba1 F1 154.26(17) 1_556 4_755 ?
F1 Ba1 F1 69.02(19) . 4_755 ?
F1 Ba1 F1 69.02(12) 4_756 3_575 ?
F1 Ba1 F1 126.79(19) 1_556 3_575 ?
F1 Ba1 F1 126.64(18) . 3_575 ?
F1 Ba1 F1 68.97(11) 4_755 3_575 ?
F1 Ba1 F1 126.79(19) 4_756 2_675 ?
F1 Ba1 F1 69.02(12) 1_556 2_675 ?
F1 Ba1 F1 68.97(11) . 2_675 ?
F1 Ba1 F1 126.64(18) 4_755 2_675 ?
F1 Ba1 F1 114.99(17) 3_575 2_675 ?
F1 Ba1 F3 71.68(15) 4_756 2_665 ?
F1 Ba1 F3 71.68(15) 1_556 2_665 ?
F1 Ba1 F3 82.65(16) . 2_665 ?
F1 Ba1 F3 82.65(16) 4_755 2_665 ?
F1 Ba1 F3 122.26(9) 3_575 2_665 ?
F1 Ba1 F3 122.26(9) 2_675 2_665 ?
F1 Ba1 F2 70.98(14) 4_756 2_675 ?
F1 Ba1 F2 70.98(14) 1_556 2_675 ?
F1 Ba1 F2 132.25(12) . 2_675 ?
F1 Ba1 F2 132.25(12) 4_755 2_675 ?
F1 Ba1 F2 65.35(11) 3_575 2_675 ?
F1 Ba1 F2 65.35(11) 2_675 2_675 ?
F3 Ba1 F2 134.2(2) 2_665 2_675 ?
F1 Ba1 F2 137.45(11) 4_756 2_674 ?
F1 Ba1 F2 137.45(11) 1_556 2_674 ?
F1 Ba1 F2 64.05(13) . 2_674 ?
F1 Ba1 F2 64.05(13) 4_755 2_674 ?
F1 Ba1 F2 68.78(11) 3_575 2_674 ?
F1 Ba1 F2 68.78(11) 2_675 2_674 ?
F3 Ba1 F2 139.0(2) 2_665 2_674 ?
F2 Ba1 F2 86.76(16) 2_675 2_674 ?
F1 Ba1 Ba1 142.45(10) 4_756 1_554 ?
F1 Ba1 Ba1 142.45(10) 1_556 1_554 ?
F1 Ba1 Ba1 37.50(9) . 1_554 ?
F1 Ba1 Ba1 37.50(9) 4_755 1_554 ?
F1 Ba1 Ba1 89.95(11) 3_575 1_554 ?
F1 Ba1 Ba1 89.95(11) 2_675 1_554 ?
F3 Ba1 Ba1 96.74(17) 2_665 1_554 ?
F2 Ba1 Ba1 129.01(14) 2_675 1_554 ?
F2 Ba1 Ba1 42.25(12) 2_674 1_554 ?
F1 Ba1 Ba1 155.40(9) 4_756 2_674 ?
F1 Ba1 Ba1 86.46(9) 1_556 2_674 ?
F1 Ba1 Ba1 34.54(9) . 2_674 ?
F1 Ba1 Ba1 98.39(10) 4_755 2_674 ?
F1 Ba1 Ba1 128.21(10) 3_575 2_674 ?
F1 Ba1 Ba1 34.43(10) 2_675 2_674 ?
F3 Ba1 Ba1 104.26(8) 2_665 2_674 ?
F2 Ba1 Ba1 98.86(7) 2_675 2_674 ?
F2 Ba1 Ba1 61.02(3) 2_674 2_674 ?
Ba1 Ba1 Ba1 61.265(2) 1_554 2_674 ?
F1 Ba1 Ba1 86.46(9) 4_756 2_774 ?
F1 Ba1 Ba1 155.40(9) 1_556 2_774 ?
F1 Ba1 Ba1 98.39(10) . 2_774 ?
F1 Ba1 Ba1 34.54(9) 4_755 2_774 ?
F1 Ba1 Ba1 34.43(10) 3_575 2_774 ?
F1 Ba1 Ba1 128.21(10) 2_675 2_774 ?
F3 Ba1 Ba1 104.26(8) 2_665 2_774 ?
F2 Ba1 Ba1 98.86(7) 2_675 2_774 ?
F2 Ba1 Ba1 61.02(3) 2_674 2_774 ?
Ba1 Ba1 Ba1 61.266(3) 1_554 2_774 ?
Ba1 Ba1 Ba1 117.684(10) 2_674 2_774 ?
Te1 O1 H1 127.7 . . ?
O1 Te1 O1 95.5(4) . 4_655 ?
O1 Te1 F3 83.5(2) . . ?
O1 Te1 F3 83.5(2) 4_655 . ?
O1 Te1 F2 85.9(2) . . ?
O1 Te1 F2 85.9(2) 4_655 . ?
F3 Te1 F2 164.2(3) . . ?
Ba1 F1 Ba1 104.95(13) 1_554 . ?
Ba1 F1 Ba1 111.06(16) 1_554 2_674 ?
Ba1 F1 Ba1 110.95(17) . 2_674 ?
Te1 F3 Ba1 157.2(4) . 2_664 ?
Te1 F2 Ba1 127.2(3) . 2_674 ?
Te1 F2 Ba1 146.0(3) . 2_675 ?
Ba1 F2 Ba1 86.76(16) 2_674 2_675 ?
loop_
_geom_bond_atom_site_label_1
_geom_bond_atom_site_label_2
_geom_bond_distance
_geom_bond_site_symmetry_2
_geom_bond_publ_flag
Ba1 F1 2.655(5) 4_756 ?
Ba1 F1 2.655(5) 1_556 ?
Ba1 F1 2.659(5) . ?
Ba1 F1 2.659(5) 4_755 ?
Ba1 F1 2.661(4) 3_575 ?
Ba1 F1 2.661(4) 2_675 ?
Ba1 F3 2.754(6) 2_665 ?
Ba1 F2 2.838(7) 2_675 ?
Ba1 F2 3.280(7) 2_674 ?
Ba1 Ba1 4.2142(2) 1_554 ?
Ba1 Ba1 4.3829(3) 2_674 ?
Ba1 Ba1 4.3829(3) 2_774 ?
O1 Te1 1.887(6) . ?
O1 H1 0.9584 . ?
Te1 F3 1.975(6) . ?
Te1 F2 2.053(6) . ?
