#------------------------------------------------------------------------------
#$Date: 2020-03-05 01:42:20 +0200 (Thu, 05 Mar 2020) $
#$Revision: 248856 $
#$URL: file:///home/coder/svn-repositories/cod/cif/4/13/43/4134333.cif $
#------------------------------------------------------------------------------
#
# This file is available in the Crystallography Open Database (COD),
# http://www.crystallography.net/
#
# All data on this site have been placed in the public domain by the
# contributors.
#
data_4134333
loop_
_publ_author_name
'Peterson, Joshua P.'
'Ellern, Arkady'
'Winter, Arthur H.'
_publ_section_title
;
 Spin Delocalization, Polarization, and London Dispersion Forces Govern
 the Formation of Diradical Pimers.
;
_journal_name_full               'Journal of the American Chemical Society'
_journal_paper_doi               10.1021/jacs.0c00190
_journal_year                    2020
_chemical_formula_moiety         'C28 H20 N6, C7 H8'
_chemical_formula_sum            'C35 H28 N6'
_chemical_formula_weight         532.63
_space_group_crystal_system      triclinic
_space_group_IT_number           2
_space_group_name_Hall           '-P 1'
_space_group_name_H-M_alt        'P -1'
_atom_sites_solution_hydrogens   geom
_cell_angle_alpha                74.527(2)
_cell_angle_beta                 74.067(2)
_cell_angle_gamma                76.732(2)
_cell_formula_units_Z            1
_cell_length_a                   7.6280(3)
_cell_length_b                   10.0861(3)
_cell_length_c                   10.2848(3)
_cell_measurement_reflns_used    4123
_cell_measurement_temperature    173.(2)
_cell_measurement_theta_max      62.3846
_cell_measurement_theta_min      4.5810
_cell_volume                     722.80(4)
_computing_cell_refinement       'SAINT V8.38A (Bruker AXS Inc., 2017)'
_computing_data_collection       'APEX3 Suite (Bruker AXS Inc. , 2017)'
_computing_data_reduction        'SAINT V8.38A (Bruker AXS Inc., 2017)'
_computing_molecular_graphics    'shelXle (C.B. Huebschle, rev 833)'
_computing_structure_refinement  'SHELXL-2016/6 (Sheldrick, 2016)'
_computing_structure_solution    'XT, VERSION 2014/5'
_diffrn_ambient_temperature      173.(2)
_diffrn_detector_area_resol_mean 8.3333
_diffrn_measured_fraction_theta_full 0.978
_diffrn_measured_fraction_theta_max 0.978
_diffrn_measurement_device_type  'Bruker D8 VENTURE diffractometer'
_diffrn_measurement_method
'\w and \f scans, narrow frame width, shutterless'
_diffrn_radiation_monochromator  'multilayer mirror'
_diffrn_radiation_type           'Cu K\a'
_diffrn_radiation_wavelength     1.54178
_diffrn_reflns_av_R_equivalents  0.0336
_diffrn_reflns_av_unetI/netI     0.0311
_diffrn_reflns_limit_h_max       8
_diffrn_reflns_limit_h_min       -8
_diffrn_reflns_limit_k_max       11
_diffrn_reflns_limit_k_min       -11
_diffrn_reflns_limit_l_max       11
_diffrn_reflns_limit_l_min       -11
_diffrn_reflns_number            9321
_diffrn_reflns_theta_full        62.38
_diffrn_reflns_theta_max         62.38
_diffrn_reflns_theta_min         4.58
_diffrn_source                   'microfocus sealed tube'
_diffrn_source_type              'sealed tube'
_exptl_absorpt_coefficient_mu    0.581
_exptl_absorpt_correction_T_max  0.75
_exptl_absorpt_correction_T_min  0.67
_exptl_absorpt_correction_type   multi-scan
_exptl_absorpt_process_details
;

SADABS (Spek A. L., 2015) was used for an absorption correction and scalling
of observed data
;
_exptl_crystal_colour            colourless
_exptl_crystal_density_diffrn    1.224
_exptl_crystal_density_method    'not measured'
_exptl_crystal_description       plate
_exptl_crystal_F_000             280
_exptl_crystal_size_max          0.190
_exptl_crystal_size_mid          0.110
_exptl_crystal_size_min          0.040
_refine_diff_density_max         0.329
_refine_diff_density_min         -0.179
_refine_diff_density_rms         0.047
_refine_ls_extinction_method     none
_refine_ls_goodness_of_fit_ref   1.019
_refine_ls_hydrogen_treatment    constr
_refine_ls_matrix_type           full
_refine_ls_number_parameters     199
_refine_ls_number_reflns         2248
_refine_ls_number_restraints     0
_refine_ls_restrained_S_all      1.019
_refine_ls_R_factor_all          0.0514
_refine_ls_R_factor_gt           0.0467
_refine_ls_shift/su_max          0.000
_refine_ls_shift/su_mean         0.000
_refine_ls_structure_factor_coef Fsqd
_refine_ls_weighting_details
'w=1/[\s^2^(Fo^2^)+(0.1704P)^2^] where P=(Fo^2^+2Fc^2^)/3'
_refine_ls_weighting_scheme      calc
_refine_ls_wR_factor_gt          0.1793
_refine_ls_wR_factor_ref         0.1893
_reflns_Friedel_coverage         0.000
_reflns_number_gt                1987
_reflns_number_total             2248
_reflns_threshold_expression     'I > 2\s(I)'
_cod_data_source_file            ja0c00190_si_002.cif
_cod_data_source_block           Win035Cu
_cod_depositor_comments
;
The following automatic conversions were performed:

data item '_exptl_absorpt_correction_type' value 'Multi-Scan' was
changed to 'multi-scan' in accordance with the
/home/data/users/saulius/crontab/automatic-downloads/rss-feeds/ACS/lib/dictionaries/cif_core.dic
dictionary named 'cif_core.dic' version 2.4.2 last updated on
2011-04-26.

Automatic conversion script
Id: cif_fix_values 7556 2019-12-06 15:28:31Z antanas 
;
_cod_database_code               4134333
_shelx_res_file
;
TITL Win035Cu_0m_a.res in P-1
    Win035Cu_0m_a.res
    created by SHELXL-2018/3 at 10:09:42 on 02-Jan-2020
CELL  1.54178   7.6280  10.0861  10.2848   74.527   74.067   76.732
ZERR    1.000   0.0003   0.0003   0.0003    0.002    0.002    0.002
LATT 1
SFAC C  H  N
UNIT 35 28 6
L.S. 10
BOND $H
FMAP 2
ACTA
PLAN 3
LIST 4
TEMP -100
WGHT    0.170400
FVAR       0.79257
N1    3    0.001707    0.177062    1.005810    11.00000    0.02841    0.03307 =
         0.03134   -0.00714   -0.00049   -0.00181
N3    3    0.358095    0.223374    0.283839    11.00000    0.04998    0.04274 =
         0.03323   -0.00512   -0.01519   -0.00320
C3    1    0.287814    0.137368    0.870009    11.00000    0.02804    0.02570 =
         0.03061   -0.00570   -0.00707   -0.00289
N2    3    0.808332    0.142742    0.478074    11.00000    0.03236    0.04716 =
         0.05744   -0.01633   -0.00774   -0.01171
C5    1    0.347527    0.114127    0.635664    11.00000    0.02700    0.02697 =
         0.02864   -0.00637   -0.00622   -0.00459
C8    1    0.412757    0.163027    0.378762    11.00000    0.02962    0.03259 =
         0.02987   -0.00869   -0.00514   -0.00630
C4    1    0.414211    0.114238    0.748176    11.00000    0.02478    0.02973 =
         0.03144   -0.00799   -0.00790   -0.00372
AFIX  43
H4    2    0.543491    0.098857    0.742369    11.00000   -1.20000
AFIX   0
C6    1    0.483076    0.081849    0.502727    11.00000    0.02496    0.03103 =
         0.02771   -0.00598   -0.00679   -0.00636
C11   1    0.095637    0.159291    0.875172    11.00000    0.02967    0.02434 =
         0.03199   -0.00613   -0.00443   -0.00364
C9    1    0.156214    0.139304    0.641804    11.00000    0.02722    0.03605 =
         0.03331   -0.00864   -0.01085   -0.00507
AFIX  43
H9    2    0.114430    0.140699    0.562450    11.00000   -1.20000
AFIX   0
C7    1    0.666474    0.118134    0.488164    11.00000    0.02965    0.03308 =
         0.03191   -0.00914   -0.00577   -0.00667
C2    1    0.302892    0.145094    1.003215    11.00000    0.03384    0.04012 =
         0.03142   -0.01031   -0.00969   -0.00457
AFIX  43
H2    2    0.414340    0.135221    1.031869    11.00000   -1.20000
AFIX   0
C10   1    0.029065    0.161901    0.761211    11.00000    0.02380    0.03289 =
         0.03919   -0.00812   -0.00745   -0.00306
AFIX  43
H10   2   -0.099979    0.178736    0.765678    11.00000   -1.20000
AFIX   0
C1    1    0.129510    0.169003    1.080667    11.00000    0.03798    0.03571 =
         0.02940   -0.00951   -0.00669   -0.00225
AFIX  43
H1    2    0.099807    0.178896    1.173918    11.00000   -1.20000
AFIX   0
C12   1   -0.197737    0.207475    1.053682    11.00000    0.02933    0.04213 =
         0.04194   -0.00734    0.00242   -0.00551
AFIX  23
H12A  2   -0.229751    0.181637    1.156179    11.00000   -1.20000
H12B  2   -0.254663    0.148696    1.019246    11.00000   -1.20000
AFIX   0
C13   1   -0.278439    0.356410    1.008046    11.00000    0.03212    0.04308 =
         0.06756   -0.01094   -0.00172    0.00111
AFIX  43
H13   2   -0.409237    0.380861    1.033109    11.00000   -1.20000
AFIX   0
C14   1   -0.185887    0.456568    0.936693    11.00000    0.04812    0.03941 =
         0.08858   -0.00709   -0.00940    0.00145
AFIX  93
H14A  2   -0.054805    0.437041    0.909304    11.00000   -1.20000
H14B  2   -0.249630    0.548968    0.912168    11.00000   -1.20000
AFIX   0
PART -1
C15   1    0.466342    0.514321    0.388084    11.00000    0.16046    0.06195 =
         0.14197   -0.01951   -0.04045   -0.03793

C16   1    0.655920    0.510629    0.330598    10.50000    0.15288    0.05618 =
         0.10499    0.00400   -0.02405   -0.04740
C17   1    0.781933    0.492907    0.408712    11.00000    0.16821    0.07090 =
         0.24098   -0.02192    0.00162   -0.04851
C18   1    0.708556    0.480975    0.557385    10.50000    0.18474    0.06480 =
         0.12349   -0.03000   -0.04083   -0.03292
C19   1    0.604593    0.498403    0.463497    10.50000    0.12840    0.04163 =
         0.19353   -0.01765    0.07095   -0.03998
PART 0

HKLF 4




REM  Win035Cu_0m_a.res in P-1
REM wR2 = 0.189345, GooF = S = 1.01888, Restrained GooF = 1.01888 for all data
REM R1 = 0.046659 for 1987 Fo > 4sig(Fo) and 0.051362 for all 2248 data
REM 199 parameters refined using 0 restraints

END

WGHT      0.0914      0.1839

REM Highest difference peak  0.329,  deepest hole -0.179,  1-sigma level  0.047
Q1    1   0.5491  0.5189  0.2847  11.00000  0.05    0.33
Q2    1   0.5651  0.4869  0.4920  11.00000  0.05    0.24
Q3    1   0.7238  0.4744  0.5330  11.00000  0.05    0.24
;
_shelx_res_checksum              96274
_shelx_hkl_file
;
  -1   0   0  131.59    4.50
  -1   0   0  126.49    4.50
   1   0   0  121.99    4.50
  -2   0   0  270.07    9.70
  -2   0   0  279.87    9.60
  -3   0   0   29.40    1.30
  -3   0   0   30.00    1.20
  -3   0   0   29.70    1.30
  -4   0   0    6.10    0.60
  -4   0   0    6.70    0.60
  -5   0   0   18.80    1.10
  -5   0   0   17.00    1.00
  -5   0   0   19.70    1.10
  -5   0   0   19.00    1.20
  -5   0   0   19.80    1.40
  -6   0   0   60.59    2.40
  -6   0   0   64.69    2.60
  -6   0   0   58.59    2.60
  -6   0   0   57.99    2.80
  -6   0   0   58.99    2.60
   6   0   0   55.49    2.70
  -7   0   0    7.80    0.90
  -7   0   0    9.70    0.90
  -7   0   0   10.90    1.10
  -7   0   0    6.80    0.80
   7   0   0   11.30    1.10
  -8   0   0    3.10    0.60
   8   0   0    2.80    0.60
   8  -1   0   11.10    0.90
  -8   1   0   12.40    1.00
  -8   1   0   10.70    0.90
  -8   1   0   14.30    1.10
   7  -1   0    0.20    0.60
  -7   1   0    0.10    0.80
  -7   1   0    0.90    0.50
  -7   1   0    0.50    0.40
  -7   1   0    0.70    0.60
   6  -1   0    0.00    0.50
  -6   1   0    0.60    0.60
  -6   1   0   -0.40    0.50
  -6   1   0    0.00    0.70
  -6   1   0   -0.50    0.50
  -5   1   0   11.40    1.00
  -5   1   0   12.00    0.90
  -5   1   0   11.90    1.10
  -5   1   0   11.10    1.10
  -5   1   0   13.00    1.00
  -3   1   0 1109.19   38.80
  -3   1   0 1117.59   38.70
  -2   1   0    5.00    0.30
  -2   1   0    4.10    0.40
  -1   1   0  414.96   14.70
  -1   1   0  427.06   14.60
   0  -1   0  825.92   29.10
   0  -1   0  805.92   29.10
   0   1   0  879.41   29.10
  -1  -1   0  147.19    5.00
  -1  -1   0  143.39    5.00
   1   1   0  133.19    5.00
  -2  -1   0  589.94   20.70
  -2  -1   0  592.94   20.60
  -3  -1   0  446.26   15.20
  -3  -1   0  429.06   15.20
  -3  -1   0  425.56   15.30
  -4  -1   0  244.38    8.90
  -4  -1   0  267.27    8.80
  -4  -1   0  227.88    9.00
  -5  -1   0    0.80    0.40
  -5  -1   0    0.50    0.50
  -5  -1   0    1.10    0.60
  -5  -1   0    0.60    0.40
   5   1   0    0.80    0.50
  -6  -1   0   77.19    3.30
  -6  -1   0   84.99    3.20
  -6  -1   0   83.09    3.30
  -6  -1   0   77.29    3.50
   6   1   0   83.99    3.50
  -7  -1   0   13.60    1.30
  -7  -1   0   13.00    1.10
  -7  -1   0    9.80    0.80
  -7  -1   0   10.50    1.00
   7   1   0   13.40    1.20
  -8  -1   0   11.20    0.90
   8   1   0   10.70    1.30
   8   1   0   10.20    0.90
   7  -2   0    8.50    0.90
  -7   2   0   11.00    1.20
  -7   2   0   10.80    0.90
  -7   2   0    8.80    0.90
  -6   2   0   51.49    2.50
  -6   2   0   54.09    2.40
  -6   2   0   55.49    2.70
  -6   2   0   60.09    2.50
  -5   2   0    0.50    0.50
  -5   2   0   -0.20    0.50
  -5   2   0   -0.20    0.60
  -5   2   0    0.40    0.70
  -5   2   0    0.90    0.50
  -4   2   0  104.39    4.00
  -3   2   0   65.19    2.40
  -3   2   0   60.89    2.60
  -2   2   0   92.49    3.30
  -2   2   0   89.69    3.50
  -2   2   0   91.89    3.30
  -1   2   0  214.08    7.70
   0  -2   0    2.10    0.40
   0   2   0    2.00    0.50
  -1  -2   0 4383.56  147.19
  -1  -2   0 4083.79  147.49
  -2  -2   0   82.89    3.10
  -2  -2   0   80.89    3.00
  -3  -2   0  966.20   33.90
  -3  -2   0  981.00   34.00
  -3  -2   0  979.90   34.10
  -4  -2   0    8.00    0.70
  -4  -2   0   12.80    0.90
  -4  -2   0   11.80    0.70
  -5  -2   0   33.50    1.60
  -5  -2   0   36.90    1.60
  -5  -2   0   34.50    1.70
  -5  -2   0   34.50    1.80
   5   2   0   31.30    1.70
  -6  -2   0   46.80    2.10
  -6  -2   0   47.90    2.40
  -6  -2   0   49.60    2.10
  -6  -2   0   48.70    2.20
   6   2   0   46.10    2.30
  -7  -2   0    0.40    0.50
  -7  -2   0    0.50    0.40
   7   2   0    0.10    0.50
  -8  -2   0   49.40    2.00
  -8  -2   0   46.50    2.10
   8   2   0   48.00    2.20
   7  -3   0    3.90    0.70
  -7   3   0    6.00    0.80
  -7   3   0    6.40    1.00
  -7   3   0    4.90    0.90
  -6   3   0   51.89    2.40
  -6   3   0   57.79    2.50
  -6   3   0   54.59    2.70
  -6   3   0   56.49    2.50
  -5   3   0   11.50    1.00
  -5   3   0   11.80    1.10
  -5   3   0    8.60    1.00
  -5   3   0   11.40    1.20
  -5   3   0   11.30    1.00
  -4   3   0   10.60    1.00
  -4   3   0   10.80    1.00
  -4   3   0    7.10    0.70
  -4   3   0    6.40    0.70
  -3   3   0    1.80    0.40
  -3   3   0    1.30    0.50
  -2   3   0    3.50    0.40
  -2   3   0    4.10    0.60
   1  -3   0   58.49    2.30
  -1   3   0   58.49    2.50
   0  -3   0 9999.00  347.07
   0   3   0 9980.20  347.07
  -1  -3   0   52.59    1.90
  -1  -3   0   47.10    2.10
  -2  -3   0   25.40    1.10
  -2  -3   0   26.60    1.40
  -3  -3   0   32.80    1.40
  -3  -3   0   29.50    1.60
  -4  -3   0   83.39    3.20
  -4  -3   0   73.49    3.00
  -4  -3   0   71.89    3.00
  -5  -3   0  105.49    4.00
  -5  -3   0  106.19    4.10
   5   3   0  107.09    4.20
  -6  -3   0    9.20    0.90
  -6  -3   0    6.30    0.60
   6   3   0    6.90    0.80
  -7  -3   0    5.50    0.60
  -7  -3   0    6.00    0.80
   7   3   0    7.10    0.90
  -8  -3   0    0.90    0.50
  -8  -3   0    1.30    0.40
   8   3   0    0.90    0.50
   7  -4   0    4.80    0.60
  -7   4   0    5.70    0.80
  -7   4   0    4.00    0.80
  -6   4   0    4.90    0.80
  -6   4   0    5.70    1.00
  -6   4   0    5.10    0.90
  -6   4   0    5.30    0.70
  -5   4   0   20.10    1.20
  -5   4   0   18.10    1.30
  -5   4   0   19.90    1.70
  -5   4   0   18.10    1.50
  -4   4   0   66.99    2.80
  -4   4   0   66.49    3.10
  -4   4   0   70.89    3.10
  -4   4   0   68.89    2.90
  -3   4   0  192.28    6.60
  -3   4   0  171.68    7.00
  -2   4   0   31.90    1.40
  -2   4   0   34.80    1.90
   1  -4   0   38.20    1.80
  -1   4   0   41.60    2.00
   0  -4   0  969.90   34.00
   0   4   0  973.00   34.10
  -1  -4   0    1.20    0.30
  -1  -4   0    0.80    0.60
  -2  -4   0    1.10    0.60
  -2  -4   0    0.30    0.30
  -3  -4   0    9.10    0.90
  -3  -4   0    8.40    0.70
  -3  -4   0    8.20    0.70
  -4  -4   0  241.78    8.50
  -4  -4   0  212.58    8.20
  -4  -4   0  227.48    8.30
  -5  -4   0   13.80    1.00
  -5  -4   0   15.50    1.10
  -5  -4   0   13.40    0.90
  -5  -4   0   14.30    1.20
  -5  -4   0   13.80    0.90
   5   4   0   13.50    1.00
  -6  -4   0   32.60    1.60
  -6  -4   0   32.90    1.70
   6   4   0   34.00    1.80
  -7  -4   0   78.59    3.40
  -7  -4   0   85.89    3.30
   7   4   0   85.49    3.50
  -8  -4   0   29.80    1.40
  -8  -4   0   30.60    1.50
   8   4   0   29.50    1.60
  -6   5   0   -0.40    0.60
  -6   5   0    0.70    0.60
  -6   5   0    0.00    0.50
  -5   5   0    9.30    1.00
  -5   5   0   10.40    1.20
  -5   5   0   11.70    1.00
  -5   5   0   13.20    1.20
  -4   5   0    0.20    0.70
  -4   5   0    0.00    0.70
  -4   5   0    0.30    0.50
  -4   5   0    0.20    0.40
  -4   5   0    0.20    0.60
  -3   5   0   51.19    2.40
  -3   5   0   48.50    2.20
  -3   5   0   52.09    2.40
  -3   5   0   45.00    2.20
  -2   5   0    9.20    1.10
  -1   5   0   64.99    3.00
   0  -5   0  135.09    5.20
  -1  -5   0 1185.68   42.80
  -1  -5   0 1269.27   43.00
  -2  -5   0  133.49    5.30
  -2  -5   0  132.89    4.90
  -3  -5   0  133.59    5.20
  -3  -5   0  149.79    5.50
  -3  -5   0  133.39    5.20
  -4  -5   0    3.20    0.70
  -4  -5   0    3.30    0.50
  -4  -5   0    3.40    0.80
   4   5   0    4.40    0.60
   4   5   0    4.10    0.50
  -5  -5   0   22.60    1.30
  -5  -5   0   22.90    1.40
  -5  -5   0   22.50    1.30
   5   5   0   22.10    1.40
  -6  -5   0   20.40    1.20
  -6  -5   0   17.20    1.10
  -6  -5   0   18.70    1.30
   6   5   0   20.60    1.40
  -7  -5   0    1.60    0.50
   7   5   0    1.00    0.60
  -8  -5   0   37.30    1.60
   8   5   0   40.90    1.80
  -6   6   0    4.20    0.70
  -6   6   0    4.40    0.60
  -5   6   0    2.90    0.60
  -5   6   0    1.40    0.70
  -5   6   0    2.00    0.70
  -4   6   0    0.00    0.50
  -4   6   0    0.00    0.70
  -4   6   0    0.40    0.60
  -4   6   0    0.20    0.60
  -3   6   0    6.30    0.90
  -3   6   0    4.10    0.70
  -3   6   0    4.80    0.90
  -2   6   0    1.80    0.50
  -2   6   0    1.60    0.60
  -2   6   0    1.30    0.60
  -2   6   0    1.10    0.60
  -1   6   0   35.80    1.80
  -1   6   0   34.90    1.70
  -1   6   0   37.30    2.00
   0  -6   0  580.54   20.80
   0  -6   0  591.74   20.60
   0   6   0  582.44   20.60
  -1  -6   0  302.27   11.00
  -1  -6   0  321.47   11.30
   1   6   0  298.77   11.00
  -2  -6   0   14.40    1.00
  -2  -6   0   16.70    1.50
  -3  -6   0    5.60    0.60
  -3  -6   0    5.90    1.00
  -3  -6   0    6.30    0.80
   3   6   0    7.00    0.90
   3   6   0    6.20    0.70
   3   6   0    8.20    0.80
   3   6   0    5.50    0.70
   3   6   0    5.00    0.70
   3   6   0    6.30    0.80
  -4  -6   0   13.00    1.40
  -4  -6   0   11.90    1.10
  -4  -6   0    9.90    0.80
   4   6   0   11.60    1.00
   4   6   0   11.30    1.10
   4   6   0    9.80    1.00
  -5  -6   0   20.00    1.20
  -5  -6   0   16.90    1.10
  -5  -6   0   18.50    1.40
   5   6   0   19.60    1.40
  -6  -6   0   28.30    1.60
  -6  -6   0   26.90    1.50
  -6  -6   0   27.80    1.40
   6   6   0   29.10    1.70
  -7  -6   0   22.30    1.20
   7   6   0   22.80    1.40
  -5   7   0    0.50    0.60
  -5   7   0   -0.20    0.50
  -5   7   0    1.00    0.70
  -4   7   0    0.00    0.70
  -4   7   0    0.40    0.60
  -4   7   0   -0.20    0.60
  -3   7   0   15.50    1.30
  -3   7   0   17.30    1.50
  -3   7   0   17.70    1.50
  -2   7   0    2.40    0.60
  -2   7   0    3.60    0.80
  -2   7   0    3.20    0.70
  -2   7   0    3.40    0.70
  -1   7   0   27.20    1.50
  -1   7   0   27.20    1.60
  -1   7   0   25.50    1.60
  -1   7   0   28.50    1.60
  -1   7   0   25.70    1.60
   0   7   0   28.20    1.60
   0   7   0   35.00    1.80
   0   7   0   30.20    1.80
   0   7   0   32.40    1.70
   0   7   0   30.10    1.70
  -1  -7   0  143.29    5.70
   1   7   0  139.19    5.40
   1   7   0  136.79    5.30
   1   7   0  142.49    5.40
   1   7   0  135.79    5.30
   1   7   0  131.79    5.20
   1   7   0  144.79    5.30
  -2  -7   0   47.30    2.60
  -2  -7   0   46.40    2.30
   2   7   0   48.00    2.20
   2   7   0   47.50    2.30
   2   7   0   46.20    2.10
   2   7   0   49.10    2.30
   2   7   0   44.90    2.10
   2   7   0   44.10    2.10
  -3  -7   0    4.30    0.80
   3   7   0    3.20    0.70
   3   7   0    2.80    0.60
   3   7   0    3.60    0.70
   3   7   0    3.70    0.70
   3   7   0    4.30    0.90
   3   7   0    3.00    0.70
  -4  -7   0  100.49    3.90
  -4  -7   0   83.29    3.40
  -4  -7   0   85.69    3.60
   4   7   0   94.19    3.60
   4   7   0   89.69    3.70
   4   7   0   84.19    3.70
  -5  -7   0    0.70    0.50
  -5  -7   0    1.00    0.60
  -5  -7   0    1.00    0.40
   5   7   0    0.70    0.60
   5   7   0    0.00    0.50
  -6  -7   0    4.00    0.60
  -6  -7   0    5.20    0.80
  -6  -7   0    3.10    0.60
   6   7   0    4.20    0.80
  -7  -7   0   28.70    1.40
   7   7   0   30.70    1.60
  -4   8   0    1.80    0.60
  -4   8   0    1.90    0.70
  -3   8   0   14.10    1.30
  -3   8   0   16.80    1.40
  -3   8   0   15.40    1.30
  -2   8   0    1.50    0.70
  -2   8   0    2.20    0.60
  -2   8   0    3.00    0.70
  -2   8   0    2.20    0.70
  -1   8   0    0.50    0.70
  -1   8   0    0.60    0.60
  -1   8   0    0.10    0.60
  -1   8   0    0.30    0.60
  -1   8   0    0.00    0.70
   0   8   0   64.49    2.90
   0   8   0   68.39    3.00
   0   8   0   70.29    3.10
   0   8   0   69.59    3.10
   0   8   0   67.59    3.00
  -1  -8   0  291.07   10.60
   1   8   0  277.67   10.50
   1   8   0  278.47   10.40
   1   8   0  283.27   10.60
   1   8   0  303.87   10.70
   1   8   0  290.67   10.60
   1   8   0  296.07   10.70
  -2  -8   0  210.58    7.60
   2   8   0  208.88    7.50
   2   8   0  195.08    7.60
   2   8   0  196.88    7.70
   2   8   0  197.88    7.50
   2   8   0  203.18    7.50
   2   8   0  199.08    7.60
  -3  -8   0   21.00    1.50
   3   8   0   16.70    1.30
   3   8   0   16.30    1.40
   3   8   0   13.60    1.30
   3   8   0   17.00    1.40
   3   8   0   18.00    1.30
  -4  -8   0   38.20    1.90
  -4  -8   0   36.90    2.10
   4   8   0   31.20    2.00
   4   8   0   34.20    1.80
   4   8   0   33.50    1.90
  -5  -8   0   13.60    1.30
  -5  -8   0   14.50    1.20
  -5  -8   0   13.80    0.90
   5   8   0   13.10    1.10
   5   8   0   13.30    1.20
  -6  -8   0    9.40    0.80
  -6  -8   0   11.30    1.00
  -6  -8   0    9.90    0.70
   6   8   0   10.30    1.00
  -3   9   0    3.90    0.60
  -3   9   0    2.50    0.60
  -3   9   0    4.00    0.70
  -2   9   0   29.60    1.60
  -2   9   0   27.50    1.70
  -2   9   0   26.30    1.70
  -1   9   0   18.80    1.50
  -1   9   0   21.50    1.50
  -1   9   0   19.30    1.40
  -1   9   0   18.80    1.40
   0   9   0    4.80    0.80
   0   9   0    5.30    0.80
   0   9   0    5.80    0.80
   0   9   0    5.90    0.90
   0   9   0    8.00    1.00
   1   9   0   55.99    2.70
   1   9   0   54.89    2.50
   1   9   0   52.29    2.70
   1   9   0   53.49    2.60
   1   9   0   56.19    2.60
  -2  -9   0   32.80    1.90
   2   9   0   32.30    2.00
   2   9   0   33.80    2.00
   2   9   0   33.90    1.90
   2   9   0   34.50    1.90
   2   9   0   34.20    1.90
  -3  -9   0    0.00    0.70
  -3  -9   0    0.80    0.50
   3   9   0   -0.30    0.60
   3   9   0    0.90    0.60
   3   9   0    0.50    0.70
   3   9   0    0.10    0.50
   3   9   0    0.80    0.70
  -4  -9   0   36.00    2.00
  -4  -9   0   38.60    1.80
   4   9   0   32.70    1.90
   4   9   0   34.10    2.00
   4   9   0   33.30    1.80
  -5  -9   0    2.10    0.70
  -5  -9   0    3.30    0.70
  -5  -9   0    2.20    0.60
   5   9   0    3.50    0.70
   5   9   0    2.10    0.60
  -6  -9   0   11.80    0.80
   6   9   0    9.80    0.90
  -2  10   0    1.40    0.50
  -2  10   0    1.80    0.50
  -2  10   0    1.00    0.60
  -1  10   0    5.30    0.80
  -1  10   0    6.50    0.90
  -1  10   0    4.00    0.70
  -1  10   0    7.20    0.90
   0  10   0   13.10    1.20
   0  10   0   10.00    1.00
   0  10   0   12.50    1.10
   0  10   0   13.40    1.20
   0  10   0   12.20    1.10
   1  10   0   47.20    2.30
   1  10   0   45.30    2.40
   1  10   0   48.20    2.30
   1  10   0   45.00    2.20
   1  10   0   46.00    2.30
  -2 -10   0   35.60    1.70
  -2 -10   0   32.40    2.20
   2  10   0   38.00    2.10
   2  10   0   38.80    2.10
   2  10   0   39.20    1.90
   2  10   0   40.60    2.00
   2  10   0   38.70    2.10
  -3 -10   0    5.80    0.80
  -3 -10   0    5.50    0.70
   3  10   0    9.20    1.00
   3  10   0    7.60    0.80
   3  10   0    9.80    1.00
   3  10   0   10.50    1.10
   3  10   0    9.50    0.90
  -4 -10   0    0.30    0.50
  -4 -10   0    0.60    0.40
   4  10   0   -0.10    0.50
   4  10   0    0.10    0.50
   0  11   0    1.80    0.60
   0  11   0    1.90    0.60
   0  11   0    2.50    0.60
   0  11   0    1.50    0.50
   1  11   0   21.70    1.30
   1  11   0   20.90    1.30
   1  11   0   20.90    1.30
   1  11   0   20.80    1.40
   2  11   0   53.69    2.30
   2  11   0   50.09    2.20
   2  11   0   47.30    2.30
   2  11   0   49.80    2.20
   4  10  -1    7.80    0.80
  -4 -10   1    5.70    0.60
  -4 -10   1    8.10    0.80
   3  10  -1    1.60    0.50
   3  10  -1    0.40    0.60
   3  10  -1    0.50    0.60
   3  10  -1    1.10    0.50
  -3 -10   1    0.70    0.60
  -3 -10   1    0.70    0.70
  -3 -10   1    0.60    0.40
   2  10  -1   62.79    2.70
   2  10  -1   63.09    2.70
   2  10  -1   62.19    2.90
   2  10  -1   61.59    2.80
   1  10  -1    5.00    0.90
   1  10  -1    6.60    0.90
   1  10  -1    4.70    0.70
   1  10  -1    5.00    0.80
   0  10  -1   29.30    1.60
   0  10  -1   32.50    1.80
   0  10  -1   29.10    1.70
   0  10  -1   29.40    1.80
   0 -10   1   27.00    1.70
  -1  10  -1   15.80    1.30
  -1  10  -1   16.30    1.20
  -1  10  -1   16.20    1.20
  -1  10  -1   15.90    1.30
  -2  10  -1    7.50    0.80
  -2  10  -1    9.50    0.80
  -2  10  -1    7.50    0.80
   5   9  -1   12.70    1.10
  -5  -9   1   12.60    1.00
  -5  -9   1   10.20    1.00
  -5  -9   1   12.00    1.00
   4   9  -1   24.20    1.40
   4   9  -1   26.40    1.60
  -4  -9   1   27.60    1.70
  -4  -9   1   24.50    1.60
  -4  -9   1   27.30    1.50
   3   9  -1   18.90    1.30
   3   9  -1   21.30    1.60
   3   9  -1   19.80    1.50
   3   9  -1   19.10    1.40
  -3  -9   1   22.10    1.50
  -3  -9   1   22.10    1.30
   2   9  -1    9.50    1.10
   2   9  -1    7.10    0.80
   2   9  -1    9.40    1.10
   2   9  -1    8.50    0.90
   2   9  -1    8.30    1.20
  -2  -9   1    5.80    0.80
  -2  -9   1    6.60    0.70
   1   9  -1   43.70    2.30
   1   9  -1   41.90    2.40
   1   9  -1   43.60    2.30
   1   9  -1   42.30    2.20
   1   9  -1   49.40    2.30
   0   9  -1   32.40    2.00
   0   9  -1   34.90    1.90
   0   9  -1   33.60    1.90
   0   9  -1   32.10    1.90
   0   9  -1   32.30    1.90
  -1   9  -1    0.20    0.60
  -1   9  -1    0.50    0.60
  -1   9  -1    0.80    0.80
  -1   9  -1    0.60    0.60
  -1   9  -1    0.30    0.70
  -2   9  -1   17.20    1.30
  -2   9  -1   18.40    1.30
  -2   9  -1   19.70    1.40
  -2   9  -1   20.30    1.50
  -3   9  -1   12.70    1.10
  -3   9  -1   12.90    1.00
  -3   9  -1   12.50    1.10
  -3   9  -1   11.50    1.10
   6   8  -1   13.00    1.10
  -6  -8   1   13.50    0.90
   5   8  -1    2.20    0.70
  -5  -8   1    1.90    0.70
  -5  -8   1    1.90    0.80
  -5  -8   1    2.00    0.60
   4   8  -1    2.50    0.60
   4   8  -1    2.70    0.70
  -4  -8   1    3.60    0.70
  -4  -8   1    3.80    0.90
   3   8  -1    0.50    0.60
   3   8  -1    0.40    0.50
   3   8  -1    0.30    0.60
   3   8  -1    0.50    0.70
   3   8  -1   -0.10    0.60
  -3  -8   1    0.00    0.50
  -3  -8   1    0.70    0.70
   2   8  -1    1.10    0.70
   2   8  -1   -0.40    0.60
   2   8  -1    0.60    0.60
   2   8  -1    0.40    0.50
   2   8  -1    0.10    0.50
  -2  -8   1    0.20    0.60
  -2  -8   1    0.30    0.50
   1   8  -1  446.26   15.10
   1   8  -1  405.36   15.00
   1   8  -1  414.26   15.10
   1   8  -1  410.06   15.10
   1   8  -1  412.56   15.00
   0   8  -1  102.99    4.40
   0   8  -1  110.29    4.50
   0   8  -1  107.99    4.30
   0   8  -1  105.69    4.30
   0   8  -1  110.89    4.40
   0   8  -1  106.29    4.50
  -1   8  -1   11.30    1.10
  -1   8  -1    8.10    1.00
  -1   8  -1   12.90    1.10
  -1   8  -1   12.50    1.10
  -1   8  -1   11.00    1.20
  -2   8  -1    2.80    0.80
  -2   8  -1    3.30    0.80
  -2   8  -1    2.90    0.70
  -2   8  -1    2.40    0.70
  -2   8  -1    3.30    0.80
  -3   8  -1    5.20    0.70
  -3   8  -1    4.00    0.80
  -3   8  -1    3.70    0.70
  -3   8  -1    2.70    0.80
  -4   8  -1    3.30    0.70
  -4   8  -1    3.10    0.60
  -4   8  -1    2.80    0.70
   6   7  -1    0.20    0.50
  -6  -7   1    0.50    0.40
  -6  -7   1   -0.50    0.40
  -6  -7   1    0.40    0.60
   5   7  -1   12.90    1.20
  -5  -7   1   12.70    0.90
  -5  -7   1   14.70    1.30
  -5  -7   1   14.50    1.10
   4   7  -1   24.50    1.60
   4   7  -1   26.40    1.70
  -4  -7   1   27.20    1.60
  -4  -7   1   29.60    1.80
   3   7  -1   10.00    1.10
   3   7  -1   10.50    1.10
   3   7  -1   11.90    1.00
   3   7  -1    7.80    0.90
  -3  -7   1   10.30    1.10
  -3  -7   1    8.70    0.90
   2   7  -1    1.00    0.60
   2   7  -1    0.50    0.50
   2   7  -1    1.50    0.70
   2   7  -1    1.10    0.50
   2   7  -1   -0.10    0.60
  -2  -7   1    0.70    0.70
  -2  -7   1    1.10    0.70
   1   7  -1  145.09    5.60
   1   7  -1  153.18    5.70
   1   7  -1  144.39    5.50
   1   7  -1  137.89    5.60
   1   7  -1  149.59    5.60
   1   7  -1  153.98    5.70
  -1  -7   1  139.99    5.80
  -1  -7   1  140.29    5.50
   0   7  -1   25.20    1.60
   0   7  -1   27.60    1.70
   0   7  -1   24.40    1.50
   0   7  -1   24.50    1.50
   0   7  -1   26.10    1.50
   0   7  -1   22.90    1.50
  -1   7  -1   10.40    1.00
  -1   7  -1   12.20    1.10
  -1   7  -1   12.80    1.20
  -1   7  -1    8.90    1.00
  -1   7  -1    9.60    0.90
  -2   7  -1   17.30    1.30
  -2   7  -1   14.90    1.40
  -2   7  -1   17.10    1.40
  -2   7  -1   16.30    1.40
  -2   7  -1   17.50    1.40
  -3   7  -1   25.20    1.80
  -3   7  -1   25.40    1.60
  -3   7  -1   28.30    1.70
  -3   7  -1   24.60    1.70
  -4   7  -1   14.80    1.30
  -4   7  -1   14.40    1.10
  -4   7  -1    9.60    1.10
  -5   7  -1   21.90    1.40
  -5   7  -1   19.90    1.50
   7   6  -1    3.20    0.60
  -7  -6   1    2.50    0.50
   6   6  -1    2.00    0.70
  -6  -6   1    3.30    0.70
  -6  -6   1    3.10    0.50
  -6  -6   1    2.70    0.60
   5   6  -1   26.40    1.60
  -5  -6   1   25.10    1.40
  -5  -6   1   25.30    1.60
  -5  -6   1   26.30    1.40
   4   6  -1    3.40    0.70
   4   6  -1    4.40    0.80
  -4  -6   1    2.90    0.60
  -4  -6   1    2.80    0.70
  -4  -6   1    4.30    0.60
   3   6  -1   14.30    1.00
   3   6  -1   12.90    1.20
   3   6  -1   14.40    1.20
   3   6  -1   12.10    1.10
  -3  -6   1   11.30    1.20
  -3  -6   1   12.90    1.10
  -3  -6   1   11.60    0.90
   2   6  -1   32.10    1.70
   2   6  -1   32.20    1.80
   2   6  -1   31.20    1.60
   2   6  -1   34.80    1.60
   2   6  -1   32.90    1.60
   2   6  -1   33.40    1.70
  -2  -6   1   31.70    1.60
  -2  -6   1   32.80    2.00
   1   6  -1   50.99    2.20
   1   6  -1   41.70    2.20
  -1  -6   1   46.80    2.30
  -1  -6   1   44.20    2.10
   0   6  -1  431.56   16.00
   0   6  -1  435.46   15.90
   0   6  -1  460.15   15.90
   0   6  -1  461.35   15.90
  -1   6  -1   20.30    1.40
  -1   6  -1   20.70    1.30
  -1   6  -1   20.70    1.40
  -1   6  -1   21.50    1.30
  -1   6  -1   22.90    1.30
  -2   6  -1   67.69    2.90
  -2   6  -1   70.39    2.90
  -2   6  -1   67.09    2.90
  -2   6  -1   64.89    2.90
  -2   6  -1   67.69    3.00
  -3   6  -1   92.69    3.80
  -3   6  -1   92.69    3.90
  -3   6  -1   86.49    3.70
  -3   6  -1   89.39    3.70
  -4   6  -1    0.20    0.60
  -4   6  -1    0.10    0.50
  -4   6  -1    0.10    0.60
  -4   6  -1   -0.40    0.70
  -5   6  -1   26.10    1.60
  -5   6  -1   25.40    1.80
  -5   6  -1   30.30    1.80
  -5   6  -1   29.80    1.60
  -6   6  -1   32.60    1.60
  -6   6  -1   32.70    1.80
  -6   6  -1   28.00    1.70
   7   5  -1   -0.10    0.50
  -7  -5   1    0.10    0.40
   6   5  -1   48.10    2.20
  -6  -5   1   44.40    2.20
  -6  -5   1   44.50    2.00
  -6  -5   1   45.60    2.00
   5   5  -1   36.30    1.90
  -5  -5   1   33.30    1.70
  -5  -5   1   34.90    1.70
  -5  -5   1   38.30    1.90
   4   5  -1    4.10    0.70
  -4  -5   1    6.00    0.60
  -4  -5   1    5.70    0.70
  -4  -5   1    4.60    0.90
  -4  -5   1    4.70    0.60
  -3  -5   1   50.79    2.30
  -3  -5   1   56.69    2.60
  -3  -5   1   52.19    2.20
  -2  -5   1    2.30    0.70
  -2  -5   1    1.90    0.50
  -2  -5   1    1.30    0.40
  -1  -5   1  515.35   17.70
  -1  -5   1  442.06   17.50
  -1  -5   1  533.05   17.50
   0  -5   1 1145.69   40.10
  -1   5  -1  193.58    7.50
  -2   5  -1    9.10    1.60
  -3   5  -1    0.40    0.60
  -3   5  -1    0.80    0.50
  -3   5  -1    1.00    0.50
  -3   5  -1    0.50    0.60
  -3   5  -1    0.90    0.70
  -4   5  -1    0.70    0.70
  -4   5  -1    0.60    0.60
  -4   5  -1    0.90    0.70
  -4   5  -1    0.90    0.50
  -5   5  -1   15.10    1.40
  -5   5  -1   15.80    1.20
  -5   5  -1   12.80    1.30
  -5   5  -1   14.50    1.10
  -6   5  -1   32.70    1.70
  -6   5  -1   34.20    1.90
  -6   5  -1   31.80    1.90
   7   4  -1   16.20    1.20
  -7  -4   1   17.00    1.10
  -7  -4   1   15.70    1.10
   6   4  -1    3.10    0.70
   6   4  -1    3.60    0.80
  -6  -4   1    3.50    0.60
  -6  -4   1    3.00    0.50
   5   4  -1   13.60    1.20
   5   4  -1   13.20    1.10
  -5  -4   1   14.10    1.00
  -5  -4   1   16.30    1.40
  -5  -4   1   13.00    1.00
  -5  -4   1   15.40    1.10
   4   4  -1   58.99    2.50
  -4  -4   1   63.99    2.60
  -4  -4   1   61.49    2.80
  -4  -4   1   56.49    2.40
  -4  -4   1   61.19    2.40
  -3  -4   1    8.00    0.70
  -3  -4   1    8.80    1.00
  -3  -4   1    8.60    0.80
  -2  -4   1   -0.20    0.60
  -2  -4   1   -0.10    0.30
  -2  -4   1   -0.10    0.30
  -1  -4   1  827.22   28.60
  -1  -4   1  813.12   28.80
   0   4  -1   46.60    2.40
   0  -4   1   55.09    2.20
  -1   4  -1   23.70    1.60
   1  -4   1   23.90    1.20
  -2   4  -1   49.10    2.50
  -3   4  -1  185.38    6.40
  -3   4  -1  163.68    6.80
  -4   4  -1   91.69    3.60
  -4   4  -1   98.59    3.90
  -4   4  -1   96.59    3.70
  -4   4  -1   88.59    3.70
  -4   4  -1   91.29    3.90
  -5   4  -1   23.60    1.80
  -5   4  -1   24.70    1.50
  -5   4  -1   21.50    1.50
  -5   4  -1   24.20    1.40
  -5   4  -1   24.30    1.70
  -6   4  -1   97.89    4.00
  -6   4  -1   94.69    4.00
  -6   4  -1   96.49    3.90
  -6   4  -1   88.59    3.70
  -7   4  -1   22.70    1.50
  -7   4  -1   21.00    1.30
   7  -4   1   23.90    1.40
  -8  -3   1    0.10    0.30
  -8  -3   1   -0.40    0.40
   7   3  -1    0.00    0.50
   7   3  -1   -0.40    0.50
  -7  -3   1   -0.30    0.50
  -7  -3   1   -0.30    0.40
   6   3  -1    7.20    0.90
   6   3  -1    6.60    0.80
  -6  -3   1    7.20    0.70
  -6  -3   1    5.90    0.80
   5   3  -1   13.80    1.10
  -5  -3   1   13.30    1.00
  -5  -3   1   12.50    0.90
  -5  -3   1   13.60    0.90
  -5  -3   1   12.10    0.90
  -4  -3   1    3.30    0.50
  -4  -3   1    3.30    0.70
  -3  -3   1   15.90    1.10
  -3  -3   1   13.80    0.90
  -2  -3   1    4.50    0.70
  -2  -3   1    3.20    0.40
  -1  -3   1  126.79    4.80
  -1  -3   1  128.89    4.60
   0   3  -1  361.86   12.80
   0  -3   1  352.56   12.60
  -1   3  -1  322.77   11.80
   1  -3   1  332.47   11.50
  -2   3  -1  129.79    5.00
  -2   3  -1  127.19    4.60
  -3   3  -1   85.19    3.60
  -3   3  -1   83.89    3.20
  -4   3  -1    0.10    0.60
  -4   3  -1    0.30    0.70
  -4   3  -1    0.20    0.50
  -4   3  -1   -0.20    0.30
  -4   3  -1    0.20    0.40
  -5   3  -1    5.50    0.70
  -5   3  -1    6.50    0.90
  -5   3  -1    6.70    1.00
  -5   3  -1    4.70    0.70
  -5   3  -1    5.10    0.80
  -6   3  -1    2.90    0.90
  -6   3  -1    2.30    0.60
  -6   3  -1    2.30    0.80
  -6   3  -1    2.40    0.60
  -7   3  -1    8.40    0.90
  -7   3  -1   11.00    1.10
   7  -3   1   12.00    1.00
  -8  -2   1    4.50    0.60
  -8  -2   1    4.10    0.50
   7   2  -1    3.00    0.70
   7   2  -1    2.30    0.60
  -7  -2   1    2.80    0.50
  -7  -2   1    2.50    0.60
   6   2  -1    2.70    0.70
  -6  -2   1    2.20    0.60
  -6  -2   1    1.50    0.50
   5   2  -1   65.09    2.80
  -5  -2   1   64.89    2.70
  -5  -2   1   71.19    2.80
  -5  -2   1   65.19    3.00
  -5  -2   1   69.19    2.70
  -4  -2   1  238.08    9.30
  -4  -2   1  284.47    9.40
  -4  -2   1  253.87    9.20
  -3  -2   1    4.90    0.40
  -3  -2   1    4.80    0.60
  -3  -2   1    5.30    0.50
  -2  -2   1    3.10    0.30
  -2  -2   1    3.60    0.50
  -1  -2   1 1029.20   35.10
  -1  -2   1  990.90   35.20
   0   2  -1 2995.00  102.29
   0  -2   1 2880.91  102.09
  -1   2  -1  679.73   23.00
   1  -2   1  635.24   22.90
  -2   2  -1  199.68    7.00
  -2   2  -1  183.88    6.80
  -3   2  -1  120.59    4.80
  -3   2  -1  128.59    4.60
  -4   2  -1   38.10    2.00
  -4   2  -1   39.40    1.70
  -5   2  -1    0.20    0.70
  -5   2  -1    0.10    0.50
  -5   2  -1   -0.10    0.50
  -5   2  -1    0.20    0.60
  -5   2  -1    0.10    0.40
  -6   2  -1   25.10    1.50
  -6   2  -1   25.50    1.60
  -6   2  -1   24.10    1.80
  -6   2  -1   26.80    1.50
  -6   2  -1   28.10    1.90
  -7   2  -1    8.70    1.00
  -7   2  -1   12.20    1.20
  -7   2  -1    7.80    0.90
  -7   2  -1   10.90    0.90
   7  -2   1   10.10    1.00
  -8   2  -1    0.70    0.50
  -8   2  -1    0.00    0.60
   8  -2   1    1.10    0.50
   8   1  -1    1.70    0.50
  -8  -1   1    0.60    0.40
  -8  -1   1    0.30    0.30
   7   1  -1    1.10    0.50
  -7  -1   1    1.20    0.50
  -7  -1   1    1.10    0.60
  -7  -1   1   -0.20    0.40
   6   1  -1    3.30    0.70
  -6  -1   1    3.00    0.60
  -6  -1   1    2.40    0.50
  -6  -1   1    1.70    0.60
  -6  -1   1    1.70    0.80
   5   1  -1    6.30    0.70
  -5  -1   1    7.80    1.00
  -5  -1   1    7.20    0.60
  -5  -1   1    7.00    0.70
  -5  -1   1    6.60    0.70
  -4  -1   1   98.59    3.80
  -4  -1   1   99.49    3.70
  -3  -1   1   10.40    0.60
  -3  -1   1   11.00    0.80
  -3  -1   1   11.00    0.60
  -2  -1   1   96.29    3.80
  -2  -1   1  109.49    3.70
  -1  -1   1  313.17   10.30
  -1  -1   1  286.47   10.20
  -1  -1   1  281.97   10.30
   0   1  -1   55.79    2.00
   0  -1   1   50.99    1.90
   0  -1   1   50.29    1.90
  -1   1  -1   95.69    3.40
   1  -1   1   89.69    3.20
  -2   1  -1   22.40    1.10
  -3   1  -1   94.99    3.80
  -3   1  -1  102.89    3.70
  -4   1  -1   87.39    3.60
  -4   1  -1   90.29    3.40
  -5   1  -1    2.80    0.60
  -5   1  -1    3.80    0.70
  -5   1  -1    2.30    0.50
  -5   1  -1    3.10    0.60
  -5   1  -1    2.90    0.70
   5  -1   1    3.30    0.50
  -6   1  -1   39.10    1.90
  -6   1  -1   37.40    1.90
  -6   1  -1   34.40    1.90
  -6   1  -1   36.10    2.10
  -7   1  -1   11.40    1.20
  -7   1  -1   12.40    1.10
  -7   1  -1   10.70    1.00
  -7   1  -1   10.70    1.00
   7  -1   1    8.30    1.00
  -8   1  -1    5.10    0.80
  -8   1  -1    2.80    0.60
  -8   1  -1    4.40    0.60
   8  -1   1    5.40    0.70
   8   0  -1    3.50    0.60
  -8   0   1    3.30    0.50
   7   0  -1   18.40    1.30
  -7   0   1   18.30    1.10
  -7   0   1   18.60    1.30
  -7   0   1   19.60    1.70
  -7   0   1   20.00    1.30
  -7   0   1   16.90    1.10
   6   0  -1   16.50    1.30
  -6   0   1   17.50    1.30
  -6   0   1   18.00    1.20
  -6   0   1   17.90    1.60
  -6   0   1   18.70    1.10
  -6   0   1   17.60    1.20
   5   0  -1   19.40    1.30
  -5   0   1   24.20    1.60
  -5   0   1   23.90    1.30
  -5   0   1   22.40    1.30
  -5   0   1   23.20    1.40
  -5   0   1   21.30    1.20
  -4   0   1   42.10    1.80
  -3   0   1  112.89    4.20
  -3   0   1  124.69    4.30
  -3   0   1  113.09    4.20
  -2   0   1  223.98    7.90
  -2   0   1  219.98    7.80
   1   0  -1  624.64   20.80
  -1   0   1  576.44   20.70
  -1   0   1  590.84   20.80
   0   0  -1   12.40    0.50
   0   0   1   13.00    0.50
   0   0   1   11.90    0.50
  -1   0  -1 4566.04  147.79
   1   0   1 4375.36  148.69
   1   0   1 3815.32  147.59
  -2   0  -1    4.40    0.50
  -2   0  -1    3.70    0.30
  -3   0  -1   75.89    2.80
  -3   0  -1   67.99    2.70
  -3   0  -1   80.39    2.90
  -4   0  -1  200.98    7.30
  -4   0  -1  194.88    7.10
  -5   0  -1    0.40    0.60
  -5   0  -1    0.30    0.40
  -5   0  -1    0.50    0.40
  -5   0  -1   -0.30    0.60
  -5   0  -1   -0.10    0.40
  -6   0  -1    7.40    0.90
  -6   0  -1   11.30    1.00
  -6   0  -1   10.80    1.00
  -6   0  -1   11.50    1.00
   6   0   1    8.30    0.90
  -7   0  -1   74.99    3.30
  -7   0  -1   84.79    3.50
  -7   0  -1   86.39    3.60
  -7   0  -1   86.19    3.50
   7   0   1   85.39    3.60
  -8   0  -1    8.80    0.80
   8   0   1    7.40    0.80
  -7   1   1   17.20    1.20
  -7   1   1   18.10    1.60
  -7   1   1   18.20    1.30
   6  -1  -1   58.59    2.70
  -6   1   1   58.19    2.50
  -6   1   1   58.19    2.60
  -6   1   1   58.39    2.60
  -6   1   1   56.49    2.40
  -6   1   1   57.39    2.90
  -5   1   1   37.20    1.70
  -5   1   1   39.30    1.90
  -5   1   1   39.30    1.90
  -5   1   1   42.50    1.90
  -5   1   1   38.00    2.10
  -4   1   1  150.68    5.50
  -3   1   1   47.60    1.90
  -3   1   1   46.00    1.80
  -3   1   1   46.20    1.90
  -2   1   1  208.08    7.20
  -2   1   1  197.38    7.10
  -2   1   1  199.58    7.10
   1  -1  -1   89.09    3.20
  -1   1   1   86.39    3.30
  -1   1   1   97.09    3.30
   0  -1  -1  206.88    7.30
   0   1   1  212.38    7.30
  -1  -1  -1  752.72   26.30
   1   1   1  759.32   26.40
  -2  -1  -1   32.10    1.30
  -2  -1  -1   31.90    1.30
  -3  -1  -1  165.18    5.90
  -3  -1  -1  166.18    5.90
  -3  -1  -1  164.18    6.00
  -4  -1  -1   12.90    0.80
  -4  -1  -1   14.20    0.90
  -5  -1  -1    8.20    0.70
  -5  -1  -1    9.00    0.80
   5   1   1    7.70    0.80
  -6  -1  -1   -0.10    0.40
  -6  -1  -1   -0.60    0.50
  -6  -1  -1    0.20    0.60
  -6  -1  -1    0.10    0.50
   6   1   1    0.50    0.60
  -7  -1  -1   48.60    2.30
  -7  -1  -1   51.89    2.60
  -7  -1  -1   48.40    2.30
  -7  -1  -1   52.49    2.40
   7   1   1   54.69    2.50
  -8  -1  -1    5.60    0.70
   8   1   1    6.70    0.80
  -7   2   1   16.80    1.20
  -7   2   1   17.30    1.60
  -7   2   1   15.60    1.20
   6  -2  -1   26.50    1.60
  -6   2   1   27.10    1.60
  -6   2   1   26.80    1.50
  -6   2   1   23.80    1.40
  -6   2   1   26.10    1.90
  -5   2   1   12.40    1.10
  -5   2   1   11.10    1.00
  -5   2   1   10.70    1.10
  -5   2   1   11.30    1.00
  -5   2   1   11.20    1.20
  -4   2   1    9.10    0.80
  -3   2   1   51.39    2.20
  -3   2   1   55.49    2.10
  -2   2   1  250.07    8.70
  -2   2   1  242.08    8.80
  -2   2   1  251.27    8.80
   0   2   1  309.87   10.80
  -1  -2  -1  124.49    4.10
  -1  -2  -1  105.39    4.30
  -2  -2  -1  336.27   11.50
  -2  -2  -1  319.87   11.60
  -3  -2  -1  398.26   13.20
  -3  -2  -1  364.36   13.20
  -3  -2  -1  355.36   13.10
  -4  -2  -1  321.57   11.50
  -4  -2  -1  329.47   11.50
  -4  -2  -1  316.17   11.40
  -5  -2  -1    9.00    0.80
  -5  -2  -1   10.30    0.90
   5   2   1    9.60    0.90
  -6  -2  -1    8.00    0.90
  -6  -2  -1    6.50    0.70
  -6  -2  -1    7.50    0.80
   6   2   1    6.00    0.80
  -7  -2  -1    2.50    0.60
  -7  -2  -1    1.70    0.50
  -7  -2  -1    2.30    0.50
   7   2   1    3.10    0.70
  -8  -2  -1   13.30    1.10
  -8  -2  -1   13.40    0.80
   8   2   1   13.50    1.20
  -7   3   1    1.60    0.70
  -7   3   1    0.30    0.50
  -7   3   1    0.20    0.70
   6  -3  -1    3.40    0.70
  -6   3   1    3.50    0.70
  -6   3   1    5.50    0.80
  -6   3   1    5.10    1.00
  -6   3   1    5.40    0.70
  -5   3   1   20.20    1.30
  -5   3   1   16.30    1.50
  -5   3   1   20.10    1.30
  -5   3   1   18.70    1.30
  -5   3   1   20.30    1.50
  -4   3   1    8.80    0.80
  -4   3   1   11.20    1.00
  -4   3   1   11.70    1.10
  -4   3   1    8.30    0.80
  -4   3   1    7.80    0.80
  -3   3   1   16.80    0.90
  -2   3   1   28.60    1.50
  -2   3   1   28.50    1.20
  -2   3   1   27.50    1.20
  -1   3   1  258.27    8.80
  -1   3   1  239.08    9.00
  -1  -3  -1 3145.79  118.79
  -1  -3  -1 3691.83  118.89
  -2  -3  -1  190.58    7.10
  -2  -3  -1  196.08    6.90
  -3  -3  -1   75.69    2.80
  -3  -3  -1   70.09    2.90
  -3  -3  -1   65.09    2.60
  -4  -3  -1  365.66   13.00
  -4  -3  -1  367.86   13.10
  -4  -3  -1  360.56   12.90
  -5  -3  -1   36.60    1.70
  -5  -3  -1   36.40    1.60
  -5  -3  -1   34.60    1.60
   5   3   1   35.90    1.80
  -6  -3  -1    8.20    0.90
  -6  -3  -1    7.00    0.70
   6   3   1    6.80    0.80
  -7  -3  -1   29.80    1.50
  -7  -3  -1   27.20    1.60
   7   3   1   27.90    1.70
  -8  -3  -1   11.90    1.00
  -8  -3  -1    9.30    0.80
   8   3   1    9.10    0.90
  -7   4   1   13.60    1.00
  -7   4   1   12.10    1.20
  -6   4   1   94.39    3.80
  -6   4   1   98.99    4.00
  -6   4   1   86.19    3.70
  -5   4   1   24.10    1.40
  -5   4   1   24.90    1.80
  -5   4   1   26.90    1.50
  -5   4   1   25.70    1.60
  -5   4   1   25.70    1.70
  -4   4   1  136.19    5.00
  -4   4   1  130.79    5.10
  -4   4   1  125.79    4.90
  -4   4   1  129.89    5.20
  -3   4   1   23.90    1.20
  -2   4   1   43.70    2.10
  -2   4   1   43.40    1.80
  -1   4   1    1.40    0.60
  -1   4   1    1.20    0.30
   0  -4  -1   46.20    2.20
   0  -4  -1   46.40    1.80
  -1  -4  -1  404.06   14.30
  -1  -4  -1  391.46   14.00
  -2  -4  -1   12.00    1.20
  -2  -4  -1   10.70    0.70
  -3  -4  -1  272.57    9.50
  -3  -4  -1  258.67    9.70
   3   4   1  258.77    9.50
  -4  -4  -1   59.79    2.50
  -4  -4  -1   61.09    2.70
  -4  -4  -1   57.09    2.50
  -5  -4  -1  250.37    8.60
  -5  -4  -1  238.78    8.70
   5   4   1  227.18    8.60
   5   4   1  235.78    8.70
  -6  -4  -1    0.70    0.40
  -6  -4  -1    0.30    0.50
   6   4   1    0.50    0.50
  -7  -4  -1   56.79    2.50
  -7  -4  -1   58.39    2.60
   7   4   1   64.29    2.70
  -8  -4  -1   17.20    1.00
  -8  -4  -1   18.20    1.20
   8   4   1   19.00    1.20
  -6   5   1   12.30    1.10
  -6   5   1   10.80    1.10
  -5   5   1    0.50    0.70
  -5   5   1    1.10    0.70
  -5   5   1    1.30    0.50
  -5   5   1    0.40    0.50
  -4   5   1    1.60    0.70
  -4   5   1    2.00    0.60
  -4   5   1    0.40    0.50
  -4   5   1    1.00    0.70
  -3   5   1    1.30    0.60
  -3   5   1    1.00    0.40
  -3   5   1    1.20    0.50
  -3   5   1    1.50    0.60
  -2   5   1  145.49    5.50
  -2   5   1  147.89    5.80
   1  -5  -1   19.00    1.30
   0  -5  -1  345.47   12.10
   0  -5  -1  317.77   11.70
  -1  -5  -1   53.49    2.20
  -1  -5  -1   54.09    2.60
  -2  -5  -1  391.16   14.00
  -2  -5  -1  388.76   13.70
   2   5   1  379.76   13.70
  -3  -5  -1  184.28    7.10
  -3  -5  -1  185.18    6.80
   3   5   1  187.68    6.80
  -4  -5  -1   25.30    1.40
  -4  -5  -1   23.50    1.20
  -4  -5  -1   21.30    1.60
  -4  -5  -1   21.00    1.60
   4   5   1   25.40    1.30
   4   5   1   22.10    1.50
   4   5   1   19.80    1.50
  -5  -5  -1   15.30    1.00
  -5  -5  -1   16.20    1.20
  -5  -5  -1   16.70    1.10
  -5  -5  -1   17.20    1.40
  -5  -5  -1   17.10    1.10
   5   5   1   17.40    1.10
   5   5   1   17.40    1.20
  -6  -5  -1   16.50    1.10
  -6  -5  -1   14.10    1.10
   6   5   1   15.20    1.20
   6   5   1   15.20    1.30
  -7  -5  -1    7.10    0.70
  -7  -5  -1    7.80    0.80
   7   5   1    8.00    0.90
  -8  -5  -1    9.20    0.70
  -8  -5  -1    7.70    0.70
   8   5   1   10.70    0.90
  -6   6   1    3.80    0.70
  -6   6   1    2.90    0.60
  -5   6   1   73.49    3.40
  -5   6   1   71.49    4.00
  -5   6   1   84.09    3.20
  -4   6   1    0.00    0.50
  -4   6   1    0.60    0.60
  -4   6   1    0.80    0.70
  -3   6   1   71.69    2.90
  -3   6   1   68.19    3.10
  -3   6   1   68.69    3.10
  -2   6   1   29.50    1.70
  -2   6   1   28.70    1.60
  -2   6   1   29.60    1.60
   1  -6  -1   18.90    1.10
   0  -6  -1  104.09    4.20
   0  -6  -1   98.89    3.80
   0   6   1   93.79    3.70
  -1  -6  -1  675.53   24.10
  -1  -6  -1  679.23   23.80
   1   6   1  671.13   23.70
  -2  -6  -1   34.10    1.60
  -2  -6  -1   34.40    2.10
   2   6   1   34.10    1.60
  -3  -6  -1   22.20    1.70
   3   6   1   20.70    1.20
   3   6   1   19.70    1.30
   3   6   1   21.80    1.20
   3   6   1   23.60    1.60
  -4  -6  -1  235.88    8.80
  -4  -6  -1  239.58    8.60
   4   6   1  237.58    8.70
   4   6   1  247.98    8.60
   4   6   1  242.68    8.80
   4   6   1  227.98    8.70
  -5  -6  -1   50.99    2.20
  -5  -6  -1   49.60    2.40
  -5  -6  -1   49.00    2.10
   5   6   1   45.60    2.10
   5   6   1   48.10    2.30
  -6  -6  -1    4.50    0.60
  -6  -6  -1    3.50    0.70
  -6  -6  -1    4.30    0.60
   6   6   1    5.70    0.80
   6   6   1    6.30    0.70
  -7  -6  -1   21.30    1.20
   7   6   1   21.50    1.40
  -8  -6  -1    8.40    0.70
   8   6   1    9.00    0.80
  -5   7   1   23.40    1.30
  -5   7   1   24.50    1.50
  -4   7   1    8.00    1.00
  -4   7   1    5.90    0.90
  -3   7   1    5.70    0.90
  -3   7   1    9.10    1.00
  -2   7   1   48.70    2.30
  -2   7   1   50.29    2.40
  -2   7   1   51.49    2.40
  -2   7   1   49.50    2.30
  -1   7   1    8.70    0.80
  -1   7   1   10.30    1.00
  -1   7   1    8.60    0.90
  -1   7   1   12.50    1.10
   0   7   1    3.60    0.70
   0   7   1    3.80    0.60
   0   7   1    3.30    0.60
   0   7   1    2.90    0.60
   0   7   1    4.30    0.80
   0   7   1    4.10    0.70
  -1  -7  -1   29.10    2.00
   1   7   1   29.00    1.50
   1   7   1   28.90    1.70
   1   7   1   29.40    1.60
   1   7   1   28.00    1.40
   1   7   1   29.50    1.60
   1   7   1   28.90    1.60
   1   7   1   29.30    1.60
  -2  -7  -1   11.80    1.30
   2   7   1   11.80    1.10
   2   7   1    9.60    0.80
   2   7   1    9.80    0.90
   2   7   1   11.80    1.00
   2   7   1   12.30    1.10
   2   7   1   11.20    1.10
   2   7   1   12.80    1.00
  -3  -7  -1    9.30    0.80
  -3  -7  -1   10.40    1.40
   3   7   1    7.80    0.80
   3   7   1   11.90    1.10
   3   7   1   13.50    1.00
   3   7   1    8.20    0.80
   3   7   1    8.20    0.90
   3   7   1   11.10    1.00
  -4  -7  -1   53.49    2.30
  -4  -7  -1   58.09    2.70
   4   7   1   53.39    2.50
   4   7   1   52.79    2.40
   4   7   1   55.49    2.50
   4   7   1   51.19    2.50
   4   7   1   57.59    2.40
  -5  -7  -1  118.19    4.60
  -5  -7  -1  110.39    4.30
  -5  -7  -1  115.89    4.40
   5   7   1  109.09    4.50
   5   7   1  111.39    4.40
  -6  -7  -1    3.10    0.60
  -6  -7  -1    2.90    0.70
  -6  -7  -1    4.30    0.60
   6   7   1    4.70    0.70
   6   7   1    3.90    0.80
  -7  -7  -1    1.50    0.40
   7   7   1    0.30    0.50
  -4   8   1   28.20    1.60
  -3   8   1   -0.20    0.60
  -3   8   1    0.50    0.60
  -2   8   1   20.00    1.40
  -2   8   1   18.60    1.30
  -2   8   1   21.20    1.50
  -1   8   1    7.10    0.80
  -1   8   1    5.70    0.90
  -1   8   1    7.70    0.90
  -1   8   1    7.10    1.00
   0   8   1   55.59    2.60
   0   8   1   56.79    2.50
   0   8   1   53.19    2.60
   0   8   1   55.09    2.60
   0   8   1   58.09    2.60
   1   8   1    0.70    0.50
   1   8   1    0.60    0.60
   1   8   1   -0.30    0.60
   1   8   1    0.30    0.50
   1   8   1    0.50    0.70
   1   8   1    0.20    0.60
   2   8   1   38.70    1.90
   2   8   1   35.30    2.00
   2   8   1   36.80    2.00
   2   8   1   35.40    2.00
   2   8   1   39.50    2.00
   2   8   1   37.00    1.90
  -3  -8  -1   45.50    2.20
   3   8   1   41.90    2.00
   3   8   1   40.10    2.10
   3   8   1   41.10    2.10
   3   8   1   40.90    2.10
   3   8   1   41.00    2.20
   3   8   1   39.20    2.20
  -4  -8  -1    3.80    0.90
  -4  -8  -1    3.50    0.60
   4   8   1    3.70    0.70
   4   8   1    3.80    0.70
   4   8   1    3.80    0.80
   4   8   1    4.30    0.80
   4   8   1    3.50    0.70
  -5  -8  -1   66.39    2.80
  -5  -8  -1   65.99    2.70
  -5  -8  -1   63.89    3.00
   5   8   1   68.69    3.00
   5   8   1   61.99    3.00
   5   8   1   67.09    2.80
  -6  -8  -1    5.70    0.60
  -6  -8  -1    6.10    0.70
  -6  -8  -1    8.10    0.90
   6   8   1    7.20    0.80
   6   8   1    8.40    0.90
  -7  -8  -1    2.60    0.40
   7   8   1    1.80    0.50
  -3   9   1   38.50    1.90
  -2   9   1    1.20    0.60
  -2   9   1    0.90    0.60
  -2   9   1    0.40    0.60
  -1   9   1    1.00    0.60
  -1   9   1    0.60    0.60
  -1   9   1    0.00    0.60
  -1   9   1    1.10    0.70
   0   9   1   11.70    1.20
   0   9   1   10.50    1.20
   0   9   1   12.80    1.20
   0   9   1   12.20    1.10
   0   9   1   11.50    1.10
  -1  -9  -1   30.40    1.80
   1   9   1   34.30    2.00
   1   9   1   35.00    1.90
   1   9   1   34.30    1.80
   1   9   1   31.20    2.00
   1   9   1   32.90    1.90
   1   9   1   34.00    1.70
  -2  -9  -1   27.20    1.70
   2   9   1   24.60    1.70
   2   9   1   26.10    1.70
   2   9   1   25.10    1.60
   2   9   1   24.80    1.60
   2   9   1   26.70    1.60
   2   9   1   27.00    1.70
  -3  -9  -1   12.50    1.30
   3   9   1   11.30    1.20
   3   9   1   13.10    1.10
   3   9   1   12.20    1.20
   3   9   1   11.20    1.10
   3   9   1    8.70    0.90
  -4  -9  -1    1.90    0.80
  -4  -9  -1    1.90    0.70
   4   9   1    2.10    0.70
   4   9   1    1.60    0.60
   4   9   1    0.80    0.60
   4   9   1    2.00    0.80
   4   9   1    1.30    0.60
  -5  -9  -1    1.50    0.70
  -5  -9  -1    1.30    0.60
   5   9   1    1.50    0.50
   5   9   1    1.40    0.60
   5   9   1    2.60    0.70
  -6  -9  -1    6.10    0.60
  -6  -9  -1    9.20    0.70
   6   9   1    7.10    0.80
   6   9   1    8.90    0.90
  -2  10   1    0.40    0.50
  -2  10   1   -0.10    0.50
  -1  10   1    0.40    0.60
  -1  10   1    0.80    0.60
  -1  10   1   -0.30    0.60
  -1  10   1   -0.40    0.50
   0  10   1   19.90    1.40
   0  10   1   18.70    1.30
   0  10   1   18.90    1.50
   0  10   1   17.60    1.40
   0  10   1   16.50    1.30
   1  10   1    0.40    0.60
   1  10   1    0.50    0.60
   1  10   1    0.50    0.60
   1  10   1    0.40    0.60
   1  10   1    0.90    0.60
  -2 -10  -1    0.10    0.60
   2  10   1    0.30    0.60
   2  10   1    0.70    0.70
   2  10   1    0.30    0.60
   2  10   1    0.30    0.60
   2  10   1    0.20    0.60
  -3 -10  -1    3.80    0.60
  -3 -10  -1    3.70    0.80
   3  10   1    5.90    0.90
   3  10   1    4.50    0.80
   3  10   1    5.50    0.80
   3  10   1    5.60    0.80
   3  10   1    4.40    0.80
  -4 -10  -1   19.10    1.40
  -4 -10  -1   20.00    1.30
   4  10   1   18.40    1.40
   4  10   1   20.10    1.30
   4  10   1   18.20    1.20
   4  10   1   19.90    1.40
   4  10   1   17.30    1.30
  -5 -10  -1   15.50    1.00
   5  10   1   12.60    1.00
   5  10   1   15.30    1.20
   0  11   1   20.20    1.20
   0  11   1   19.70    1.30
   0  11   1   21.30    1.30
   0  11   1   20.10    1.20
   1  11   1    3.10    0.60
   1  11   1    2.80    0.70
   1  11   1    2.70    0.60
   1  11   1    2.30    0.60
   1  11   1    3.40    0.60
   2  11   1    0.60    0.50
   2  11   1    1.20    0.60
   2  11   1    0.40    0.50
   2  11   1   -0.20    0.50
   2  11   1    0.70    0.60
  -3 -11  -1    0.40    0.40
   3  11   1   -0.10    0.50
   3  11   1   -0.30    0.50
   3  11   1    0.00    0.40
   3  11   1   -0.20    0.40
   3  11   1   -0.20    0.50
   3  10  -2    6.80    0.80
  -3 -10   2    5.90    0.50
  -3 -10   2    6.30    0.80
   2  10  -2    3.20    0.70
   2  10  -2    3.20    0.60
   2  10  -2    4.20    0.60
   2  10  -2    3.30    0.70
  -2 -10   2    4.40    0.70
   1  10  -2   16.20    1.20
   1  10  -2   16.00    1.30
   1  10  -2   17.30    1.20
   1  10  -2   17.60    1.30
  -1 -10   2   20.60    1.30
   0  10  -2    0.00    0.50
   0  10  -2   -0.30    0.50
   0  10  -2    0.40    0.60
   0  10  -2    0.10    0.50
  -1  10  -2    2.40    0.60
  -1  10  -2    1.90    0.60
  -1  10  -2    3.20    0.60
   4   9  -2    0.00    0.50
  -4  -9   2    0.20    0.50
  -4  -9   2    0.10    0.40
  -4  -9   2   -0.50    0.50
   3   9  -2    4.90    0.80
   3   9  -2    4.30    0.80
  -3  -9   2    4.70    0.60
  -3  -9   2    4.10    0.70
  -3  -9   2    4.50    0.80
   2   9  -2    3.10    0.70
   2   9  -2    3.40    0.70
   2   9  -2    4.20    0.80
   2   9  -2    3.00    0.90
  -2  -9   2    2.10    0.50
   1   9  -2   25.60    1.60
   1   9  -2   24.80    1.60
   1   9  -2   26.00    1.80
   1   9  -2   26.20    1.70
   0   9  -2   18.60    1.40
   0   9  -2   17.70    1.40
   0   9  -2   17.00    1.60
   0   9  -2   17.20    1.50
   0   9  -2   18.60    1.40
   0  -9   2   18.40    1.40
  -1   9  -2    4.10    0.70
  -1   9  -2    4.80    0.80
  -1   9  -2    5.70    0.90
  -1   9  -2    5.60    0.90
  -1   9  -2    5.50    0.80
  -2   9  -2    1.80    0.60
  -2   9  -2    1.10    0.60
  -2   9  -2    1.50    0.70
  -2   9  -2    0.70    0.60
  -3   9  -2   12.70    1.00
  -3   9  -2    9.10    0.90
  -3   9  -2   12.40    1.00
  -3   9  -2   13.70    1.10
   5   8  -2    1.50    0.60
  -5  -8   2    2.00    0.50
  -5  -8   2    2.10    0.70
   4   8  -2   15.10    1.20
  -4  -8   2   15.70    1.20
  -4  -8   2   14.40    1.30
  -4  -8   2   10.50    1.10
   3   8  -2    3.30    0.80
   3   8  -2    4.70    0.80
   3   8  -2    3.30    1.10
  -3  -8   2    3.30    0.60
  -3  -8   2    2.80    0.70
   2   8  -2    6.30    1.00
   2   8  -2   10.40    1.00
   2   8  -2    8.40    1.00
   2   8  -2    7.50    0.90
   2   8  -2    7.00    0.80
  -2  -8   2    7.40    0.90
  -2  -8   2    6.40    0.70
   1   8  -2    4.30    0.90
   1   8  -2    5.80    1.00
   1   8  -2    4.50    0.80
   1   8  -2    4.80    0.90
   1   8  -2    5.50    0.90
   1   8  -2    5.60    0.80
   0   8  -2   24.10    1.60
   0   8  -2   23.70    1.60
   0   8  -2   24.00    1.60
   0   8  -2   26.00    1.80
   0   8  -2   22.00    1.60
  -1   8  -2   25.70    1.60
  -1   8  -2   26.20    1.60
  -1   8  -2   25.00    1.70
  -1   8  -2   24.20    1.70
  -1   8  -2   24.60    1.80
  -2   8  -2   54.59    2.60
  -2   8  -2   53.99    2.70
  -2   8  -2   55.99    2.60
  -2   8  -2   51.09    2.60
  -2   8  -2   56.69    2.70
  -3   8  -2    5.00    0.80
  -3   8  -2    4.70    0.80
  -3   8  -2    3.70    0.80
  -3   8  -2    3.10    0.70
  -4   8  -2    2.70    0.60
  -4   8  -2    1.70    0.70
  -4   8  -2    1.10    0.60
   6   7  -2   19.80    1.30
  -6  -7   2   21.30    1.10
  -6  -7   2   17.60    1.30
  -6  -7   2   20.50    1.10
   5   7  -2    7.10    0.90
  -5  -7   2   11.60    1.10
  -5  -7   2   11.70    0.90
   4   7  -2   40.30    2.10
  -4  -7   2   41.80    2.00
  -4  -7   2   43.00    2.20
  -4  -7   2   40.50    2.20
   3   7  -2    0.60    0.50
   3   7  -2    0.60    0.70
   3   7  -2    1.00    0.60
  -3  -7   2    1.60    0.60
  -3  -7   2    1.20    0.70
   2   7  -2    7.20    0.80
   2   7  -2    5.90    0.90
   2   7  -2    7.40    1.00
   2   7  -2    6.60    0.80
   2   7  -2    5.50    0.80
   2   7  -2    7.40    0.80
  -2  -7   2    6.40    0.70
  -2  -7   2    9.00    1.00
   1   7  -2   -0.10    0.50
   1   7  -2    0.40    0.50
   1   7  -2   -0.30    0.60
   1   7  -2    0.00    0.50
   1   7  -2    0.30    0.50
   1   7  -2    0.50    0.70
  -1  -7   2    0.20    0.50
  -1  -7   2   -0.20    0.40
   0   7  -2    8.80    0.90
   0   7  -2   11.00    1.00
   0   7  -2   10.70    1.00
   0   7  -2    8.40    1.00
   0   7  -2    9.40    1.00
   0   7  -2    9.50    1.00
  -1   7  -2    2.80    0.70
  -1   7  -2    2.10    0.60
  -1   7  -2    2.80    0.80
  -1   7  -2    2.10    0.60
  -1   7  -2    3.10    0.90
  -2   7  -2  107.59    4.60
  -2   7  -2  114.09    4.70
  -2   7  -2  118.09    4.70
  -2   7  -2  116.79    4.60
  -2   7  -2  114.69    4.70
  -3   7  -2   17.70    1.50
  -3   7  -2   18.60    1.40
  -3   7  -2   19.70    1.60
  -3   7  -2   19.90    1.40
  -4   7  -2    2.10    0.80
  -4   7  -2    2.30    0.70
  -4   7  -2    2.20    0.70
  -5   7  -2    0.70    0.60
  -5   7  -2    0.50    0.50
  -5   7  -2    0.10    0.60
  -7  -6   2   11.70    0.80
   6   6  -2   14.30    1.20
  -6  -6   2   14.80    1.00
  -6  -6   2   15.20    1.00
  -6  -6   2   15.50    1.20
   5   6  -2    0.80    0.60
  -5  -6   2    1.40    0.40
  -5  -6   2    0.70    0.60
  -5  -6   2    0.80    0.50
   4   6  -2    5.50    0.80
   4   6  -2    7.20    0.90
  -4  -6   2    8.70    1.00
  -4  -6   2    7.90    0.80
  -4  -6   2    9.20    1.10
   3   6  -2   19.90    1.50
   3   6  -2   20.10    1.40
   3   6  -2   22.90    1.40
  -3  -6   2   22.30    1.40
  -3  -6   2   21.60    1.30
   2   6  -2   26.80    1.50
   2   6  -2   24.60    1.50
   2   6  -2   23.10    1.40
   2   6  -2   26.40    1.40
   2   6  -2   26.30    1.60
   2   6  -2   25.00    1.60
  -2  -6   2   25.20    1.70
  -2  -6   2   25.20    1.30
  -2  -6   2   25.90    1.50
   1   6  -2    6.00    0.80
   1   6  -2    5.30    0.80
   1   6  -2    5.40    0.70
   1   6  -2    6.00    0.70
   1   6  -2    5.10    0.70
   1   6  -2    4.60    0.70
  -1  -6   2    4.10    0.80
  -1  -6   2    4.30    0.60
  -1  -6   2    4.20    0.50
   0   6  -2   66.49    2.80
   0   6  -2   59.89    2.80
   0   6  -2   62.49    2.80
   0   6  -2   64.99    2.80
   0   6  -2   70.59    2.80
   0   6  -2   70.59    2.90
  -1   6  -2   36.00    1.90
  -1   6  -2   34.70    1.80
  -1   6  -2   35.60    1.80
  -1   6  -2   37.80    2.00
  -1   6  -2   35.40    1.90
  -2   6  -2   88.19    3.80
  -2   6  -2   94.69    3.70
  -2   6  -2   85.49    3.60
  -2   6  -2   88.29    3.70
  -2   6  -2   88.19    3.70
  -3   6  -2   36.10    2.10
  -3   6  -2   37.30    1.90
  -3   6  -2   35.20    2.00
  -3   6  -2   36.40    2.10
  -4   6  -2    0.10    0.60
  -4   6  -2   -0.40    0.60
  -4   6  -2    1.00    0.60
  -4   6  -2   -0.50    0.50
  -4   6  -2   -0.10    0.70
  -5   6  -2   16.40    1.50
  -5   6  -2   15.90    1.40
  -5   6  -2   13.40    1.20
  -5   6  -2   15.00    1.30
  -6   6  -2   -0.10    0.50
  -6   6  -2    0.20    0.50
  -6   6  -2    0.70    0.60
  -7  -5   2    1.50    0.40
   6   5  -2  153.28    5.70
   6   5  -2  136.29    5.80
  -6  -5   2  146.29    5.70
  -6  -5   2  154.98    5.50
  -6  -5   2  152.88    5.50
   5   5  -2    5.40    0.80
   5   5  -2    3.90    0.70
  -5  -5   2    5.30    0.70
  -5  -5   2    4.00    0.70
  -5  -5   2    4.10    0.50
   4   5  -2   32.90    1.80
   4   5  -2   35.20    1.80
  -4  -5   2   37.40    1.70
  -4  -5   2   35.10    1.60
  -4  -5   2   31.50    1.80
  -4  -5   2   35.30    1.90
   3   5  -2    2.80    0.70
   3   5  -2    3.60    0.60
   3   5  -2    2.50    0.60
  -3  -5   2    3.10    0.60
  -3  -5   2    3.40    0.80
  -3  -5   2    3.30    0.60
  -2  -5   2   39.90    1.80
  -2  -5   2   42.30    2.10
  -2  -5   2   41.80    1.90
  -1  -5   2   49.00    2.20
  -1  -5   2   40.60    1.90
  -1  -5   2   44.60    2.00
   0  -5   2    0.60    0.50
  -1   5  -2   89.79    4.00
  -2   5  -2    1.40    0.60
  -2   5  -2    1.70    0.50
  -2   5  -2    2.70    0.60
  -2   5  -2    2.10    0.60
  -3   5  -2   13.40    1.20
  -3   5  -2   11.80    1.00
  -3   5  -2   11.90    1.10
  -3   5  -2   16.20    1.20
  -3   5  -2   10.50    1.00
  -4   5  -2    2.20    0.60
  -4   5  -2    2.00    0.70
  -4   5  -2    3.00    0.70
  -4   5  -2    2.60    0.70
  -4   5  -2    1.50    0.70
  -5   5  -2   10.80    1.20
  -5   5  -2    9.40    1.10
  -5   5  -2   14.30    1.10
  -5   5  -2   13.10    1.10
  -6   5  -2   11.90    1.10
  -6   5  -2   15.60    1.30
  -6   5  -2   14.10    1.30
   6  -5   2   12.30    0.90
   7   4  -2   25.80    2.00
  -7  -4   2   31.40    1.40
   6   4  -2  168.18    6.30
   6   4  -2  162.68    6.40
  -6  -4   2  164.08    6.30
  -6  -4   2  173.68    6.20
  -6  -4   2  163.08    6.10
   5   4  -2  133.29    5.40
   5   4  -2  142.09    5.30
  -5  -4   2  129.49    5.10
  -5  -4   2  145.89    5.40
  -5  -4   2  139.29    5.20
   4   4  -2   21.10    1.30
   4   4  -2   19.60    1.30
  -4  -4   2   20.10    1.50
  -4  -4   2   21.80    1.20
  -4  -4   2   20.20    1.10
  -4  -4   2   19.00    1.20
  -3  -4   2    9.40    0.90
  -3  -4   2   12.00    1.10
  -2  -4   2   28.80    1.50
  -2  -4   2   30.20    1.30
  -2  -4   2   30.40    1.60
  -1  -4   2   17.70    1.20
  -1  -4   2   18.70    1.00
   0   4  -2   30.90    1.80
   0  -4   2   30.90    1.50
  -1   4  -2   38.10    2.10
  -2   4  -2  145.99    5.80
  -3   4  -2    1.40    0.60
  -3   4  -2    1.00    0.50
  -3   4  -2    0.30    0.50
  -4   4  -2   65.29    3.00
  -4   4  -2   64.49    3.50
  -4   4  -2   69.29    2.90
  -4   4  -2   68.69    2.90
  -4   4  -2   68.99    3.10
  -4   4  -2   66.19    2.70
  -5   4  -2    1.60    0.70
  -5   4  -2   -0.30    0.70
  -5   4  -2    0.40    0.50
  -5   4  -2    0.50    0.50
  -5   4  -2    0.30    0.60
  -6   4  -2    0.10    0.50
  -6   4  -2    0.20    0.70
  -6   4  -2    0.00    0.50
  -6   4  -2   -0.50    0.60
   6  -4   2    0.00    0.40
  -7   4  -2   32.20    1.80
  -7   4  -2   33.40    1.70
   7   3  -2   11.00    1.00
  -7  -3   2    8.70    0.80
  -7  -3   2    8.60    0.70
   6   3  -2   13.50    1.50
   6   3  -2   13.90    1.20
  -6  -3   2   11.80    1.10
  -6  -3   2   11.90    0.90
   5   3  -2    5.70    0.80
   5   3  -2    5.10    0.70
  -5  -3   2    5.70    0.60
  -5  -3   2    6.80    0.80
  -5  -3   2    5.50    0.70
  -5  -3   2    6.30    0.70
   4   3  -2   10.70    1.00
   4   3  -2   11.10    1.10
  -4  -3   2   10.80    0.90
  -4  -3   2   12.10    1.10
  -4  -3   2    9.60    0.80
  -4  -3   2    8.70    0.70
  -3  -3   2  102.29    4.00
  -3  -3   2  105.89    4.20
  -2  -3   2    6.90    0.50
  -2  -3   2    8.00    0.80
  -1  -3   2  147.59    5.50
  -1  -3   2  147.79    5.30
   0   3  -2  149.79    5.90
   0  -3   2  163.88    5.70
  -1   3  -2  214.48    7.80
   1  -3   2  208.78    7.50
  -2   3  -2  268.47   10.00
  -2   3  -2  273.47    9.60
  -3   3  -2   35.60    1.60
  -3   3  -2   36.90    2.00
  -4   3  -2   62.09    2.80
  -4   3  -2   65.19    2.70
  -4   3  -2   66.79    2.90
  -4   3  -2   63.69    2.70
  -4   3  -2   63.89    2.60
  -5   3  -2   87.79    3.60
  -5   3  -2   84.09    3.60
  -5   3  -2   91.59    3.50
  -5   3  -2   84.79    3.80
  -5   3  -2   88.89    3.80
  -6   3  -2   10.00    1.20
  -6   3  -2   13.50    1.20
  -6   3  -2   10.30    1.00
  -6   3  -2   14.30    1.10
   6  -3   2   11.50    1.00
  -7   3  -2    7.60    1.00
  -7   3  -2    8.60    0.90
   7   2  -2    1.90    0.60
  -7  -2   2    3.40    0.60
  -7  -2   2    2.50    0.50
  -6  -2   2  353.26   12.70
  -6  -2   2  356.76   12.80
  -5  -2   2    3.00    0.60
  -5  -2   2    2.20    0.40
  -5  -2   2    3.10    0.60
  -4  -2   2  146.19    5.70
  -4  -2   2  149.39    5.80
  -4  -2   2  165.68    5.80
  -3  -2   2    5.50    0.70
  -3  -2   2    6.00    0.60
  -2  -2   2   20.50    0.90
  -2  -2   2   22.50    1.20
  -1  -2   2  282.67   10.50
  -1  -2   2  309.47   10.40
   0   2  -2   39.90    1.70
   0  -2   2   36.80    1.60
  -1   2  -2  349.27   12.30
   1  -2   2  339.87   12.10
  -2   2  -2    1.80    0.30
  -2   2  -2    1.90    0.50
  -3   2  -2  114.09    4.20
  -3   2  -2  114.19    4.50
  -4   2  -2    5.80    0.60
  -4   2  -2    5.10    0.80
  -5   2  -2   13.90    1.00
  -5   2  -2   13.30    1.30
  -5   2  -2   14.70    1.10
  -5   2  -2   14.50    1.30
  -6   2  -2   19.40    1.40
  -6   2  -2   18.60    1.60
  -6   2  -2   18.40    1.30
  -6   2  -2   20.90    1.70
   6  -2   2   19.80    1.30
  -7   2  -2   33.20    1.80
  -7   2  -2   40.80    1.90
  -7   2  -2   37.30    2.10
   7  -2   2   38.50    2.00
  -8   2  -2    9.20    0.90
  -8   2  -2   11.60    0.90
   8  -2   2    9.30    0.80
   7   1  -2    0.20    0.50
  -7  -1   2    0.20    0.40
  -7  -1   2    0.70    0.50
  -6  -1   2  277.37    9.80
  -6  -1   2  258.17   10.00
  -6  -1   2  261.07    9.70
  -6  -1   2  272.07    9.60
  -5  -1   2   69.59    2.80
  -5  -1   2   73.89    3.00
  -5  -1   2   70.39    2.80
  -5  -1   2   67.29    3.20
  -4  -1   2   -0.20    0.30
  -4  -1   2    0.10    0.30
  -4  -1   2    0.40    0.40
  -3  -1   2   40.80    1.90
  -3  -1   2   45.10    1.70
  -2  -1   2   76.59    2.70
  -2  -1   2   75.39    2.90
  -1  -1   2  517.45   16.40
  -1  -1   2  455.75   16.40
  -1  -1   2  439.86   16.50
   0   1  -2    3.20    0.40
   0  -1   2    2.50    0.30
  -1   1  -2  143.19    5.10
   1  -1   2  134.49    4.90
  -2   1  -2   18.20    1.00
  -3   1  -2  138.09    5.10
  -3   1  -2  143.59    5.30
  -4   1  -2   16.60    1.00
  -4   1  -2   15.80    1.20
  -5   1  -2   13.10    1.10
  -5   1  -2   14.40    1.00
  -5   1  -2   15.50    1.30
  -5   1  -2   14.50    1.00
  -5   1  -2   12.70    1.20
  -6   1  -2   18.70    1.50
  -6   1  -2   17.50    1.20
  -6   1  -2   17.90    1.30
  -6   1  -2   18.10    1.20
  -6   1  -2   18.60    1.70
   6  -1   2   17.60    1.20
  -7   1  -2   37.50    2.20
  -7   1  -2   38.30    1.90
  -7   1  -2   38.20    2.00
   7  -1   2   40.30    2.10
  -8   1  -2    3.10    0.60
  -8   1  -2    2.50    0.50
   8  -1   2    2.60    0.60
  -7   0   2    9.80    0.70
  -7   0   2    7.90    0.80
  -6   0   2   62.69    2.60
  -6   0   2   62.99    3.10
  -6   0   2   66.49    2.80
  -6   0   2   62.89    2.70
  -6   0   2   62.79    2.80
  -5   0   2  119.29    4.70
  -5   0   2  121.79    4.90
  -5   0   2  119.49    4.70
  -5   0   2  122.19    4.60
  -5   0   2  124.19    4.60
  -4   0   2   59.39    2.30
  -4   0   2   53.09    2.40
  -3   0   2   74.69    2.80
  -3   0   2   75.89    3.00
  -2   0   2   24.30    1.20
  -2   0   2   25.50    1.10
  -1   0   2  133.49    4.80
   0   0  -2 2210.48   73.09
   0   0   2 2121.29   72.99
   0   0   2 1975.80   73.29
  -1   0  -2    4.70    0.40
   1   0   2    5.00    0.30
  -2   0  -2 1203.78   44.90
  -2   0  -2 1390.16   45.10
  -3   0  -2   55.39    2.30
  -3   0  -2   57.29    2.20
  -4   0  -2  344.47   12.40
  -4   0  -2  353.36   12.60
  -5   0  -2   65.49    2.80
  -5   0  -2   64.69    2.60
  -5   0  -2   60.79    2.60
  -5   0  -2   61.29    2.60
   5   0   2   56.59    2.50
  -6   0  -2   44.50    2.10
  -6   0  -2   40.60    2.20
  -6   0  -2   43.40    2.00
  -6   0  -2   43.80    2.00
   6   0   2   40.10    2.00
  -7   0  -2    9.80    0.90
  -7   0  -2   10.00    0.90
  -7   0  -2    7.60    0.80
  -7   0  -2   11.80    1.30
   7   0   2   12.00    1.10
  -8   0  -2    1.30    0.50
   8   0   2    0.60    0.60
  -7   1   2    8.20    0.90
  -7   1   2    9.00    1.10
  -7   1   2    6.90    0.80
  -7   1   2    7.00    0.60
  -6   1   2   39.40    1.90
  -6   1   2   39.10    1.80
  -6   1   2   39.20    2.00
  -6   1   2   38.10    2.00
  -6   1   2   40.30    2.30
  -5   1   2   79.19    3.10
  -5   1   2   76.69    3.50
  -5   1   2   72.89    3.20
  -5   1   2   75.59    3.20
  -5   1   2   83.79    3.20
  -4   1   2   44.50    2.70
  -4   1   2   38.70    2.40
  -4   1   2   43.50    1.90
  -3   1   2   91.29    3.40
  -3   1   2   90.69    3.50
  -2   1   2   71.59    2.70
  -2   1   2   78.69    2.80
  -2   1   2   79.19    2.90
  -1   1   2 1393.06   48.50
   0  -1  -2    1.10    0.20
   0   1   2    1.20    0.30
   0   1   2    1.30    0.10
  -1  -1  -2  746.73   25.90
   1   1   2  742.53   25.90
  -2  -1  -2    3.90    0.40
  -2  -1  -2    3.40    0.40
  -3  -1  -2    4.20    0.50
  -3  -1  -2    3.70    0.40
  -3  -1  -2    4.50    0.40
  -4  -1  -2    9.20    0.80
  -4  -1  -2   10.00    0.70
  -5  -1  -2    3.30    0.60
  -5  -1  -2    3.20    0.50
  -5  -1  -2    4.60    0.70
  -6  -1  -2  119.59    4.40
  -6  -1  -2  111.59    4.40
  -6  -1  -2  114.39    4.50
   6   1   2  112.29    4.50
   6   1   2  110.19    4.30
  -7  -1  -2    1.70    0.60
  -7  -1  -2    2.00    0.60
   7   1   2    1.70    0.70
  -8  -1  -2    0.50    0.50
   8   1   2    0.10    0.50
  -7   2   2    5.90    0.70
  -7   2   2    6.80    0.90
  -7   2   2    6.70    1.00
  -6   2   2  106.39    4.40
  -6   2   2  115.19    4.50
  -6   2   2  111.19    4.40
  -6   2   2  107.19    4.40
  -6   2   2  119.09    4.70
  -5   2   2    0.80    0.40
  -5   2   2    1.00    0.60
  -5   2   2    0.30    0.50
  -5   2   2    1.40    0.80
  -5   2   2    1.10    0.60
  -4   2   2   13.40    1.10
  -4   2   2   12.60    0.90
  -4   2   2   10.20    0.90
  -4   2   2   11.10    1.00
  -4   2   2   11.30    0.90
  -3   2   2    2.30    0.40
  -3   2   2    1.90    0.40
  -2   2   2   12.40    0.70
  -2   2   2   12.30    0.70
  -2   2   2   11.40    0.70
  -1   2   2   53.69    2.10
   0  -2  -2   73.79    2.70
   0   2   2   75.69    2.80
  -1  -2  -2 1142.79   39.40
   1   2   2 1118.99   39.30
  -2  -2  -2   59.09    2.20
  -2  -2  -2   56.09    2.40
  -3  -2  -2  272.77    9.70
  -3  -2  -2  266.57    9.70
  -3  -2  -2  271.57    9.60
  -4  -2  -2    2.70    0.50
  -4  -2  -2    2.70    0.40
  -5  -2  -2   85.49    3.20
  -5  -2  -2   79.59    3.20
  -5  -2  -2   79.89    3.30
   5   2   2   74.39    3.30
  -6  -2  -2    0.70    0.50
  -6  -2  -2    0.40    0.40
  -6  -2  -2    0.30    0.50
   6   2   2    0.00    0.40
   6   2   2    0.20    0.50
  -7  -2  -2   -0.20    0.40
  -7  -2  -2   -0.30    0.50
  -7  -2  -2   -0.20    0.50
   7   2   2    0.60    0.60
  -8  -2  -2    0.10    0.50
   8   2   2    0.30    0.50
  -7   3   2    0.40    0.60
  -7   3   2    0.40    0.70
  -7   3   2   -0.40    0.40
  -6   3   2   54.19    2.40
  -6   3   2   56.39    2.60
  -6   3   2   55.79    2.50
  -6   3   2   56.49    2.80
  -5   3   2   21.00    1.70
  -5   3   2   20.30    1.30
  -5   3   2   20.60    1.40
  -5   3   2   21.80    1.40
  -4   3   2   35.70    1.70
  -4   3   2   36.70    2.00
  -4   3   2   33.20    1.70
  -4   3   2   33.50    1.70
  -3   3   2    7.20    0.70
  -2   3   2   17.30    1.10
  -2   3   2   20.10    1.00
  -2   3   2   18.70    0.90
  -1   3   2   95.89    3.50
  -1   3   2   94.59    3.50
   0  -3  -2  411.96   14.60
   0   3   2  424.06   14.70
  -1  -3  -2  162.68    5.80
   1   3   2  161.98    5.80
  -2  -3  -2  446.96   15.30
  -2  -3  -2  423.66   15.50
  -3  -3  -2   13.00    0.90
  -3  -3  -2   12.20    1.00
  -3  -3  -2   12.80    0.70
  -4  -3  -2    2.50    0.60
  -4  -3  -2    3.00    0.40
  -4  -3  -2    2.60    0.50
  -5  -3  -2  160.38    5.90
  -5  -3  -2  163.08    6.00
  -5  -3  -2  167.28    6.10
   5   3   2  161.28    6.00
   5   3   2  158.38    6.10
  -6  -3  -2   39.60    1.70
  -6  -3  -2   36.90    1.70
  -6  -3  -2   35.20    1.90
   6   3   2   36.30    1.80
   6   3   2   37.10    1.90
  -7  -3  -2   11.40    1.00
  -7  -3  -2   12.70    0.90
   7   3   2   13.50    1.20
   7   3   2   13.30    1.00
  -8  -3  -2    6.00    0.70
  -8  -3  -2    6.90    0.60
   8   3   2    6.50    0.80
  -6   4   2    0.10    0.70
  -6   4   2    0.30    0.60
  -6   4   2    0.70    0.50
  -5   4   2  150.68    5.50
  -5   4   2  139.19    5.50
  -5   4   2  140.49    5.70
  -5   4   2  141.69    5.50
  -4   4   2    4.20    0.70
  -4   4   2    5.30    0.70
  -4   4   2    4.30    0.70
  -4   4   2    3.90    0.80
  -3   4   2  101.69    4.10
  -3   4   2  108.09    4.00
  -3   4   2  110.09    4.50
  -2   4   2   75.59    3.00
  -2   4   2   82.59    3.00
   1  -4  -2  114.39    4.30
  -1   4   2  122.39    4.40
  -1   4   2  117.29    4.30
   0  -4  -2  298.97   10.50
   0   4   2  297.17   10.60
  -1  -4  -2    9.60    1.10
  -1  -4  -2    9.90    0.70
  -2  -4  -2   38.70    2.00
  -2  -4  -2   40.50    1.70
  -3  -4  -2  100.19    3.80
  -3  -4  -2   95.39    4.00
  -4  -4  -2   13.00    1.20
  -4  -4  -2   14.20    1.00
  -5  -4  -2   10.10    0.80
  -5  -4  -2    9.20    0.90
   5   4   2   10.20    0.80
   5   4   2   10.10    0.90
  -6  -4  -2   41.80    2.10
  -6  -4  -2   45.30    2.00
   6   4   2   42.00    2.00
   6   4   2   44.70    2.20
  -7  -4  -2    0.80    0.50
  -7  -4  -2    1.40    0.50
   7   4   2    1.80    0.50
   7   4   2    1.60    0.60
  -8  -4  -2    2.50    0.40
  -8  -4  -2    3.10    0.60
   8   4   2    2.20    0.60
  -6   5   2    0.10    0.60
  -6   5   2   -0.10    0.50
  -5   5   2  119.79    4.90
  -5   5   2  118.49    4.70
  -5   5   2  120.39    4.60
  -4   5   2    1.90    0.70
  -4   5   2    1.80    0.60
  -4   5   2    1.50    0.60
  -3   5   2   35.30    1.80
  -3   5   2   35.60    1.70
  -3   5   2   33.90    1.90
  -2   5   2    7.20    0.60
   1  -5  -2   15.00    0.90
  -1   5   2   15.40    0.80
   0  -5  -2   38.50    2.20
   0  -5  -2   40.90    1.70
  -1  -5  -2  544.75   19.10
  -1  -5  -2  539.25   19.50
  -2  -5  -2   29.90    1.40
  -2  -5  -2   32.20    1.90
   2   5   2   30.50    1.40
  -3  -5  -2   19.50    1.50
  -3  -5  -2   18.50    1.20
   3   5   2   20.00    1.10
  -4  -5  -2    8.20    0.80
  -4  -5  -2    9.80    1.20
  -4  -5  -2   10.30    1.20
  -5  -5  -2   -0.30    0.60
  -5  -5  -2    0.20    0.40
  -5  -5  -2   -0.50    0.40
  -5  -5  -2   -0.40    0.40
   5   5   2   -0.20    0.40
   5   5   2    0.10    0.50
  -6  -5  -2   30.30    1.60
  -6  -5  -2   33.20    1.70
   6   5   2   31.10    1.80
   6   5   2   30.00    1.60
  -7  -5  -2    7.70    0.70
  -7  -5  -2    8.70    0.90
   7   5   2   10.30    1.00
   7   5   2    9.10    0.80
  -8  -5  -2    2.00    0.40
  -8  -5  -2    2.10    0.50
   8   5   2    1.50    0.60
  -5   6   2    4.10    0.70
  -5   6   2    3.70    0.80
  -4   6   2   93.29    4.00
  -4   6   2   99.19    3.90
  -3   6   2   28.90    1.60
  -3   6   2   29.80    1.70
  -2   6   2    8.80    0.90
   1  -6  -2    3.40    0.50
   0  -6  -2   76.89    3.40
   0  -6  -2   74.89    3.00
   0   6   2   72.09    2.90
  -1  -6  -2   31.80    2.10
  -1  -6  -2   33.20    1.60
   1   6   2   31.30    1.50
  -2  -6  -2  120.89    5.10
  -2  -6  -2  121.29    4.60
   2   6   2  121.19    4.60
  -3  -6  -2   54.59    2.90
   3   6   2   58.79    2.80
   3   6   2   56.69    2.50
   3   6   2   53.49    2.40
  -4  -6  -2   -0.60    0.70
  -4  -6  -2   -0.40    0.40
   4   6   2    0.20    0.50
   4   6   2   -0.30    0.50
   4   6   2   -0.10    0.40
   4   6   2   -0.10    0.50
   4   6   2   -0.50    0.40
  -5  -6  -2   75.99    3.00
  -5  -6  -2   75.49    3.20
   5   6   2   76.29    3.00
   5   6   2   73.19    3.10
   5   6   2   72.09    3.20
  -6  -6  -2    0.70    0.50
  -6  -6  -2   -0.50    0.50
   6   6   2    0.90    0.50
   6   6   2    1.10    0.60
  -7  -6  -2   -0.20    0.50
  -7  -6  -2    0.60    0.40
   7   6   2    0.00    0.40
   7   6   2    1.00    0.60
  -8  -6  -2    0.90    0.40
  -8  -6  -2    0.60    0.40
   8   6   2    0.50    0.50
  -5   7   2   19.60    1.20
  -5   7   2   18.70    1.30
  -4   7   2   62.79    2.80
  -4   7   2   57.29    2.60
  -3   7   2   22.90    1.60
  -1   7   2    9.70    0.80
  -1   7   2    8.00    0.90
  -1   7   2   10.60    1.00
  -1   7   2   10.80    0.90
   0  -7  -2    5.70    1.10
   0   7   2    3.30    0.50
   0   7   2    3.70    0.60
   0   7   2    5.30    0.80
   0   7   2    4.80    0.80
   0   7   2    4.80    0.70
   0   7   2    4.50    0.60
   0   7   2    4.40    0.60
  -1  -7  -2   13.00    1.40
   1   7   2    8.50    0.70
   1   7   2   11.50    1.00
   1   7   2    9.10    0.90
   1   7   2   11.00    0.90
   1   7   2   10.80    1.00
   1   7   2   10.00    0.90
   1   7   2   10.90    0.90
  -2  -7  -2   10.90    1.40
   2   7   2   12.00    0.90
   2   7   2   12.10    1.10
   2   7   2   10.30    0.80
   2   7   2    9.80    0.90
   2   7   2   12.00    1.00
   2   7   2   10.30    0.80
   2   7   2   12.00    1.10
   2   7   2   10.50    1.00
  -3  -7  -2    1.90    0.90
   3   7   2    3.00    0.70
   3   7   2    1.80    0.50
   3   7   2    1.60    0.60
   3   7   2    1.50    0.60
   3   7   2    3.20    0.70
   3   7   2    1.20    0.60
   3   7   2    2.20    0.70
  -4  -7  -2   26.40    1.40
   4   7   2   27.30    1.60
   4   7   2   27.40    1.70
   4   7   2   23.60    1.60
   4   7   2   27.50    1.60
   4   7   2   28.10    1.50
   4   7   2   25.10    1.40
  -5  -7  -2  110.89    4.30
  -5  -7  -2  116.89    4.60
   5   7   2  114.09    4.40
   5   7   2  107.29    4.50
  -6  -7  -2   -0.30    0.50
  -6  -7  -2   -0.20    0.50
  -6  -7  -2    0.00    0.50
   6   7   2   -0.30    0.50
   6   7   2    0.40    0.60
  -7  -7  -2   12.70    1.00
   7   7   2   14.40    1.20
   7   7   2   13.70    1.00
  -1   8   2   16.60    1.40
  -1   8   2   16.70    1.20
  -1   8   2   17.50    1.30
  -1   8   2   16.60    1.20
   0   8   2   19.10    1.30
   0   8   2   18.40    1.50
   0   8   2   17.00    1.40
   0   8   2   19.60    1.40
   0   8   2   18.70    1.40
   1   8   2  186.98    7.40
   1   8   2  202.18    7.40
   1   8   2  201.38    7.50
   1   8   2  205.88    7.40
   1   8   2  199.68    7.30
   1   8   2  188.88    7.20
   1   8   2  195.28    7.40
   2   8   2    2.00    0.60
   2   8   2    1.30    0.70
   2   8   2    1.40    0.70
   2   8   2    1.20    0.60
   2   8   2    1.60    0.60
   2   8   2    1.10    0.60
   2   8   2    2.30    0.60
  -3  -8  -2   22.70    1.30
   3   8   2   24.10    1.60
   3   8   2   21.40    1.50
   3   8   2   25.10    1.50
   3   8   2   23.00    1.50
   3   8   2   24.90    1.60
   3   8   2   22.30    1.60
  -4  -8  -2    0.60    0.80
  -4  -8  -2    0.30    0.50
   4   8   2   -0.30    0.60
   4   8   2    0.60    0.60
   4   8   2   -0.50    0.60
   4   8   2    0.70    0.70
   4   8   2    0.00    0.50
   4   8   2    0.90    0.70
  -5  -8  -2    4.70    0.60
  -5  -8  -2    5.30    1.00
   5   8   2    5.50    0.90
   5   8   2    4.60    0.80
   5   8   2    4.10    0.70
  -6  -8  -2   23.40    1.30
  -6  -8  -2   25.20    1.40
  -6  -8  -2   24.70    1.50
   6   8   2   25.10    1.60
   6   8   2   24.30    1.50
  -7  -8  -2    0.70    0.40
   7   8   2    1.40    0.50
   7   8   2    2.00    0.60
  -1   9   2    0.70    0.60
  -1   9   2    0.90    0.60
  -1   9   2    1.50    0.70
  -1   9   2    1.30    0.70
   0   9   2    0.60    0.70
   0   9   2    0.40    0.60
   0   9   2    0.10    0.70
   0   9   2    1.50    0.60
   0   9   2    0.40    0.60
   1   9   2   37.40    2.00
   1   9   2   35.70    2.00
   1   9   2   40.00    2.10
   1   9   2   34.90    1.80
   1   9   2   36.20    2.00
   1   9   2   36.30    2.00
   2   9   2    4.10    0.70
   2   9   2    2.30    0.70
   2   9   2    2.40    0.70
   2   9   2    3.70    0.80
   2   9   2    4.20    0.90
   2   9   2    3.00    0.70
  -3  -9  -2   11.30    1.20
   3   9   2   11.70    1.00
   3   9   2   12.70    1.30
   3   9   2    9.00    1.00
   3   9   2   10.10    1.10
   3   9   2   10.10    1.00
   3   9   2   12.70    1.20
  -4  -9  -2    0.00    0.70
   4   9   2   -0.70    0.60
   4   9   2    0.10    0.60
   4   9   2    0.30    0.70
   4   9   2   -0.10    0.50
   4   9   2   -0.30    0.50
   4   9   2    0.10    0.60
  -5  -9  -2    3.50    0.50
  -5  -9  -2    3.30    0.70
  -5  -9  -2    3.70    0.90
   5   9   2    2.70    0.70
   5   9   2    3.50    0.70
   5   9   2    3.80    0.70
   5   9   2    2.40    0.80
  -6  -9  -2    0.80    0.40
  -6  -9  -2    0.20    0.40
  -6  -9  -2   -0.40    0.50
   6   9   2    0.10    0.50
   6   9   2    0.00    0.50
  -1  10   2    0.70    0.60
  -1  10   2    0.20    0.50
   0  10   2    4.80    0.90
   0  10   2    4.00    0.70
   0  10   2    4.50    0.80
   0  10   2    3.70    0.70
   0  10   2    4.90    0.80
   1  10   2    1.50    0.70
   1  10   2    1.60    0.60
   1  10   2    2.70    0.70
   1  10   2    3.20    0.80
   1  10   2    2.00    0.70
  -2 -10  -2   27.60    1.70
   2  10   2   24.80    1.50
   2  10   2   24.60    1.70
   2  10   2   23.90    1.60
   2  10   2   25.50    1.70
   2  10   2   26.40    1.60
   2  10   2   24.60    1.70
  -3 -10  -2    3.70    0.80
   3  10   2    3.40    0.80
   3  10   2    3.60    0.80
   3  10   2    4.20    0.80
   3  10   2    3.70    0.70
   3  10   2    3.80    0.70
  -4 -10  -2    3.90    0.80
   4  10   2    4.70    0.80
   4  10   2    4.20    0.80
   4  10   2    5.60    0.70
   4  10   2    4.50    0.80
   4  10   2    5.80    0.70
  -5 -10  -2   30.50    1.50
  -5 -10  -2   31.50    1.70
   5  10   2   31.90    1.70
   5  10   2   29.00    1.60
   5  10   2   29.80    1.60
   0  11   2    2.30    0.70
   0  11   2    2.50    0.60
   0  11   2    2.70    0.60
   1  11   2   16.50    1.20
   1  11   2   15.10    1.20
   1  11   2   16.60    1.20
   1  11   2   13.90    1.10
   1  11   2   17.70    1.20
   2  11   2    2.10    0.60
   2  11   2    1.10    0.50
   2  11   2    0.90    0.60
   2  11   2    1.00    0.60
   2  11   2    0.70    0.50
  -3 -11  -2    0.30    0.40
   3  11   2    0.80    0.50
   3  11   2    1.00    0.60
   3  11   2    0.40    0.50
   3  11   2    0.70    0.50
   3  11   2    1.10    0.60
  -4 -11  -2    0.10    0.40
   4  11   2    0.00    0.50
   4  11   2    0.30    0.40
   4  11   2   -0.50    0.40
   4  11   2    0.10    0.40
   4  11   2    0.30    0.50
   1  10  -3    5.60    0.60
   1  10  -3    4.60    0.70
   1  10  -3    5.40    0.60
  -1 -10   3    5.90    0.70
   4   9  -3    0.10    0.40
  -4  -9   3    0.80    0.30
  -4  -9   3    0.60    0.50
   3   9  -3    3.50    0.70
  -3  -9   3    3.40    0.50
  -3  -9   3    2.20    0.60
   2   9  -3    2.30    0.80
   2   9  -3    2.90    0.70
  -2  -9   3    2.40    0.70
   1   9  -3   10.60    1.00
   1   9  -3   10.60    1.20
   1   9  -3   13.10    1.10
   1   9  -3   13.40    1.10
   1   9  -3   11.20    1.00
  -1  -9   3   16.10    1.30
   0   9  -3    3.10    0.70
   0   9  -3    3.40    0.70
   0   9  -3    4.40    0.70
   0   9  -3    2.70    0.80
   0   9  -3    3.20    0.70
   0  -9   3    3.80    0.70
  -1   9  -3    6.00    0.80
  -1   9  -3    4.20    0.80
  -1   9  -3    6.20    0.80
  -1   9  -3    6.70    0.80
  -2   9  -3    1.00    0.60
  -2   9  -3    0.80    0.50
  -2   9  -3    0.90    0.50
  -2   9  -3    1.10    0.60
   2  -9   3    0.70    0.50
  -5  -8   3    0.40    0.40
   4   8  -3    2.00    0.60
  -4  -8   3    2.80    0.70
  -4  -8   3    1.70    0.60
  -4  -8   3    2.30    0.50
   3   8  -3    3.90    0.70
   3   8  -3    5.70    0.80
  -3  -8   3    6.50    0.90
  -3  -8   3    6.40    0.90
  -3  -8   3    5.30    0.70
   2   8  -3   -0.20    0.50
   2   8  -3    0.30    0.70
   2   8  -3   -0.10    0.60
  -2  -8   3    0.10    0.60
  -2  -8   3    0.10    0.40
  -2  -8   3    0.30    0.50
   1   8  -3   64.69    3.10
   1   8  -3   61.79    2.80
   1   8  -3   63.99    2.90
   1   8  -3   61.59    2.90
   1   8  -3   63.29    2.80
  -1  -8   3   68.19    3.00
   0   8  -3    8.70    0.90
   0   8  -3    7.50    1.00
   0   8  -3    6.40    0.90
   0   8  -3    8.80    1.00
   0   8  -3    9.60    1.20
   0  -8   3    7.80    0.90
  -1   8  -3    4.20    0.80
  -1   8  -3    5.10    0.80
  -1   8  -3    5.20    1.00
  -1   8  -3    5.10    0.90
  -1   8  -3    4.40    0.80
  -2   8  -3   11.10    1.10
  -2   8  -3   11.30    1.10
  -2   8  -3   10.10    1.10
  -2   8  -3   10.20    1.00
  -3   8  -3    7.00    0.90
  -3   8  -3    7.50    0.80
  -3   8  -3    4.10    0.70
  -3   8  -3    4.00    0.80
  -4   8  -3   15.90    1.20
  -4   8  -3   14.60    1.10
  -4   8  -3   16.00    1.20
   4  -8   3   16.40    1.00
  -5  -7   3    5.50    0.60
  -5  -7   3    4.10    0.70
   4   7  -3    0.60    0.50
   4   7  -3    0.90    0.60
  -4  -7   3    1.00    0.50
  -4  -7   3    0.20    0.50
  -4  -7   3    1.10    0.60
   3   7  -3    5.50    0.80
   3   7  -3    3.50    0.70
  -3  -7   3    4.80    0.80
  -3  -7   3    5.00    0.70
  -3  -7   3    3.80    0.80
   2   7  -3    4.70    0.80
   2   7  -3    5.20    1.00
   2   7  -3    7.10    0.90
  -2  -7   3    6.20    0.70
  -2  -7   3    7.70    1.00
  -2  -7   3    7.50    0.90
   1   7  -3   21.90    1.70
   1   7  -3   23.30    1.50
   1   7  -3   20.70    1.50
   1   7  -3   21.90    1.40
   1   7  -3   20.90    1.40
   0   7  -3    0.00    0.50
   0   7  -3    0.10    0.60
   0   7  -3    0.30    0.60
   0   7  -3    0.40    0.60
   0   7  -3    0.20    0.80
  -1   7  -3   23.00    1.60
  -1   7  -3   22.20    1.60
  -1   7  -3   23.60    1.70
  -1   7  -3   22.90    1.80
  -1   7  -3   24.70    1.60
  -2   7  -3   33.10    2.00
  -2   7  -3   31.20    1.90
  -2   7  -3   31.40    1.80
  -2   7  -3   33.70    2.00
  -2   7  -3   34.30    1.90
  -3   7  -3    7.00    0.90
  -3   7  -3    7.10    1.00
  -3   7  -3    5.90    0.90
  -3   7  -3    5.90    0.90
  -4   7  -3    0.90    0.60
  -4   7  -3    1.10    0.70
  -4   7  -3    0.60    0.70
  -5   7  -3    5.10    0.70
  -5   7  -3    4.40    0.80
  -6  -6   3   34.20    1.50
  -6  -6   3   32.10    1.90
  -6  -6   3   34.50    1.60
   5   6  -3   30.00    1.70
  -5  -6   3   32.00    1.80
  -5  -6   3   31.80    1.60
   4   6  -3   40.20    2.10
   4   6  -3   40.30    2.10
  -4  -6   3   41.90    2.00
  -4  -6   3   42.70    2.20
  -4  -6   3   41.40    2.10
   3   6  -3    0.20    0.50
   3   6  -3    0.30    0.60
  -3  -6   3   -0.20    0.60
  -3  -6   3    0.80    0.60
  -3  -6   3   -0.20    0.50
   2   6  -3   15.80    1.20
   2   6  -3   15.20    1.40
   2   6  -3   15.00    1.30
  -2  -6   3   15.10    1.00
  -2  -6   3   15.90    1.20
   1   6  -3   54.99    2.60
   1   6  -3   50.09    2.40
   1   6  -3   56.49    2.50
   1   6  -3   56.29    2.50
   1   6  -3   57.29    2.40
  -1  -6   3   54.09    2.20
  -1  -6   3   53.79    2.40
  -1  -6   3   50.39    2.60
   0   6  -3   65.19    2.70
   0   6  -3   61.49    2.80
   0   6  -3   64.09    2.90
   0   6  -3   64.09    2.90
   0   6  -3   64.79    2.80
  -1   6  -3   33.40    1.90
  -1   6  -3   39.00    2.00
  -1   6  -3   34.80    1.80
  -1   6  -3   37.30    2.10
  -1   6  -3   34.60    1.90
  -2   6  -3    8.00    1.00
  -2   6  -3   10.60    1.20
  -2   6  -3    7.90    0.90
  -2   6  -3   10.50    1.10
  -2   6  -3    9.90    1.00
  -3   6  -3   18.00    1.50
  -3   6  -3   19.00    1.40
  -3   6  -3   16.30    1.30
  -3   6  -3   20.40    1.50
  -4   6  -3   19.70    1.50
  -4   6  -3   23.70    1.70
  -4   6  -3   19.10    1.40
  -4   6  -3   21.00    1.60
  -5   6  -3    2.40    0.70
  -5   6  -3    3.10    0.60
  -5   6  -3    4.60    0.90
  -5   6  -3    2.80    0.70
   6  -6   3   10.90    0.80
   6   5  -3    2.70    0.60
  -6  -5   3    4.40    0.70
  -6  -5   3    3.80    0.50
  -6  -5   3    4.90    0.60
   5   5  -3   61.19    2.70
  -5  -5   3   61.49    2.50
  -5  -5   3   56.29    2.40
  -5  -5   3   57.89    2.70
   4   5  -3    1.00    0.70
   4   5  -3    0.50    0.60
  -4  -5   3    0.90    0.40
  -4  -5   3    1.00    0.50
  -4  -5   3   -0.10    0.50
  -4  -5   3    0.70    0.60
   3   5  -3    1.00    0.50
   3   5  -3    0.80    0.60
  -3  -5   3   -0.10    0.90
  -3  -5   3    0.00    0.50
  -3  -5   3    0.90    0.40
  -3  -5   3    0.90    0.60
   2   5  -3    0.50    0.50
   2   5  -3    0.10    0.50
   2   5  -3    0.60    0.60
  -2  -5   3   -0.10    0.40
  -2  -5   3   -0.10    0.50
  -2  -5   3    0.00    0.60
   1   5  -3   13.90    1.20
   1   5  -3   14.60    1.40
   1   5  -3   10.90    1.00
  -1  -5   3   12.30    0.90
  -1  -5   3   13.40    1.10
  -1  -5   3    9.40    0.80
   0   5  -3    3.20    0.70
   0   5  -3    4.90    1.10
   0   5  -3    3.60    0.60
  -1   5  -3   14.40    1.10
  -1   5  -3   14.20    1.10
  -1   5  -3   13.10    1.20
  -1   5  -3   13.20    1.30
  -1   5  -3   13.30    1.00
  -2   5  -3   13.30    1.10
  -2   5  -3    8.70    0.90
  -2   5  -3   11.30    1.00
  -2   5  -3   14.60    1.10
  -2   5  -3   12.70    1.10
  -3   5  -3    1.70    0.70
  -3   5  -3    1.20    0.50
  -3   5  -3    0.40    0.60
  -3   5  -3    0.60    0.60
  -3   5  -3    1.50    0.60
  -4   5  -3   50.69    2.30
  -4   5  -3   54.69    2.60
  -4   5  -3   47.30    2.40
  -4   5  -3   49.70    2.50
  -4   5  -3   48.30    2.40
  -5   5  -3    0.10    0.50
  -5   5  -3    0.60    0.70
  -5   5  -3    0.10    0.60
  -5   5  -3   -0.30    0.70
  -6   5  -3    1.30    0.50
  -6   5  -3    1.20    0.70
  -6   5  -3    1.70    0.70
   6  -5   3    1.90    0.40
   7   4  -3    6.10    0.70
  -7  -4   3    5.20    0.50
   6   4  -3   18.50    1.40
  -6  -4   3   19.00    1.10
  -6  -4   3   16.30    1.20
  -6  -4   3   16.60    1.10
   5   4  -3   24.20    1.60
  -5  -4   3   24.20    1.30
  -5  -4   3   22.40    1.30
  -5  -4   3   24.40    1.50
   4   4  -3    2.00    0.60
  -4  -4   3    2.90    0.60
  -4  -4   3    2.50    0.70
  -4  -4   3    1.20    0.40
   3   4  -3   52.19    2.40
  -3  -4   3   49.99    2.30
  -3  -4   3   52.39    2.30
  -3  -4   3   51.79    2.50
  -3  -4   3   51.19    2.20
  -2  -4   3    6.10    0.70
  -2  -4   3    5.90    0.80
  -1  -4   3    0.20    0.40
  -1  -4   3    0.40    0.30
  -1  -4   3    0.20    0.50
   0   4  -3    0.20    0.60
   0  -4   3    0.70    0.40
  -1   4  -3   74.69    3.40
  -2   4  -3    0.00    0.70
  -3   4  -3    6.40    0.70
  -3   4  -3    8.60    0.90
  -3   4  -3    6.70    0.80
  -3   4  -3    7.30    0.80
  -3   4  -3    7.60    0.90
  -4   4  -3    3.90    0.80
  -4   4  -3    4.60    0.90
  -4   4  -3    3.70    0.70
  -4   4  -3    3.50    0.70
  -4   4  -3    3.80    0.70
  -5   4  -3    1.70    0.70
  -5   4  -3    2.40    0.90
  -5   4  -3    0.40    0.60
  -5   4  -3    2.70    0.60
  -6   4  -3   18.60    1.60
  -6   4  -3   18.30    1.50
  -6   4  -3   19.90    1.40
   6  -4   3   19.80    1.20
  -7   4  -3   55.39    2.40
  -7   4  -3   52.79    2.30
   7  -4   3   53.59    2.20
   7   3  -3    2.90    0.60
  -7  -3   3    3.60    0.50
   6   3  -3   67.89    3.10
  -6  -3   3   75.29    2.90
   5   3  -3    7.60    1.00
  -5  -3   3    5.90    0.70
  -5  -3   3    4.70    0.60
  -5  -3   3    4.90    0.80
   4   3  -3   -0.40    0.50
  -4  -3   3    0.30    0.40
  -4  -3   3    0.10    0.40
  -4  -3   3    0.00    0.50
  -4  -3   3   -0.50    0.50
  -3  -3   3   14.70    1.20
  -3  -3   3   16.10    1.10
  -2  -3   3    0.30    0.40
  -2  -3   3   -0.10    0.50
   0   3  -3   37.80    1.90
   0  -3   3   39.70    1.70
  -1   3  -3   17.90    1.30
  -2   3  -3   22.10    1.50
  -3   3  -3   58.99    2.90
  -3   3  -3   58.49    2.30
  -4   3  -3   14.40    1.20
  -4   3  -3   14.70    1.10
  -4   3  -3   14.30    1.20
  -4   3  -3   13.00    1.20
  -4   3  -3   14.30    1.00
  -5   3  -3   30.20    1.80
  -5   3  -3   30.00    1.70
  -5   3  -3   31.40    1.60
  -5   3  -3   31.90    1.90
  -5   3  -3   29.90    1.90
  -6   3  -3   20.90    1.40
  -6   3  -3   18.80    1.30
  -6   3  -3   19.90    1.60
   6  -3   3   20.00    1.30
  -7   3  -3    0.00    0.50
  -7   3  -3    0.30    0.60
   7  -3   3    0.10    0.40
   7   2  -3    0.30    0.50
  -7  -2   3    0.70    0.40
  -7  -2   3    0.80    0.50
   6   2  -3    9.30    1.00
  -6  -2   3   11.00    0.90
  -6  -2   3    8.20    0.80
   5   2  -3  128.19    5.00
  -5  -2   3  122.19    4.80
  -5  -2   3  128.69    4.90
  -5  -2   3  125.99    4.70
  -5  -2   3  122.09    4.70
   4   2  -3    5.40    0.80
  -4  -2   3    8.10    0.70
  -4  -2   3    7.70    0.80
  -4  -2   3    7.30    0.60
  -4  -2   3    6.20    0.70
  -4  -2   3    6.50    0.90
  -3  -2   3   53.19    2.40
  -3  -2   3   57.39    2.40
  -2  -2   3  150.18    5.70
  -2  -2   3  161.28    5.80
  -1  -2   3   51.89    2.00
  -1  -2   3   54.59    2.20
   0   2  -3   17.50    1.10
   0  -2   3   18.80    1.00
  -1   2  -3  218.48    7.90
   1  -2   3  211.48    7.60
  -2   2  -3   13.30    0.80
  -2   2  -3   14.90    1.20
  -3   2  -3   91.79    3.40
  -3   2  -3   86.99    3.70
  -4   2  -3    0.40    0.50
  -4   2  -3    0.50    0.60
  -4   2  -3    0.40    0.40
  -4   2  -3    0.30    0.50
  -5   2  -3    4.40    0.80
  -5   2  -3    3.30    0.80
  -5   2  -3    2.80    0.60
  -5   2  -3    2.30    0.60
  -5   2  -3    2.50    0.80
  -6   2  -3   13.00    1.20
  -6   2  -3   12.30    1.30
  -6   2  -3   14.00    1.10
  -6   2  -3   14.40    1.20
   6  -2   3   14.50    1.10
  -7   2  -3   14.80    1.20
  -7   2  -3   13.60    1.30
   7  -2   3   15.80    1.10
  -8   2  -3    0.70    0.50
   8  -2   3    1.00    0.50
   7   1  -3   -0.30    0.50
  -7  -1   3    0.10    0.50
  -7  -1   3   -0.60    0.30
  -6  -1   3   13.70    1.10
  -6  -1   3   14.10    1.00
  -5  -1   3  458.75   16.10
  -5  -1   3  442.26   16.00
  -5  -1   3  451.35   16.00
  -4  -1   3    4.40    0.70
  -4  -1   3    3.40    0.60
  -4  -1   3    4.20    0.60
  -4  -1   3    3.20    0.50
  -4  -1   3    3.80    0.90
  -4  -1   3    4.10    0.50
  -4  -1   3    3.60    0.50
  -3  -1   3   17.20    0.90
  -3  -1   3   14.80    1.00
  -3  -1   3   16.10    1.00
  -2  -1   3  137.59    5.20
  -2  -1   3  150.58    5.40
  -1  -1   3   92.79    3.40
  -1  -1   3  101.09    3.70
   0   1  -3    0.20    0.30
   0  -1   3   -0.10    0.30
  -1   1  -3  922.81   31.40
   1  -1   3  876.61   31.30
  -2   1  -3    2.70    0.50
  -2   1  -3    2.50    0.40
  -3   1  -3    2.40    0.60
  -3   1  -3    2.00    0.40
  -4   1  -3    7.50    0.70
  -4   1  -3    3.60    0.70
  -5   1  -3    0.20    0.50
  -5   1  -3    0.80    0.50
  -5   1  -3    0.40    0.50
  -5   1  -3   -0.30    0.60
  -6   1  -3    1.70    0.60
  -6   1  -3    2.10    0.60
  -6   1  -3    1.90    0.80
  -6   1  -3    1.20    0.60
  -6   1  -3    3.30    0.80
   6  -1   3    2.60    0.50
  -7   1  -3  123.79    4.80
  -7   1  -3  113.39    4.80
  -7   1  -3  130.49    4.90
   7  -1   3  136.39    5.00
   7  -1   3  125.39    4.80
  -8   1  -3   12.20    1.10
   8  -1   3   14.50    1.10
   7   0  -3   12.70    1.20
  -7   0   3   13.10    1.00
  -7   0   3   13.30    0.90
  -6   0   3    2.80    0.60
  -6   0   3    1.50    0.50
  -6   0   3    2.30    0.70
  -6   0   3    2.30    0.50
  -5   0   3  115.69    4.50
  -5   0   3  128.09    4.60
  -5   0   3  117.99    4.70
  -5   0   3  120.29    4.70
  -5   0   3  117.89    4.90
  -4   0   3   25.00    1.40
  -4   0   3   26.30    1.40
  -4   0   3   26.20    1.40
  -4   0   3   28.20    1.70
  -4   0   3   25.60    1.30
  -4   0   3   28.10    1.40
  -4   0   3   27.20    1.50
  -3   0   3  354.76   12.60
  -3   0   3  340.57   12.50
  -3   0   3  363.76   12.50
  -2   0   3   13.70    0.80
  -2   0   3   14.60    0.90
  -1   0   3  164.58    6.00
   0   0  -3  364.56   12.20
   0   0   3  348.37   12.30
   0   0   3  336.77   12.20
  -1   0  -3   92.89    3.30
   1   0   3   84.69    3.20
  -2   0  -3    7.50    0.70
  -2   0  -3    7.30    0.60
   2   0   3    6.90    0.40
  -3   0  -3    3.70    0.50
  -3   0  -3    4.40    0.60
  -4   0  -3   18.80    1.30
  -4   0  -3   19.20    1.10
  -5   0  -3    1.50    0.50
  -5   0  -3    1.80    0.60
  -5   0  -3    2.30    0.70
  -5   0  -3    1.60    0.50
   5   0   3    1.70    0.50
  -6   0  -3    7.20    0.80
  -6   0  -3    8.30    0.90
  -6   0  -3    6.10    0.80
   6   0   3    6.90    0.70
  -7   0  -3   42.60    2.20
  -7   0  -3   44.60    2.10
  -7   0  -3   48.80    2.20
   7   0   3   45.00    2.10
   7   0   3   49.50    2.40
  -8   0  -3   21.00    1.30
  -8   0  -3   22.20    1.30
   8   0   3   22.30    1.40
  -7   1   3    0.50    0.50
  -7   1   3    0.20    0.40
  -7   1   3    0.30    0.50
  -6   1   3   18.50    1.10
  -6   1   3   17.20    1.20
  -6   1   3   19.30    1.40
  -6   1   3   19.80    1.70
  -5   1   3   35.70    1.70
  -5   1   3   34.00    1.80
  -5   1   3   35.70    2.20
  -5   1   3   35.70    1.90
  -5   1   3   37.50    1.90
  -4   1   3   94.39    3.60
  -4   1   3   89.89    3.80
  -4   1   3   94.19    3.50
  -4   1   3   87.99    3.60
  -4   1   3   89.79    3.60
  -3   1   3  371.36   13.70
  -3   1   3  421.96   13.90
  -3   1   3  374.96   13.80
  -2   1   3  269.67    9.40
  -2   1   3  259.17    9.50
  -1   1   3    1.80    0.40
  -1   1   3    2.50    0.30
   0  -1  -3  540.85   18.40
   0   1   3  523.95   18.50
   0   1   3  523.45   18.40
  -1  -1  -3    0.20    0.20
   1   1   3    0.10    0.20
  -2  -1  -3  118.89    4.30
  -2  -1  -3  118.99    4.40
   2   1   3  117.99    4.20
  -3  -1  -3   19.70    1.30
  -3  -1  -3   19.90    1.00
  -3  -1  -3   19.00    1.10
  -4  -1  -3   27.20    1.40
  -4  -1  -3   24.10    1.20
  -5  -1  -3   13.10    1.00
  -5  -1  -3   14.30    1.00
   5   1   3   11.90    0.90
  -6  -1  -3    5.00    0.70
  -6  -1  -3    5.00    0.70
  -6  -1  -3    5.40    0.80
   6   1   3    4.40    0.70
   6   1   3    5.40    0.70
  -7  -1  -3    0.60    0.50
  -7  -1  -3    0.70    0.50
   7   1   3    0.30    0.60
   7   1   3   -0.10    0.40
  -8  -1  -3    1.80    0.50
   8   1   3    1.90    0.60
  -7   2   3    1.40    0.60
  -7   2   3    0.40    0.40
  -6   2   3    2.80    0.60
  -6   2   3    3.20    0.50
  -6   2   3    4.30    0.80
  -6   2   3    4.20    1.00
  -6   2   3    2.20    0.60
  -5   2   3  317.97   11.60
  -5   2   3  310.37   11.40
  -5   2   3  333.47   11.20
  -5   2   3  305.07   11.40
  -5   2   3  296.87   11.30
  -4   2   3   16.60    1.20
  -4   2   3   17.90    1.20
  -4   2   3   16.60    1.50
  -4   2   3   20.20    1.20
  -4   2   3   16.40    1.00
  -3   2   3   23.20    1.20
  -3   2   3   25.80    1.20
  -3   2   3   22.90    1.20
  -2   2   3  361.86   13.00
  -2   2   3  375.86   13.10
   1  -2  -3 1155.88   41.10
  -1   2   3 1176.68   41.20
  -1   2   3 1217.38   41.10
   0  -2  -3  650.03   22.40
   0   2   3  640.14   22.50
  -1  -2  -3 1376.26   46.10
   1   2   3 1275.67   46.10
  -2  -2  -3    2.70    0.40
  -2  -2  -3    3.20    0.40
   2   2   3    2.40    0.30
  -3  -2  -3   32.10    1.40
  -3  -2  -3   34.30    1.50
  -3  -2  -3   32.10    1.60
  -4  -2  -3   -0.10    0.30
  -4  -2  -3    0.00    0.40
  -5  -2  -3    1.90    0.50
  -5  -2  -3    1.50    0.50
   5   2   3    1.70    0.50
   5   2   3    1.60    0.50
  -6  -2  -3   30.70    1.70
  -6  -2  -3   31.30    1.60
   6   2   3   28.80    1.50
   6   2   3   30.10    1.70
  -7  -2  -3   73.99    3.20
  -7  -2  -3   77.29    3.10
   7   2   3   74.69    3.20
   7   2   3   70.39    3.00
  -8  -2  -3   -0.10    0.50
   8   2   3    0.10    0.50
  -6   3   3    1.40    0.80
  -6   3   3    0.30    0.50
  -6   3   3    0.70    0.70
  -5   3   3  192.78    7.40
  -5   3   3  195.78    7.20
  -5   3   3  190.38    7.20
  -5   3   3  187.38    7.10
  -5   3   3  191.28    7.00
  -4   3   3   28.00    1.50
  -4   3   3   25.10    1.60
  -4   3   3   27.50    1.80
  -4   3   3   25.50    1.50
  -4   3   3   26.60    1.30
  -3   3   3  179.58    6.50
  -3   3   3  175.18    6.70
  -2   3   3   91.59    3.50
  -2   3   3   92.29    3.50
   1  -3  -3  432.76   15.50
  -1   3   3  422.66   15.60
  -1   3   3  474.45   15.60
   0  -3  -3   39.40    1.60
   0   3   3   41.60    1.60
   0   3   3   42.80    1.70
  -1  -3  -3    2.80    0.40
   1   3   3    2.30    0.40
  -2  -3  -3  513.65   17.40
  -2  -3  -3  476.35   17.40
  -3  -3  -3    2.10    0.40
  -3  -3  -3    1.60    0.30
  -3  -3  -3    1.70    0.60
  -4  -3  -3    0.20    0.40
  -4  -3  -3    0.00    0.30
  -4  -3  -3   -0.10    0.40
  -5  -3  -3    4.90    0.70
  -5  -3  -3    4.00    0.50
  -5  -3  -3    3.40    0.60
   5   3   3    4.40    0.70
   5   3   3    4.20    0.60
  -6  -3  -3   35.90    1.80
  -6  -3  -3   35.80    1.60
  -6  -3  -3   35.30    1.80
   6   3   3   32.00    1.80
   6   3   3   34.20    1.70
  -7  -3  -3   32.60    1.70
  -7  -3  -3   37.00    1.60
  -7  -3  -3   36.10    1.90
   7   3   3   36.40    1.70
   7   3   3   32.90    1.90
  -8  -3  -3   10.10    0.90
   8   3   3    8.80    0.90
   8   3   3    9.70    0.80
  -6   4   3    0.40    0.70
  -6   4   3    0.20    0.60
  -6   4   3    0.80    0.50
  -5   4   3    0.20    0.50
  -5   4   3    0.10    0.50
  -5   4   3   -0.10    0.60
  -5   4   3    1.00    0.70
  -4   4   3   46.70    2.20
  -4   4   3   49.90    2.20
  -4   4   3   45.60    2.10
  -4   4   3   46.80    2.30
  -4   4   3   47.40    2.40
  -3   4   3   90.09    3.50
  -3   4   3   89.19    3.40
  -3   4   3   87.49    3.60
  -3   4   3   87.39    3.50
  -3   4   3   91.09    3.60
  -2   4   3  134.19    5.10
  -2   4   3  129.99    5.40
  -2   4   3  141.89    5.00
  -1   4   3   14.00    0.80
  -1   4   3   14.70    0.90
   0  -4  -3   50.89    2.00
   0   4   3   52.29    2.10
   0   4   3   49.99    2.00
  -1  -4  -3   46.40    1.90
   1   4   3   48.90    2.00
  -2  -4  -3   72.49    2.90
  -2  -4  -3   74.89    2.80
  -2  -4  -3   72.59    3.30
  -3  -4  -3    0.40    0.40
  -3  -4  -3    0.20    0.60
  -3  -4  -3    0.20    0.30
  -4  -4  -3   18.40    1.20
  -4  -4  -3   16.90    1.30
  -4  -4  -3   16.00    0.90
   4   4   3   14.50    0.90
  -5  -4  -3   34.30    1.70
  -5  -4  -3   33.50    1.60
  -5  -4  -3   35.90    1.60
   5   4   3   31.90    1.60
   5   4   3   33.80    1.70
  -6  -4  -3   24.40    1.30
  -6  -4  -3   24.70    1.50
   6   4   3   23.40    1.40
   6   4   3   25.10    1.60
  -7  -4  -3   24.30    1.30
  -7  -4  -3   24.60    1.50
   7   4   3   25.10    1.60
   7   4   3   26.10    1.40
  -8  -4  -3    5.10    0.70
  -8  -4  -3    7.00    0.60
   8   4   3    9.20    0.90
   8   4   3    8.30    0.70
  -6   5   3    0.30    0.50
  -6   5   3    0.70    0.60
  -5   5   3   79.29    3.20
  -5   5   3   75.49    3.20
  -5   5   3   74.89    3.40
  -5   5   3   73.49    3.10
  -4   5   3  127.89    5.10
  -4   5   3  133.19    5.20
  -4   5   3  133.29    5.10
  -4   5   3  137.89    5.30
  -3   5   3   -0.20    0.50
  -3   5   3    0.10    0.50
  -3   5   3   -0.60    0.40
  -3   5   3   -0.10    0.50
  -2   5   3   53.09    2.20
  -1   5   3   72.89    2.90
  -1   5   3   73.39    2.90
  -1   5   3   79.19    3.00
   0  -5  -3  473.55   16.30
   0   5   3  454.95   16.30
   0   5   3  450.15   16.20
   0   5   3  468.35   16.40
  -1  -5  -3   11.90    0.80
   1   5   3   10.70    0.80
  -2  -5  -3   13.80    1.40
  -2  -5  -3   15.80    1.00
   2   5   3   15.70    0.90
  -3  -5  -3   35.20    2.20
  -3  -5  -3   39.20    1.80
   3   5   3   39.40    1.70
  -4  -5  -3   88.29    3.80
   4   5   3   88.19    3.40
   4   5   3   82.49    3.40
  -5  -5  -3   27.40    1.60
  -5  -5  -3   26.70    1.40
  -5  -5  -3   26.90    1.50
   5   5   3   27.90    1.40
   5   5   3   24.80    1.40
   5   5   3   27.10    1.50
  -6  -5  -3   51.39    2.40
  -6  -5  -3   50.69    2.20
   6   5   3   52.69    2.30
   6   5   3   53.99    2.40
  -7  -5  -3   39.70    2.00
  -7  -5  -3   38.30    1.80
   7   5   3   40.00    1.90
   7   5   3   40.00    2.00
  -8  -5  -3    0.60    0.50
  -8  -5  -3    0.90    0.40
   8   5   3    0.60    0.50
   8   5   3    0.10    0.40
  -5   6   3   12.70    1.10
  -5   6   3   11.20    1.10
  -4   6   3   12.30    1.10
  -4   6   3   12.00    1.20
  -4   6   3   11.90    1.00
  -3   6   3   70.79    3.10
  -3   6   3   68.89    2.90
  -3   6   3   69.29    3.00
  -2   6   3   51.19    2.20
   1  -6  -3  283.97   10.90
  -1   6   3  293.97   10.40
   0  -6  -3   11.20    1.40
   0  -6  -3    8.80    0.70
   0   6   3    9.70    0.80
  -1  -6  -3   -0.10    0.90
  -1  -6  -3    0.30    0.30
   1   6   3    0.50    0.40
  -2  -6  -3  186.48    7.50
  -2  -6  -3  191.18    7.00
   2   6   3  191.78    7.00
  -3  -6  -3    3.40    1.00
   3   6   3    2.30    0.50
   3   6   3    2.80    0.60
   3   6   3    2.90    0.60
   3   6   3    3.50    0.60
  -4  -6  -3    9.80    0.90
  -4  -6  -3   10.80    1.40
   4   6   3   11.50    0.90
   4   6   3   11.00    1.00
   4   6   3   11.00    0.90
   4   6   3   10.10    1.00
   4   6   3    9.10    0.90
   4   6   3   11.20    1.00
   4   6   3   10.10    0.80
  -5  -6  -3    3.30    0.70
  -5  -6  -3    4.90    0.80
  -5  -6  -3    2.50    0.60
   5   6   3    2.30    0.60
   5   6   3    4.50    0.60
   5   6   3    2.60    0.60
   5   6   3    3.90    0.70
  -6  -6  -3    0.90    0.60
  -6  -6  -3    0.10    0.50
   6   6   3    0.60    0.60
   6   6   3    1.00    0.50
  -7  -6  -3   44.80    2.00
  -7  -6  -3   42.90    2.10
   7   6   3   42.40    2.00
   7   6   3   45.00    2.20
  -8  -6  -3   -0.40    0.30
  -8  -6  -3   -0.30    0.40
   8   6   3   -0.30    0.40
   8   6   3    0.00    0.50
  -5   7   3   11.50    1.00
  -5   7   3   12.80    1.00
  -4   7   3   25.40    1.60
  -4   7   3   24.10    1.40
   0  -7  -3   32.30    2.20
   0   7   3   27.20    1.50
   0   7   3   31.20    1.50
   0   7   3   28.70    1.60
   0   7   3   29.10    1.50
   0   7   3   30.10    1.60
   0   7   3   29.20    1.40
  -1  -7  -3   19.40    1.90
   1   7   3   14.40    1.00
   1   7   3   18.20    1.20
   1   7   3   18.90    1.20
   1   7   3   16.00    1.10
   1   7   3   18.40    1.20
   1   7   3   16.80    1.00
   1   7   3   17.10    1.20
  -2  -7  -3   66.29    3.40
   2   7   3   65.69    2.70
   2   7   3   63.99    2.70
   2   7   3   63.39    2.70
   2   7   3   60.69    2.50
   2   7   3   64.99    2.60
   2   7   3   61.99    2.70
   2   7   3   63.79    2.70
   2   7   3   64.99    2.70
  -3  -7  -3   50.89    2.90
   3   7   3   49.99    2.30
   3   7   3   48.40    2.30
   3   7   3   51.69    2.20
   3   7   3   51.99    2.30
   3   7   3   49.80    2.10
   3   7   3   51.09    2.20
   3   7   3   51.59    2.40
   3   7   3   47.30    2.30
   4   7   3   34.40    1.70
   4   7   3   33.20    1.80
   4   7   3   36.50    1.90
   4   7   3   32.40    1.80
   4   7   3   32.70    1.70
   4   7   3   31.90    1.80
   4   7   3   34.80    1.80
  -5  -7  -3   37.70    2.10
  -5  -7  -3   34.90    1.80
   5   7   3   34.60    1.80
   5   7   3   36.10    1.90
   5   7   3   34.90    1.80
   5   7   3   34.40    1.80
  -6  -7  -3   10.20    0.90
  -6  -7  -3    9.10    1.00
   6   7   3   14.50    1.10
   6   7   3   11.60    1.10
  -7  -7  -3    7.00    1.10
  -7  -7  -3    7.50    0.70
   7   7   3    7.30    0.80
   7   7   3   10.70    0.80
   0   8   3   22.50    1.50
   0   8   3   23.50    1.40
   0   8   3   22.30    1.30
   0   8   3   21.70    1.40
   0   8   3   23.40    1.60
   0   8   3   22.30    1.40
   1   8   3   -0.30    0.40
   1   8   3   -0.10    0.60
   1   8   3    0.50    0.50
   1   8   3   -0.30    0.50
   1   8   3    0.00    0.60
   1   8   3    0.10    0.60
   2   8   3    4.80    0.70
   2   8   3    4.20    0.80
   2   8   3    5.60    0.70
   2   8   3    4.90    0.70
   2   8   3    5.20    0.80
   2   8   3    5.70    0.80
   2   8   3    5.60    0.80
   2   8   3    6.20    0.70
   3   8   3   16.60    1.40
   3   8   3   16.70    1.20
   3   8   3   16.70    1.20
   3   8   3   17.50    1.40
   3   8   3   17.90    1.30
   3   8   3   17.00    1.40
   3   8   3   16.60    1.30
  -4  -8  -3   54.49    2.50
   4   8   3   62.49    2.70
   4   8   3   59.19    2.60
   4   8   3   61.19    2.80
   4   8   3   59.99    2.60
   4   8   3   60.49    2.70
   4   8   3   56.79    2.70
  -5  -8  -3  122.69    4.90
  -5  -8  -3  126.09    4.70
   5   8   3  119.89    4.90
   5   8   3  120.29    4.80
   5   8   3  119.99    4.80
   5   8   3  124.59    4.80
   5   8   3  122.59    4.80
  -6  -8  -3    2.50    0.70
  -6  -8  -3    2.30    0.60
  -6  -8  -3    4.20    0.60
   6   8   3    4.40    0.70
   6   8   3    1.50    0.60
  -7  -8  -3    6.00    0.60
   7   8   3    6.20    0.70
   7   8   3    6.10    0.80
   0   9   3   16.90    1.40
   0   9   3   16.10    1.40
   0   9   3   14.70    1.20
   0   9   3   14.50    1.20
   1   9   3    0.20    0.60
   1   9   3    0.60    0.60
   1   9   3    0.60    0.60
   1   9   3    0.20    0.60
   1   9   3    0.60    0.60
   1   9   3    0.00    0.50
   2   9   3   42.60    2.00
   2   9   3   40.10    2.10
   2   9   3   39.50    2.10
   2   9   3   41.50    2.10
   2   9   3   39.30    2.10
   2   9   3   40.20    2.20
   2   9   3   38.80    2.00
  -3  -9  -3    8.60    0.90
   3   9   3   13.20    1.10
   3   9   3   11.70    1.10
   3   9   3   12.80    1.20
   3   9   3   11.10    1.00
   3   9   3    9.30    1.10
   3   9   3    9.90    0.90
  -4  -9  -3    6.20    0.70
  -4  -9  -3    7.40    1.10
   4   9   3    6.00    0.90
   4   9   3    9.40    0.90
   4   9   3    7.20    0.90
   4   9   3    7.30    0.90
   4   9   3    9.40    1.00
   4   9   3    7.50    0.90
  -5  -9  -3    1.80    0.50
  -5  -9  -3    1.20    0.80
   5   9   3    1.40    0.60
   5   9   3    0.90    0.60
   5   9   3    1.00    0.50
   5   9   3    0.70    0.60
  -6  -9  -3    0.40    0.60
  -6  -9  -3   -0.10    0.50
  -6  -9  -3    0.40    0.40
   6   9   3    0.30    0.50
   6   9   3    0.50    0.50
   0  10   3    1.70    0.70
   0  10   3    2.40    0.60
   0  10   3    2.60    0.70
   0  10   3    1.50    0.60
   1  10   3    1.20    0.70
   1  10   3    2.40    0.70
   1  10   3    3.00    0.80
   1  10   3    3.30    0.70
   1  10   3    2.10    0.60
   2  10   3    1.10    0.60
   2  10   3    0.80    0.60
   2  10   3    0.80    0.60
   2  10   3    1.70    0.70
   2  10   3   -0.30    0.60
   2  10   3    1.00    0.60
  -3 -10  -3    0.50    0.80
   3  10   3    0.60    0.60
   3  10   3   -0.40    0.60
   3  10   3    0.40    0.60
   3  10   3   -0.20    0.60
   3  10   3    0.40    0.70
   3  10   3    0.20    0.60
  -4 -10  -3    7.40    1.00
   4  10   3   10.00    0.90
   4  10   3    7.20    0.90
   4  10   3    7.10    0.90
   4  10   3    8.30    0.90
   4  10   3    7.10    0.80
   4  10   3    7.20    0.90
  -5 -10  -3   10.80    0.80
  -5 -10  -3   10.30    1.00
  -5 -10  -3    9.30    0.80
   5  10   3   10.80    0.90
   5  10   3    7.60    0.80
   5  10   3   10.80    1.00
   5  10   3    9.90    0.90
   0  11   3    4.40    0.70
   0  11   3    4.80    0.60
   1  11   3   13.10    1.00
   1  11   3   11.10    1.00
   1  11   3    8.70    0.90
   1  11   3    8.30    0.80
   2  11   3   -0.10    0.50
   2  11   3    0.70    0.60
   2  11   3    0.80    0.50
   2  11   3    0.50    0.50
   2  11   3   -0.30    0.50
  -3 -11  -3    8.10    1.10
   3  11   3   10.90    0.90
   3  11   3    7.20    0.90
   3  11   3    7.70    0.80
   3  11   3    7.20    0.80
   3  11   3   11.70    0.90
  -4 -11  -3    1.20    0.50
   4  11   3    0.70    0.60
   4  11   3    1.30    0.50
   4  11   3    1.20    0.50
   4  11   3    1.10    0.50
   4  11   3    0.80    0.50
   2   9  -4    1.20    0.40
   2   9  -4    0.80    0.50
  -2  -9   4    0.80    0.50
  -2  -9   4    0.50    0.50
   1   9  -4    1.00    0.50
   1   9  -4    0.50    0.50
   1   9  -4    0.50    0.50
  -1  -9   4    0.70    0.50
  -1  -9   4    0.70    0.50
   0   9  -4    0.30    0.50
   0   9  -4    0.60    0.50
   0   9  -4    0.30    0.50
   0   9  -4   -0.30    0.50
   0  -9   4    0.40    0.50
   0  -9   4    0.40    0.50
  -1   9  -4   49.30    2.30
  -1   9  -4   47.60    2.30
  -1   9  -4   53.39    2.30
  -1   9  -4   48.80    2.20
   1  -9   4   55.99    2.40
  -4  -8   4   63.79    2.60
  -4  -8   4   62.09    2.50
   3   8  -4   14.00    1.10
  -3  -8   4   14.10    0.90
  -3  -8   4   12.80    1.10
  -3  -8   4   12.80    1.20
   2   8  -4   -0.30    0.50
   2   8  -4   -0.10    0.50
  -2  -8   4    0.30    0.60
  -2  -8   4    0.00    0.40
   1   8  -4    2.30    0.70
   1   8  -4    2.30    0.70
   1   8  -4    2.00    0.60
  -1  -8   4    1.70    0.70
   0   8  -4    1.20    0.60
   0   8  -4    1.30    0.60
   0   8  -4    2.40    0.70
   0   8  -4    2.20    0.70
   0  -8   4    1.30    0.60
  -1   8  -4    7.70    0.90
  -1   8  -4    6.10    0.90
  -1   8  -4    6.30    0.90
  -1   8  -4    6.80    0.90
  -2   8  -4    1.80    0.60
  -2   8  -4    1.10    0.70
  -2   8  -4    1.00    0.60
  -2   8  -4    1.60    0.60
   2  -8   4    0.90    0.60
  -3   8  -4    8.80    0.90
  -3   8  -4    9.50    1.00
  -3   8  -4   11.50    1.00
   5   7  -4   18.40    1.20
  -5  -7   4   20.10    1.10
   4   7  -4   10.90    1.00
  -4  -7   4   11.20    1.00
  -4  -7   4   13.30    1.00
  -4  -7   4    9.10    0.90
   3   7  -4   14.50    1.30
  -3  -7   4   15.70    1.30
  -3  -7   4   15.70    1.10
  -3  -7   4   15.50    1.30
   2   7  -4   16.50    1.30
   2   7  -4   16.00    1.40
  -2  -7   4   16.50    1.10
  -2  -7   4   17.80    1.30
  -2  -7   4   20.60    1.50
   1   7  -4   18.90    1.70
   1   7  -4   21.20    1.60
   1   7  -4   22.00    1.50
   1   7  -4   21.10    1.50
  -1  -7   4   23.00    1.60
   0   7  -4   10.30    1.20
   0   7  -4   14.50    1.20
   0   7  -4   12.80    1.20
   0   7  -4   12.70    1.20
   0   7  -4   12.40    1.20
   0  -7   4   13.70    1.20
  -1   7  -4    1.00    0.70
  -1   7  -4    1.30    0.60
  -1   7  -4    0.10    0.60
  -1   7  -4    0.90    0.60
  -2   7  -4    3.50    0.70
  -2   7  -4    4.10    0.80
  -2   7  -4    4.10    0.80
  -2   7  -4    4.10    0.80
  -3   7  -4   -0.50    0.50
  -3   7  -4    0.20    0.70
  -3   7  -4   -0.60    0.60
  -3   7  -4    0.50    0.70
  -4   7  -4   32.80    1.80
  -4   7  -4   31.30    1.70
  -4   7  -4   29.30    1.80
   4  -7   4   34.80    1.60
   5   6  -4  117.29    4.50
  -5  -6   4  111.19    4.50
  -5  -6   4  113.49    4.30
   4   6  -4    0.10    0.60
  -4  -6   4   -0.10    0.50
  -4  -6   4    0.10    0.50
  -4  -6   4   -0.70    0.50
   3   6  -4   32.80    1.90
  -3  -6   4   32.60    1.70
  -3  -6   4   34.20    1.90
  -3  -6   4   33.60    1.90
   2   6  -4    1.90    0.80
   2   6  -4    3.00    0.70
   2   6  -4    2.90    0.80
  -2  -6   4    1.90    0.60
  -2  -6   4    2.00    0.50
  -2  -6   4    3.00    0.80
   1   6  -4    6.10    0.80
   1   6  -4    8.20    1.00
   1   6  -4    4.80    0.70
   1   6  -4    6.00    1.00
  -1  -6   4    6.50    0.70
  -1  -6   4    7.90    1.00
  -1  -6   4    8.10    0.90
   0   6  -4   12.30    1.30
   0   6  -4   12.30    1.10
   0   6  -4   12.30    1.00
   0   6  -4   11.20    1.00
   0   6  -4    8.80    1.00
   0  -6   4   11.40    1.10
  -1   6  -4  128.99    4.90
  -1   6  -4  125.69    5.00
  -1   6  -4  124.09    5.00
  -1   6  -4  131.59    5.10
  -1   6  -4  130.19    5.20
   1  -6   4  118.29    4.90
  -2   6  -4   62.89    2.90
  -2   6  -4   65.39    2.90
  -2   6  -4   65.19    2.90
  -2   6  -4   64.89    3.00
  -3   6  -4   17.50    1.50
  -3   6  -4   21.30    1.50
  -3   6  -4   19.80    1.50
  -3   6  -4   19.60    1.50
   3  -6   4   18.50    1.40
  -4   6  -4   25.90    1.80
  -4   6  -4   29.40    1.90
  -4   6  -4   28.00    1.70
  -5   6  -4    1.30    0.70
  -5   6  -4    1.30    0.50
  -5   6  -4    2.00    0.70
  -5   6  -4    1.10    0.60
   5  -6   4    1.60    0.40
   6   5  -4   18.40    1.20
  -6  -5   4   17.60    0.90
  -6  -5   4   16.70    1.00
   5   5  -4   16.10    1.30
  -5  -5   4   16.10    1.30
  -5  -5   4   16.30    1.10
  -5  -5   4   14.00    0.90
   4   5  -4   26.20    1.70
  -4  -5   4   32.40    1.80
  -4  -5   4   28.80    1.50
  -4  -5   4   26.60    1.60
   3   5  -4   31.20    1.80
  -3  -5   4   32.90    1.80
  -3  -5   4   34.00    1.60
  -3  -5   4   31.50    1.80
   2   5  -4   29.30    1.80
   2   5  -4   32.80    1.80
  -2  -5   4   32.10    1.70
  -2  -5   4   32.40    1.60
  -2  -5   4   30.60    1.80
   1   5  -4   75.09    3.20
   1   5  -4   74.49    3.30
  -1  -5   4   74.39    3.00
  -1  -5   4   77.09    3.30
  -1  -5   4   78.09    3.10
  -1  -5   4   72.59    3.20
   0   5  -4    0.20    0.60
   0   5  -4    0.10    0.50
   0   5  -4    0.50    0.40
   0   5  -4    0.30    0.50
   0   5  -4    0.30    0.50
   0  -5   4    0.00    0.50
  -1   5  -4  161.48    6.20
  -1   5  -4  162.28    6.10
  -1   5  -4  167.38    6.20
  -1   5  -4  164.48    6.30
  -1   5  -4  167.88    6.20
   1  -5   4  152.98    6.10
  -2   5  -4    0.10    0.50
  -2   5  -4    0.40    0.50
  -2   5  -4    0.30    0.60
  -2   5  -4   -0.30    0.50
  -3   5  -4   24.10    1.60
  -3   5  -4   24.50    1.50
  -3   5  -4   26.00    1.60
  -3   5  -4   23.60    1.70
  -3   5  -4   24.90    1.60
   3  -5   4   23.80    1.50
  -4   5  -4    4.40    0.90
  -4   5  -4    6.10    0.90
  -4   5  -4    4.70    0.70
  -4   5  -4    4.60    0.90
  -5   5  -4    0.20    0.50
  -5   5  -4    0.70    0.70
  -5   5  -4    0.60    0.70
  -5   5  -4    1.20    0.70
   5  -5   4    1.20    0.50
  -6   5  -4    2.30    0.70
  -6   5  -4    2.20    0.50
  -6   5  -4    2.70    0.70
   6  -5   4    3.20    0.50
   6   4  -4    0.50    0.50
  -6  -4   4    0.60    0.40
  -6  -4   4    0.70    0.40
  -6  -4   4    0.20    0.50
   5   4  -4    5.30    0.80
  -5  -4   4    6.00    0.60
  -5  -4   4    6.50    0.70
  -5  -4   4    6.70    0.90
   4   4  -4    0.20    0.60
  -4  -4   4    0.80    0.50
  -4  -4   4    0.40    0.40
  -4  -4   4    0.20    0.60
   3   4  -4   24.30    1.50
  -3  -4   4   23.50    1.50
  -3  -4   4   23.00    1.30
  -3  -4   4   24.70    1.50
   2   4  -4   74.39    3.00
  -2  -4   4   67.79    3.10
  -2  -4   4   70.89    3.00
  -2  -4   4   68.79    2.90
  -2  -4   4   69.59    2.80
   1   4  -4    0.40    0.50
   1   4  -4    0.90    1.00
  -1  -4   4    0.10    0.50
  -1  -4   4    1.00    0.40
  -1  -4   4    0.70    0.50
   0   4  -4   68.19    3.40
   0   4  -4   62.99    3.10
   0  -4   4   70.69    2.80
  -1   4  -4   27.60    1.50
  -1   4  -4   26.20    1.80
  -1   4  -4   23.70    1.80
  -1   4  -4   27.10    1.60
  -2   4  -4   14.60    1.10
  -2   4  -4   13.40    1.10
  -2   4  -4   13.90    1.10
  -2   4  -4   14.80    1.10
  -3   4  -4    0.80    0.50
  -3   4  -4    0.20    0.60
  -3   4  -4    0.50    0.60
  -3   4  -4   -0.20    0.50
  -3   4  -4    0.50    0.60
   3  -4   4    0.00    0.50
  -4   4  -4  129.89    5.10
  -4   4  -4  124.39    5.00
  -4   4  -4  124.99    5.10
  -4   4  -4  131.49    5.00
  -5   4  -4    1.10    0.70
  -5   4  -4    1.10    0.80
  -5   4  -4    0.10    0.50
  -5   4  -4   -0.20    0.60
   5  -4   4    0.50    0.40
  -6   4  -4   19.10    1.60
  -6   4  -4   20.50    1.40
  -6   4  -4   21.50    1.50
   6  -4   4   22.30    1.30
  -7   4  -4    6.10    0.70
  -7   4  -4    6.40    0.70
   7  -4   4    6.30    0.60
   6   3  -4   35.50    1.90
  -6  -3   4   35.70    1.60
  -6  -3   4   32.10    1.60
   5   3  -4  192.08    7.20
  -5  -3   4  182.78    6.90
  -5  -3   4  185.88    7.10
  -5  -3   4  194.58    6.90
   4   3  -4    1.60    0.60
  -4  -3   4    1.80    0.60
  -4  -3   4    1.30    0.40
  -4  -3   4    2.10    0.50
   3   3  -4   97.79    3.90
  -3  -3   4   99.49    3.90
  -3  -3   4   97.99    4.00
  -3  -3   4   91.79    3.80
  -3  -3   4   99.79    3.70
  -3  -3   4   94.49    3.70
   2   3  -4   28.00    1.80
  -2  -3   4   27.30    1.60
  -2  -3   4   27.60    1.40
  -2  -3   4   29.50    1.70
  -1  -3   4    1.80    0.50
  -1  -3   4    2.20    0.60
   0   3  -4   48.60    2.40
   0  -3   4   53.09    2.20
   0  -3   4   46.90    2.00
  -1   3  -4   89.99    3.80
  -2   3  -4   12.40    1.20
  -3   3  -4   12.50    1.00
  -3   3  -4   15.20    1.10
  -3   3  -4   10.20    0.90
  -3   3  -4   12.50    1.00
  -3   3  -4   13.00    1.10
  -4   3  -4   58.09    2.70
  -4   3  -4   61.29    2.60
  -4   3  -4   60.39    2.70
  -4   3  -4   62.39    2.70
  -4   3  -4   62.09    2.80
  -5   3  -4   31.00    2.00
  -5   3  -4   32.40    1.80
  -5   3  -4   32.30    1.90
  -5   3  -4   30.60    1.60
  -5   3  -4   31.00    1.80
   5  -3   4   30.40    1.70
  -6   3  -4   89.99    3.70
  -6   3  -4   84.69    3.50
  -6   3  -4   91.69    3.90
  -6   3  -4   86.49    3.80
   6  -3   4   89.59    3.60
  -7   3  -4    4.80    0.80
  -7   3  -4    3.70    0.60
   7  -3   4    5.70    0.60
   7   2  -4    1.50    0.50
  -7  -2   4    1.10    0.30
   6   2  -4    0.50    0.60
  -6  -2   4   -0.10    0.40
  -6  -2   4    1.40    0.40
   5   2  -4   72.59    3.40
  -5  -2   4   80.29    3.30
  -5  -2   4   80.59    3.10
  -5  -2   4   78.39    3.10
   4   2  -4   69.69    3.10
  -4  -2   4   67.49    2.80
  -4  -2   4   71.09    3.00
  -4  -2   4   70.59    2.80
   3   2  -4   64.99    2.80
  -3  -2   4   64.69    2.50
  -3  -2   4   66.19    2.90
  -3  -2   4   66.19    2.70
  -3  -2   4   62.99    2.60
  -2  -2   4  176.28    6.60
  -2  -2   4  173.48    6.40
  -1  -2   4  172.78    6.20
  -1  -2   4  156.48    6.00
   0   2  -4   10.70    1.00
   0  -2   4   10.10    0.80
  -1   2  -4  138.09    5.30
   1  -2   4  135.89    5.00
  -2   2  -4  107.89    4.10
  -2   2  -4  114.39    4.50
  -3   2  -4   39.80    2.10
  -3   2  -4   40.20    1.70
  -4   2  -4    7.00    0.90
  -4   2  -4    6.30    0.70
  -4   2  -4    6.40    0.70
  -4   2  -4    6.60    0.80
  -4   2  -4    5.70    0.70
   4  -2   4    5.60    0.70
  -5   2  -4   14.80    1.30
  -5   2  -4   15.00    1.20
  -5   2  -4   13.90    1.20
  -5   2  -4   12.00    1.20
   5  -2   4   14.00    1.10
  -6   2  -4   23.60    1.50
  -6   2  -4   21.80    1.40
  -6   2  -4   22.10    1.60
  -6   2  -4   22.20    1.70
   6  -2   4   23.80    1.40
  -7   2  -4    0.40    0.50
   7  -2   4    0.00    0.40
   7   1  -4   12.10    1.10
  -7  -1   4    9.60    0.80
  -7  -1   4   10.40    0.90
   6   1  -4    0.70    0.60
  -6  -1   4    0.00    0.40
  -6  -1   4    0.00    0.50
   5   1  -4   -0.10    0.60
  -5  -1   4    0.20    0.50
  -5  -1   4    0.20    0.50
  -5  -1   4   -0.30    0.40
  -5  -1   4    0.00    0.40
  -4  -1   4   57.89    2.50
  -4  -1   4   57.89    2.40
  -4  -1   4   55.79    2.40
  -4  -1   4   59.49    2.60
  -4  -1   4   58.09    2.70
   3   1  -4    0.10    0.40
  -3  -1   4    0.10    0.40
  -3  -1   4   -0.10    0.40
  -3  -1   4    0.80    0.40
  -3  -1   4    0.10    0.30
  -3  -1   4    0.00    0.40
  -2  -1   4  114.89    4.20
  -2  -1   4  113.29    4.40
  -2  -1   4  113.09    4.30
  -1  -1   4  131.69    4.90
  -1  -1   4  127.79    4.70
   0   1  -4  352.36   12.40
   0   1  -4  339.47   12.50
   0  -1   4  365.86   12.50
  -1   1  -4  425.46   14.60
  -1   1  -4  418.66   14.80
   1  -1   4  403.56   14.60
  -2   1  -4   52.09    2.10
  -2   1  -4   50.69    2.30
  -3   1  -4    2.60    0.40
  -3   1  -4    2.50    0.60
  -4   1  -4   15.10    1.10
  -4   1  -4   18.80    1.50
  -5   1  -4   48.60    2.20
  -5   1  -4   54.29    2.50
  -5   1  -4   49.70    2.20
   5  -1   4   44.80    2.20
  -6   1  -4   86.69    3.70
  -6   1  -4   95.79    3.90
  -6   1  -4   88.19    3.60
   6  -1   4   87.29    3.60
  -7   1  -4    0.40    0.50
  -7   1  -4    0.00    0.50
   7  -1   4   -0.20    0.40
   7  -1   4    0.50    0.50
  -8   1  -4    0.90    0.40
   8  -1   4    2.20    0.40
   8  -1   4    1.90    0.50
   7   0  -4    0.20    0.50
  -7   0   4    0.90    0.40
  -7   0   4    0.50    0.30
   6   0  -4   32.40    1.90
  -6   0   4   32.30    1.70
  -6   0   4   31.50    1.60
  -5   0   4    5.70    0.80
  -5   0   4    7.00    0.70
  -5   0   4    5.90    0.80
  -5   0   4    4.70    0.70
  -4   0   4  114.29    4.40
  -4   0   4  108.49    4.20
  -4   0   4  109.39    4.40
  -4   0   4  115.29    4.30
  -4   0   4  109.89    4.20
  -4   0   4  117.09    4.30
  -4   0   4  102.89    4.40
  -4   0   4  113.69    4.60
  -3   0   4  125.19    4.80
  -3   0   4  135.79    4.90
  -3   0   4  128.29    5.00
  -2   0   4   55.19    2.10
  -2   0   4   53.09    2.20
  -2   0   4   52.49    2.30
  -1   0   4   13.90    0.90
  -1   0   4   12.00    0.70
   0   0  -4  248.38    9.30
   0   0   4  281.97    9.50
  -1   0  -4  113.29    4.10
  -1   0  -4  111.69    4.10
   1   0   4  105.39    4.00
  -2   0  -4   12.30    0.80
  -2   0  -4   11.40    0.90
   2   0   4   10.90    0.60
  -3   0  -4   95.89    3.70
  -3   0  -4   97.29    3.80
  -4   0  -4  182.98    6.90
  -4   0  -4  192.28    7.10
  -5   0  -4   75.99    3.20
  -5   0  -4   81.59    3.10
  -5   0  -4   74.49    3.00
  -5   0  -4   75.29    3.00
   5   0   4   73.69    3.00
   5   0   4   67.69    3.00
  -6   0  -4   26.00    1.60
  -6   0  -4   29.60    1.60
  -6   0  -4   29.20    1.60
   6   0   4   28.80    1.60
  -7   0  -4    1.00    0.60
  -7   0  -4    0.50    0.50
  -7   0  -4    0.10    0.50
   7   0   4    0.20    0.40
   7   0   4    0.70    0.60
  -8   0  -4   -1.10    0.40
  -8   0  -4   -0.10    0.40
   8   0   4    0.00    0.50
   8   0   4    0.40    0.40
   7  -1  -4    0.00    0.50
  -7   1   4    0.00    0.30
  -6   1   4   17.60    1.40
  -6   1   4   19.60    1.30
  -6   1   4   18.30    1.10
  -5   1   4   34.70    1.70
  -5   1   4   36.80    2.00
  -5   1   4   36.40    2.20
  -5   1   4   37.10    1.80
  -5   1   4   36.00    1.90
  -4   1   4  106.49    4.00
  -4   1   4  103.59    4.30
  -4   1   4  102.29    4.10
  -4   1   4  102.19    4.10
  -4   1   4  104.79    3.90
  -4   1   4  101.09    4.10
  -3   1   4    1.80    0.50
  -3   1   4    1.40    0.50
  -3   1   4    2.00    0.50
  -3   1   4    2.10    0.40
  -2   1   4    0.00    0.40
  -2   1   4   -0.10    0.30
  -2   1   4   -0.20    0.30
  -1   1   4  514.15   17.60
  -1   1   4  484.55   17.50
   0  -1  -4    3.00    0.30
   0   1   4    2.60    0.40
   0   1   4    3.50    0.40
  -1  -1  -4   96.69    3.50
  -1  -1  -4   91.49    3.40
   1   1   4   86.89    3.40
  -2  -1  -4  679.33   23.80
  -2  -1  -4  674.63   23.90
   2   1   4  688.83   23.80
  -3  -1  -4   54.59    2.30
  -3  -1  -4   54.99    2.30
  -4  -1  -4   19.80    1.30
  -4  -1  -4   20.40    1.20
  -5  -1  -4    0.90    0.50
  -5  -1  -4    1.40    0.60
  -5  -1  -4    1.10    0.60
   5   1   4    1.00    0.40
   5   1   4    1.00    0.40
  -6  -1  -4    7.50    0.90
  -6  -1  -4    7.30    0.90
  -6  -1  -4    8.70    0.90
   6   1   4    7.40    0.80
   6   1   4   10.00    0.90
  -7  -1  -4    9.50    0.90
  -7  -1  -4   11.40    1.00
  -7  -1  -4    8.90    0.90
   7   1   4   11.80    1.10
   7   1   4    8.50    0.80
  -8  -1  -4   11.10    1.00
   8   1   4   11.80    1.00
   8   1   4   10.50    0.90
  -6   2   4    2.40    0.50
  -6   2   4    2.00    0.60
  -6   2   4    2.60    0.70
  -5   2   4   27.40    1.90
  -5   2   4   27.70    1.60
  -5   2   4   28.20    1.70
  -5   2   4   27.60    1.60
  -5   2   4   27.00    1.40
  -4   2   4   49.70    2.20
  -4   2   4   45.50    2.20
  -4   2   4   45.80    2.00
  -4   2   4   46.00    2.30
  -4   2   4   47.90    2.50
  -3   2   4  111.49    4.20
  -3   2   4  106.89    4.20
  -3   2   4  107.29    4.20
  -3   2   4  106.89    4.10
  -3   2   4  105.99    4.30
  -3   2   4  111.89    4.20
  -3   2   4  109.89    4.20
  -2   2   4    2.50    0.40
  -2   2   4    2.40    0.50
  -2   2   4    2.90    0.50
  -1   2   4  448.06   16.20
  -1   2   4  477.15   16.40
   0  -2  -4  146.99    5.40
   0   2   4  154.38    5.60
   0   2   4  154.38    5.50
  -1  -2  -4   39.10    1.70
  -1  -2  -4   37.50    1.60
   1   2   4   40.70    1.60
  -2  -2  -4    2.90    0.40
  -2  -2  -4    4.20    0.50
   2   2   4    3.50    0.40
  -3  -2  -4   -0.10    0.40
  -3  -2  -4    0.50    0.50
  -3  -2  -4   -0.10    0.30
  -4  -2  -4    0.00    0.40
  -4  -2  -4   -0.30    0.40
  -5  -2  -4  324.57   10.50
  -5  -2  -4  293.97   10.50
   5   2   4  283.17   10.40
   5   2   4  277.47   10.50
   5   2   4  275.17   10.40
  -6  -2  -4   30.20    1.70
  -6  -2  -4   30.50    1.70
   6   2   4   29.10    1.60
   6   2   4   32.00    1.70
  -7  -2  -4    2.60    0.70
  -7  -2  -4    2.30    0.60
   7   2   4    2.90    0.70
   7   2   4    2.30    0.60
  -8  -2  -4   22.50    1.40
   8   2   4   24.70    1.40
   8   2   4   23.00    1.30
  -6   3   4   11.00    1.10
  -6   3   4   10.80    1.00
  -6   3   4   10.30    1.00
  -6   3   4   10.40    0.80
  -5   3   4    4.40    0.90
  -5   3   4    3.70    0.80
  -5   3   4    2.80    0.50
  -5   3   4    2.20    0.60
  -5   3   4    3.00    0.70
  -4   3   4  153.38    5.90
  -4   3   4  151.78    5.90
  -4   3   4  151.58    6.00
  -4   3   4  165.18    5.80
  -4   3   4  157.48    6.10
  -3   3   4   48.20    2.40
  -3   3   4   49.80    2.20
  -3   3   4   49.80    2.10
  -3   3   4   49.80    2.30
  -3   3   4   48.00    2.10
  -3   3   4   52.19    2.20
  -2   3   4   90.89    3.50
  -2   3   4   84.09    3.40
  -2   3   4   89.89    3.40
  -1   3   4  465.05   16.40
  -1   3   4  462.15   16.40
  -1   3   4  471.85   16.50
   0  -3  -4  171.88    6.60
   0   3   4  193.38    6.80
   0   3   4  192.68    6.70
  -1  -3  -4  137.79    5.30
   1   3   4  157.48    5.40
  -2  -3  -4  151.28    5.30
  -2  -3  -4  139.69    5.30
   2   3   4  143.59    5.30
  -3  -3  -4  290.07   10.90
  -3  -3  -4  305.87   10.70
  -3  -3  -4  302.57   10.80
  -4  -3  -4   29.10    1.40
  -4  -3  -4   31.20    1.60
  -5  -3  -4  223.58    8.00
  -5  -3  -4  221.68    7.90
  -5  -3  -4  219.08    7.80
   5   3   4  205.18    7.90
   5   3   4  218.38    7.90
   5   3   4  213.68    7.90
  -6  -3  -4    1.10    0.60
  -6  -3  -4    0.80    0.50
  -6  -3  -4    0.80    0.60
   6   3   4    0.90    0.60
   6   3   4    1.10    0.50
  -7  -3  -4    0.10    0.60
  -7  -3  -4    0.20    0.50
   7   3   4    0.40    0.50
   7   3   4    0.10    0.50
  -8  -3  -4    0.30    0.50
   8   3   4    1.10    0.50
   8   3   4    0.50    0.50
  -6   4   4    5.60    0.80
  -6   4   4    5.10    0.60
  -6   4   4    4.60    0.80
  -5   4   4    2.90    0.60
  -5   4   4    3.40    0.50
  -5   4   4    3.70    0.80
  -5   4   4    3.10    0.80
  -5   4   4    3.00    0.60
  -4   4   4  166.28    6.60
  -4   4   4  172.28    6.70
  -4   4   4  177.98    6.80
  -4   4   4  191.08    6.50
  -4   4   4  172.88    6.60
  -3   4   4   27.40    1.70
  -3   4   4   30.60    1.60
  -3   4   4   27.90    1.50
  -3   4   4   26.20    1.40
  -3   4   4   27.40    1.60
  -2   4   4    0.20    0.40
  -2   4   4   -0.40    0.40
  -2   4   4   -0.10    0.40
  -2   4   4    0.00    0.40
  -1   4   4   49.60    2.00
  -1   4   4   47.40    2.00
  -1   4   4   48.30    2.10
   0   4   4    3.70    0.50
   0   4   4    3.70    0.50
   0   4   4    4.50    0.50
  -1  -4  -4   14.10    0.80
   1   4   4   15.80    1.00
  -2  -4  -4   47.40    2.10
  -2  -4  -4   47.00    2.00
   2   4   4   53.19    2.10
  -3  -4  -4   22.70    1.20
  -3  -4  -4   20.30    1.10
  -3  -4  -4   20.00    1.60
   3   4   4   22.00    1.10
  -4  -4  -4   20.30    1.20
  -4  -4  -4   21.20    1.50
  -4  -4  -4   20.80    1.40
  -5  -4  -4    3.70    0.60
  -5  -4  -4    4.00    0.60
  -5  -4  -4    3.10    0.60
   5   4   4    3.90    0.60
   5   4   4    3.90    0.60
   5   4   4    4.20    0.60
  -6  -4  -4    3.10    0.50
  -6  -4  -4    2.80    0.60
  -6  -4  -4    3.40    0.80
   6   4   4    3.90    0.70
   6   4   4    2.50    0.60
  -7  -4  -4    8.70    0.80
  -7  -4  -4    9.90    1.00
   7   4   4   10.10    0.90
   7   4   4   11.10    1.00
  -8  -4  -4   21.40    1.30
   8   4   4   22.30    1.20
   8   4   4   21.80    1.30
  -5   5   4    8.10    0.90
  -5   5   4    9.10    0.90
  -5   5   4    7.30    1.00
  -4   5   4   18.10    1.40
  -4   5   4   21.70    1.40
  -4   5   4   20.40    1.60
  -4   5   4   20.60    1.30
  -3   5   4   67.79    2.90
  -3   5   4   61.29    2.90
  -3   5   4   67.19    2.80
  -3   5   4   63.39    2.80
  -3   5   4   66.49    2.60
  -2   5   4    3.10    0.60
  -2   5   4    2.20    0.50
  -2   5   4    2.90    0.60
  -2   5   4    3.00    0.60
  -2   5   4    2.60    0.50
  -1   5   4  589.24   20.70
  -1   5   4  595.24   20.60
  -1   5   4  570.24   20.60
   0   5   4    3.80    0.60
   0   5   4    3.60    0.50
   0   5   4    4.30    0.60
  -1  -5  -4   14.90    1.00
  -1  -5  -4   15.50    0.90
   1   5   4   16.30    1.00
   1   5   4   14.90    1.00
  -2  -5  -4    4.80    1.00
  -2  -5  -4    4.30    0.50
  -2  -5  -4    6.70    0.70
   2   5   4    6.50    0.70
  -3  -5  -4    0.10    0.40
  -3  -5  -4    0.30    0.70
  -3  -5  -4    0.30    0.40
   3   5   4    0.10    0.40
  -4  -5  -4    7.70    1.10
  -4  -5  -4   10.00    0.90
   4   5   4    9.10    0.80
   4   5   4    8.10    0.70
   4   5   4    7.50    0.70
   4   5   4    8.70    0.70
  -5  -5  -4   50.59    2.20
  -5  -5  -4   47.90    2.30
   5   5   4   49.40    2.20
   5   5   4   51.49    2.20
   5   5   4   47.00    2.10
  -6  -5  -4   62.79    2.90
  -6  -5  -4   68.19    2.80
   6   5   4   68.79    2.90
   6   5   4   69.79    2.80
  -7  -5  -4   20.80    1.40
  -7  -5  -4   17.60    1.20
   7   5   4   18.60    1.20
   7   5   4   17.00    1.30
  -8  -5  -4   15.40    0.90
  -8  -5  -4   17.00    1.20
   8   5   4   16.70    1.10
   8   5   4   15.70    1.00
  -5   6   4   17.70    1.20
  -5   6   4   16.20    1.20
  -4   6   4   58.39    2.70
  -4   6   4   64.69    2.70
  -4   6   4   67.59    2.80
  -4   6   4   57.49    2.80
  -3   6   4   95.79    3.90
  -3   6   4   95.69    3.90
  -3   6   4   99.19    3.90
  -2   6   4   28.30    1.50
  -2   6   4   28.30    1.50
  -2   6   4   28.10    1.60
  -2   6   4   27.30    1.30
  -1   6   4  203.18    7.50
  -1   6   4  199.78    7.50
  -1   6   4  200.28    7.40
  -1   6   4  210.88    7.50
  -1   6   4  208.58    7.40
   0   6   4  217.78    8.00
   0   6   4  214.58    8.00
   0   6   4  220.98    8.50
   0   6   4  233.78    8.10
  -1  -6  -4    2.40    1.00
  -1  -6  -4    3.10    0.50
   1   6   4    1.60    0.50
  -2  -6  -4    9.40    0.90
  -2  -6  -4    9.80    1.40
   2   6   4    9.60    0.90
  -3  -6  -4  220.58    8.70
   3   6   4  212.18    8.00
   3   6   4  222.78    8.10
   3   6   4  226.68    8.10
   3   6   4  230.38    8.00
   3   6   4  225.08    7.90
   3   6   4  204.28    8.00
   3   6   4  223.38    8.10
  -4  -6  -4   82.79    3.40
  -4  -6  -4   88.89    3.90
   4   6   4   78.69    3.20
   4   6   4   79.49    3.30
   4   6   4   84.09    3.40
   4   6   4   74.89    3.30
   4   6   4   80.79    3.30
   4   6   4   86.99    3.30
   4   6   4   81.19    3.20
   4   6   4   82.29    3.20
  -5  -6  -4   67.99    3.00
  -5  -6  -4   68.69    2.90
   5   6   4   73.39    2.90
   5   6   4   66.69    2.90
   5   6   4   71.99    2.90
   5   6   4   64.59    2.80
  -6  -6  -4    1.10    0.50
  -6  -6  -4    1.10    0.60
   6   6   4    1.90    0.50
   6   6   4    2.50    0.60
   6   6   4    1.70    0.60
  -7  -6  -4    0.20    0.40
  -7  -6  -4   -0.10    0.60
   7   6   4    0.00    0.50
   7   6   4    0.20    0.50
  -8  -6  -4   12.00    0.80
  -8  -6  -4   12.60    1.00
   8   6   4   13.10    0.90
   8   6   4   12.20    1.00
  -4   7   4   23.90    1.40
  -3   7   4   19.10    1.70
  -1   7   4   14.20    1.10
   0  -7  -4   62.49    3.30
   0   7   4   63.09    2.70
   0   7   4   64.79    2.60
   0   7   4   60.49    2.60
   0   7   4   56.89    2.60
   0   7   4   59.79    2.50
   0   7   4   60.59    2.50
  -1  -7  -4    9.20    1.40
   1   7   4    8.80    0.90
   1   7   4   10.30    0.80
   1   7   4    9.60    0.80
   1   7   4    8.80    0.80
   1   7   4    8.30    0.90
   1   7   4   10.70    1.00
   1   7   4   10.80    0.90
  -2  -7  -4    6.10    1.30
   2   7   4    5.50    0.60
   2   7   4    4.20    0.60
   2   7   4    5.60    0.60
   2   7   4    3.60    0.60
   2   7   4    5.00    0.80
   2   7   4    5.70    0.80
   2   7   4    5.10    0.70
  -3  -7  -4   65.89    3.70
   3   7   4   73.59    2.90
   3   7   4   76.29    3.00
   3   7   4   71.79    3.10
   3   7   4   77.39    2.90
   3   7   4   70.59    2.90
   3   7   4   70.09    3.10
   3   7   4   70.49    3.00
  -4  -7  -4    1.90    0.60
   4   7   4    1.80    0.60
   4   7   4    1.70    0.70
   4   7   4    1.30    0.50
   4   7   4    1.30    0.60
   4   7   4    0.90    0.60
   4   7   4    0.60    0.60
   4   7   4    0.60    0.50
   4   7   4    1.30    0.50
  -5  -7  -4   65.99    2.80
  -5  -7  -4   63.09    2.90
   5   7   4   69.59    2.80
   5   7   4   64.19    2.90
   5   7   4   66.59    2.80
   5   7   4   68.09    2.90
  -6  -7  -4    2.80    0.60
  -6  -7  -4    2.50    0.60
   6   7   4    2.20    0.60
   6   7   4    1.60    0.50
   6   7   4    2.50    0.70
  -7  -7  -4   81.99    3.40
  -7  -7  -4   84.69    3.30
   7   7   4   81.59    3.40
   7   7   4   86.99    3.40
  -8  -7  -4    5.10    0.50
  -8  -7  -4    5.00    0.60
   8   7   4    5.60    0.60
   8   7   4    5.70    0.60
   0   8   4   -0.10    0.60
   0   8   4    0.00    0.50
   0   8   4    1.00    0.60
   0   8   4    0.10    0.50
   0   8   4   -0.20    0.40
   1   8   4    3.40    0.60
   1   8   4    3.30    0.60
   1   8   4    3.80    0.80
   1   8   4    2.70    0.50
   1   8   4    1.50    0.70
   1   8   4    2.40    0.70
   1   8   4    2.50    0.60
   2   8   4    4.00    0.60
   2   8   4    4.60    0.70
   2   8   4    2.90    0.60
   2   8   4    4.60    0.80
   2   8   4    4.20    0.80
   2   8   4    4.90    0.80
   2   8   4    4.10    0.70
   3   8   4   48.80    2.40
   3   8   4   50.69    2.20
   3   8   4   51.19    2.30
   3   8   4   53.59    2.50
   3   8   4   50.39    2.20
   3   8   4   52.19    2.50
   3   8   4   52.59    2.40
   4   8   4  119.59    4.80
   4   8   4  117.99    4.80
   4   8   4  115.89    4.60
   4   8   4  125.19    4.70
   4   8   4  123.29    4.80
   4   8   4  112.79    4.60
   4   8   4  121.89    4.70
  -5  -8  -4    1.50    0.60
  -5  -8  -4    2.30    0.80
   5   8   4    3.10    0.80
   5   8   4    1.70    0.50
   5   8   4    2.80    0.70
   5   8   4    2.70    0.70
   5   8   4    1.50    0.60
   5   8   4    1.50    0.70
  -6  -8  -4   62.49    2.50
  -6  -8  -4   58.49    2.70
   6   8   4   55.09    2.60
   6   8   4   61.19    2.60
   6   8   4   59.59    2.70
  -7  -8  -4   19.80    1.10
   7   8   4   19.10    1.20
   7   8   4   19.30    1.30
   0   9   4   43.30    2.20
   0   9   4   38.90    1.90
   0   9   4   42.80    2.20
   0   9   4   41.50    2.00
   1   9   4    4.10    0.70
   1   9   4    3.40    0.80
   1   9   4    4.10    0.70
   1   9   4    3.90    0.80
   1   9   4    4.50    0.70
   1   9   4    2.50    0.70
   2   9   4    3.70    0.70
   2   9   4    3.70    0.60
   2   9   4    5.70    0.80
   2   9   4    4.90    0.90
   2   9   4    3.10    0.80
   2   9   4    5.90    0.80
   2   9   4    4.60    0.80
   3   9   4   62.99    2.90
   3   9   4   67.59    3.00
   3   9   4   68.09    2.90
   3   9   4   70.39    3.00
   3   9   4   64.19    3.10
   3   9   4   70.59    3.10
  -4  -9  -4   76.79    3.10
   4   9   4   77.59    3.20
   4   9   4   73.29    3.30
   4   9   4   80.99    3.30
   4   9   4   74.59    3.30
   4   9   4   73.39    3.20
   4   9   4   74.49    3.20
  -5  -9  -4    0.10    0.70
  -5  -9  -4    1.60    0.50
   5   9   4    0.70    0.60
   5   9   4    1.40    0.60
   5   9   4    0.90    0.50
   5   9   4    1.50    0.60
   5   9   4    1.20    0.60
   5   9   4    1.60    0.60
  -6  -9  -4   23.20    1.50
  -6  -9  -4   26.40    1.30
  -6  -9  -4   24.50    1.30
   6   9   4   24.30    1.50
   6   9   4   23.10    1.30
   6   9   4   22.50    1.40
   0  10   4    9.90    1.00
   0  10   4   10.20    0.90
   0  10   4    7.90    0.90
   1  10   4   15.60    1.20
   1  10   4   14.00    1.10
   1  10   4   13.20    1.10
   1  10   4   11.10    1.10
   1  10   4   13.90    1.20
   1  10   4   14.10    1.20
   2  10   4   27.60    1.70
   2  10   4   26.40    1.80
   2  10   4   27.90    1.70
   2  10   4   30.50    1.70
   2  10   4   27.60    1.50
   2  10   4   27.70    1.70
   3  10   4   42.60    2.20
   3  10   4   41.60    2.00
   3  10   4   42.30    2.20
   3  10   4   37.70    2.00
   3  10   4   41.20    2.10
  -4 -10  -4    7.80    0.70
  -4 -10  -4   12.20    1.20
   4  10   4    8.50    1.00
   4  10   4   10.80    1.00
   4  10   4    9.70    0.90
   4  10   4    9.60    1.00
   4  10   4   10.20    1.00
  -5 -10  -4   11.20    1.10
  -5 -10  -4    8.20    0.70
   5  10   4   11.00    0.90
   5  10   4    8.40    0.90
   5  10   4    9.20    0.90
   5  10   4   11.70    1.00
   5  10   4    9.60    0.90
  -6 -10  -4    0.20    0.40
  -6 -10  -4    0.20    0.30
   6  10   4    0.10    0.40
   6  10   4    0.50    0.50
   1  11   4    1.00    0.60
   1  11   4   -0.20    0.50
   1  11   4    0.00    0.50
   2  11   4    2.10    0.60
   2  11   4    1.60    0.60
   2  11   4    2.40    0.50
   2  11   4    2.50    0.70
   2  11   4    2.50    0.60
  -3 -11  -4    4.20    0.90
   3  11   4    5.40    0.80
   3  11   4    7.00    0.70
   3  11   4    5.70    0.70
   3  11   4    5.40    0.70
   3  11   4    3.80    0.70
   4  11   4   65.69    2.80
   4  11   4   65.09    2.70
   4  11   4   64.99    2.70
   4  11   4   63.09    2.70
   3   8  -5   48.80    2.20
  -3  -8   5   51.19    2.10
  -3  -8   5   55.89    2.30
   2   8  -5    1.20    0.50
  -2  -8   5    4.10    0.70
  -2  -8   5    3.10    0.60
   1   8  -5    0.60    0.50
  -1  -8   5   -0.20    0.50
  -1  -8   5   -0.30    0.50
   0   8  -5   -0.40    0.50
   0   8  -5    0.30    0.50
   0   8  -5    0.10    0.60
   0  -8   5    0.60    0.60
   0  -8   5    0.00    0.50
  -1   8  -5    0.50    0.60
  -1   8  -5   -0.20    0.50
  -1   8  -5    0.30    0.60
  -1   8  -5    0.50    0.50
   1  -8   5    0.20    0.50
  -2   8  -5   22.20    1.40
  -2   8  -5   21.50    1.40
  -2   8  -5   20.80    1.30
   2  -8   5   24.20    1.40
   4   7  -5    1.70    0.50
  -4  -7   5    1.10    0.40
  -4  -7   5    1.10    0.50
   3   7  -5    6.70    0.80
  -3  -7   5    5.10    0.70
  -3  -7   5    6.60    0.60
  -3  -7   5    7.40    0.80
   2   7  -5   67.39    3.00
  -2  -7   5   64.29    2.70
  -2  -7   5   75.19    3.10
  -2  -7   5   67.09    3.00
  -2  -7   5   69.89    2.90
   1   7  -5    1.00    0.60
  -1  -7   5    1.30    0.60
  -1  -7   5    2.20    0.70
   0   7  -5    2.00    0.70
   0   7  -5    0.70    0.60
   0   7  -5    0.80    0.60
   0  -7   5    0.80    0.60
   0  -7   5    1.20    0.60
  -1   7  -5   46.40    2.20
  -1   7  -5   46.10    2.40
  -1   7  -5   47.50    2.50
  -1   7  -5   43.80    2.30
   1  -7   5   55.19    2.50
  -2   7  -5    0.20    0.60
  -2   7  -5   -0.30    0.70
  -2   7  -5   -0.40    0.60
  -2   7  -5    0.00    0.60
   2  -7   5    0.70    0.60
  -3   7  -5    0.30    0.60
  -3   7  -5    0.50    0.60
  -3   7  -5   -0.40    0.50
   3  -7   5    0.30    0.50
  -4   7  -5    5.80    0.80
  -4   7  -5    5.30    0.80
  -4   7  -5    4.70    0.70
   4  -7   5    7.90    0.70
   5   6  -5    1.30    0.50
  -5  -6   5    2.50    0.40
   4   6  -5   50.29    2.40
  -4  -6   5   51.59    2.20
  -4  -6   5   53.29    2.30
  -4  -6   5   49.90    2.40
   3   6  -5    0.20    0.60
  -3  -6   5    0.10    0.50
  -3  -6   5    0.80    0.60
  -3  -6   5    0.50    0.50
   2   6  -5   22.80    1.60
  -2  -6   5   23.00    1.50
  -2  -6   5   22.00    1.50
  -2  -6   5   23.50    1.60
  -2  -6   5   23.10    1.30
   1   6  -5    5.50    0.90
  -1  -6   5    4.70    0.80
   0   6  -5   28.30    1.80
   0   6  -5   30.70    1.80
   0  -6   5   31.30    1.80
  -1   6  -5  102.39    4.40
  -1   6  -5  105.29    4.30
  -1   6  -5  110.29    4.20
  -1   6  -5  105.99    4.30
   1  -6   5  102.99    4.20
  -2   6  -5   30.90    1.80
  -2   6  -5   32.30    1.80
  -2   6  -5   32.00    1.90
  -2   6  -5   29.50    1.90
   2  -6   5   33.80    1.90
  -3   6  -5    2.70    0.80
  -3   6  -5    2.60    0.70
  -3   6  -5    1.10    0.70
   3  -6   5    2.70    0.70
  -4   6  -5   14.20    1.20
  -4   6  -5   14.10    1.20
  -4   6  -5   13.40    1.10
   4  -6   5   13.30    1.10
  -5   6  -5   76.49    3.30
  -5   6  -5   79.29    3.30
   5  -6   5   82.49    3.10
   5   5  -5   10.60    1.00
  -5  -5   5   10.40    0.80
  -5  -5   5   10.40    1.00
   4   5  -5    9.20    1.00
  -4  -5   5    8.00    0.90
  -4  -5   5    9.20    0.80
  -4  -5   5    8.10    0.90
   3   5  -5   74.09    3.40
  -3  -5   5   76.49    3.30
  -3  -5   5   79.89    3.40
  -3  -5   5   79.59    3.20
   2   5  -5    3.50    0.80
  -2  -5   5    2.70    0.70
  -2  -5   5    4.40    0.60
  -2  -5   5    3.90    0.80
  -2  -5   5    5.40    0.80
   1   5  -5   12.60    1.20
  -1  -5   5   13.20    1.00
  -1  -5   5   13.10    1.20
  -1  -5   5   12.10    0.90
   0   5  -5    7.70    0.90
   0   5  -5    7.90    0.90
   0  -5   5    9.30    1.00
  -1   5  -5    8.80    0.90
  -1   5  -5    8.90    1.00
  -1   5  -5   10.30    1.10
   1  -5   5    8.60    1.00
  -2   5  -5  238.58    8.60
  -2   5  -5  226.28    8.60
  -2   5  -5  236.88    8.80
  -2   5  -5  236.18    8.70
   2  -5   5  223.38    8.70
  -3   5  -5    0.30    0.60
  -3   5  -5    0.50    0.60
  -3   5  -5    0.10    0.70
  -3   5  -5    0.50    0.60
   3  -5   5    0.10    0.50
  -4   5  -5   56.49    2.70
  -4   5  -5   58.59    2.60
  -4   5  -5   59.59    2.70
  -4   5  -5   56.89    2.80
   4  -5   5   58.49    2.60
  -5   5  -5   23.50    1.60
  -5   5  -5   21.10    1.40
  -5   5  -5   20.70    1.60
   5  -5   5   20.70    1.30
  -6   5  -5    5.90    0.70
  -6   5  -5    4.60    0.70
  -6   5  -5    5.60    0.60
   6  -5   5    4.50    0.50
   6   4  -5    7.20    0.70
  -6  -4   5    7.30    0.60
  -6  -4   5    7.20    0.60
   5   4  -5   14.60    1.30
  -5  -4   5   15.60    0.90
  -5  -4   5   14.60    1.00
  -5  -4   5   15.30    1.20
   4   4  -5    3.50    0.70
  -4  -4   5    4.50    0.80
  -4  -4   5    4.20    0.70
   3   4  -5    3.60    0.80
  -3  -4   5    3.00    0.70
  -3  -4   5    3.90    0.60
  -3  -4   5    4.80    0.90
   2   4  -5    5.70    0.80
  -2  -4   5    6.00    0.70
  -2  -4   5    6.40    0.90
  -2  -4   5    4.60    0.80
   1   4  -5    0.90    0.60
  -1  -4   5    1.50    0.50
  -1  -4   5    0.50    0.50
  -1  -4   5    0.60    0.40
  -1  -4   5    0.50    0.50
   0   4  -5   14.80    1.10
   0   4  -5   16.40    1.20
   0  -4   5   16.00    1.30
  -1   4  -5    2.10    0.60
  -1   4  -5    2.80    0.60
   1  -4   5    2.60    0.60
  -2   4  -5   73.09    3.00
  -2   4  -5   72.79    3.00
  -2   4  -5   69.59    3.10
  -2   4  -5   70.49    3.10
  -2   4  -5   69.69    3.00
   2  -4   5   71.59    3.10
  -3   4  -5   12.50    1.20
  -3   4  -5   12.80    1.20
  -3   4  -5   11.70    1.20
  -3   4  -5   12.30    1.10
  -3   4  -5    8.50    0.90
   3  -4   5   12.20    1.10
  -4   4  -5   53.19    2.50
  -4   4  -5   51.19    2.60
  -4   4  -5   55.89    2.50
  -4   4  -5   52.49    2.60
  -5   4  -5   43.40    2.20
  -5   4  -5   45.70    2.40
  -5   4  -5   44.20    2.30
  -5   4  -5   47.10    2.30
   5  -4   5   44.30    2.10
  -6   4  -5   10.10    0.90
  -6   4  -5    8.90    0.90
  -6   4  -5    8.20    1.00
   6  -4   5   10.70    0.90
   6   3  -5    6.40    0.80
  -6  -3   5    5.30    0.50
  -6  -3   5    6.90    0.60
   5   3  -5   -0.50    0.60
  -5  -3   5   -0.60    0.50
  -5  -3   5   -0.40    0.40
  -5  -3   5    0.00    0.40
   4   3  -5  109.89    4.60
  -4  -3   5  108.59    4.30
  -4  -3   5  111.69    4.20
  -4  -3   5  113.29    4.50
   3   3  -5    0.10    0.60
  -3  -3   5   -0.10    0.60
  -3  -3   5    0.30    0.50
  -3  -3   5   -0.10    0.50
   2   3  -5   92.49    3.60
  -2  -3   5   81.29    3.70
  -2  -3   5   84.49    3.40
  -2  -3   5   88.09    3.60
  -2  -3   5   90.79    3.60
   1   3  -5   56.89    2.50
  -1  -3   5   56.99    2.50
  -1  -3   5   58.29    2.50
  -1  -3   5   55.49    2.40
  -1  -3   5   52.19    2.50
  -1  -3   5   54.39    2.30
   0   3  -5    0.60    0.50
   0  -3   5    0.70    0.40
   0  -3   5    1.00    0.40
   0  -3   5    1.10    0.50
  -1   3  -5  132.49    4.90
  -1   3  -5  121.39    5.60
   1  -3   5  125.29    4.90
  -2   3  -5  143.09    5.30
  -2   3  -5  138.59    5.20
  -2   3  -5  132.09    5.20
  -2   3  -5  139.29    5.20
   2  -3   5  130.49    5.30
  -3   3  -5    2.60    0.60
  -3   3  -5    4.10    0.70
  -3   3  -5    3.40    0.70
  -3   3  -5    2.50    0.60
  -3   3  -5    2.40    0.70
   3  -3   5    2.30    0.60
  -4   3  -5    0.70    0.60
  -4   3  -5    1.30    0.60
  -4   3  -5    1.10    0.60
  -4   3  -5    0.50    0.60
   4  -3   5    0.40    0.50
  -5   3  -5  342.07   12.20
  -5   3  -5  338.67   12.40
  -5   3  -5  324.37   12.30
   5  -3   5  341.47   12.20
  -6   3  -5    2.30    0.60
  -6   3  -5    2.40    0.70
  -6   3  -5    1.40    0.70
   6  -3   5    2.00    0.50
   6  -3   5    2.00    0.50
  -7   3  -5    4.90    0.60
   7  -3   5    4.80    0.60
   6   2  -5   16.10    1.30
  -6  -2   5   14.90    1.00
   5   2  -5    3.70    0.80
  -5  -2   5    3.60    0.60
  -5  -2   5    4.50    0.60
  -5  -2   5    3.90    0.70
   4   2  -5  118.59    4.70
  -4  -2   5  113.99    4.40
  -4  -2   5  115.69    4.60
  -4  -2   5  112.99    4.40
   3   2  -5   16.20    1.30
  -3  -2   5   16.10    1.20
  -3  -2   5   16.00    1.20
  -3  -2   5   16.70    1.00
  -3  -2   5   17.60    1.10
  -3  -2   5   24.70    2.50
   2   2  -5   27.80    1.50
  -2  -2   5   28.40    1.60
  -2  -2   5   25.40    1.50
  -2  -2   5   28.90    1.40
  -2  -2   5   29.90    1.50
  -1  -2   5    1.00    0.50
  -1  -2   5    1.30    0.50
   0  -2   5   78.09    3.10
   0  -2   5   80.19    3.20
  -1   2  -5   64.19    2.90
  -2   2  -5  614.64   22.00
  -3   2  -5   29.00    1.50
  -3   2  -5   31.90    2.00
  -3   2  -5   27.10    1.50
  -3   2  -5   28.40    1.40
   3  -2   5   25.30    1.50
  -4   2  -5   28.10    1.60
  -4   2  -5   25.80    1.50
  -4   2  -5   27.40    1.50
  -4   2  -5   25.70    1.50
  -4   2  -5   25.70    1.50
   4  -2   5   24.60    1.50
  -5   2  -5   61.49    2.60
  -5   2  -5   58.19    2.70
  -5   2  -5   61.19    2.80
  -5   2  -5   56.79    2.60
   5  -2   5   54.49    2.60
  -6   2  -5   21.70    1.30
  -6   2  -5   23.40    1.50
  -6   2  -5   25.50    1.70
   6  -2   5   22.00    1.30
  -7   2  -5   13.60    1.10
   7  -2   5   12.70    1.00
   6   1  -5    8.90    1.00
  -6  -1   5    9.00    0.80
  -6  -1   5    6.80    0.70
   5   1  -5    0.40    0.60
  -5  -1   5    0.60    0.40
  -5  -1   5    0.70    0.50
  -5  -1   5    0.40    0.40
  -5  -1   5    0.10    0.50
   4   1  -5    5.70    0.90
  -4  -1   5    5.90    0.90
  -4  -1   5    4.50    0.60
  -4  -1   5    5.70    0.70
  -4  -1   5    5.00    0.70
   3   1  -5    8.10    0.90
  -3  -1   5   12.30    1.20
  -3  -1   5   13.70    1.10
  -3  -1   5   14.00    1.00
  -3  -1   5   11.30    1.00
  -3  -1   5   13.00    0.80
   2   1  -5   27.70    1.90
  -2  -1   5   33.50    1.50
  -2  -1   5   30.60    1.70
  -2  -1   5   31.40    1.60
  -1  -1   5   54.09    2.30
  -1  -1   5   59.49    2.50
   0   1  -5   33.20    1.60
   0  -1   5   35.40    1.60
   0  -1   5   38.80    1.70
  -1   1  -5   65.99    2.50
  -1   1  -5   65.09    2.70
   1  -1   5   60.99    2.50
  -2   1  -5  194.68    7.10
  -2   1  -5  196.68    7.30
  -3   1  -5   13.50    1.20
  -3   1  -5   11.60    0.90
  -4   1  -5  155.48    5.60
  -4   1  -5  154.68    5.60
  -4   1  -5  143.49    5.60
  -4   1  -5  148.29    5.70
   4  -1   5  140.59    5.60
  -5   1  -5   22.80    1.40
  -5   1  -5   22.60    1.40
  -5   1  -5   23.30    1.60
   5  -1   5   23.50    1.40
  -6   1  -5  136.89    5.30
  -6   1  -5  131.09    5.10
  -6   1  -5  131.09    5.10
   6  -1   5  130.59    5.10
   6  -1   5  125.29    5.00
  -7   1  -5   27.60    1.60
   7  -1   5   24.30    1.60
   7  -1   5   30.10    1.50
  -8   1  -5    3.40    0.60
   8  -1   5    3.70    0.50
   8  -1   5    3.00    0.50
   6   0  -5   31.70    1.80
  -6   0   5   27.90    1.40
  -6   0   5   29.20    1.60
   5   0  -5    3.20    0.80
  -5   0   5    2.70    0.60
  -5   0   5    3.50    0.70
  -5   0   5    3.40    0.60
  -5   0   5    4.50    0.60
   4   0  -5  129.89    5.10
  -4   0   5  121.19    4.90
  -4   0   5  125.89    5.00
  -4   0   5  127.89    4.90
  -4   0   5  136.39    4.90
  -4   0   5  128.69    4.90
  -4   0   5  130.29    5.00
   3   0  -5   42.90    2.10
  -3   0   5   43.40    2.00
  -3   0   5   41.40    2.10
  -3   0   5   45.40    2.10
  -3   0   5   43.50    2.00
  -3   0   5   44.90    1.90
  -3   0   5   44.30    2.10
  -3   0   5   42.70    1.80
  -2   0   5   42.30    1.80
  -2   0   5   40.30    2.00
  -2   0   5   41.60    1.90
  -1   0   5   80.99    3.10
  -1   0   5   79.29    3.20
  -1   0   5   83.19    3.30
   0   0  -5   12.40    0.90
   0   0   5   10.70    0.80
   0   0   5   12.00    0.90
  -1   0  -5   11.40    0.80
  -1   0  -5   11.00    0.90
   1   0   5   10.60    0.70
  -2   0  -5    2.30    0.50
  -2   0  -5    2.50    0.50
  -3   0  -5  152.88    5.70
  -3   0  -5  151.98    5.80
  -4   0  -5    0.10    0.40
  -4   0  -5    0.10    0.50
   4   0   5    0.70    0.50
  -5   0  -5  172.18    6.60
  -5   0  -5  178.48    6.50
  -5   0  -5  175.38    6.50
   5   0   5  169.68    6.40
   5   0   5  167.88    6.50
  -6   0  -5   10.40    1.00
  -6   0  -5    9.20    0.90
   6   0   5   11.20    0.90
   6   0   5    7.90    0.80
  -7   0  -5   59.69    2.60
  -7   0  -5   56.49    2.60
   7   0   5   64.89    2.60
   7   0   5   59.59    2.70
  -8   0  -5    5.10    0.60
   8   0   5    4.90    0.60
   8   0   5    5.70    0.70
   6  -1  -5   13.80    1.20
  -6   1   5   11.50    1.00
  -6   1   5   10.70    1.00
  -6   1   5   11.50    0.90
  -5   1   5   15.60    1.20
  -5   1   5   12.80    1.00
  -5   1   5   10.70    0.90
  -5   1   5   13.20    1.10
  -4   1   5   14.30    1.10
  -4   1   5   16.20    1.40
  -4   1   5   13.70    1.00
  -4   1   5   14.40    1.10
  -4   1   5   14.90    1.20
  -4   1   5   14.70    1.00
  -3   1   5   32.60    1.60
  -3   1   5   32.10    1.80
  -3   1   5   33.50    1.70
  -3   1   5   32.60    1.80
  -3   1   5   34.60    1.60
  -3   1   5   34.80    1.70
  -3   1   5   32.60    1.60
  -2   1   5  102.19    3.90
  -2   1   5  103.89    4.00
  -2   1   5  105.29    4.10
  -1   1   5    3.20    0.50
  -1   1   5    3.40    0.50
  -1   1   5    4.30    0.50
   0   1   5  424.56   15.90
   0   1   5  462.35   16.30
   0   1   5  474.25   16.10
  -1  -1  -5    8.30    0.70
  -1  -1  -5    8.50    0.80
   1   1   5    8.20    0.70
  -2  -1  -5  307.97   10.90
  -2  -1  -5  294.87   10.90
   2   1   5  310.77   10.80
  -3  -1  -5  162.08    6.10
  -3  -1  -5  166.08    6.20
  -4  -1  -5   -0.10    0.50
  -4  -1  -5    0.40    0.50
  -5  -1  -5  170.18    6.30
  -5  -1  -5  175.38    6.40
   5   1   5  171.38    6.40
   5   1   5  163.68    6.30
  -6  -1  -5   30.20    1.60
  -6  -1  -5   30.60    1.70
  -6  -1  -5   29.90    1.60
   6   1   5   28.50    1.60
   6   1   5   28.20    1.60
   6   1   5   28.60    1.70
  -7  -1  -5    3.60    0.70
  -7  -1  -5    3.70    0.70
  -7  -1  -5    2.50    0.60
   7   1   5    2.70    0.60
   7   1   5    2.60    0.70
  -8  -1  -5    0.50    0.40
   8   1   5    0.30    0.50
   8   1   5    0.10    0.40
   6  -2  -5    2.10    0.60
  -6   2   5    1.80    0.60
  -6   2   5    1.90    0.40
  -6   2   5    1.60    0.50
  -5   2   5    3.50    0.80
  -5   2   5    2.60    0.60
  -5   2   5    3.50    0.70
  -5   2   5    3.10    0.60
  -4   2   5    5.30    0.90
  -4   2   5    4.70    0.80
  -4   2   5    4.20    1.00
  -4   2   5    5.30    0.70
  -4   2   5    5.30    0.80
  -4   2   5    7.70    1.10
  -3   2   5   22.80    1.40
  -3   2   5   23.10    1.20
  -3   2   5   24.10    1.30
  -3   2   5   23.80    1.60
  -3   2   5   25.30    1.50
  -3   2   5   29.10    1.50
  -3   2   5   24.20    1.40
  -3   2   5   23.60    1.40
  -2   2   5    4.10    0.70
  -2   2   5    1.90    0.40
  -2   2   5    5.70    1.00
  -2   2   5    3.10    0.50
  -2   2   5    5.00    0.80
  -2   2   5    4.40    0.70
  -1   2   5   15.90    1.00
  -1   2   5   16.70    1.00
  -1   2   5   16.00    1.10
   0   2   5  186.68    6.80
   0   2   5  192.48    6.90
   0   2   5  183.58    6.80
  -1  -2  -5  498.95   17.90
  -1  -2  -5  486.25   17.80
   1   2   5  532.95   17.80
  -2  -2  -5  361.56   12.80
  -2  -2  -5  354.16   12.80
   2   2   5  360.06   12.70
  -3  -2  -5  109.59    4.10
  -3  -2  -5  102.59    4.10
  -4  -2  -5    0.20    0.50
  -4  -2  -5    0.10    0.50
  -5  -2  -5    9.30    0.80
  -5  -2  -5    9.20    0.90
  -5  -2  -5    7.10    0.80
   5   2   5    7.70    0.70
   5   2   5    9.10    0.80
   5   2   5    9.20    0.80
  -6  -2  -5  212.68    7.90
  -6  -2  -5  213.58    7.90
   6   2   5  205.68    7.80
   6   2   5  219.38    7.90
   6   2   5  215.08    7.90
  -7  -2  -5   41.30    2.10
  -7  -2  -5   38.50    2.00
   7   2   5   41.70    2.10
   7   2   5   45.10    2.00
  -8  -2  -5    4.40    0.70
   8   2   5    5.70    0.70
   8   2   5    6.90    0.70
   6  -3  -5   11.70    1.10
  -6   3   5   12.80    0.80
  -6   3   5   10.80    1.00
  -6   3   5   13.30    1.00
  -5   3   5    2.90    0.80
  -5   3   5    2.30    0.50
  -5   3   5    1.90    0.60
  -5   3   5    1.60    0.60
  -4   3   5   35.90    1.70
  -4   3   5   34.90    1.90
  -4   3   5   35.60    2.00
  -4   3   5   37.00    1.90
  -4   3   5   36.20    2.10
  -3   3   5   25.10    1.30
  -3   3   5   21.30    1.30
  -3   3   5   22.00    1.20
  -3   3   5   24.90    1.40
  -3   3   5   22.70    1.60
  -3   3   5   24.20    1.40
  -3   3   5   23.40    1.50
  -2   3   5  151.08    5.70
  -2   3   5  149.69    5.80
  -2   3   5  144.89    5.60
  -2   3   5  150.18    5.70
  -2   3   5  153.48    5.70
  -2   3   5  158.38    5.60
  -2   3   5  158.78    5.70
  -1   3   5   -0.40    0.40
  -1   3   5    0.20    0.40
  -1   3   5    0.20    0.40
   0   3   5    3.90    0.50
   0   3   5    2.90    0.50
   0   3   5    3.70    0.60
  -1  -3  -5   -0.20    0.50
  -1  -3  -5    0.50    0.30
   1   3   5    0.50    0.30
   1   3   5    0.90    0.40
  -2  -3  -5    0.30    0.40
  -2  -3  -5    0.80    0.40
   2   3   5    1.10    0.40
  -3  -3  -5  164.78    6.20
  -3  -3  -5  171.78    6.30
  -4  -3  -5   10.20    1.00
  -4  -3  -5   10.10    0.90
  -5  -3  -5    0.30    0.50
  -5  -3  -5    0.70    0.60
   5   3   5    1.20    0.50
   5   3   5   -0.10    0.40
   5   3   5    0.60    0.50
  -6  -3  -5  226.58    8.20
   6   3   5  221.88    8.20
   6   3   5  213.68    8.10
   6   3   5  222.18    8.10
  -7  -3  -5   33.60    1.80
  -7  -3  -5   32.40    1.80
   7   3   5   38.30    1.90
   7   3   5   36.70    1.80
  -8  -3  -5    1.90    0.60
   8   3   5    2.20    0.60
   8   3   5    2.50    0.50
  -5   4   5    8.90    0.70
  -5   4   5    6.90    0.80
  -5   4   5    9.50    1.00
  -5   4   5    9.90    1.10
  -4   4   5    2.10    0.80
  -4   4   5    1.60    0.60
  -4   4   5    1.30    0.50
  -4   4   5    0.80    0.60
  -4   4   5    1.00    0.70
  -3   4   5   31.10    1.90
  -3   4   5   33.90    1.80
  -3   4   5   34.20    1.60
  -3   4   5   34.80    1.80
  -3   4   5   33.60    1.80
  -2   4   5   14.40    1.10
  -2   4   5   13.90    0.90
  -2   4   5   14.60    1.10
  -2   4   5   14.70    1.00
  -2   4   5   12.20    0.90
  -2   4   5   12.70    1.10
  -2   4   5   12.60    1.00
  -1   4   5    0.20    0.50
  -1   4   5    0.00    0.40
  -1   4   5    0.50    0.40
   0   4   5   16.30    1.10
   0   4   5   16.70    1.00
   0   4   5   15.80    1.00
  -1  -4  -5   13.60    1.00
   1   4   5   15.30    0.90
   1   4   5   15.20    1.00
  -2  -4  -5    4.20    0.60
  -2  -4  -5    5.60    0.60
   2   4   5    5.60    0.60
   2   4   5    6.40    0.60
  -3  -4  -5  444.96   15.90
  -3  -4  -5  436.76   16.30
  -3  -4  -5  475.05   16.10
   3   4   5  440.06   15.90
  -4  -4  -5    6.30    0.80
  -4  -4  -5    5.00    0.70
   4   4   5    6.30    0.70
   4   4   5    7.20    0.70
   4   4   5    7.80    0.80
  -5  -4  -5    9.90    0.90
  -5  -4  -5    8.10    0.90
   5   4   5    6.90    0.80
   5   4   5    9.60    0.80
   5   4   5    8.60    0.80
  -6  -4  -5    6.60    0.80
  -6  -4  -5    7.90    1.00
  -6  -4  -5    7.80    0.70
   6   4   5    8.30    0.80
   6   4   5    7.20    0.80
   6   4   5    7.10    0.80
  -7  -4  -5    0.20    0.50
  -7  -4  -5    0.20    0.60
  -7  -4  -5    0.50    0.70
   7   4   5    0.80    0.50
   7   4   5    0.40    0.50
  -8  -4  -5   -0.30    0.50
   8   4   5   -0.70    0.40
   8   4   5   -0.50    0.40
  -5   5   5    0.30    0.40
  -5   5   5    0.50    0.60
  -5   5   5   -0.30    0.50
  -4   5   5   16.20    1.30
  -4   5   5   13.70    1.00
  -4   5   5   12.70    1.10
  -4   5   5   12.20    1.10
  -4   5   5   10.80    1.00
  -3   5   5    0.40    0.40
  -3   5   5    0.30    0.50
  -3   5   5    0.10    0.60
  -3   5   5    0.00    0.50
  -2   5   5    3.00    0.70
  -2   5   5    2.80    0.60
  -2   5   5    2.60    0.60
  -2   5   5    2.70    0.60
  -2   5   5    2.30    0.50
  -2   5   5    1.60    0.50
  -1   5   5    3.60    0.60
  -1   5   5    4.80    0.70
  -1   5   5    4.60    0.60
  -1   5   5    3.80    0.60
  -1   5   5    3.40    0.60
  -1   5   5    4.20    0.50
  -1   5   5    3.50    0.60
  -1   5   5    3.70    0.50
   0   5   5  132.09    5.00
   0   5   5  137.89    4.90
   0   5   5  122.09    5.00
  -1  -5  -5  135.59    5.20
   1   5   5  137.39    5.20
   1   5   5  134.39    5.10
  -2  -5  -5  178.68    6.60
  -2  -5  -5  176.28    6.50
   2   5   5  175.58    6.50
  -3  -5  -5   31.10    1.60
  -3  -5  -5   30.50    1.70
  -3  -5  -5   31.00    2.10
   3   5   5   29.50    1.60
   3   5   5   33.20    1.50
  -4  -5  -5    7.30    0.80
  -4  -5  -5    7.40    1.10
  -4  -5  -5    8.90    0.90
   4   5   5    6.10    0.70
   4   5   5    8.90    0.80
   4   5   5    9.30    0.90
   4   5   5    7.80    0.70
   4   5   5    9.10    0.70
   4   5   5    6.70    0.60
  -5  -5  -5   47.20    2.10
  -5  -5  -5   47.80    2.30
   5   5   5   45.50    2.10
   5   5   5   42.70    2.50
   5   5   5   49.99    2.10
  -6  -5  -5  126.09    4.90
  -6  -5  -5  122.49    4.70
   6   5   5  123.29    4.70
   6   5   5  121.79    4.70
   6   5   5  118.79    4.70
  -7  -5  -5  114.39    4.50
  -7  -5  -5  113.09    4.20
   7   5   5  106.49    4.40
   7   5   5  110.59    4.30
  -8  -5  -5    2.40    0.60
   8   5   5    3.50    0.50
   8   5   5    2.80    0.50
  -5   6   5    0.70    0.40
  -5   6   5    0.90    0.50
  -4   6   5    8.60    0.90
  -4   6   5    8.30    0.90
  -3   6   5   43.20    2.10
  -3   6   5   42.30    1.90
  -3   6   5   43.70    2.10
  -3   6   5   41.30    2.10
  -2   6   5   72.29    2.90
  -2   6   5   64.19    2.90
  -2   6   5   66.59    2.90
  -2   6   5   66.29    2.70
  -1   6   5  110.09    4.10
  -1   6   5  115.79    4.30
  -1   6   5  101.59    4.20
  -1   6   5  107.69    4.20
  -1   6   5  102.79    4.30
  -1   6   5  109.59    4.10
  -1   6   5  111.89    4.30
   0   6   5   86.49    3.60
   0   6   5   95.19    3.60
   0   6   5   86.29    3.50
   0   6   5   85.49    3.70
   0   6   5   89.39    3.60
   0   6   5   89.29    3.40
   0   6   5   93.69    3.40
  -1  -6  -5    3.60    0.60
   1   6   5    4.80    0.70
   1   6   5    4.00    0.50
   1   6   5    3.40    0.60
   1   6   5    2.80    0.60
   1   6   5    3.40    0.60
   1   6   5    3.30    0.60
   1   6   5    4.00    0.50
  -2  -6  -5   26.90    2.20
   2   6   5   28.00    1.40
   2   6   5   28.20    1.50
   2   6   5   27.70    1.30
   2   6   5   26.70    1.40
   2   6   5   27.50    1.50
   2   6   5   27.50    1.50
   2   6   5   26.80    1.30
  -3  -6  -5   43.40    2.70
   3   6   5   43.70    2.10
   3   6   5   45.60    2.10
   3   6   5   44.60    1.90
   3   6   5   45.10    2.10
   3   6   5   47.90    2.10
   3   6   5   47.20    2.00
   3   6   5   45.80    2.00
   3   6   5   45.90    1.90
  -4  -6  -5   50.59    2.40
   4   6   5   52.69    2.30
   4   6   5   50.79    2.30
   4   6   5   52.29    2.30
   4   6   5   51.79    2.30
   4   6   5   51.39    2.20
   4   6   5   50.69    2.20
   4   6   5   50.09    2.20
  -5  -6  -5   40.50    2.10
   5   6   5   40.60    1.90
   5   6   5   40.00    2.10
   5   6   5   41.40    2.00
  -6  -6  -5  173.38    6.60
  -6  -6  -5  171.18    6.70
   6   6   5  181.98    6.60
   6   6   5  183.38    6.60
   6   6   5  178.28    6.70
  -7  -6  -5   46.30    2.30
  -7  -6  -5   45.70    2.10
   7   6   5   50.49    2.10
   7   6   5   45.90    2.20
  -8  -6  -5    0.80    0.50
  -8  -6  -5    0.40    0.30
   8   6   5    0.00    0.40
   8   6   5    0.30    0.40
  -4   7   5    3.90    0.70
  -3   7   5    3.20    0.60
  -3   7   5    3.10    0.70
  -2   7   5   14.70    1.10
  -2   7   5   14.20    1.00
  -1   7   5    9.10    0.90
  -1   7   5    7.60    0.70
  -1   7   5    8.60    0.80
  -1   7   5    8.70    0.90
   0   7   5    4.70    0.80
   0   7   5    5.30    0.70
   0   7   5    4.50    0.60
   0   7   5    5.10    0.60
   0   7   5    3.70    0.70
   0   7   5    5.30    0.80
  -1  -7  -5   43.50    2.90
   1   7   5   46.30    2.10
   1   7   5   49.60    2.20
   1   7   5   51.39    2.10
   1   7   5   50.79    2.30
   1   7   5   46.70    2.10
   1   7   5   47.40    2.20
   1   7   5   45.10    2.10
  -2  -7  -5    1.60    1.00
   2   7   5    1.50    0.60
   2   7   5    2.10    0.60
   2   7   5    1.60    0.50
   2   7   5    1.30    0.50
   2   7   5    1.80    0.50
   2   7   5    2.60    0.70
   2   7   5    1.40    0.50
   2   7   5    0.60    0.50
   3   7   5  108.59    4.10
   3   7   5   98.29    4.20
   3   7   5  106.99    4.10
   3   7   5  109.69    4.30
   3   7   5  106.89    4.20
   3   7   5  104.49    4.10
   3   7   5  104.29    4.20
   3   7   5  109.39    4.30
  -4  -7  -5    7.40    0.90
   4   7   5    8.00    0.90
   4   7   5    8.80    0.80
   4   7   5    7.30    0.80
   4   7   5    9.70    0.90
   4   7   5    9.10    0.90
   4   7   5    7.80    0.90
   4   7   5    6.20    0.80
  -5  -7  -5    1.00    0.70
   5   7   5    1.50    0.60
   5   7   5    0.20    0.40
   5   7   5    1.40    0.70
   5   7   5    1.00    0.50
   5   7   5    0.30    0.50
  -6  -7  -5   69.19    3.00
  -6  -7  -5   69.89    2.90
   6   7   5   69.09    2.90
   6   7   5   71.99    2.90
   6   7   5   69.89    3.00
  -7  -7  -5    5.50    0.80
  -7  -7  -5    3.90    0.60
   7   7   5    5.90    0.70
   7   7   5    4.00    0.60
   0   8   5    2.90    0.70
   0   8   5    3.20    0.70
   0   8   5    2.90    0.70
   0   8   5    1.90    0.50
   0   8   5    3.10    0.60
   1   8   5   71.19    3.00
   1   8   5   74.49    3.20
   1   8   5   69.79    3.10
   1   8   5   71.59    3.10
   1   8   5   73.69    2.90
   1   8   5   71.99    2.90
   2   8   5   57.39    2.60
   2   8   5   59.29    2.60
   2   8   5   59.19    2.50
   2   8   5   56.49    2.70
   2   8   5   58.99    2.70
   2   8   5   59.89    2.50
   2   8   5   63.29    2.70
   3   8   5    4.50    0.60
   3   8   5    4.00    0.60
   3   8   5    5.10    0.80
   3   8   5    5.60    0.90
   3   8   5    4.80    0.80
   3   8   5    4.40    0.70
   3   8   5    5.50    0.80
  -4  -8  -5   -0.20    0.60
   4   8   5   -0.20    0.50
   4   8   5    0.00    0.50
   4   8   5    0.60    0.60
   4   8   5    0.90    0.70
   4   8   5    0.90    0.60
   4   8   5   -0.50    0.50
   4   8   5    0.30    0.50
  -5  -8  -5    2.70    0.70
  -5  -8  -5    1.90    0.60
   5   8   5    2.00    0.70
   5   8   5    2.30    0.60
   5   8   5    2.50    0.60
   5   8   5    2.60    0.60
   5   8   5    1.60    0.60
  -6  -8  -5    0.40    0.50
  -6  -8  -5    0.10    0.50
   6   8   5   -0.10    0.50
   6   8   5   -0.20    0.50
   6   8   5    0.70    0.50
  -7  -8  -5   53.19    2.30
  -7  -8  -5   56.19    2.30
   7   8   5   51.49    2.30
   7   8   5   56.59    2.30
   0   9   5   45.20    2.20
   0   9   5   46.20    2.30
   0   9   5   48.10    2.10
   0   9   5   45.60    2.20
   1   9   5    2.70    0.70
   1   9   5    2.70    0.70
   1   9   5    3.10    0.70
   1   9   5    2.80    0.80
   1   9   5    3.40    0.60
   1   9   5    2.20    0.50
   2   9   5    7.40    0.90
   2   9   5    8.60    1.00
   2   9   5    9.50    1.10
   2   9   5   11.40    0.90
   2   9   5   10.10    0.90
   2   9   5    6.20    0.90
   2   9   5    7.30    0.70
   3   9   5   20.80    1.50
   3   9   5   20.20    1.30
   3   9   5   19.70    1.20
   3   9   5   19.20    1.50
   3   9   5   21.30    1.50
   3   9   5   20.40    1.50
   3   9   5   20.60    1.40
   4   9   5    0.30    0.70
   4   9   5    0.60    0.60
   4   9   5    0.20    0.60
   4   9   5    0.90    0.60
   4   9   5    0.10    0.60
   4   9   5    0.40    0.50
  -5  -9  -5    1.60    0.50
  -5  -9  -5    1.10    0.80
   5   9   5    0.90    0.50
   5   9   5    1.30    0.60
   5   9   5    2.30    0.70
   5   9   5    1.20    0.50
   5   9   5    0.60    0.60
  -6  -9  -5   46.60    2.20
  -6  -9  -5   47.60    2.10
   6   9   5   46.80    2.10
   6   9   5   48.00    2.10
   0  10   5   18.90    1.40
   1  10   5   10.70    1.00
   1  10   5   13.00    1.10
   1  10   5   12.50    1.20
   1  10   5   13.20    1.10
   1  10   5   13.30    1.00
   2  10   5   13.00    1.20
   2  10   5   11.10    0.90
   2  10   5    9.70    1.00
   2  10   5   12.30    1.00
   2  10   5    9.70    0.90
   2  10   5   10.90    1.10
   3  10   5   25.60    1.60
   3  10   5   23.40    1.60
   3  10   5   21.20    1.60
   3  10   5   23.50    1.50
   3  10   5   25.70    1.50
   3  10   5   23.00    1.60
  -4 -10  -5   10.30    0.80
   4  10   5   10.50    0.90
   4  10   5    9.40    0.90
   4  10   5   10.30    1.00
   4  10   5    7.40    0.90
   4  10   5   11.50    1.00
  -5 -10  -5    1.50    0.70
  -5 -10  -5    0.60    0.40
   5  10   5    1.20    0.50
   5  10   5    1.20    0.50
   5  10   5    0.50    0.50
   5  10   5    0.60    0.50
   5  10   5    0.90    0.50
   1  11   5    3.60    0.70
   1  11   5    2.40    0.60
   1  11   5    2.10    0.50
   2  11   5    9.50    0.90
   2  11   5   11.10    1.00
   2  11   5   13.20    1.00
   2  11   5   12.20    1.00
   3  11   5    0.60    0.50
   3  11   5    0.20    0.50
   3  11   5    1.40    0.50
   3  11   5    1.30    0.60
   3  11   5    1.50    0.50
   4  11   5    1.20    0.50
   4  11   5    0.90    0.50
   4  11   5    1.00    0.50
   4  11   5    1.10    0.50
   4  11   5    1.30    0.50
   0   8  -6   24.60    1.40
   0  -8   6   26.40    1.40
   0  -8   6   26.30    1.30
   3   7  -6    3.80    0.60
  -3  -7   6    4.30    0.60
  -3  -7   6    3.70    0.50
   2   7  -6    4.50    0.70
  -2  -7   6    5.70    0.80
   1   7  -6   10.30    1.00
  -1  -7   6    7.90    0.90
  -1  -7   6   10.90    1.00
   0   7  -6   13.50    1.20
   0  -7   6   13.60    1.10
   0  -7   6   13.00    1.20
  -1   7  -6   17.50    1.30
   1  -7   6   15.10    1.30
  -2   7  -6   17.40    1.40
  -2   7  -6   16.60    1.20
   2  -7   6   21.10    1.30
  -3   7  -6    5.50    0.70
  -3   7  -6    5.80    0.80
   3  -7   6    6.40    0.70
   3  -7   6    7.30    0.70
   4   6  -6    1.80    0.50
  -4  -6   6    2.20    0.50
  -4  -6   6    2.40    0.40
   3   6  -6    2.20    0.60
  -3  -6   6    2.40    0.60
  -3  -6   6    3.40    0.50
  -3  -6   6    3.20    0.60
   2   6  -6   24.50    1.60
  -2  -6   6   25.30    1.50
  -2  -6   6   23.40    1.30
  -2  -6   6   24.30    1.60
   1   6  -6   42.70    2.20
  -1  -6   6   39.50    2.20
  -1  -6   6   42.80    2.20
   0   6  -6    5.80    0.90
   0  -6   6    7.10    0.90
   0  -6   6    5.50    0.80
  -1   6  -6    5.70    0.90
  -1   6  -6    3.00    0.70
   1  -6   6    8.50    1.00
   1  -6   6    5.20    0.70
  -2   6  -6    9.00    1.10
  -2   6  -6    8.40    0.90
   2  -6   6    7.10    0.90
  -3   6  -6   -0.40    0.70
  -3   6  -6   -0.40    0.60
  -3   6  -6   -0.30    0.60
   3  -6   6   -0.20    0.50
   3  -6   6    0.10    0.50
  -4   6  -6    4.70    0.70
  -4   6  -6    4.40    0.70
  -4   6  -6    6.30    0.80
   4  -6   6    4.90    0.70
   4   5  -6   20.30    1.40
  -4  -5   6   20.90    1.30
  -4  -5   6   20.10    1.30
  -4  -5   6   20.90    1.20
   3   5  -6    0.90    0.70
  -3  -5   6    2.10    0.70
  -3  -5   6    2.10    0.50
  -3  -5   6    1.30    0.60
   2   5  -6    0.20    0.60
  -2  -5   6   -0.20    0.50
  -2  -5   6    0.40    0.50
  -2  -5   6   -0.20    0.40
   1   5  -6   -0.20    0.60
  -1  -5   6    1.10    0.50
  -1  -5   6    0.60    0.60
  -1  -5   6    1.70    0.60
  -1  -5   6    1.30    0.60
   0   5  -6   47.10    2.40
   0  -5   6   48.70    2.50
   0  -5   6   47.90    2.40
  -1   5  -6   60.19    2.80
  -1   5  -6   58.39    2.80
   1  -5   6   60.79    2.70
   1  -5   6   61.79    2.90
  -2   5  -6    8.90    0.90
  -2   5  -6    8.60    1.00
   2  -5   6    7.10    0.90
  -3   5  -6    1.80    0.70
  -3   5  -6    1.60    0.70
   3  -5   6    1.40    0.60
  -4   5  -6   -0.20    0.60
  -4   5  -6   -0.30    0.50
  -4   5  -6    0.00    0.60
  -4   5  -6   -0.70    0.60
   4  -5   6   -0.20    0.50
  -5   5  -6   52.39    2.30
  -5   5  -6   45.80    2.30
  -5   5  -6   48.90    2.20
   5  -5   6   50.39    2.20
   5   4  -6    0.90    0.50
  -5  -4   6    0.70    0.40
   4   4  -6    2.20    0.70
  -4  -4   6    2.30    0.60
  -4  -4   6    1.70    0.60
   3   4  -6   14.60    1.30
  -3  -4   6   13.60    1.20
  -3  -4   6   13.60    1.20
  -3  -4   6   14.90    1.10
   2   4  -6   23.20    1.60
  -2  -4   6   21.70    1.60
  -2  -4   6   25.20    1.50
  -2  -4   6   23.80    1.30
   1   4  -6    4.70    0.80
  -1  -4   6    2.80    0.70
  -1  -4   6    3.10    0.70
  -1  -4   6    2.60    0.70
  -1  -4   6    4.10    0.60
   0   4  -6   83.29    3.60
   0  -4   6   87.59    3.60
   0  -4   6   81.19    3.50
  -1   4  -6   13.00    1.20
  -1   4  -6   15.90    1.30
   1  -4   6   14.10    1.20
   1  -4   6   10.60    1.10
  -2   4  -6   31.40    1.70
  -2   4  -6   29.80    1.80
  -2   4  -6   29.70    1.70
   2  -4   6   29.80    1.80
  -3   4  -6    0.90    0.60
  -3   4  -6    1.10    0.60
  -3   4  -6    1.50    0.70
   3  -4   6    2.00    0.60
  -4   4  -6   -0.20    0.60
  -4   4  -6   -0.60    0.60
  -4   4  -6    0.50    0.60
  -4   4  -6    0.50    0.60
   4  -4   6   -0.40    0.50
  -5   4  -6   32.00    1.70
  -5   4  -6   30.50    1.80
  -5   4  -6   29.70    1.80
   5  -4   6   33.70    1.70
  -6   4  -6    8.60    0.90
  -6   4  -6    8.50    0.80
   6  -4   6    7.00    0.70
   6  -4   6    8.80    0.80
   5   3  -6   13.80    1.20
  -5  -3   6   14.10    1.10
  -5  -3   6   12.40    0.90
  -5  -3   6   14.10    0.90
   4   3  -6    0.90    0.60
  -4  -3   6    1.00    0.60
  -4  -3   6    0.20    0.50
   3   3  -6   10.80    1.10
  -3  -3   6   13.20    1.00
  -3  -3   6   14.30    1.20
  -3  -3   6   13.80    1.20
   2   3  -6    7.10    0.90
  -2  -3   6    9.30    1.00
  -2  -3   6    7.40    0.90
  -2  -3   6    7.50    0.70
   1   3  -6   23.30    1.50
  -1  -3   6   22.00    1.20
  -1  -3   6   19.60    1.50
  -1  -3   6   21.20    1.40
  -1  -3   6   22.90    1.50
  -1  -3   6   22.70    1.40
   0   3  -6    1.20    0.50
   0  -3   6    1.10    0.50
   0  -3   6    2.00    0.60
  -1   3  -6    1.10    0.50
  -1   3  -6    0.00    0.40
   1  -3   6   -0.10    0.50
   1  -3   6    0.20    0.50
  -2   3  -6   19.30    1.30
  -2   3  -6   17.70    1.30
   2  -3   6   18.00    1.40
  -3   3  -6    0.40    0.60
  -3   3  -6    0.10    0.50
  -3   3  -6    0.60    0.50
   3  -3   6    0.00    0.50
  -4   3  -6    0.70    0.60
  -4   3  -6    1.00    0.60
  -4   3  -6   -0.30    0.60
   4  -3   6    0.10    0.50
   4  -3   6    0.30    0.50
  -5   3  -6    0.20    0.60
  -5   3  -6   -0.80    0.60
  -5   3  -6    0.40    0.60
   5  -3   6    0.10    0.50
  -6   3  -6  118.69    4.70
  -6   3  -6  113.09    4.70
   6  -3   6  122.09    4.60
   6  -3   6  124.99    4.60
   5   2  -6   22.60    1.60
  -5  -2   6   23.70    1.20
  -5  -2   6   24.00    1.30
  -5  -2   6   22.00    1.40
   4   2  -6   16.10    1.50
  -4  -2   6   18.30    1.20
  -4  -2   6   16.60    1.00
  -4  -2   6   16.00    1.30
   3   2  -6    1.50    0.60
  -3  -2   6    1.70    0.60
  -3  -2   6    1.90    0.60
  -3  -2   6    1.80    0.40
  -3  -2   6    2.60    0.70
   2   2  -6    8.50    0.90
  -2  -2   6   14.10    1.00
  -2  -2   6   13.00    1.20
  -2  -2   6   13.80    1.10
   1   2  -6    1.20    0.50
   1   2  -6    1.70    0.50
  -1  -2   6    1.20    0.40
  -1  -2   6    1.40    0.60
  -1  -2   6    1.30    0.50
  -1  -2   6    0.70    0.50
  -1  -2   6    0.90    0.50
   0   2  -6    0.70    0.50
   0   2  -6    0.00    0.40
   0  -2   6    0.30    0.40
   0  -2   6    0.80    0.40
   0  -2   6    0.20    0.40
   0  -2   6    0.70    0.50
   0  -2   6    0.30    0.50
  -1   2  -6   25.70    1.50
  -1   2  -6   28.10    1.40
   1  -2   6   27.40    1.60
   1  -2   6   26.30    1.50
  -2   2  -6   10.90    1.00
  -2   2  -6    8.40    0.80
   2  -2   6    9.70    1.00
  -3   2  -6   57.59    2.50
  -3   2  -6   58.19    2.50
  -3   2  -6   59.89    2.60
   3  -2   6   53.99    2.50
   3  -2   6   54.99    2.60
  -4   2  -6   17.50    1.40
  -4   2  -6   18.90    1.40
  -4   2  -6   17.50    1.40
   4  -2   6   17.30    1.30
   4  -2   6   17.60    1.30
  -5   2  -6    0.90    0.70
  -5   2  -6    0.40    0.50
  -5   2  -6    0.50    0.50
   5  -2   6    0.80    0.50
  -6   2  -6  172.08    6.40
  -6   2  -6  158.68    6.50
   6  -2   6  171.78    6.40
   6  -2   6  174.38    6.40
  -7   2  -6   -0.10    0.40
   7  -2   6    0.40    0.40
   7  -2   6   -0.60    0.40
   5   1  -6   -0.40    0.60
  -5  -1   6   -0.40    0.40
  -5  -1   6   -0.30    0.50
  -5  -1   6    0.60    0.40
   4   1  -6   42.40    2.20
  -4  -1   6   38.90    1.80
  -4  -1   6   37.40    2.00
  -4  -1   6   41.20    1.90
   3   1  -6   -0.20    0.50
  -3  -1   6    0.20    0.60
  -3  -1   6    0.30    0.60
  -3  -1   6    0.20    0.50
  -3  -1   6    1.00    0.60
  -3  -1   6    0.30    0.40
   2   1  -6    0.90    0.50
  -2  -1   6    2.50    0.70
  -2  -1   6    2.20    0.70
  -2  -1   6    2.50    0.60
  -2  -1   6    1.70    0.40
  -2  -1   6    2.00    0.50
  -2  -1   6    1.40    0.60
   1   1  -6   20.30    1.30
  -1  -1   6   19.90    1.10
  -1  -1   6   20.80    1.30
  -1  -1   6   20.60    1.20
  -1  -1   6   22.00    1.40
  -1  -1   6   19.40    1.30
   0  -1   6   67.49    2.80
   0  -1   6   64.69    2.70
   0  -1   6   62.69    3.00
  -1   1  -6   24.40    1.30
   1  -1   6   26.10    1.50
  -2   1  -6    0.30    0.50
  -2   1  -6    0.30    0.40
   2  -1   6    0.00    0.40
  -3   1  -6   48.60    2.20
  -3   1  -6   47.60    2.10
  -3   1  -6   46.30    2.10
   3  -1   6   44.70    2.20
   3  -1   6   46.40    2.10
  -4   1  -6   20.90    1.40
  -4   1  -6   19.70    1.40
   4  -1   6   19.60    1.30
   4  -1   6   19.60    1.40
  -5   1  -6   60.89    2.70
  -5   1  -6   60.69    2.80
  -5   1  -6   57.69    2.70
   5  -1   6   58.09    2.70
   5  -1   6   62.49    2.60
  -6   1  -6    1.10    0.60
  -6   1  -6    1.20    0.60
   6  -1   6    0.30    0.40
   6  -1   6    0.60    0.40
  -7   1  -6   15.10    1.20
   7  -1   6   15.10    1.10
   7  -1   6   14.50    1.20
   6   0  -6    5.00    0.70
  -6   0   6    3.40    0.40
  -6   0   6    4.80    0.50
   5   0  -6    1.50    0.60
  -5   0   6    1.60    0.50
  -5   0   6    0.60    0.40
  -5   0   6    0.80    0.50
  -5   0   6    1.00    0.50
  -5   0   6    1.40    0.60
   4   0  -6   19.40    1.50
  -4   0   6   17.10    1.20
  -4   0   6   18.20    1.20
  -4   0   6   17.70    1.30
  -4   0   6   19.70    1.20
  -4   0   6   16.60    1.40
   3   0  -6   61.49    2.70
  -3   0   6   57.99    2.40
  -3   0   6   60.49    2.70
  -3   0   6   57.09    2.70
  -3   0   6   58.49    2.50
  -3   0   6   58.19    2.50
  -3   0   6   60.99    2.50
   2   0  -6    5.10    0.70
  -2   0   6    4.00    0.70
  -2   0   6    4.00    0.50
  -2   0   6    6.90    0.90
  -2   0   6    4.40    0.70
  -2   0   6    5.00    0.60
  -2   0   6    4.90    0.60
  -2   0   6    5.00    0.70
  -1   0   6    2.80    0.60
  -1   0   6    3.30    0.60
  -1   0   6    2.00    0.60
  -1   0   6    3.40    0.50
  -1   0   6    3.30    0.70
   0   0  -6   49.40    2.30
   0   0   6   54.39    2.30
   0   0   6   51.89    2.20
  -1   0  -6   17.10    1.10
   1   0   6   17.90    1.00
   1   0   6   18.10    1.00
  -2   0  -6   48.00    2.80
  -2   0  -6   59.29    2.40
  -3   0  -6   18.70    1.20
  -3   0  -6   17.50    1.20
   3   0   6   15.20    1.20
   3   0   6   15.60    1.00
  -4   0  -6   64.39    2.70
  -4   0  -6   62.99    2.60
   4   0   6   61.79    2.60
   4   0   6   59.49    2.70
   4   0   6   57.69    2.50
  -5   0  -6  125.49    5.00
   5   0   6  133.89    5.00
   5   0   6  126.49    5.00
  -6   0  -6  135.59    5.40
  -6   0  -6  145.29    5.50
   6   0   6  139.89    5.40
   6   0   6  143.59    5.40
  -7   0  -6    5.00    0.70
   7   0   6    3.50    0.70
   7   0   6    4.10    0.60
  -8   0  -6    0.60    0.40
   8   0   6    0.80    0.40
   8   0   6    1.20    0.40
   5  -1  -6    4.50    0.80
  -5   1   6    2.50    0.50
  -5   1   6    3.60    0.70
  -5   1   6    2.20    0.60
   4  -1  -6    1.30    0.60
  -4   1   6    1.70    0.60
  -4   1   6    1.60    0.50
  -4   1   6    1.50    0.50
  -4   1   6    0.80    0.50
  -4   1   6    1.20    0.70
  -4   1   6    0.80    0.50
   3  -1  -6    2.10    0.60
  -3   1   6    2.40    0.50
  -3   1   6    2.90    0.70
  -3   1   6    2.30    0.50
  -3   1   6    2.30    0.60
  -3   1   6    3.30    0.80
  -3   1   6    2.80    0.60
   2  -1  -6    7.50    0.80
  -2   1   6    7.70    0.80
  -2   1   6    9.60    0.90
  -2   1   6   10.50    1.00
  -2   1   6   10.30    0.80
  -2   1   6    9.20    0.90
  -2   1   6    8.80    0.80
  -2   1   6   10.50    0.90
  -2   1   6    9.60    1.00
  -1   1   6   11.70    1.00
  -1   1   6   13.70    1.00
  -1   1   6   14.00    1.10
  -1   1   6   12.60    0.90
  -1   1   6   13.00    1.00
   0  -1  -6   36.90    1.80
   0   1   6   37.70    1.70
   0   1   6   36.40    1.80
  -1  -1  -6    4.30    0.70
   1   1   6    4.10    0.50
   1   1   6    3.40    0.50
  -2  -1  -6   16.30    1.10
  -2  -1  -6   18.10    1.30
   2   1   6   16.60    0.90
  -3  -1  -6   27.50    1.50
  -3  -1  -6   26.30    1.50
  -4  -1  -6    4.90    0.70
  -4  -1  -6    4.20    0.70
   4   1   6    5.00    0.60
   4   1   6    4.30    0.70
   4   1   6    6.20    0.70
  -5  -1  -6    8.50    1.00
  -5  -1  -6    7.50    0.90
  -5  -1  -6    9.20    0.90
   5   1   6    8.40    0.80
   5   1   6    6.10    0.70
  -6  -1  -6  350.36   12.90
  -6  -1  -6  337.27   12.80
  -6  -1  -6  354.06   12.90
   6   1   6  363.66   12.90
   6   1   6  375.16   12.90
   6   1   6  364.66   12.90
  -7  -1  -6   32.70    1.90
  -7  -1  -6   30.90    1.80
  -7  -1  -6   33.90    1.80
   7   1   6   36.90    1.70
   7   1   6   35.20    1.80
   8   1   6    2.30    0.50
   8   1   6    3.40    0.50
   5  -2  -6    0.40    0.60
  -5   2   6    0.40    0.50
  -5   2   6    0.50    0.70
  -5   2   6    0.30    0.40
   4  -2  -6    7.00    0.90
  -4   2   6    6.70    0.70
  -4   2   6    6.40    0.80
  -4   2   6    6.30    0.70
  -4   2   6    6.40    0.90
  -4   2   6    4.80    0.70
  -4   2   6    6.40    0.80
  -3   2   6   33.30    1.60
  -3   2   6   30.90    1.60
  -3   2   6   36.20    1.80
  -3   2   6   33.20    1.80
  -3   2   6   30.90    1.70
  -3   2   6   28.50    1.80
  -2   2   6   16.80    1.20
  -2   2   6   15.50    1.30
  -2   2   6   14.70    1.20
  -2   2   6   13.40    1.10
  -2   2   6   17.00    1.00
  -2   2   6   16.80    1.10
  -2   2   6   16.80    1.00
  -2   2   6   16.80    1.20
  -1   2   6    0.50    0.50
  -1   2   6    1.10    0.40
  -1   2   6    0.70    0.50
  -1   2   6    0.00    0.40
  -1   2   6    0.60    0.40
  -1   2   6    0.30    0.40
  -1   2   6    0.30    0.50
   0   2   6    3.80    0.50
   0   2   6    2.80    0.50
  -1  -2  -6   17.80    1.20
   1   2   6   20.40    1.10
   1   2   6   18.50    1.10
  -2  -2  -6    3.10    0.60
   2   2   6    3.50    0.50
   2   2   6    3.50    0.50
  -3  -2  -6   67.79    2.80
  -3  -2  -6   66.09    2.90
  -4  -2  -6   58.19    2.40
  -4  -2  -6   62.49    2.60
  -4  -2  -6   55.59    2.50
   4   2   6   55.09    2.40
   4   2   6   59.39    2.50
   4   2   6   55.59    2.50
  -5  -2  -6    3.20    0.80
  -5  -2  -6    1.80    0.60
  -5  -2  -6    2.70    0.60
   5   2   6    2.20    0.50
   5   2   6    2.50    0.60
  -6  -2  -6  109.49    4.40
  -6  -2  -6  106.29    4.30
  -6  -2  -6  106.29    4.40
   6   2   6  110.79    4.30
   6   2   6  111.59    4.30
   6   2   6  114.19    4.30
  -7  -2  -6   64.99    2.90
  -7  -2  -6   72.19    3.00
   7   2   6   72.89    2.90
   7   2   6   70.59    3.00
   7   2   6   66.49    3.10
  -8  -2  -6    9.50    0.90
   8   2   6   10.40    0.90
   8   2   6   10.60    0.90
   5  -3  -6    0.50    0.50
  -5   3   6    0.90    0.50
  -5   3   6    0.60    0.40
  -5   3   6    0.60    0.60
  -4   3   6    3.90    0.80
  -4   3   6    4.80    0.80
  -4   3   6    3.30    0.60
  -4   3   6    2.90    0.60
  -3   3   6   78.69    3.20
  -3   3   6   83.59    3.20
  -3   3   6   80.69    3.40
  -3   3   6   84.59    3.40
  -3   3   6   79.99    3.40
  -3   3   6   76.29    3.40
  -2   3   6    1.40    0.60
  -2   3   6    1.90    0.50
  -2   3   6    1.30    0.60
  -2   3   6    0.90    0.50
  -2   3   6    0.80    0.40
  -2   3   6    1.70    0.60
  -2   3   6    2.50    0.60
  -1   3   6    7.40    0.80
  -1   3   6    9.20    0.90
  -1   3   6    6.60    0.80
  -1   3   6    6.70    0.80
  -1   3   6    6.20    0.60
  -1   3   6    6.30    0.60
  -1   3   6    6.70    0.70
  -1   3   6    5.90    0.70
   0   3   6    2.70    0.60
   0   3   6    2.90    0.60
   0   3   6    2.50    0.50
  -1  -3  -6   60.79    2.70
   1   3   6   65.19    2.70
   1   3   6   63.99    2.60
  -2  -3  -6   -0.60    0.40
   2   3   6   -0.10    0.30
   2   3   6    0.30    0.40
  -3  -3  -6   49.20    2.20
  -3  -3  -6   52.39    2.30
   3   3   6   50.59    2.10
  -4  -3  -6   12.40    1.10
  -4  -3  -6   12.50    1.10
   4   3   6   12.80    1.00
   4   3   6   12.30    0.90
   4   3   6   13.20    1.00
  -5  -3  -6   67.89    2.90
  -5  -3  -6   72.19    3.00
   5   3   6   68.69    2.80
   5   3   6   67.29    2.90
  -6  -3  -6   13.60    1.20
  -6  -3  -6   14.80    1.20
   6   3   6   13.20    1.10
   6   3   6   12.30    1.10
  -7  -3  -6   32.00    1.80
  -7  -3  -6   33.60    1.70
   7   3   6   34.10    1.70
   7   3   6   29.10    1.60
   7   3   6   30.80    1.70
  -8  -3  -6    3.30    0.60
   8   3   6    4.00    0.50
   8   3   6    4.40    0.60
   5  -4  -6    2.00    0.60
  -5   4   6    1.30    0.50
  -5   4   6    1.60    0.40
  -5   4   6    0.50    0.60
  -4   4   6    9.50    0.80
  -4   4   6    8.40    0.90
  -4   4   6    9.20    0.90
  -4   4   6   10.30    1.00
  -3   4   6    4.70    0.60
  -3   4   6    3.90    0.70
  -3   4   6    3.60    0.80
  -3   4   6    4.60    0.80
  -3   4   6    3.90    0.80
  -3   4   6    3.60    0.60
  -2   4   6  112.29    4.40
  -2   4   6  114.89    4.20
  -2   4   6  116.89    4.40
  -2   4   6  107.49    4.40
  -2   4   6  109.89    4.40
  -2   4   6  104.89    4.20
  -1   4   6   23.10    1.30
  -1   4   6   22.70    1.40
  -1   4   6   22.40    1.40
  -1   4   6   22.10    1.30
  -1   4   6   21.40    1.30
  -1   4   6   23.10    1.20
  -1   4   6   23.30    1.20
  -1   4   6   20.30    1.40
   0   4   6   59.39    2.30
   0   4   6   58.19    2.50
   0   4   6   56.09    2.50
   0   4   6   53.69    2.40
   0   4   6   58.39    2.30
   0   4   6   54.29    2.40
   0   4   6   63.99    2.50
  -1  -4  -6  120.29    4.80
   1   4   6  124.09    4.70
   1   4   6  123.79    4.70
  -2  -4  -6   40.70    1.90
   2   4   6   38.60    1.80
   2   4   6   39.50    1.80
  -3  -4  -6   26.80    1.50
  -3  -4  -6   28.10    1.50
   3   4   6   25.70    1.40
   3   4   6   24.00    1.30
   3   4   6   24.90    1.30
   3   4   6   25.30    1.40
  -4  -4  -6    3.40    0.70
   4   4   6    3.20    0.50
   4   4   6    4.00    0.60
   4   4   6    3.50    0.60
   4   4   6    4.00    0.60
  -5  -4  -6   13.60    1.10
  -5  -4  -6   12.30    1.10
   5   4   6   13.70    1.00
   5   4   6   12.60    1.10
  -6  -4  -6  124.69    5.00
  -6  -4  -6  130.89    4.90
   6   4   6  122.89    4.90
   6   4   6  127.49    4.80
  -7  -4  -6    0.40    0.50
  -7  -4  -6    0.50    0.60
   7   4   6    1.00    0.50
   7   4   6    0.60    0.50
   7   4   6    0.80    0.50
  -8  -4  -6    1.40    0.50
   8   4   6    2.10    0.50
   8   4   6    1.90    0.50
  -5   5   6    2.70    0.50
  -5   5   6    3.50    0.60
  -5   5   6    3.20    0.40
  -4   5   6    0.30    0.40
  -4   5   6    0.10    0.60
  -4   5   6    0.00    0.50
  -3   5   6   41.70    2.10
  -3   5   6   43.40    2.20
  -3   5   6   43.30    1.90
  -3   5   6   41.20    2.10
  -2   5   6   38.30    1.70
  -2   5   6   33.10    1.80
  -2   5   6   34.20    1.90
  -2   5   6   36.00    1.80
  -2   5   6   35.20    1.90
  -2   5   6   33.00    1.70
  -1   5   6    0.40    0.50
  -1   5   6    0.30    0.50
  -1   5   6    0.30    0.60
  -1   5   6    0.40    0.50
  -1   5   6    0.20    0.50
  -1   5   6    1.10    0.50
  -1   5   6    0.30    0.40
  -1   5   6    0.20    0.50
   0   5   6    1.10    0.50
   0   5   6    1.80    0.60
   0   5   6    1.50    0.50
   0   5   6    1.50    0.50
   0   5   6    1.50    0.40
   0   5   6    1.70    0.60
   0   5   6    2.00    0.60
   0   5   6    0.90    0.50
  -1  -5  -6    9.30    1.00
   1   5   6   12.00    0.80
   1   5   6   11.80    1.00
   1   5   6   10.60    0.90
   1   5   6   11.00    0.80
   1   5   6   12.00    1.00
   1   5   6   12.00    1.00
   1   5   6   10.50    0.90
  -2  -5  -6    1.10    0.60
   2   5   6    0.50    0.40
   2   5   6    0.70    0.50
   2   5   6    0.80    0.40
   2   5   6    0.60    0.40
   2   5   6    0.10    0.40
   2   5   6    1.30    0.50
   2   5   6    0.80    0.40
   2   5   6    0.70    0.50
  -3  -5  -6   -0.30    0.50
  -3  -5  -6    1.00    0.80
   3   5   6   -0.30    0.40
   3   5   6    0.70    0.50
   3   5   6    0.30    0.50
   3   5   6    0.40    0.40
   3   5   6    0.40    0.40
   3   5   6    0.80    0.50
   3   5   6    0.00    0.40
   3   5   6    0.70    0.40
  -4  -5  -6   12.20    1.10
   4   5   6   13.00    1.10
   4   5   6   12.40    0.90
   4   5   6   13.90    1.00
   4   5   6   13.60    1.30
   4   5   6   13.00    0.90
   4   5   6   12.50    1.00
  -5  -5  -6   -0.50    0.50
  -5  -5  -6    0.00    0.60
   5   5   6   -0.20    0.40
   5   5   6   -0.30    0.50
   5   5   6    0.10    0.50
  -6  -5  -6  137.89    5.30
  -6  -5  -6  139.19    5.30
  -6  -5  -6  140.19    5.10
   6   5   6  133.29    5.20
   6   5   6  131.09    5.20
  -7  -5  -6   43.00    2.10
  -7  -5  -6   38.10    1.80
   7   5   6   39.60    1.90
   7   5   6   36.30    2.40
   7   5   6   44.50    2.00
  -8  -5  -6   -0.20    0.40
   8   5   6   -0.40    0.40
   8   5   6    0.20    0.30
  -4   6   6    0.00    0.40
  -4   6   6   -0.30    0.30
  -4   6   6    0.20    0.50
  -3   6   6  135.79    4.80
  -3   6   6  131.19    5.00
  -3   6   6  118.49    4.90
  -3   6   6  124.69    4.90
  -2   6   6   13.30    1.10
  -2   6   6   13.60    1.00
  -2   6   6   12.90    1.10
  -2   6   6   13.80    1.20
  -2   6   6   14.00    1.30
  -2   6   6   14.10    1.00
  -1   6   6    2.90    0.70
  -1   6   6    3.60    0.60
  -1   6   6    3.00    0.70
  -1   6   6    3.00    0.70
  -1   6   6    3.90    0.70
  -1   6   6    3.60    0.60
  -1   6   6    2.80    0.70
   0   6   6   10.00    0.90
   0   6   6   13.70    0.90
   0   6   6   11.40    0.90
   0   6   6    9.50    1.00
   0   6   6   10.40    1.00
   0   6   6    8.70    0.90
  -1  -6  -6   18.20    1.40
   1   6   6   20.30    1.30
   1   6   6   21.30    1.20
   1   6   6   22.80    1.30
   1   6   6   22.40    1.40
   1   6   6   20.70    1.10
   1   6   6   20.70    1.30
   1   6   6   18.10    1.40
  -2  -6  -6    0.40    0.50
   2   6   6    1.10    0.50
   2   6   6    1.10    0.60
   2   6   6    0.70    0.50
   2   6   6    0.60    0.40
   2   6   6    0.30    0.50
   2   6   6    1.00    0.50
   2   6   6    0.70    0.50
  -3  -6  -6    8.00    1.40
  -3  -6  -6    7.70    0.80
   3   6   6    6.20    0.60
   3   6   6    5.80    0.60
   3   6   6    7.00    0.80
   3   6   6    7.70    0.80
   3   6   6    7.10    0.70
   3   6   6    5.40    0.70
   3   6   6    7.60    0.80
   3   6   6    6.30    0.80
   4   6   6   24.00    1.40
   4   6   6   23.70    1.40
   4   6   6   23.90    1.50
   4   6   6   25.00    1.30
   4   6   6   25.10    1.30
   4   6   6   22.70    1.40
   4   6   6   22.80    1.30
  -5  -6  -6    3.60    0.80
   5   6   6    2.90    0.60
   5   6   6    2.70    0.60
   5   6   6    5.00    0.70
  -6  -6  -6   77.49    3.20
  -6  -6  -6   72.29    3.00
   6   6   6   68.99    3.00
   6   6   6   71.89    3.00
  -7  -6  -6   57.09    2.50
  -7  -6  -6   54.39    2.30
   7   6   6   50.89    2.30
   7   6   6   57.19    2.40
  -8  -6  -6    3.50    0.60
   8   6   6    4.30    0.50
  -3   7   6    4.20    0.70
  -3   7   6    6.30    0.70
  -3   7   6    6.30    0.80
  -2   7   6   78.69    3.10
  -2   7   6   76.49    3.20
  -1   7   6   85.89    3.60
  -1   7   6   88.79    3.60
  -1   7   6   82.79    3.40
  -1   7   6   87.89    3.40
   0   7   6   15.30    1.20
   0   7   6   15.70    1.10
   0   7   6   14.80    1.30
   0   7   6   14.80    1.20
   0   7   6   15.50    1.10
   0   7   6   13.20    1.20
   1   7   6   54.79    2.30
   1   7   6   53.99    2.40
   1   7   6   49.50    2.30
   1   7   6   53.09    2.30
   1   7   6   51.99    2.50
   1   7   6   54.59    2.50
   1   7   6   53.59    2.50
   2   7   6    0.30    0.60
   2   7   6    0.00    0.60
   2   7   6    0.20    0.50
   2   7   6    0.50    0.60
   2   7   6    0.00    0.40
   2   7   6    0.20    0.50
   2   7   6   -0.50    0.40
   3   7   6    1.70    0.50
   3   7   6    1.60    0.50
   3   7   6    1.50    0.70
   3   7   6    1.60    0.70
   3   7   6    2.80    0.70
   3   7   6    1.40    0.50
   3   7   6    1.30    0.60
   3   7   6    1.60    0.60
  -4  -7  -6    7.00    0.90
   4   7   6    7.00    0.70
   4   7   6    5.10    0.80
   4   7   6    7.20    0.90
   4   7   6    8.10    0.80
   4   7   6    5.70    0.70
   4   7   6    5.10    0.70
   4   7   6    4.70    0.70
  -5  -7  -6    1.50    0.70
   5   7   6    2.60    0.60
   5   7   6    0.90    0.50
   5   7   6    1.30    0.60
   5   7   6    1.20    0.50
   5   7   6    1.40    0.50
  -6  -7  -6    0.50    0.50
  -6  -7  -6    0.70    0.70
   6   7   6    1.10    0.50
   6   7   6    0.40    0.50
  -7  -7  -6    4.90    0.70
  -7  -7  -6    3.90    0.50
   7   7   6    4.50    0.60
   7   7   6    4.00    0.60
  -1   8   6   15.50    1.20
  -1   8   6   14.20    1.00
  -1   8   6   14.70    1.10
  -1   8   6   14.50    1.00
   0   8   6    2.30    0.70
   0   8   6    2.30    0.60
   0   8   6    1.60    0.60
   0   8   6    1.60    0.70
   0   8   6    1.40    0.50
   0   8   6    1.60    0.60
   1   8   6   16.40    1.20
   1   8   6   17.30    1.30
   1   8   6   18.20    1.20
   1   8   6   16.90    1.30
   1   8   6   19.40    1.40
   1   8   6   18.80    1.40
   1   8   6   17.80    1.20
   2   8   6   15.60    1.30
   2   8   6   15.10    1.20
   2   8   6   15.40    1.20
   2   8   6   15.10    1.30
   2   8   6   14.60    1.10
   2   8   6   16.20    1.10
   2   8   6   17.20    1.30
   3   8   6    0.70    0.60
   3   8   6    0.80    0.60
   3   8   6    0.50    0.60
   3   8   6   -0.10    0.50
   3   8   6    0.80    0.50
   3   8   6    1.30    0.60
   3   8   6    1.00    0.50
  -4  -8  -6    8.00    0.90
   4   8   6    6.80    0.80
   4   8   6    8.60    0.80
   4   8   6    8.90    1.00
   4   8   6    9.50    1.00
   4   8   6   10.60    0.90
   4   8   6    6.90    0.90
   4   8   6    6.80    0.80
  -5  -8  -6    3.40    0.70
   5   8   6    2.40    0.50
   5   8   6    2.20    0.60
   5   8   6    1.90    0.50
   5   8   6    3.00    0.70
   5   8   6    3.00    0.80
   5   8   6    3.10    0.70
  -6  -8  -6   63.19    2.60
  -6  -8  -6   58.89    2.70
   6   8   6   64.39    2.70
   6   8   6   62.19    2.60
  -7  -8  -6    0.90    0.40
  -7  -8  -6    0.30    0.50
   7   8   6    0.60    0.40
   7   8   6    0.40    0.40
   0   9   6    2.00    0.50
   0   9   6    2.20    0.70
   0   9   6    2.80    0.60
   0   9   6    2.10    0.60
   1   9   6   39.50    2.00
   1   9   6   34.20    1.90
   1   9   6   35.80    1.70
   1   9   6   35.00    1.90
   1   9   6   32.90    1.70
   1   9   6   36.20    1.90
   2   9   6    8.40    1.00
   2   9   6    7.70    0.70
   2   9   6    7.70    0.90
   2   9   6    9.90    1.10
   2   9   6    8.10    0.90
   2   9   6    7.20    0.80
   3   9   6    0.00    0.60
   3   9   6    1.50    0.70
   3   9   6    0.00    0.50
   3   9   6    0.80    0.50
   3   9   6    0.60    0.60
   3   9   6    0.20    0.50
   3   9   6    0.60    0.60
   4   9   6   18.30    1.40
   4   9   6   20.20    1.40
   4   9   6   17.70    1.30
   4   9   6   17.70    1.30
   4   9   6   19.20    1.40
   4   9   6   17.30    1.40
  -5  -9  -6    2.30    0.60
   5   9   6    2.30    0.70
   5   9   6    0.90    0.60
   5   9   6    1.90    0.60
   5   9   6    1.00    0.50
   5   9   6    2.00    0.60
  -6  -9  -6   59.99    2.40
   6   9   6   57.09    2.50
   6   9   6   56.29    2.40
   1  10   6   14.00    1.20
   1  10   6   15.60    1.20
   1  10   6   15.50    1.10
   1  10   6   14.50    1.30
   2  10   6   -0.30    0.60
   2  10   6   -1.10    0.40
   2  10   6    0.50    0.50
   2  10   6    0.30    0.60
   2  10   6   -0.30    0.40
   2  10   6    0.00    0.50
   3  10   6   10.90    1.00
   3  10   6   11.00    1.10
   3  10   6    8.80    1.00
   3  10   6   11.90    0.90
   3  10   6    7.90    0.90
   3  10   6    8.10    0.90
   3  10   6   13.50    1.00
  -4 -10  -6   36.30    1.70
   4  10   6   34.30    1.90
   4  10   6   35.90    1.70
   4  10   6   35.50    1.80
   4  10   6   34.70    1.80
   4  10   6   35.70    1.70
  -5 -10  -6    0.70    0.40
   5  10   6    0.50    0.50
   5  10   6    0.60    0.50
   5  10   6    0.50    0.40
   5  10   6    0.30    0.50
   5  10   6    0.80    0.50
   2  11   6    0.00    0.40
   2  11   6    0.90    0.40
   2  11   6    0.00    0.50
   2  11   6    0.30    0.40
   3  11   6    1.70    0.60
   3  11   6    3.60    0.50
   3  11   6    3.00    0.60
   3  11   6    1.60    0.50
  -1  -7   7   15.40    1.00
   0   7  -7    4.70    0.70
   0  -7   7    5.50    0.60
   0  -7   7    5.00    0.60
  -1   7  -7    0.40    0.50
   1  -7   7    0.70    0.40
   1  -7   7    0.50    0.50
   2   6  -7    5.10    0.70
  -2  -6   7    5.50    0.70
   1   6  -7    1.40    0.60
  -1  -6   7    1.50    0.60
  -1  -6   7    0.80    0.50
   0   6  -7    0.20    0.60
   0  -6   7    0.60    0.50
   0  -6   7    0.90    0.50
  -1   6  -7    0.60    0.60
   1  -6   7    0.70    0.50
   1  -6   7    0.80    0.50
   1  -6   7    0.60    0.40
  -2   6  -7    3.00    0.70
   2  -6   7    1.80    0.60
   2  -6   7    1.90    0.50
  -3   6  -7   12.10    1.10
   3  -6   7   11.70    1.00
   3  -6   7   12.10    1.00
   3   5  -7    0.00    0.50
  -3  -5   7    1.20    0.50
  -3  -5   7    0.40    0.40
  -3  -5   7    0.70    0.50
   2   5  -7    4.30    0.80
  -2  -5   7    4.00    0.70
  -2  -5   7    4.10    0.50
  -2  -5   7    4.50    0.70
   1   5  -7   50.29    2.50
  -1  -5   7   53.29    2.50
  -1  -5   7   53.89    2.50
   0   5  -7   -0.30    0.60
   0  -5   7    0.20    0.50
   0  -5   7   -0.10    0.50
  -1   5  -7    1.20    0.60
   1  -5   7    1.20    0.50
   1  -5   7    1.50    0.60
   1  -5   7    1.10    0.50
  -2   5  -7    9.10    1.00
   2  -5   7    7.40    0.80
   2  -5   7    6.90    0.90
  -3   5  -7   10.80    1.00
  -3   5  -7   11.30    1.10
   3  -5   7   13.60    1.10
   3  -5   7   13.20    1.20
  -4   5  -7   46.30    2.20
   4  -5   7   48.40    2.20
   4   4  -7   38.70    1.90
  -4  -4   7   38.60    1.70
   3   4  -7   15.90    1.40
  -3  -4   7   16.70    1.20
  -3  -4   7   17.80    1.10
  -3  -4   7   18.00    1.30
   2   4  -7    0.70    0.60
  -2  -4   7    0.60    0.40
  -2  -4   7    1.30    0.60
  -2  -4   7    0.60    0.60
   1   4  -7   14.30    1.30
  -1  -4   7   12.60    1.10
  -1  -4   7   14.50    1.30
  -1  -4   7   14.30    0.90
  -1  -4   7   14.60    1.30
   0   4  -7    2.20    0.60
   0  -4   7    1.40    0.70
   0  -4   7    1.10    0.60
  -1   4  -7   67.99    3.00
   1  -4   7   64.29    2.80
   1  -4   7   64.59    2.90
   1  -4   7   62.29    3.00
  -2   4  -7    0.80    0.60
  -2   4  -7    1.80    0.70
   2  -4   7    1.30    0.60
   2  -4   7    1.60    0.60
  -3   4  -7    9.90    1.00
  -3   4  -7    9.80    0.90
  -3   4  -7    8.30    0.90
   3  -4   7    9.60    1.00
   3  -4   7    7.80    0.90
  -4   4  -7   51.59    2.30
  -4   4  -7   47.10    2.40
   4  -4   7   46.70    2.30
   4  -4   7   51.89    2.40
  -5   4  -7   15.80    1.10
   5  -4   7   14.90    1.10
   5  -4   7   14.70    1.00
   4   3  -7   92.49    3.70
  -4  -3   7   85.99    3.60
  -4  -3   7   87.79    3.40
   3   3  -7    2.50    0.70
  -3  -3   7    1.90    0.60
  -3  -3   7    2.30    0.70
  -3  -3   7    2.20    0.50
   2   3  -7   19.20    1.40
  -2  -3   7   18.60    1.20
  -2  -3   7   21.70    1.40
  -2  -3   7   18.00    1.40
   1   3  -7    0.10    0.50
  -1  -3   7    0.50    0.60
  -1  -3   7    0.40    0.40
  -1  -3   7    0.50    0.60
  -1  -3   7    0.50    0.50
   0   3  -7   38.60    2.00
   0  -3   7   38.80    2.10
   0  -3   7   35.40    2.00
  -1   3  -7   15.50    1.30
  -1   3  -7   17.00    1.30
   1  -3   7   16.40    1.20
   1  -3   7   18.10    1.40
   1  -3   7   15.10    1.20
  -2   3  -7   -0.70    0.50
  -2   3  -7    0.30    0.60
   2  -3   7    0.10    0.50
   2  -3   7    0.60    0.50
   2  -3   7   -0.20    0.40
  -3   3  -7   27.90    1.70
  -3   3  -7   29.80    2.30
  -3   3  -7   29.50    1.70
   3  -3   7   27.90    1.60
   3  -3   7   27.40    1.70
  -4   3  -7    0.00    0.50
  -4   3  -7   -0.70    0.70
   4  -3   7   -0.80    0.50
   4  -3   7    0.20    0.50
  -5   3  -7   39.30    2.00
   5  -3   7   42.70    2.00
   5  -3   7   45.40    2.10
  -6   3  -7    1.10    0.50
   6  -3   7    1.50    0.40
   6  -3   7    0.40    0.40
   5   2  -7   -0.50    0.40
  -5  -2   7    0.00    0.30
  -5  -2   7   -0.30    0.30
   4   2  -7   54.89    2.60
  -4  -2   7   54.79    2.30
  -4  -2   7   54.99    2.50
  -4  -2   7   53.99    2.30
   3   2  -7    3.60    0.70
  -3  -2   7    4.20    0.70
  -3  -2   7    2.90    0.70
  -3  -2   7    3.20    0.60
   2   2  -7    0.40    0.50
  -2  -2   7    1.90    0.70
  -2  -2   7    1.40    0.50
  -2  -2   7    2.50    0.70
   1   2  -7    4.10    0.70
   1   2  -7    5.90    0.80
  -1  -2   7    5.50    0.80
  -1  -2   7    4.70    0.80
  -1  -2   7    5.00    0.60
  -1  -2   7    5.40    0.80
   0   2  -7   17.40    1.30
   0   2  -7   15.10    1.20
   0  -2   7   15.70    1.20
   0  -2   7   17.90    1.30
   0  -2   7   14.00    1.00
   0  -2   7   17.20    1.30
  -1   2  -7   36.80    1.90
  -1   2  -7   34.40    1.80
   1  -2   7   34.00    1.90
   1  -2   7   35.20    1.90
  -2   2  -7   35.70    1.90
  -2   2  -7   35.00    1.80
   2  -2   7   33.70    1.70
   2  -2   7   31.20    1.70
   2  -2   7   35.30    1.90
  -3   2  -7   32.50    1.90
   3  -2   7   39.80    1.90
   3  -2   7   37.60    2.00
  -4   2  -7   71.99    3.20
   4  -2   7   74.39    3.20
   4  -2   7   72.09    3.20
  -5   2  -7   28.90    1.70
   5  -2   7   29.90    1.60
   5  -2   7   29.90    1.70
  -6   2  -7   12.50    1.10
   6  -2   7   13.50    1.10
   6  -2   7   12.30    1.00
   5   1  -7   10.50    0.90
  -5  -1   7    8.50    0.70
  -5  -1   7    9.30    0.70
   4   1  -7    7.50    1.00
  -4  -1   7    5.20    0.60
  -4  -1   7    6.80    0.60
  -4  -1   7    4.90    0.80
   3   1  -7   59.49    2.90
  -3  -1   7   60.49    2.80
  -3  -1   7   61.99    2.50
  -3  -1   7   65.29    2.70
  -3  -1   7   65.59    2.90
   2   1  -7    1.10    0.60
  -2  -1   7    1.00    0.60
  -2  -1   7    1.20    0.70
  -2  -1   7    1.40    0.50
   1   1  -7    9.60    0.90
  -1  -1   7    8.70    0.90
  -1  -1   7   10.30    0.80
  -1  -1   7    8.60    0.90
   0   1  -7   21.60    1.40
   0   1  -7   20.40    1.30
   0  -1   7   21.40    1.20
   0  -1   7   20.90    1.40
   0  -1   7   22.20    1.40
   0  -1   7   23.40    1.40
   0  -1   7   22.50    1.30
  -1   1  -7   98.99    3.90
   1  -1   7   97.59    3.90
   1  -1   7   90.99    3.80
  -2   1  -7    7.50    0.90
  -2   1  -7    7.50    0.80
   2  -1   7    8.70    1.00
   2  -1   7    8.30    0.90
   2  -1   7    6.00    0.70
  -3   1  -7   -0.40    0.60
  -3   1  -7    0.10    0.50
   3  -1   7    0.00    0.50
   3  -1   7    0.00    0.50
  -4   1  -7   24.00    1.50
  -4   1  -7   26.00    1.60
   4  -1   7   21.40    1.40
   4  -1   7   23.30    1.50
   4  -1   7   23.10    1.40
  -5   1  -7    1.80    0.60
  -5   1  -7    2.90    0.70
   5  -1   7    2.00    0.50
   5  -1   7    2.30    0.60
  -6   1  -7   -0.90    0.70
  -6   1  -7   -0.10    0.50
   6  -1   7    0.20    0.50
   6  -1   7    0.30    0.40
  -7   1  -7   10.50    0.90
   7  -1   7   10.30    0.80
   7  -1   7    7.80    0.70
   5   0  -7   -0.10    0.50
  -5   0   7    0.40    0.40
  -5   0   7    0.10    0.30
   4   0  -7   58.89    2.70
  -4   0   7   57.19    2.40
  -4   0   7   55.29    2.30
  -4   0   7   54.89    2.60
  -4   0   7   56.09    2.50
   3   0  -7  114.99    4.60
  -3   0   7  113.49    4.60
  -3   0   7  122.89    4.60
  -3   0   7  111.09    4.30
  -3   0   7  110.19    4.40
   2   0  -7    0.60    0.50
  -2   0   7    0.40    0.40
  -2   0   7    0.20    0.60
  -2   0   7   -0.20    0.70
  -2   0   7   -0.60    0.50
  -2   0   7    0.30    0.50
   1   0  -7    0.20    0.60
   1   0  -7    0.00    0.40
  -1   0   7    0.40    0.40
  -1   0   7   -0.20    0.50
  -1   0   7    0.00    0.50
  -1   0   7    0.70    0.50
  -1   0   7    0.10    0.70
   0   0  -7   14.00    1.20
   0   0   7   14.10    1.10
   0   0   7   15.30    1.20
   0   0   7   15.10    1.10
   0   0   7   13.80    1.00
   0   0   7   14.40    0.90
  -1   0  -7   13.90    1.10
  -1   0  -7   13.90    1.20
   1   0   7   14.60    1.00
   1   0   7   15.40    1.20
   1   0   7   14.00    1.20
   1   0   7   15.60    1.00
  -2   0  -7    0.90    0.60
  -2   0  -7    0.60    0.50
   2   0   7    0.80    0.40
   2   0   7    0.60    0.50
   2   0   7    1.10    0.50
  -3   0  -7  106.49    4.30
  -3   0  -7  112.39    4.30
   3   0   7  104.49    4.40
   3   0   7  115.09    4.30
  -4   0  -7   -0.10    0.50
  -4   0  -7   -0.20    0.60
   4   0   7    0.10    0.50
   4   0   7   -0.50    0.50
   4   0   7   -0.10    0.40
  -5   0  -7   40.00    2.10
  -5   0  -7   40.50    2.10
   5   0   7   43.40    2.00
   5   0   7   44.50    2.10
  -6   0  -7   26.50    1.50
  -6   0  -7   23.40    1.50
   6   0   7   22.90    1.40
   6   0   7   23.30    1.40
  -7   0  -7   23.30    1.30
   7   0   7   20.60    1.20
   7   0   7   20.20    1.20
   5  -1  -7    0.80    0.50
  -5   1   7    0.30    0.40
  -5   1   7    0.30    0.30
  -5   1   7    1.10    0.60
   4  -1  -7   15.70    1.30
  -4   1   7   14.10    1.10
  -4   1   7   14.40    1.20
  -4   1   7   15.30    1.00
  -4   1   7   16.00    1.30
  -4   1   7   14.80    1.00
   3  -1  -7    0.80    0.50
  -3   1   7    1.20    0.50
  -3   1   7    0.30    0.70
  -3   1   7    1.10    0.50
  -3   1   7    0.20    0.60
  -3   1   7    0.60    0.50
  -3   1   7    0.50    0.40
   2  -1  -7    7.60    0.80
  -2   1   7    8.90    0.90
  -2   1   7   10.80    0.80
  -2   1   7   10.60    0.90
  -2   1   7   11.00    1.10
  -2   1   7   12.40    1.00
  -2   1   7    7.10    0.80
  -2   1   7   10.40    1.00
  -1   1   7   14.60    0.90
  -1   1   7   16.00    1.20
  -1   1   7   14.50    1.00
  -1   1   7   14.50    1.00
  -1   1   7   15.50    1.10
  -1   1   7   16.10    1.30
  -1   1   7   13.90    1.20
   0  -1  -7  214.28    8.00
   0   1   7  221.28    7.90
   0   1   7  214.28    8.00
   0   1   7  211.68    7.90
   0   1   7  221.38    7.80
   0   1   7  199.78    7.90
   0   1   7  221.78    8.00
  -1  -1  -7   16.80    1.30
  -1  -1  -7   16.00    1.20
   1   1   7   15.90    1.00
   1   1   7   16.50    0.90
   1   1   7   15.00    1.10
   1   1   7   15.20    1.20
   1   1   7   15.10    1.10
  -2  -1  -7   48.20    2.30
  -2  -1  -7   49.70    2.20
   2   1   7   48.70    2.30
   2   1   7   49.40    2.20
   2   1   7   46.70    2.10
  -3  -1  -7    2.70    0.60
  -3  -1  -7    3.30    0.70
   3   1   7    4.00    0.60
   3   1   7    3.10    0.70
  -4  -1  -7   45.70    2.20
  -4  -1  -7   46.20    2.20
   4   1   7   46.60    2.20
   4   1   7   47.00    2.10
   4   1   7   45.30    2.20
  -5  -1  -7    3.30    0.70
  -5  -1  -7    4.10    0.70
   5   1   7    4.70    0.70
   5   1   7    3.30    0.60
  -6  -1  -7   27.50    1.60
   6   1   7   28.80    1.60
   6   1   7   26.20    1.50
  -7  -1  -7    5.40    0.70
   7   1   7    7.00    0.70
   7   1   7    6.60    0.70
   5  -2  -7    0.70    0.50
  -5   2   7    1.70    0.60
  -5   2   7    1.00    0.40
  -5   2   7    0.40    0.30
   4  -2  -7    0.70    0.50
  -4   2   7    0.30    0.40
  -4   2   7    0.80    0.50
  -4   2   7    0.60    0.50
  -4   2   7    0.60    0.40
  -4   2   7    0.40    0.70
   3  -2  -7  130.39    5.10
  -3   2   7  135.79    5.20
  -3   2   7  129.39    5.20
  -3   2   7  126.19    5.10
  -3   2   7  132.89    5.10
  -3   2   7  129.39    4.90
  -3   2   7  134.09    5.00
  -2   2   7   11.40    1.10
  -2   2   7   11.20    0.90
  -2   2   7   13.80    1.10
  -2   2   7    7.90    0.70
  -2   2   7   10.90    1.00
  -2   2   7   10.30    1.00
  -2   2   7   10.40    1.10
  -1   2   7   35.70    1.90
  -1   2   7   34.00    1.90
  -1   2   7   33.90    1.70
  -1   2   7   35.30    1.80
  -1   2   7   36.50    1.70
  -1   2   7   35.20    1.60
  -1   2   7   38.10    1.90
   0  -2  -7  246.58    9.20
   0   2   7  243.28    9.00
   0   2   7  243.38    8.90
   0   2   7  239.88    9.00
   0   2   7  263.17    9.10
   0   2   7  253.37    9.10
   0   2   7  253.87    9.00
   0   2   7  245.88    8.80
   0   2   7  232.28    9.10
  -1  -2  -7   52.79    2.50
   1   2   7   55.39    2.30
   1   2   7   51.19    2.40
   1   2   7   56.59    2.40
   1   2   7   54.59    2.20
   1   2   7   59.99    2.40
   1   2   7   53.59    2.40
  -2  -2  -7   11.40    1.00
  -2  -2  -7   11.60    1.10
   2   2   7   11.00    1.00
   2   2   7   10.50    1.00
   2   2   7   11.30    1.30
   2   2   7   10.30    0.90
   2   2   7   11.40    0.90
   2   2   7   11.90    0.80
  -3  -2  -7   -0.20    0.60
  -3  -2  -7    0.10    0.50
   3   2   7    0.40    0.40
   3   2   7    0.40    0.40
   3   2   7    0.50    0.50
   3   2   7    0.70    0.50
  -4  -2  -7   35.80    1.80
  -4  -2  -7   37.20    1.90
  -4  -2  -7   36.70    1.80
   4   2   7   37.30    1.80
   4   2   7   35.30    1.70
   4   2   7   35.10    1.90
  -5  -2  -7    1.40    0.60
  -5  -2  -7    1.50    0.60
  -5  -2  -7    1.50    0.70
   5   2   7    1.60    0.50
   5   2   7    1.20    0.50
  -6  -2  -7   11.40    1.00
  -6  -2  -7   11.00    0.90
  -6  -2  -7    9.40    1.00
   6   2   7   10.20    0.90
   6   2   7    9.10    0.90
  -7  -2  -7    8.50    0.90
   7   2   7    9.40    0.80
   7   2   7    9.70    0.80
   8   2   7    1.80    0.40
  -5   3   7    1.50    0.40
  -5   3   7    0.60    0.60
  -5   3   7    1.50    0.40
  -4   3   7   25.90    1.30
  -4   3   7   25.80    1.60
  -4   3   7   21.90    1.40
  -4   3   7   24.20    1.50
  -3   3   7   85.99    3.70
  -3   3   7   86.69    3.70
  -3   3   7   95.29    3.60
  -3   3   7   94.59    3.60
  -3   3   7   94.89    3.80
  -3   3   7   89.49    3.80
  -2   3   7    4.50    0.60
  -2   3   7    5.00    0.80
  -2   3   7    3.00    0.70
  -2   3   7    4.10    0.80
  -2   3   7    4.00    0.80
  -2   3   7    3.60    0.60
  -1   3   7    3.50    0.70
  -1   3   7    3.10    0.60
  -1   3   7    4.10    0.70
  -1   3   7    4.10    0.70
  -1   3   7    3.00    0.60
  -1   3   7    3.90    0.60
  -1   3   7    3.70    0.60
   0  -3  -7    1.00    0.70
   0   3   7    1.90    0.50
   0   3   7    3.50    0.70
   0   3   7    1.40    0.50
   0   3   7    2.10    0.50
   0   3   7    2.70    0.50
   0   3   7    3.00    0.60
   0   3   7    2.80    0.60
   0   3   7    2.00    0.50
  -1  -3  -7   15.70    1.20
   1   3   7   13.70    0.90
   1   3   7   12.60    1.00
   1   3   7   14.20    1.00
   1   3   7   14.70    1.10
   1   3   7   14.00    1.10
   1   3   7   13.30    0.90
   1   3   7   12.80    1.10
  -2  -3  -7   31.60    1.60
  -2  -3  -7   31.90    1.80
   2   3   7   32.40    1.40
   2   3   7   29.50    1.40
   2   3   7   32.80    1.70
   2   3   7   30.20    1.60
   2   3   7   29.50    1.50
   2   3   7   30.60    1.60
   2   3   7   31.50    1.60
   2   3   7   30.60    1.50
  -3  -3  -7   57.09    2.50
  -3  -3  -7   62.69    2.70
   3   3   7   59.79    2.60
   3   3   7   57.09    2.50
   3   3   7   58.19    2.50
   3   3   7   59.19    2.50
  -4  -3  -7    1.00    0.60
  -4  -3  -7    0.30    0.50
  -4  -3  -7    0.20    0.60
   4   3   7    0.70    0.50
   4   3   7    0.90    0.40
   4   3   7    1.00    0.50
  -5  -3  -7   23.60    1.50
  -5  -3  -7   27.00    1.60
   5   3   7   25.20    1.30
   5   3   7   23.90    1.50
   5   3   7   20.60    1.40
  -6  -3  -7    9.70    1.00
  -6  -3  -7   12.00    1.10
   6   3   7    8.30    0.80
   6   3   7   12.00    1.10
  -7  -3  -7    3.40    0.70
   7   3   7    2.30    0.50
   7   3   7    3.30    0.60
  -8  -3  -7    0.50    0.40
   8   3   7    0.40    0.40
  -4   4   7   14.40    1.10
  -4   4   7   12.40    0.90
  -4   4   7   14.80    1.20
  -3   4   7    0.90    0.50
  -3   4   7    1.40    0.60
  -3   4   7    0.60    0.70
  -3   4   7    1.80    0.50
  -3   4   7    1.00    0.60
  -3   4   7    1.10    0.60
  -2   4   7   23.00    1.60
  -2   4   7   25.30    1.30
  -2   4   7   23.60    1.40
  -2   4   7   23.30    1.50
  -2   4   7   21.90    1.30
  -2   4   7   22.80    1.50
  -1   4   7    3.90    0.80
  -1   4   7    5.70    0.80
  -1   4   7    5.10    0.80
  -1   4   7    5.60    0.70
  -1   4   7    6.10    0.90
  -1   4   7    4.00    0.70
  -1   4   7    5.50    0.60
   0   4   7   50.39    2.30
   0   4   7   52.69    2.40
   0   4   7   51.99    2.30
   0   4   7   53.09    2.20
   0   4   7   50.59    2.30
   0   4   7   52.99    2.20
   0   4   7   54.39    2.40
   0   4   7   49.30    2.40
  -1  -4  -7   65.19    2.80
   1   4   7   57.09    2.60
   1   4   7   59.99    2.60
   1   4   7   57.19    2.70
   1   4   7   63.39    2.60
   1   4   7   59.79    2.60
   1   4   7   61.69    2.50
   1   4   7   58.19    2.60
   1   4   7   62.99    2.50
  -2  -4  -7    2.20    0.70
  -2  -4  -7    3.50    0.60
   2   4   7    2.20    0.60
   2   4   7    3.40    0.70
   2   4   7    2.50    0.50
   2   4   7    2.50    0.50
   2   4   7    2.50    0.50
   2   4   7    2.40    0.50
   2   4   7    3.20    0.50
   2   4   7    3.20    0.60
  -3  -4  -7   -0.40    0.60
   3   4   7    0.10    0.40
   3   4   7   -0.10    0.40
   3   4   7   -0.10    0.40
   3   4   7    0.30    0.40
   3   4   7    0.10    0.40
   3   4   7    0.40    0.50
   3   4   7   -0.50    0.50
  -4  -4  -7    0.40    0.70
   4   4   7    0.60    0.50
   4   4   7    0.30    0.50
   4   4   7    0.70    0.40
   4   4   7    0.80    0.40
  -5  -4  -7   36.20    2.00
  -5  -4  -7   39.10    2.00
   5   4   7   38.90    1.80
   5   4   7   38.20    1.90
   5   4   7   40.90    1.90
  -6  -4  -7   58.29    2.70
  -6  -4  -7   59.59    2.70
   6   4   7   60.79    2.60
   6   4   7   60.19    2.60
  -7  -4  -7   20.40    1.40
   7   4   7   22.50    1.30
   7   4   7   24.10    1.30
  -8  -4  -7    0.40    0.40
   8   4   7   -0.10    0.40
  -4   5   7    0.60    0.60
  -4   5   7    0.50    0.50
  -4   5   7    0.30    0.40
  -3   5   7   40.40    2.00
  -3   5   7   43.10    1.90
  -3   5   7   47.80    2.20
  -3   5   7   43.30    2.20
  -3   5   7   44.30    2.10
  -2   5   7   14.80    1.20
  -2   5   7   14.10    1.00
  -2   5   7   14.60    1.20
  -2   5   7   13.30    1.00
  -2   5   7   14.90    1.20
  -2   5   7   14.60    1.30
  -1   5   7   -0.20    0.40
  -1   5   7    0.90    0.50
  -1   5   7    0.40    0.50
  -1   5   7    0.50    0.40
  -1   5   7    1.20    0.70
  -1   5   7    0.50    0.50
   0  -5  -7  191.18    7.10
   0   5   7  182.68    6.90
   0   5   7  180.98    6.70
   0   5   7  176.18    6.90
   0   5   7  185.48    6.90
   0   5   7  177.58    6.70
   0   5   7  178.28    6.90
   0   5   7  192.38    6.90
  -1  -5  -7    3.20    0.80
   1   5   7    2.80    0.60
   1   5   7    2.90    0.60
   1   5   7    3.20    0.70
   1   5   7    3.00    0.50
   1   5   7    3.70    0.70
   1   5   7    4.10    0.80
   1   5   7    2.50    0.50
   1   5   7    2.60    0.60
  -2  -5  -7    5.50    0.80
   2   5   7    7.60    0.70
   2   5   7    7.70    0.90
   2   5   7    7.20    0.80
   2   5   7    8.40    0.80
   2   5   7    8.10    0.80
   2   5   7    7.20    0.90
   2   5   7    8.50    0.70
   2   5   7    6.10    0.80
  -3  -5  -7   18.00    1.40
   3   5   7   19.20    1.10
   3   5   7   19.50    1.10
   3   5   7   17.50    1.20
   3   5   7   19.50    1.30
   3   5   7   19.70    1.20
   3   5   7   20.50    1.20
   3   5   7   18.50    1.30
  -4  -5  -7   11.30    1.10
   4   5   7    9.30    0.90
   4   5   7   10.10    1.00
   4   5   7    7.60    0.80
   4   5   7    8.00    0.70
   4   5   7    8.60    0.70
  -5  -5  -7    6.80    0.90
  -5  -5  -7    7.00    0.90
   5   5   7    5.30    0.70
   5   5   7    8.20    0.80
   5   5   7    7.20    0.90
  -6  -5  -7   22.20    1.40
  -6  -5  -7   21.90    1.30
  -6  -5  -7   24.20    1.60
   6   5   7   23.00    1.30
   6   5   7   24.20    1.40
  -7  -5  -7   21.90    1.40
   7   5   7   19.80    1.20
   7   5   7   22.30    1.30
  -8  -5  -7    0.00    0.40
   8   5   7    0.10    0.30
  -3   6   7   41.30    2.00
  -3   6   7   39.90    1.80
  -3   6   7   39.00    1.90
  -2   6   7   11.90    1.00
  -2   6   7   13.10    1.10
  -2   6   7   13.90    1.20
  -2   6   7   12.70    1.10
  -2   6   7   15.30    1.00
  -1   6   7   38.30    1.90
  -1   6   7   39.70    2.00
  -1   6   7   37.90    1.80
  -1   6   7   36.90    1.90
  -1   6   7   39.00    1.80
  -1   6   7   36.80    2.00
   0  -6  -7   64.29    3.00
   0   6   7   65.39    2.90
   0   6   7   61.89    2.80
   0   6   7   66.29    2.70
   0   6   7   63.99    2.80
   0   6   7   61.29    2.60
  -1  -6  -7    1.40    0.70
   1   6   7    0.80    0.60
   1   6   7    1.50    0.60
   1   6   7    0.50    0.40
   1   6   7    1.30    0.70
   1   6   7    1.70    0.50
   1   6   7    0.90    0.60
  -2  -6  -7    3.20    0.70
   2   6   7    2.60    0.60
   2   6   7    3.30    0.60
   2   6   7    4.10    0.60
   2   6   7    2.60    0.70
   2   6   7    3.40    0.60
   2   6   7    2.40    0.60
   2   6   7    4.10    0.70
  -3  -6  -7   11.70    1.10
   3   6   7    9.10    0.90
   3   6   7   11.80    1.00
   3   6   7    8.40    0.90
   3   6   7   11.70    1.10
   3   6   7   13.60    0.90
   3   6   7   13.40    1.10
   3   6   7   11.50    0.90
  -4  -6  -7    4.10    0.70
   4   6   7    4.40    0.70
   4   6   7    5.10    0.60
   4   6   7    4.50    0.80
   4   6   7    4.50    0.70
   4   6   7    5.20    0.70
   4   6   7    5.40    0.70
   4   6   7    3.60    0.60
  -5  -6  -7    8.00    1.00
   5   6   7   10.00    0.90
   5   6   7    8.80    0.90
   5   6   7   10.80    0.90
   5   6   7   10.30    0.80
  -6  -6  -7    7.00    0.70
  -6  -6  -7    7.50    0.90
   6   6   7    4.40    0.60
   6   6   7    6.80    0.80
  -7  -6  -7    1.00    0.60
  -7  -6  -7    0.10    0.40
   7   6   7    0.90    0.40
   7   6   7    0.90    0.50
  -3   7   7    1.00    0.50
  -3   7   7    0.80    0.30
  -3   7   7    1.50    0.50
  -2   7   7    1.00    0.50
  -2   7   7    1.80    1.00
  -2   7   7    0.60    0.60
   1  -7  -7   19.60    1.50
  -1   7   7   20.50    1.40
  -1   7   7   21.90    1.30
  -1   7   7   23.80    1.40
  -1   7   7   22.60    1.30
   0  -7  -7    0.40    0.60
   0   7   7    0.00    0.50
   0   7   7    0.40    0.40
   0   7   7   -0.30    0.60
   0   7   7    0.30    0.60
   0   7   7    0.40    0.60
  -1  -7  -7   52.39    2.70
   1   7   7   56.89    2.50
   1   7   7   58.09    2.50
   1   7   7   59.79    2.60
   1   7   7   62.89    2.70
   1   7   7   57.89    2.60
   1   7   7   58.99    2.60
   2   7   7    1.60    0.50
   2   7   7    0.90    0.60
   2   7   7    1.40    0.70
   2   7   7    1.60    0.50
   2   7   7    0.90    0.50
   2   7   7    1.70    0.70
   2   7   7    1.80    0.70
   3   7   7   -0.60    0.60
   3   7   7    0.20    0.50
   3   7   7    0.00    0.50
   3   7   7   -0.30    0.50
   3   7   7    0.50    0.60
   3   7   7    0.10    0.60
   3   7   7   -0.40    0.40
   4   7   7   -0.30    0.60
   4   7   7    0.20    0.60
   4   7   7    0.10    0.40
   4   7   7   -0.30    0.50
   4   7   7    0.30    0.50
   4   7   7    0.10    0.40
   4   7   7   -0.20    0.50
  -5  -7  -7   40.90    2.10
   5   7   7   38.70    1.90
   5   7   7   37.30    1.90
   5   7   7   35.30    1.80
  -6  -7  -7    7.30    0.70
  -6  -7  -7    5.90    0.80
   6   7   7    7.30    0.70
   6   7   7   10.80    0.90
  -7  -7  -7    0.70    0.50
  -7  -7  -7   -0.20    0.40
   7   7   7    0.80    0.40
   7   7   7    0.50    0.40
  -2   8   7   19.60    1.20
  -2   8   7   17.20    1.00
  -1   8   7   20.80    1.10
  -1   8   7   19.30    1.10
  -1   8   7   19.80    1.30
  -1   8   7   18.00    1.30
   0   8   7    0.00    0.40
   0   8   7    0.80    0.60
   0   8   7    1.10    0.60
   0   8   7    0.20    0.60
   0   8   7    0.30    0.50
   1   8   7   56.79    2.40
   1   8   7   53.79    2.50
   1   8   7   57.49    2.60
   1   8   7   57.29    2.50
   1   8   7   52.59    2.30
   1   8   7   54.69    2.50
   2   8   7    3.00    0.60
   2   8   7    3.70    0.80
   2   8   7    2.70    0.70
   2   8   7    5.70    0.90
   2   8   7    3.40    0.70
   2   8   7    4.20    0.70
   2   8   7    5.30    0.70
   3   8   7    2.60    0.60
   3   8   7    1.80    0.70
   3   8   7    3.90    0.80
   3   8   7    1.60    0.60
   3   8   7    2.30    0.60
   3   8   7    2.20    0.60
   3   8   7    2.40    0.70
  -4  -8  -7    9.00    1.00
   4   8   7    6.80    0.70
   4   8   7    8.90    1.00
   4   8   7    7.70    0.90
   4   8   7    8.90    1.00
   4   8   7    5.70    0.80
   4   8   7    9.50    0.80
   4   8   7    7.80    0.80
  -5  -8  -7   28.90    1.70
   5   8   7   28.40    1.50
   5   8   7   29.50    1.60
   5   8   7   30.70    1.60
   5   8   7   27.00    1.60
   5   8   7   28.10    1.40
   5   8   7   28.10    1.60
  -6  -8  -7    1.00    0.50
  -6  -8  -7    0.40    0.60
   6   8   7    1.00    0.50
   6   8   7    0.80    0.40
  -7  -8  -7   15.40    0.90
  -7  -8  -7   15.50    1.00
   7   8   7   14.60    0.90
   7   8   7   16.70    1.00
   0   9   7   19.50    1.30
   0   9   7   20.70    1.20
   0   9   7   20.20    1.30
   0   9   7   18.30    1.10
   1   9   7    8.90    0.90
   1   9   7    6.80    0.70
   1   9   7    7.10    0.70
   1   9   7    7.60    0.90
   1   9   7    8.50    0.90
   1   9   7    8.60    1.00
   2   9   7   47.40    2.40
   2   9   7   52.19    2.40
   2   9   7   55.69    2.20
   2   9   7   49.10    2.40
   2   9   7   51.79    2.30
   2   9   7   49.00    2.30
   2   9   7   46.30    2.10
   3   9   7   16.30    1.20
   3   9   7   18.80    1.30
   3   9   7   17.60    1.40
   3   9   7   14.70    1.10
   3   9   7   16.60    1.30
   3   9   7   19.10    1.20
  -4  -9  -7    1.10    0.60
   4   9   7    0.60    0.60
   4   9   7    0.40    0.60
   4   9   7    0.70    0.50
   4   9   7    1.30    0.50
   4   9   7    1.40    0.50
   4   9   7    1.40    0.60
   4   9   7    0.60    0.60
  -5  -9  -7    0.00    0.50
  -5  -9  -7   -0.20    0.50
   5   9   7    0.80    0.50
   5   9   7    0.30    0.50
   5   9   7    0.30    0.50
   5   9   7    0.70    0.40
   5   9   7    0.70    0.50
  -6  -9  -7   -0.80    0.40
  -6  -9  -7   -0.20    0.40
   6   9   7    0.30    0.40
   6   9   7    0.80    0.50
   0  10   7   19.20    1.00
   1  10   7    4.90    0.50
   1  10   7    5.20    0.70
   1  10   7    7.10    1.30
   1  10   7    6.00    0.80
   1  10   7    5.10    0.60
   2  10   7   57.59    2.50
   2  10   7   63.79    2.60
   2  10   7   58.79    2.60
   2  10   7   62.89    2.40
   2  10   7   59.99    2.70
   2  10   7   59.79    2.50
   3  10   7   11.80    1.00
   3  10   7   12.00    1.00
   3  10   7   11.50    0.90
   3  10   7   11.60    1.10
   3  10   7   12.30    1.10
   3  10   7   12.10    1.10
   4  10   7    5.60    0.80
   4  10   7    6.40    0.70
   4  10   7    7.60    0.80
   4  10   7    6.60    0.80
   4  10   7    9.50    0.80
  -5 -10  -7   13.10    0.90
   5  10   7   13.80    0.80
   5  10   7   12.00    1.00
   5  10   7   12.10    0.90
   5  10   7   13.70    1.00
   5  10   7   12.30    0.90
   0   6  -8   24.10    1.40
   0  -6   8   25.70    1.30
   0  -6   8   25.60    1.40
  -1   6  -8    0.50    0.50
   1  -6   8    0.30    0.50
   2   5  -8    3.90    0.70
  -2  -5   8    4.00    0.60
  -2  -5   8    2.60    0.40
   1   5  -8   16.80    1.30
  -1  -5   8   16.30    1.20
  -1  -5   8   17.60    1.20
   0   5  -8   14.80    1.30
   0  -5   8   13.60    1.10
   0  -5   8   12.70    1.10
  -1   5  -8    5.70    0.80
   1  -5   8    5.70    0.80
   1  -5   8    4.40    0.60
  -2   5  -8    9.10    0.90
   2  -5   8    8.30    0.90
   2  -5   8    9.90    0.80
  -3   5  -8    3.20    0.60
   3  -5   8    4.20    0.70
   3  -5   8    3.30    0.50
   3   4  -8   17.00    1.20
  -3  -4   8   18.70    1.10
  -3  -4   8   16.80    1.00
   2   4  -8    0.90    0.60
  -2  -4   8    0.90    0.40
  -2  -4   8    1.00    0.50
  -2  -4   8    1.10    0.50
   1   4  -8   16.10    1.30
  -1  -4   8   18.00    1.30
  -1  -4   8   14.40    1.20
   0   4  -8  204.78    8.00
   0  -4   8  209.78    8.00
   0  -4   8  222.98    8.00
  -1   4  -8   -0.10    0.60
   1  -4   8    0.00    0.50
   1  -4   8    0.00    0.50
  -2   4  -8    5.90    0.80
   2  -4   8    7.00    0.80
   2  -4   8    5.80    0.80
  -3   4  -8   32.90    1.70
  -3   4  -8   31.00    1.80
   3  -4   8   34.00    1.90
   3  -4   8   34.80    1.70
  -4   4  -8    2.50    0.60
   4  -4   8    1.50    0.50
   4  -4   8    3.00    0.60
   3   3  -8   71.89    3.00
  -3  -3   8   60.29    2.80
  -3  -3   8   69.59    2.70
  -3  -3   8   69.69    2.80
   2   3  -8    3.50    0.70
  -2  -3   8    3.70    0.60
  -2  -3   8    2.60    0.60
  -2  -3   8    4.20    0.70
   1   3  -8   13.70    1.20
  -1  -3   8   12.10    0.90
  -1  -3   8   12.80    1.10
  -1  -3   8   13.30    1.20
   0   3  -8  114.89    4.60
   0  -3   8  115.79    4.60
   0  -3   8  115.39    4.70
  -1   3  -8   29.60    1.70
  -1   3  -8   31.00    1.80
   1  -3   8   31.80    1.80
   1  -3   8   30.70    1.70
  -2   3  -8   44.10    2.20
  -2   3  -8   43.70    2.20
   2  -3   8   44.70    2.10
   2  -3   8   46.20    2.30
   2  -3   8   43.90    2.10
  -3   3  -8   16.70    1.30
   3  -3   8   16.20    1.20
   3  -3   8   19.40    1.50
  -4   3  -8    0.70    0.50
   4  -3   8    0.80    0.50
   4  -3   8    0.80    0.50
  -5   3  -8    3.80    0.60
   5  -3   8    4.60    0.60
   5  -3   8    3.90    0.60
   4   2  -8    1.90    0.50
  -4  -2   8    2.00    0.40
   3   2  -8   19.40    1.40
  -3  -2   8   17.00    1.10
  -3  -2   8   16.60    1.20
  -3  -2   8   17.60    1.20
   2   2  -8   35.30    2.00
  -2  -2   8   36.10    1.90
  -2  -2   8   38.90    1.80
  -2  -2   8   33.90    1.90
   1   2  -8   90.59    3.80
   1   2  -8   87.29    3.70
  -1  -2   8   93.09    3.60
  -1  -2   8   89.89    3.80
  -1  -2   8   94.69    3.80
   0   2  -8    0.40    0.60
   0   2  -8    0.50    0.50
   0  -2   8    0.90    0.60
   0  -2   8   -0.30    0.50
  -1   2  -8   24.20    1.60
  -1   2  -8   21.40    1.50
   1  -2   8   24.70    1.60
   1  -2   8   21.40    1.50
  -2   2  -8   14.20    1.20
   2  -2   8   13.20    1.00
   2  -2   8   11.40    1.10
   2  -2   8   13.30    1.30
  -3   2  -8    2.00    0.70
   3  -2   8    2.20    0.60
   3  -2   8    2.20    0.70
  -4   2  -8    1.70    0.70
   4  -2   8    2.00    0.60
   4  -2   8    3.90    0.70
  -5   2  -8    6.80    0.80
   5  -2   8    7.20    0.80
   5  -2   8    5.50    0.60
  -6   2  -8    0.20    0.40
   6  -2   8    1.80    0.50
   6  -2   8    1.80    0.50
   4   1  -8    2.40    0.60
  -4  -1   8    2.50    0.90
  -4  -1   8    0.80    0.50
  -4  -1   8    1.00    0.40
   3   1  -8    3.70    0.70
  -3  -1   8    4.10    0.60
  -3  -1   8    2.70    0.50
  -3  -1   8    2.50    0.60
   2   1  -8    7.40    0.90
   2   1  -8    4.50    0.80
  -2  -1   8    7.00    0.90
  -2  -1   8    5.20    0.80
  -2  -1   8    5.30    0.70
   1   1  -8   29.10    1.70
   1   1  -8   27.20    1.70
  -1  -1   8   29.10    1.70
  -1  -1   8   28.60    1.70
  -1  -1   8   28.90    1.50
   0   1  -8  263.07    9.40
   0  -1   8  246.68    9.20
   0  -1   8  259.17    9.40
   0  -1   8  247.98    9.30
   0  -1   8  253.17    9.40
  -1   1  -8    0.20    0.60
   1  -1   8    0.80    0.60
   1  -1   8    0.70    0.60
  -2   1  -8    1.10    0.60
   2  -1   8    0.60    0.50
   2  -1   8    0.20    0.60
   2  -1   8    0.20    0.40
  -3   1  -8   75.29    3.30
   3  -1   8   80.19    3.30
   3  -1   8   80.09    3.50
  -4   1  -8    1.60    0.60
   4  -1   8    1.30    0.60
   4  -1   8    1.20    0.60
  -5   1  -8   26.80    1.60
   5  -1   8   24.90    1.40
   5  -1   8   27.10    1.60
  -6   1  -8    5.90    0.70
   6  -1   8    6.90    0.70
   6  -1   8    6.50    0.70
   4   0  -8    4.80    0.70
  -4   0   8    4.20    0.60
  -4   0   8    4.60    0.50
  -4   0   8    4.30    0.50
   3   0  -8   70.69    3.00
  -3   0   8   66.39    2.70
  -3   0   8   66.79    3.00
  -3   0   8   69.89    2.80
   2   0  -8   -0.30    0.50
  -2   0   8   -0.30    0.40
  -2   0   8   -0.20    0.50
  -2   0   8   -0.10    0.60
  -1   0   8    0.30    0.40
  -1   0   8    0.60    0.60
  -1   0   8   -0.30    0.50
   0   0  -8  336.27   12.00
   0   0   8  312.07   12.00
   0   0   8  325.37   12.00
   0   0   8  331.37   11.80
   0   0   8  340.07   11.90
  -1   0  -8   66.79    3.00
  -1   0  -8   67.89    3.10
   1   0   8   68.69    3.00
   1   0   8   73.69    3.10
  -2   0  -8   69.99    3.10
  -2   0  -8   71.19    3.00
   2   0   8   71.79    3.00
   2   0   8   71.39    3.00
   2   0   8   72.19    3.20
  -3   0  -8   28.40    1.70
  -3   0  -8   26.90    1.70
   3   0   8   28.50    1.70
   3   0   8   28.90    1.60
  -4   0  -8    2.90    0.70
  -4   0  -8    2.90    0.70
   4   0   8    2.40    0.70
   4   0   8    2.60    0.60
  -5   0  -8    1.10    0.60
  -5   0  -8    1.00    0.60
   5   0   8    1.70    0.60
   5   0   8    1.10    0.50
   5   0   8    2.00    0.50
  -6   0  -8    2.30    0.60
   6   0   8    3.50    0.60
   6   0   8    2.80    0.60
  -7   0  -8    0.20    0.40
   7   0   8    0.10    0.40
   7   0   8    0.40    0.40
   4  -1  -8    0.60    0.50
  -4   1   8    1.60    0.60
  -4   1   8    1.40    0.40
  -4   1   8    1.10    0.40
  -4   1   8    0.80    0.50
   3  -1  -8    3.00    0.70
  -3   1   8    2.20    0.50
  -3   1   8    2.10    0.70
  -3   1   8    4.80    0.90
  -3   1   8    2.90    0.60
   2  -1  -8    2.00    0.70
  -2   1   8    2.80    0.70
  -2   1   8    1.80    0.50
  -2   1   8    2.60    0.60
  -2   1   8    2.90    0.70
  -2   1   8    3.00    0.80
   1  -1  -8   32.10    2.00
  -1   1   8   35.00    1.60
  -1   1   8   35.90    1.90
  -1   1   8   36.00    2.10
  -1   1   8   35.90    1.70
  -1   1   8   40.40    2.00
   0  -1  -8   82.89    3.50
   0   1   8   78.39    3.40
   0   1   8   79.99    3.20
   0   1   8   77.99    3.40
   0   1   8   81.29    3.40
  -1  -1  -8  120.39    4.80
  -1  -1  -8  130.69    4.90
   1   1   8  114.09    5.00
   1   1   8  122.49    4.80
   1   1   8  119.69    4.60
   1   1   8  119.69    4.70
   1   1   8  128.89    4.90
  -2  -1  -8    6.80    0.90
  -2  -1  -8    7.70    1.00
   2   1   8    5.90    0.60
   2   1   8    7.20    0.80
   2   1   8    7.80    1.00
  -3  -1  -8    9.70    0.90
  -3  -1  -8   10.30    1.00
   3   1   8   11.30    1.00
   3   1   8   10.90    1.00
   3   1   8   12.30    1.10
  -4  -1  -8    0.20    0.50
  -4  -1  -8    0.30    0.60
   4   1   8    1.30    0.60
   4   1   8    0.70    0.50
  -5  -1  -8    6.00    0.90
  -5  -1  -8    6.00    0.80
   5   1   8    6.60    0.70
   5   1   8    4.80    0.70
   5   1   8    7.40    0.90
  -6  -1  -8   -0.50    0.50
  -6  -1  -8    1.20    0.60
   6   1   8   -0.30    0.40
   6   1   8   -0.10    0.50
  -7  -1  -8    2.20    0.50
   7   1   8    3.00    0.50
   7   1   8    3.60    0.50
  -4   2   8    0.30    0.40
  -4   2   8    0.70    0.40
  -4   2   8   -0.10    0.60
  -4   2   8   -0.20    0.30
  -3   2   8    9.10    0.80
  -3   2   8    8.40    1.00
  -3   2   8    6.80    0.70
  -3   2   8    8.80    0.90
  -3   2   8    8.30    0.80
  -2   2   8   26.00    1.60
  -2   2   8   26.40    1.70
  -2   2   8   26.60    1.60
  -2   2   8   23.20    1.40
  -2   2   8   25.20    1.40
  -2   2   8   24.90    1.40
   1  -2  -8   10.70    1.20
  -1   2   8   12.00    0.90
  -1   2   8   13.30    1.00
  -1   2   8   14.80    1.30
  -1   2   8   14.30    1.20
  -1   2   8   13.60    1.20
  -1   2   8   11.80    1.00
   0  -2  -8   10.60    1.10
   0   2   8   10.60    1.00
   0   2   8   12.30    1.00
   0   2   8   12.30    0.80
   0   2   8   11.60    1.00
   0   2   8   12.70    1.00
   0   2   8   11.70    1.00
  -1  -2  -8  109.09    4.30
  -1  -2  -8  107.09    4.40
   1   2   8  105.89    4.10
   1   2   8  105.09    4.30
   1   2   8  105.89    4.00
   1   2   8  100.19    4.40
   1   2   8  113.69    4.30
   1   2   8  104.69    4.20
  -2  -2  -8   -0.10    0.50
  -2  -2  -8    0.50    0.60
   2   2   8    0.30    0.50
   2   2   8   -0.50    0.50
   2   2   8    0.50    0.40
   2   2   8    0.30    0.50
  -3  -2  -8   77.09    3.10
  -3  -2  -8   73.29    3.20
   3   2   8   72.39    3.00
   3   2   8   76.29    3.20
   3   2   8   70.69    3.10
  -4  -2  -8    3.10    0.80
  -4  -2  -8    0.80    0.50
   4   2   8    1.70    0.60
   4   2   8    1.30    0.60
  -5  -2  -8   58.49    2.80
  -5  -2  -8   59.99    2.70
   5   2   8   60.89    2.70
   5   2   8   61.79    2.60
   5   2   8   63.09    2.70
  -6  -2  -8   18.50    1.30
   6   2   8   20.20    1.30
   6   2   8   18.60    1.20
   7   2   8    6.60    0.70
   7   2   8    7.80    0.70
  -4   3   8    0.80    0.60
  -4   3   8    0.80    0.50
  -4   3   8    1.00    0.40
  -4   3   8    0.90    0.40
  -3   3   8    9.30    0.80
  -3   3   8    8.60    0.90
  -3   3   8    9.80    0.80
  -3   3   8    9.10    1.00
  -3   3   8   10.60    1.00
  -2   3   8   14.00    1.10
  -2   3   8   15.10    1.00
  -2   3   8   12.00    1.00
  -2   3   8   13.00    1.20
  -2   3   8   13.30    1.20
  -2   3   8   13.90    1.20
   1  -3  -8    1.70    0.80
  -1   3   8    2.70    0.70
  -1   3   8    2.20    0.60
  -1   3   8    3.70    0.70
  -1   3   8    2.50    0.60
  -1   3   8    2.70    0.80
  -1   3   8    2.80    0.50
   0  -3  -8   94.49    4.10
   0   3   8   97.19    3.70
   0   3   8   92.79    4.00
   0   3   8   93.89    3.80
   0   3   8   91.79    3.70
   0   3   8   94.29    3.80
   0   3   8   98.09    3.90
   0   3   8   92.19    3.80
  -1  -3  -8    0.30    0.70
   1   3   8   -0.30    0.50
   1   3   8    0.50    0.50
   1   3   8    1.40    0.60
   1   3   8    0.30    0.40
   1   3   8    0.60    0.50
   1   3   8    0.70    0.50
  -2  -3  -8   27.30    1.60
  -2  -3  -8   31.70    1.80
   2   3   8   27.60    1.50
   2   3   8   30.70    1.70
   2   3   8   28.70    1.50
   2   3   8   28.20    1.50
   2   3   8   26.90    1.40
   2   3   8   26.80    1.50
   2   3   8   27.10    1.50
  -3  -3  -8   50.49    2.40
  -3  -3  -8   52.79    2.30
   3   3   8   51.79    2.20
   3   3   8   48.30    2.20
   3   3   8   45.70    2.20
   3   3   8   48.10    2.40
  -4  -3  -8    0.70    0.50
  -4  -3  -8    0.20    0.70
  -4  -3  -8    0.90    0.60
   4   3   8    0.70    0.60
   4   3   8    0.50    0.50
  -5  -3  -8    3.40    0.70
  -5  -3  -8    4.30    0.70
  -5  -3  -8    2.40    0.70
   5   3   8    2.90    0.50
   5   3   8    3.60    0.70
   5   3   8    3.00    0.60
  -6  -3  -8   14.30    1.20
  -6  -3  -8   15.00    1.20
   6   3   8   15.50    1.20
   6   3   8   14.90    1.10
  -7  -3  -8    6.80    0.80
   7   3   8    7.30    0.70
   7   3   8    5.30    0.60
  -4   4   8    1.80    0.60
  -4   4   8    1.20    0.40
  -4   4   8    1.90    0.40
  -3   4   8   -0.20    0.40
  -3   4   8   -1.00    0.40
  -3   4   8    0.60    0.70
  -3   4   8    0.40    0.50
  -3   4   8    0.40    0.40
  -2   4   8    2.20    0.60
  -2   4   8    2.10    0.70
  -2   4   8    1.50    0.60
  -2   4   8    1.60    0.50
  -2   4   8    2.80    0.60
   1  -4  -8    7.10    1.10
  -1   4   8    8.50    0.80
  -1   4   8   11.90    1.00
  -1   4   8    7.90    0.90
  -1   4   8    6.40    0.70
  -1   4   8   10.90    1.10
  -1   4   8    9.10    1.00
   0  -4  -8  225.78    8.70
   0   4   8  226.08    8.40
   0   4   8  236.28    8.50
   0   4   8  230.38    8.50
   0   4   8  223.48    8.30
   0   4   8  232.98    8.60
   0   4   8  233.48    8.50
  -1  -4  -8  123.39    4.80
   1   4   8  113.49    4.50
   1   4   8  107.79    4.30
   1   4   8  110.99    4.50
   1   4   8  116.99    4.50
   1   4   8  114.19    4.40
   1   4   8  118.79    4.60
  -2  -4  -8   63.59    2.90
  -2  -4  -8   64.19    2.80
   2   4   8   61.19    2.80
   2   4   8   64.09    2.60
   2   4   8   62.79    2.70
   2   4   8   61.89    2.60
   2   4   8   64.69    2.70
   2   4   8   64.19    2.80
  -3  -4  -8    9.60    0.90
  -3  -4  -8   15.10    1.30
   3   4   8   11.60    0.80
   3   4   8   11.90    1.00
   3   4   8   12.10    1.00
   3   4   8   12.10    1.00
   3   4   8   10.00    1.00
   3   4   8   12.70    1.10
  -4  -4  -8    0.00    0.60
   4   4   8    0.40    0.50
   4   4   8    0.80    0.60
  -5  -4  -8    7.20    1.00
  -5  -4  -8    9.00    1.00
   5   4   8    8.60    0.80
   5   4   8    6.80    0.80
   5   4   8    9.30    0.90
  -6  -4  -8    1.30    0.60
  -6  -4  -8    1.00    0.60
   6   4   8    1.40    0.50
   6   4   8    2.30    0.60
  -7  -4  -8    1.20    0.60
   7   4   8    1.30    0.40
   7   4   8    0.60    0.40
  -3   5   8   -0.30    0.30
  -3   5   8    0.60    0.40
  -3   5   8    0.60    0.60
  -3   5   8   -0.20    0.40
  -2   5   8   31.80    1.50
  -2   5   8   31.60    1.70
  -2   5   8   30.90    1.80
  -2   5   8   31.30    1.50
  -2   5   8   29.90    1.70
   1  -5  -8    0.70    0.80
  -1   5   8    2.10    0.70
  -1   5   8    1.60    0.70
  -1   5   8    2.10    0.60
  -1   5   8    2.10    0.50
  -1   5   8    2.90    0.80
  -1   5   8    1.70    0.50
   0  -5  -8   49.30    2.50
   0   5   8   45.30    2.20
   0   5   8   44.70    2.30
   0   5   8   43.90    2.00
   0   5   8   45.70    2.30
   0   5   8   47.70    2.20
   0   5   8   45.20    2.00
  -1  -5  -8  165.38    6.40
   1   5   8  164.18    6.20
   1   5   8  158.98    6.00
   1   5   8  170.08    6.20
   1   5   8  161.98    6.20
   1   5   8  152.28    6.20
   1   5   8  162.18    6.00
  -2  -5  -8   11.00    1.10
   2   5   8   10.90    0.80
   2   5   8   12.60    1.10
   2   5   8   11.80    0.90
   2   5   8    8.80    0.90
   2   5   8   11.20    1.10
   2   5   8   10.10    1.00
  -3  -5  -8   52.89    2.60
   3   5   8   56.39    2.50
   3   5   8   51.39    2.40
   3   5   8   52.19    2.20
   3   5   8   52.69    2.40
   3   5   8   55.39    2.50
   3   5   8   53.99    2.30
   3   5   8   53.89    2.30
  -4  -5  -8   46.70    2.20
   4   5   8   39.80    2.00
   4   5   8   43.00    2.10
   4   5   8   45.20    2.00
   4   5   8   39.10    1.90
  -5  -5  -8    5.10    0.90
  -5  -5  -8    4.60    0.80
   5   5   8    6.90    0.80
   5   5   8    5.10    0.70
   5   5   8    3.70    0.60
  -6  -5  -8   26.10    1.60
  -6  -5  -8   28.10    1.70
   6   5   8   30.80    1.60
   6   5   8   26.70    1.50
  -7  -5  -8   23.10    1.40
   7   5   8   23.30    1.20
   7   5   8   25.50    1.30
  -3   6   8    4.30    0.50
  -3   6   8    3.40    0.60
  -3   6   8    4.90    0.70
  -2   6   8   15.20    1.30
  -2   6   8   15.90    1.00
  -2   6   8   16.50    1.00
  -2   6   8   14.20    1.10
  -2   6   8   15.30    1.20
   1  -6  -8    1.30    0.70
  -1   6   8   -0.20    0.60
  -1   6   8    0.20    0.60
  -1   6   8    0.40    0.50
  -1   6   8   -0.20    0.40
  -1   6   8   -0.30    0.50
  -1   6   8    0.10    0.50
   0  -6  -8    6.70    1.00
   0   6   8    8.30    1.00
   0   6   8    7.40    0.90
   0   6   8    5.50    0.60
   0   6   8    4.70    0.60
   0   6   8    9.60    1.00
   0   6   8    5.30    0.80
  -1  -6  -8  152.28    5.90
   1   6   8  146.09    5.70
   1   6   8  151.48    5.80
   1   6   8  153.08    5.70
   1   6   8  143.89    5.80
   1   6   8  151.18    5.60
   1   6   8  145.99    5.60
  -2  -6  -8    4.40    0.80
   2   6   8    5.30    0.80
   2   6   8    4.70    0.80
   2   6   8    3.20    0.70
   2   6   8    3.90    0.70
   2   6   8    5.40    0.70
   2   6   8    4.40    0.60
  -3  -6  -8   17.40    1.40
   3   6   8   18.00    1.30
   3   6   8   17.90    1.30
   3   6   8   18.50    1.10
   3   6   8   17.20    1.10
   3   6   8   15.90    1.20
   3   6   8   17.40    1.20
   3   6   8   16.20    1.40
  -4  -6  -8   27.10    1.60
   4   6   8   24.70    1.50
   4   6   8   26.50    1.50
   4   6   8   25.50    1.60
   4   6   8   24.20    1.30
   4   6   8   28.30    1.40
   4   6   8   24.30    1.50
  -5  -6  -8    0.30    0.70
  -5  -6  -8    0.90    0.60
   5   6   8   -0.10    0.50
   5   6   8    0.40    0.50
   5   6   8    0.30    0.40
  -6  -6  -8   37.30    1.70
  -6  -6  -8   39.90    2.00
   6   6   8   37.60    1.70
   6   6   8   37.90    1.90
  -7  -6  -8    9.40    0.90
   7   6   8   10.10    0.90
   7   6   8    9.90    0.80
  -2   7   8   -0.30    0.30
  -2   7   8   -0.30    0.40
  -2   7   8    0.70    0.40
  -1   7   8    8.20    0.80
  -1   7   8    9.60    0.80
  -1   7   8   10.30    1.00
  -1   7   8   10.00    1.00
   0  -7  -8   56.69    2.70
   0   7   8   55.99    2.50
   0   7   8   58.39    2.40
   0   7   8   55.49    2.60
   0   7   8   65.39    2.70
   0   7   8   56.99    2.60
  -1  -7  -8    4.60    0.80
   1   7   8    2.70    0.60
   1   7   8    3.80    0.80
   1   7   8    4.10    0.80
   1   7   8    3.50    0.70
   1   7   8    3.70    0.60
   1   7   8    3.30    0.70
  -2  -7  -8   91.89    3.80
   2   7   8   91.79    3.80
   2   7   8   95.29    3.80
   2   7   8   88.99    3.80
   2   7   8   86.69    3.70
   2   7   8   92.19    3.60
   2   7   8   95.29    3.60
   3   7   8   17.40    1.10
   3   7   8   17.20    1.30
   3   7   8   16.20    1.30
   3   7   8   17.10    1.40
   3   7   8   16.20    1.20
   3   7   8   17.10    1.30
   3   7   8   16.80    1.10
   4   7   8   21.70    1.30
   4   7   8   18.60    1.30
   4   7   8   19.60    1.30
   4   7   8   19.30    1.30
   4   7   8   21.50    1.50
   4   7   8   20.20    1.20
  -5  -7  -8   -0.20    0.60
   5   7   8    0.30    0.50
   5   7   8    0.40    0.40
   5   7   8    0.10    0.50
  -6  -7  -8    4.80    0.70
  -6  -7  -8    4.50    0.60
   6   7   8    3.60    0.60
   6   7   8    4.70    0.60
  -7  -7  -8    2.60    0.50
  -7  -7  -8    1.20    0.30
   7   7   8    1.70    0.40
   7   7   8    1.60    0.40
  -1   8   8    2.50    0.60
  -1   8   8    2.00    0.40
  -1   8   8    1.80    0.40
  -1   8   8    2.10    0.90
   0   8   8   45.20    1.90
   0   8   8   44.90    2.10
   0   8   8   46.80    2.10
   0   8   8   41.90    1.90
   0   8   8   43.60    2.10
   1   8   8   69.89    3.00
   1   8   8   68.59    3.00
   1   8   8   72.19    3.00
   1   8   8   70.09    2.90
   1   8   8   72.19    3.00
   1   8   8   72.39    2.90
   2   8   8   67.29    2.70
   2   8   8   64.49    2.90
   2   8   8   62.89    2.80
   2   8   8   67.89    2.90
   2   8   8   62.69    2.80
   2   8   8   64.69    2.70
   3   8   8    3.60    0.80
   3   8   8    1.30    0.50
   3   8   8    2.20    0.70
   3   8   8    3.90    0.70
   3   8   8    3.50    0.70
   3   8   8    1.70    0.50
   3   8   8    3.30    0.60
  -4  -8  -8   85.79    3.60
   4   8   8   87.29    3.40
   4   8   8   87.69    3.60
   4   8   8   82.99    3.50
   4   8   8   84.59    3.40
   4   8   8   88.39    3.50
   4   8   8   86.79    3.50
  -5  -8  -8    0.50    0.60
   5   8   8    0.10    0.60
   5   8   8    0.20    0.50
   5   8   8    0.80    0.40
   5   8   8    0.00    0.50
  -6  -8  -8    7.70    0.80
  -6  -8  -8    9.60    0.70
   6   8   8    9.70    0.80
   6   8   8    9.50    0.70
   0   9   8    1.50    0.40
   0   9   8    1.50    0.40
   0   9   8    1.30    0.50
   0   9   8    1.50    0.50
   1   9   8   66.69    2.90
   1   9   8   69.59    2.80
   1   9   8   69.69    2.90
   1   9   8   67.89    2.70
   1   9   8   67.69    2.70
   1   9   8   68.69    2.90
   2   9   8    2.20    0.50
   2   9   8    2.80    0.50
   2   9   8    1.50    0.60
   2   9   8    2.10    0.60
   2   9   8    1.40    0.60
   2   9   8    1.60    0.60
   3   9   8    0.20    0.50
   3   9   8    0.00    0.40
   3   9   8    0.40    0.50
   3   9   8   -0.40    0.50
   3   9   8    0.10    0.60
   3   9   8    0.10    0.50
  -4  -9  -8   39.40    1.90
   4   9   8   40.70    1.70
   4   9   8   36.70    1.80
   4   9   8   37.90    1.70
   4   9   8   40.40    1.90
   4   9   8   37.20    1.90
   4   9   8   36.80    1.90
  -5  -9  -8    9.10    0.80
  -5  -9  -8    9.20    0.80
   5   9   8   11.80    1.00
   5   9   8   10.20    0.90
   5   9   8   11.70    0.80
   5   9   8   11.10    1.00
   1  10   8    8.10    0.60
   1  10   8    7.30    0.70
   1  10   8    7.40    0.60
   2  10   8   31.00    1.40
   2  10   8   29.20    1.30
   2  10   8   30.60    1.60
   2  10   8   29.90    1.50
   3  10   8    2.00    0.50
   3  10   8    1.40    0.40
   3  10   8    1.50    0.50
   3  10   8    1.60    0.60
   3  10   8    1.30    0.50
   4  10   8   -0.20    0.30
   4  10   8    0.30    0.40
   4  10   8    0.10    0.50
   4  10   8    0.00    0.40
   1   4  -9   46.20    2.10
  -1  -4   9   45.00    2.10
   0   4  -9    2.50    0.60
   0  -4   9    2.80    0.60
   0  -4   9    2.30    0.60
  -1   4  -9   40.60    2.00
   1  -4   9   39.50    2.00
   1  -4   9   43.70    2.00
   2  -4   9    2.00    0.60
   3  -4   9    2.60    0.60
   3  -4   9    2.20    0.50
   2   3  -9    0.80    0.50
  -2  -3   9    0.70    0.30
  -2  -3   9    0.70    0.40
   1   3  -9   -0.30    0.50
  -1  -3   9    0.30    0.50
   0   3  -9    6.10    0.80
   0  -3   9    6.90    0.90
   0  -3   9    7.80    0.90
   1  -3   9   48.10    2.20
   1  -3   9   46.00    2.30
  -2   3  -9   47.30    2.20
   2  -3   9   52.19    2.40
   2  -3   9   48.00    2.30
  -3   3  -9   20.60    1.30
   3  -3   9   20.10    1.40
   3  -3   9   21.30    1.20
  -4   3  -9    0.30    0.40
   4  -3   9    0.20    0.50
   4  -3   9   -0.10    0.40
   3   2  -9    6.40    0.70
  -3  -2   9    5.70    0.50
   2   2  -9    5.00    0.70
  -2  -2   9    3.90    0.60
  -2  -2   9    3.20    0.60
  -2  -2   9    3.80    0.50
   1   2  -9   18.30    1.30
  -1  -2   9   20.70    1.40
  -1  -2   9   21.00    1.30
  -1  -2   9   20.20    1.10
   0   2  -9   48.50    2.30
   0  -2   9   50.59    2.40
   0  -2   9   50.19    2.40
  -1   2  -9    0.30    0.60
   1  -2   9    0.10    0.50
   1  -2   9   -0.30    0.50
  -2   2  -9   12.10    1.10
   2  -2   9   12.10    1.20
   2  -2   9   10.30    1.00
  -3   2  -9    5.80    0.80
   3  -2   9    7.20    0.90
   3  -2   9    7.60    0.80
  -4   2  -9    8.90    0.90
   4  -2   9    9.00    0.90
   4  -2   9    6.90    0.80
  -5   2  -9   16.20    1.10
   5  -2   9   14.20    1.00
   3   1  -9    3.50    0.60
  -3  -1   9    2.70    0.40
   2   1  -9   14.10    1.20
   2   1  -9   14.00    1.20
  -2  -1   9   13.60    1.10
  -2  -1   9   16.90    1.20
  -2  -1   9   16.30    1.00
   1   1  -9   13.20    1.10
  -1  -1   9   12.30    1.10
  -1  -1   9   12.50    1.00
  -1  -1   9   13.50    1.10
   0   1  -9   33.20    1.90
   0  -1   9   31.10    1.70
   0  -1   9   33.20    1.60
   0  -1   9   31.60    1.80
   0  -1   9   34.70    1.80
  -1   1  -9  100.59    4.10
   1  -1   9  101.49    4.10
   1  -1   9  100.99    4.20
  -2   1  -9    7.90    0.90
   2  -1   9    9.30    1.10
   2  -1   9    9.40    1.00
  -3   1  -9    0.50    0.60
   3  -1   9    0.50    0.50
   3  -1   9   -0.30    0.50
  -4   1  -9   36.90    1.90
   4  -1   9   36.10    1.90
   4  -1   9   38.00    2.00
  -5   1  -9    0.50    0.50
   5  -1   9    0.00    0.40
   5  -1   9    0.40    0.50
  -6   1  -9    1.90    0.40
   6  -1   9    2.10    0.50
   6  -1   9    2.30    0.40
   3   0  -9    7.30    0.80
  -3   0   9    7.40    0.70
  -3   0   9    6.20    0.70
   2   0  -9    0.60    0.60
  -2   0   9    1.20    0.50
  -2   0   9    1.00    0.60
  -2   0   9    0.60    0.50
   1   0  -9    3.60    0.80
  -1   0   9    6.00    0.80
  -1   0   9    6.50    0.70
  -1   0   9    5.90    0.80
   0   0  -9    2.80    0.70
   0   0   9    3.70    0.70
   0   0   9    4.30    0.60
   0   0   9    3.60    0.70
   0   0   9    4.00    0.70
  -1   0  -9  296.17   11.30
   1   0   9  314.97   11.30
   1   0   9  312.47   11.30
  -2   0  -9    1.00    0.60
   2   0   9    1.30    0.60
   2   0   9    1.50    0.60
  -3   0  -9   58.09    2.70
   3   0   9   59.19    2.80
   3   0   9   60.59    2.60
  -4   0  -9   20.90    1.40
  -4   0  -9   23.10    1.50
   4   0   9   22.70    1.40
   4   0   9   22.10    1.50
   5   0   9   44.80    2.10
   5   0   9   41.10    2.00
   6   0   9    4.90    0.50
   6   0   9    5.70    0.70
  -3   1   9    3.60    0.60
  -3   1   9    3.90    0.40
  -3   1   9    4.40    0.50
  -2   1   9   13.80    1.20
  -2   1   9   14.70    1.20
  -2   1   9   13.20    0.90
  -2   1   9   14.90    1.10
   1  -1  -9    7.00    0.90
  -1   1   9    5.10    0.80
  -1   1   9    7.30    0.90
  -1   1   9    6.60    0.70
   0  -1  -9    8.70    1.00
   0  -1  -9   12.00    1.10
   0   1   9   12.10    0.90
   0   1   9   11.40    1.10
   0   1   9   12.80    1.10
   0   1   9   12.20    1.10
  -1  -1  -9   85.89    3.70
  -1  -1  -9   86.79    3.70
   1   1   9   85.99    3.70
   1   1   9   91.79    3.40
   1   1   9   87.69    3.60
   1   1   9   90.89    3.70
  -2  -1  -9    9.40    1.00
  -2  -1  -9    9.00    1.00
   2   1   9   10.20    1.10
   2   1   9    9.00    0.90
  -3  -1  -9   32.80    1.80
  -3  -1  -9   32.90    1.80
   3   1   9   30.10    1.70
   3   1   9   32.50    1.70
   3   1   9   32.80    1.80
  -4  -1  -9   14.90    1.30
  -4  -1  -9   14.50    1.30
   4   1   9   13.50    1.10
   4   1   9   14.40    1.30
  -5  -1  -9   23.20    1.40
  -5  -1  -9   17.90    1.30
   5   1   9   18.00    1.30
   5   1   9   20.20    1.30
  -6  -1  -9    0.00    0.40
   6   1   9   -0.30    0.30
   6   1   9   -0.20    0.40
  -3   2   9    9.50    0.70
  -3   2   9    7.60    0.70
  -3   2   9    6.30    0.70
  -3   2   9    8.60    0.90
  -2   2   9   -0.10    0.40
  -2   2   9    0.40    0.40
  -2   2   9    0.50    0.40
  -2   2   9    0.60    0.50
  -2   2   9   -0.10    0.50
   1  -2  -9   23.70    1.60
  -1   2   9   23.10    1.20
  -1   2   9   24.30    1.50
  -1   2   9   24.70    1.40
  -1   2   9   25.50    1.50
  -1   2   9   24.10    1.50
   0  -2  -9   40.90    2.10
   0  -2  -9   40.70    2.20
   0   2   9   39.80    2.00
   0   2   9   41.30    2.00
   0   2   9   39.80    1.90
  -1  -2  -9   49.90    2.50
  -1  -2  -9   48.80    2.40
   1   2   9   49.60    2.20
   1   2   9   51.19    2.30
   1   2   9   52.39    2.40
   1   2   9   51.19    2.40
  -2  -2  -9   45.20    2.40
  -2  -2  -9   49.99    2.40
   2   2   9   47.20    2.30
   2   2   9   47.40    2.30
  -3  -2  -9   17.30    1.30
  -3  -2  -9   17.90    1.40
   3   2   9   16.70    1.40
   3   2   9   16.90    1.20
   3   2   9   17.40    1.20
  -4  -2  -9  160.28    6.50
  -4  -2  -9  177.68    6.50
   4   2   9  174.58    6.60
   4   2   9  169.08    6.40
  -5  -2  -9    0.90    0.60
  -5  -2  -9    0.70    0.60
   5   2   9    0.70    0.50
   5   2   9    1.00    0.50
  -6  -2  -9    0.30    0.40
   6   2   9    0.50    0.40
   6   2   9    0.10    0.50
   7   2   9    0.20    0.30
   7   2   9    0.10    0.30
  -3   3   9    0.70    0.40
  -3   3   9    0.50    0.40
  -3   3   9    1.30    0.70
  -3   3   9    0.20    0.30
  -2   3   9    0.10    0.40
  -2   3   9   -0.10    0.50
  -2   3   9    0.10    0.70
  -2   3   9    0.10    0.40
  -2   3   9    0.30    0.50
   1  -3  -9    6.70    1.00
  -1   3   9    6.80    0.70
  -1   3   9    6.20    0.80
  -1   3   9    5.80    0.60
  -1   3   9    6.00    0.80
  -1   3   9    8.10    0.90
   0  -3  -9    5.40    0.90
   0   3   9    4.60    0.60
   0   3   9    3.60    0.60
   0   3   9    5.10    0.80
   0   3   9    4.40    0.60
   0   3   9    4.60    0.70
  -1  -3  -9  264.07    9.60
  -1  -3  -9  258.17    9.70
   1   3   9  253.37    9.40
   1   3   9  254.57    9.40
   1   3   9  263.07    9.60
   1   3   9  255.17    9.50
   1   3   9  269.07    9.60
   1   3   9  260.37    9.50
  -2  -3  -9    9.10    1.10
  -2  -3  -9    8.00    0.90
   2   3   9    8.30    0.70
   2   3   9   12.70    1.10
   2   3   9    8.50    0.80
   2   3   9   13.20    1.20
   2   3   9    9.70    0.90
  -3  -3  -9   35.10    1.90
  -3  -3  -9   33.30    2.00
   3   3   9   37.40    1.80
   3   3   9   36.40    1.80
   3   3   9   36.80    2.00
   3   3   9   38.20    1.80
  -4  -3  -9   55.49    2.50
  -4  -3  -9   54.69    2.60
  -4  -3  -9   56.29    2.70
   4   3   9   58.19    2.50
   4   3   9   56.79    2.60
  -5  -3  -9   84.49    3.60
  -5  -3  -9   89.89    3.70
  -5  -3  -9   90.69    3.60
   5   3   9   89.09    3.70
   5   3   9   91.19    3.60
  -6  -3  -9    3.70    0.70
   6   3   9    4.00    0.50
   6   3   9    4.90    0.70
   7   3   9    9.40    0.70
   7   3   9    8.80    0.80
  -3   4   9    1.00    0.60
  -3   4   9    1.40    0.50
  -3   4   9    1.20    0.40
  -3   4   9    2.10    0.40
  -2   4   9    0.20    0.50
  -2   4   9    0.30    0.70
  -2   4   9    0.20    0.40
  -2   4   9   -0.30    0.40
  -2   4   9    0.30    0.50
   1  -4  -9    0.90    0.70
  -1   4   9    1.40    0.60
  -1   4   9    1.20    0.50
  -1   4   9    1.90    0.60
  -1   4   9    1.40    0.60
  -1   4   9    0.80    0.40
  -1   4   9    1.90    0.80
   0  -4  -9   17.40    1.60
   0   4   9   18.30    1.30
   0   4   9   20.60    1.40
   0   4   9   17.30    1.10
   0   4   9   20.40    1.30
   0   4   9   19.10    1.20
  -1  -4  -9  127.79    5.30
  -1  -4  -9  124.49    5.40
   1   4   9  136.19    5.10
   1   4   9  134.09    5.30
   1   4   9  138.19    5.30
   1   4   9  143.79    5.30
   1   4   9  142.59    5.10
   1   4   9  138.19    5.30
  -2  -4  -9   27.10    1.60
  -2  -4  -9   26.20    1.80
   2   4   9   27.50    1.40
   2   4   9   27.20    1.60
   2   4   9   26.50    1.40
   2   4   9   26.50    1.50
   2   4   9   29.40    1.60
   2   4   9   27.20    1.70
  -3  -4  -9   22.70    1.40
  -3  -4  -9   21.60    1.50
   3   4   9   22.90    1.30
   3   4   9   19.70    1.40
   3   4   9   20.00    1.40
   3   4   9   21.00    1.50
  -4  -4  -9    0.70    0.70
  -4  -4  -9    0.00    0.60
  -4  -4  -9    0.40    0.60
   4   4   9   -0.40    0.40
   4   4   9    0.00    0.50
  -5  -4  -9   72.79    3.20
  -5  -4  -9   78.89    3.20
   5   4   9   76.79    3.20
   5   4   9   75.79    3.20
  -6  -4  -9    0.60    0.50
   6   4   9    0.10    0.40
   6   4   9    0.60    0.40
  -7  -4  -9    3.30    0.60
   7   4   9    4.30    0.50
   7   4   9    3.20    0.50
  -2   5   9   -0.50    0.60
  -2   5   9    0.50    0.50
  -2   5   9    0.20    0.50
  -2   5   9    0.10    0.40
  -2   5   9    0.10    0.30
   1  -5  -9    6.10    1.50
  -1   5   9    5.40    0.60
  -1   5   9    7.80    0.80
  -1   5   9    7.80    0.70
  -1   5   9    6.40    0.80
  -1   5   9    7.50    0.90
   0  -5  -9    4.90    0.90
   0   5   9    5.40    0.80
   0   5   9    4.60    0.80
   0   5   9    6.40    0.70
   0   5   9    4.90    0.60
   0   5   9    5.60    0.80
  -1  -5  -9    5.90    0.80
  -1  -5  -9    5.60    0.90
   1   5   9    9.20    0.90
   1   5   9    6.60    0.70
   1   5   9    9.30    0.80
   1   5   9   10.10    1.00
   1   5   9    7.20    0.90
   1   5   9    8.40    0.90
  -2  -5  -9   62.19    2.80
  -2  -5  -9   63.79    3.00
   2   5   9   63.09    2.70
   2   5   9   72.29    2.90
   2   5   9   66.39    2.80
   2   5   9   62.39    2.90
   2   5   9   68.59    2.90
   2   5   9   64.59    2.70
  -3  -5  -9   -0.40    0.60
   3   5   9   -0.20    0.50
   3   5   9    0.20    0.40
   3   5   9    0.50    0.50
   3   5   9   -0.20    0.50
   3   5   9    0.00    0.40
   3   5   9   -0.20    0.50
   3   5   9   -0.10    0.40
  -4  -5  -9  106.09    4.50
   4   5   9  113.89    4.30
   4   5   9  103.89    4.50
   4   5   9  117.09    4.50
   4   5   9  115.19    4.40
  -5  -5  -9    0.00    0.60
  -5  -5  -9    0.30    0.60
   5   5   9    1.20    0.50
   5   5   9    0.90    0.50
  -6  -5  -9   -0.60    0.50
   6   5   9    0.20    0.40
   6   5   9    0.40    0.40
  -7  -5  -9    1.60    0.50
   7   5   9    1.30    0.40
   7   5   9    1.90    0.40
  -2   6   9    3.10    0.40
  -2   6   9    2.10    0.50
  -2   6   9    2.50    0.40
  -1   6   9   11.10    0.80
  -1   6   9    9.80    0.90
  -1   6   9    8.40    0.70
  -1   6   9    9.40    0.90
  -1   6   9   10.80    1.00
   0  -6  -9    8.80    1.00
   0   6   9    9.50    0.80
   0   6   9    6.70    0.80
   0   6   9   10.20    1.00
   0   6   9    7.20    0.70
   0   6   9   10.40    1.00
  -1  -6  -9   60.29    3.00
   1   6   9   60.99    2.80
   1   6   9   66.49    2.90
   1   6   9   64.49    2.80
   1   6   9   69.89    2.70
   1   6   9   67.59    2.90
   1   6   9   65.49    2.70
  -2  -6  -9   25.60    1.70
   2   6   9   27.40    1.60
   2   6   9   23.70    1.60
   2   6   9   26.70    1.40
   2   6   9   25.60    1.60
   2   6   9   25.70    1.50
   2   6   9   26.80    1.40
  -3  -6  -9    6.30    0.90
   3   6   9    5.30    0.70
   3   6   9    4.20    0.70
   3   6   9    5.10    0.80
   3   6   9    4.10    0.60
   3   6   9    7.10    0.90
   3   6   9    5.10    0.60
   3   6   9    4.60    0.80
  -4  -6  -9   61.19    2.80
   4   6   9   63.09    2.70
   4   6   9   64.49    2.60
   4   6   9   60.79    2.70
   4   6   9   65.09    2.80
  -5  -6  -9   28.20    1.60
   5   6   9   26.90    1.50
   5   6   9   27.40    1.60
  -6  -6  -9    2.80    0.60
   6   6   9    2.40    0.50
   6   6   9    2.90    0.50
  -1   7   9   -0.30    0.40
  -1   7   9    0.20    0.30
  -1   7   9    0.50    0.70
  -1   7   9    0.00    0.30
   0   7   9    5.20    0.70
   0   7   9    6.70    0.70
   0   7   9    5.20    0.60
   0   7   9    7.40    0.80
   0   7   9    9.30    0.90
   1   7   9   65.19    2.90
   1   7   9   67.39    2.90
   1   7   9   67.79    2.70
   1   7   9   65.49    2.80
   1   7   9   64.59    2.90
   1   7   9   69.49    2.70
  -2  -7  -9    3.80    0.80
   2   7   9    5.70    0.70
   2   7   9    5.80    0.80
   2   7   9    4.00    0.70
   2   7   9    3.70    0.60
   2   7   9    3.70    0.70
   2   7   9    4.20    0.80
  -3  -7  -9    3.00    0.90
   3   7   9    4.30    0.70
   3   7   9    3.70    0.70
   3   7   9    3.70    0.60
   3   7   9    5.00    0.60
   3   7   9    4.80    0.80
   3   7   9    3.70    0.60
   3   7   9    4.90    0.80
  -4  -7  -9    3.00    0.70
   4   7   9    2.50    0.50
   4   7   9    3.70    0.60
   4   7   9    3.10    0.60
   4   7   9    2.90    0.60
   4   7   9    2.70    0.70
   4   7   9    2.40    0.50
  -5  -7  -9   66.89    2.90
   5   7   9   65.79    2.80
   5   7   9   64.99    2.80
  -6  -7  -9    2.00    0.60
  -6  -7  -9    2.60    0.40
   6   7   9    3.10    0.60
   6   7   9    2.60    0.50
   0   8   9    2.50    0.40
   0   8   9    3.50    0.60
   0   8   9    5.40    1.10
   0   8   9    3.30    0.50
   0   8   9    3.50    0.60
   1   8   9   16.20    1.10
   1   8   9   17.30    1.00
   1   8   9   16.10    1.00
   1   8   9   16.00    1.10
   1   8   9   17.40    1.20
   1   8   9   17.60    1.20
   2   8   9   26.70    1.40
   2   8   9   27.70    1.60
   2   8   9   27.20    1.60
   2   8   9   28.20    1.40
   2   8   9   28.80    1.50
   2   8   9   25.40    1.50
   3   8   9    8.40    0.90
   3   8   9    8.50    0.70
   3   8   9    8.80    0.80
   3   8   9    9.40    0.90
   3   8   9    9.90    0.80
   3   8   9    7.60    0.80
  -4  -8  -9    9.40    0.90
   4   8   9   11.00    0.80
   4   8   9   12.20    1.00
   4   8   9   12.90    1.00
   4   8   9   11.50    0.90
   4   8   9   11.60    1.10
   4   8   9   11.30    1.00
  -5  -8  -9   53.09    2.30
   5   8   9   48.70    2.20
   5   8   9   51.29    2.30
   1   9   9    1.40    0.40
   1   9   9    1.40    0.40
   1   9   9    0.80    0.40
   1   9   9    0.80    0.50
   2   9   9   29.30    1.50
   2   9   9   26.50    1.30
   2   9   9   26.60    1.30
   2   9   9   26.50    1.50
  -3  -9  -9    7.60    0.80
   3   9   9    6.70    0.60
   3   9   9    8.90    0.90
   3   9   9    7.00    0.80
   3   9   9    7.20    0.60
  -4  -9  -9    3.20    0.60
   4   9   9    4.00    0.50
   4   9   9    2.80    0.60
   4   9   9    3.00    0.50
   4   9   9    2.60    0.50
   4   9   9    2.90    0.50
   0  -3  10    2.70    0.50
   0  -3  10    3.10    0.60
   1  -3  10   28.60    1.50
   1  -3  10   28.10    1.40
   2  -3  10    0.50    0.40
  -1  -2  10    0.70    0.40
   0  -2  10   28.00    1.50
   0  -2  10   28.10    1.50
  -1   2 -10   14.10    1.10
   1  -2  10   13.70    1.10
   1  -2  10   13.50    1.10
  -2   2 -10    6.30    0.70
   2  -2  10    9.10    0.80
   2  -2  10    6.70    0.80
  -3   2 -10   46.50    2.10
   3  -2  10   44.80    2.10
   3  -2  10   45.60    1.90
  -4   2 -10    0.90    0.40
   4  -2  10    1.50    0.50
   4  -2  10    2.40    0.40
   1   1 -10    0.50    0.50
  -1  -1  10    0.00    0.40
  -1  -1  10    0.00    0.30
   0   1 -10   23.60    1.40
   0  -1  10   23.00    1.40
   0  -1  10   21.50    1.50
  -1   1 -10    2.80    0.70
   1  -1  10    5.00    0.70
   1  -1  10    3.30    0.60
  -2   1 -10    5.80    0.80
   2  -1  10    5.40    0.70
   2  -1  10    5.00    0.70
  -3   1 -10    0.30    0.50
   3  -1  10    0.20    0.40
   3  -1  10   -0.10    0.50
  -4   1 -10   21.00    1.30
   4  -1  10   22.60    1.20
   4  -1  10   20.90    1.30
  -5   1 -10    0.30    0.40
   5  -1  10   -0.20    0.30
   5  -1  10    0.30    0.40
   2   0 -10    0.80    0.50
  -2   0  10    0.80    0.40
  -2   0  10    0.30    0.30
   1   0 -10   13.50    1.10
  -1   0  10   12.90    0.90
  -1   0  10   11.10    1.00
  -1   0  10   12.10    1.00
   0   0 -10    2.00    0.60
   0   0  10    2.60    0.60
   0   0  10    2.30    0.60
   0   0  10    2.40    0.50
  -1   0 -10    1.10    0.60
   1   0  10   -0.10    0.50
   1   0  10    0.40    0.50
  -2   0 -10    4.30    0.80
   2   0  10    5.00    0.70
   2   0  10    3.80    0.60
  -3   0 -10   32.60    1.80
   3   0  10   32.40    1.60
  -4   0 -10   19.20    1.30
   4   0  10   18.60    1.20
   4   0  10   18.80    1.30
  -5   0 -10    2.20    0.50
   5   0  10    3.20    0.50
   5   0  10    4.10    0.60
   2  -1 -10   -0.30    0.50
  -2   1  10   -0.10    0.40
  -2   1  10    0.20    0.30
   1  -1 -10    0.40    0.50
  -1   1  10    0.80    0.50
  -1   1  10    1.00    0.50
  -1   1  10    0.00    0.40
   0  -1 -10   33.40    1.90
   0   1  10   33.60    1.70
   0   1  10   33.80    1.80
   0   1  10   33.80    1.60
  -1  -1 -10    0.80    0.70
   1   1  10    0.70    0.50
   1   1  10    1.40    0.60
  -2  -1 -10    0.60    0.60
   2   1  10    1.40    0.60
   2   1  10    1.00    0.50
  -3  -1 -10   11.60    1.10
  -3  -1 -10   12.80    1.10
   3   1  10   11.40    0.90
   3   1  10    9.10    0.90
   3   1  10    7.90    0.90
  -4  -1 -10    0.80    0.50
   4   1  10    0.40    0.50
   4   1  10    0.00    0.40
  -5  -1 -10   -0.10    0.40
   5   1  10    0.20    0.40
   5   1  10    0.50    0.50
  -6  -1 -10   -0.20    0.30
   6   1  10    0.20    0.40
   2  -2 -10    0.90    0.50
  -2   2  10    2.20    0.60
  -2   2  10    1.10    0.40
  -2   2  10    1.80    0.40
   1  -2 -10    2.80    0.70
  -1   2  10    3.30    0.60
  -1   2  10    2.00    0.60
  -1   2  10    2.40    0.50
   0  -2 -10   30.60    1.80
   0   2  10   30.50    1.70
   0   2  10   28.70    1.50
   0   2  10   31.80    1.70
  -1  -2 -10    0.40    0.60
  -1  -2 -10    0.50    0.60
   1   2  10    0.60    0.50
   1   2  10    0.50    0.50
   1   2  10    0.50    0.50
   1   2  10    0.00    0.40
  -2  -2 -10    0.80    0.60
  -2  -2 -10   -0.10    0.60
   2   2  10   -0.50    0.50
   2   2  10    0.30    0.50
  -3  -2 -10   15.50    1.30
  -3  -2 -10   16.70    1.30
   3   2  10   16.80    1.30
   3   2  10   15.30    1.20
   3   2  10   16.80    1.10
  -4  -2 -10    3.50    0.70
   4   2  10    3.00    0.50
   4   2  10    4.70    0.80
  -5  -2 -10    5.90    0.70
   5   2  10    6.70    0.80
   5   2  10    6.50    0.70
  -6  -2 -10    0.20    0.40
   6   2  10    1.00    0.40
   2  -3 -10    2.20    0.60
  -2   3  10    1.60    0.40
  -2   3  10    1.60    0.40
  -2   3  10    1.20    0.50
   1  -3 -10    0.80    0.60
  -1   3  10    0.80    0.40
  -1   3  10    0.00    0.50
  -1   3  10    0.40    0.40
  -1   3  10    0.00    0.30
  -1   3  10    0.00    0.40
   0  -3 -10    1.60    0.60
   0   3  10    0.60    0.50
   0   3  10    1.00    0.60
   0   3  10    1.20    0.50
   0   3  10    1.10    0.50
   0   3  10    0.90    0.60
  -1  -3 -10   11.10    1.00
  -1  -3 -10   10.60    1.10
   1   3  10   11.60    1.10
   1   3  10   13.30    1.10
   1   3  10   12.90    0.90
   1   3  10   13.50    1.20
   1   3  10   11.30    1.00
  -2  -3 -10   18.40    1.40
  -2  -3 -10   15.00    1.40
   2   3  10   18.70    1.30
   2   3  10   16.70    1.30
  -3  -3 -10   33.90    1.90
  -3  -3 -10   34.90    1.80
   3   3  10   30.00    2.10
   3   3  10   32.40    1.70
   3   3  10   35.60    1.90
  -4  -3 -10    0.30    0.60
  -4  -3 -10   -0.30    0.50
   4   3  10    0.40    0.40
   4   3  10    0.10    0.50
  -5  -3 -10   14.00    1.10
   5   3  10   16.20    1.10
   5   3  10   14.30    1.00
   6   3  10    2.00    0.50
   2  -4 -10   14.10    1.00
  -2   4  10   14.10    0.80
  -2   4  10   13.50    0.80
  -2   4  10   13.60    0.90
   1  -4 -10   14.20    1.20
  -1   4  10   14.80    1.10
  -1   4  10   15.00    1.10
  -1   4  10   14.60    0.90
  -1   4  10   14.20    1.10
  -1   4  10   16.60    1.00
   0  -4 -10   27.80    1.60
   0   4  10   26.30    1.50
   0   4  10   26.20    1.50
   0   4  10   26.50    1.50
   0   4  10   27.50    1.40
   0   4  10   26.70    1.30
  -1  -4 -10   23.10    1.40
  -1  -4 -10   19.70    1.50
   1   4  10   18.30    1.10
   1   4  10   18.10    1.30
   1   4  10   18.60    1.30
   1   4  10   18.10    1.30
   1   4  10   20.60    1.20
   1   4  10   19.40    1.40
  -2  -4 -10    4.50    0.80
  -2  -4 -10    5.40    0.80
   2   4  10    6.20    0.80
   2   4  10    3.70    0.70
   2   4  10    5.70    0.80
   2   4  10    5.40    0.60
   2   4  10    7.40    0.90
  -3  -4 -10    2.50    0.70
  -3  -4 -10    2.90    0.60
   3   4  10    2.00    0.60
   3   4  10    3.10    0.60
  -4  -4 -10    0.00    0.50
  -4  -4 -10    0.90    0.70
  -4  -4 -10    0.70    0.60
   4   4  10    0.40    0.50
   4   4  10    1.00    0.40
  -5  -4 -10    6.40    0.80
   5   4  10    8.30    0.90
   5   4  10    7.60    0.80
  -6  -4 -10   11.30    1.00
   6   4  10   11.90    0.90
   1  -5 -10    2.70    0.60
  -1   5  10    2.30    0.50
  -1   5  10    3.20    0.50
  -1   5  10    3.20    0.50
  -1   5  10    2.60    0.60
  -1   5  10    3.10    0.60
   0  -5 -10   13.40    1.20
   0   5  10   12.60    0.90
   0   5  10   12.00    0.90
   0   5  10   12.30    1.00
   0   5  10   10.60    1.00
   0   5  10   13.20    1.10
  -1  -5 -10    0.60    0.50
   1   5  10    0.90    0.50
   1   5  10    0.50    0.50
   1   5  10   -0.40    0.40
   1   5  10    0.60    0.40
   1   5  10    0.40    0.50
   1   5  10    0.70    0.50
  -2  -5 -10    2.30    0.70
  -2  -5 -10    2.60    0.60
   2   5  10    2.30    0.60
   2   5  10    1.90    0.60
   2   5  10    1.40    0.40
   2   5  10    2.20    0.50
   2   5  10    1.40    0.50
   2   5  10    2.60    0.70
  -3  -5 -10   49.70    2.40
   3   5  10   51.59    2.40
   3   5  10   51.69    2.30
   3   5  10   48.50    2.30
  -4  -5 -10    0.20    0.60
   4   5  10    0.10    0.50
   4   5  10    0.50    0.40
   4   5  10    0.00    0.40
  -5  -5 -10    0.60    0.60
   5   5  10    0.60    0.40
   5   5  10    0.80    0.50
  -6  -5 -10    0.00    0.50
   6   5  10   -0.10    0.40
   6   5  10   -0.10    0.40
   1  -6 -10    0.20    0.50
  -1   6  10    0.80    0.30
  -1   6  10    1.10    0.50
  -1   6  10    0.40    0.30
   0  -6 -10    1.00    0.50
   0   6  10    0.30    0.40
   0   6  10    0.50    0.40
   0   6  10    0.00    0.40
   0   6  10    0.60    0.50
   0   6  10    0.60    0.50
   1   6  10    1.10    0.60
   1   6  10    1.30    0.50
   1   6  10    1.00    0.40
   1   6  10    0.80    0.50
   1   6  10    1.60    0.50
   1   6  10    0.50    0.50
   2   6  10    1.10    0.40
   2   6  10    1.30    0.60
   2   6  10    1.60    0.60
   2   6  10    1.40    0.60
   2   6  10    1.00    0.40
   2   6  10    1.40    0.50
   3   6  10   10.50    0.80
   3   6  10    6.80    0.80
   3   6  10    9.10    0.90
   3   6  10   10.80    0.90
   3   6  10   10.10    0.70
   3   6  10   10.60    1.00
  -4  -6 -10   -0.20    0.60
   4   6  10    0.20    0.50
   4   6  10    0.10    0.40
   4   6  10    0.20    0.40
   4   6  10    0.00    0.40
  -5  -6 -10   36.70    1.80
   5   6  10   39.10    1.80
   5   6  10   36.80    1.70
  -6  -6 -10   17.70    1.10
   6   6  10   16.20    1.00
   6   6  10   16.60    1.00
   0   7  10    0.80    0.50
   0   7  10    0.80    0.40
   0   7  10    0.90    0.30
   0   7  10    1.40    0.40
   1   7  10    3.20    0.60
   1   7  10    5.10    0.70
   1   7  10    4.20    0.60
   1   7  10    3.80    0.50
   1   7  10    4.90    0.60
   2   7  10    4.30    0.60
   2   7  10    4.70    0.60
   2   7  10    4.00    0.60
   2   7  10    4.00    0.70
   2   7  10    3.90    0.70
   2   7  10    5.30    0.60
   3   7  10    0.40    0.50
   3   7  10    0.80    0.40
   3   7  10    0.70    0.50
   3   7  10    0.40    0.40
   3   7  10    0.20    0.40
  -4  -7 -10    2.10    0.60
   4   7  10    2.20    0.50
   4   7  10    2.20    0.60
   4   7  10    2.10    0.50
   4   7  10    1.90    0.50
  -5  -7 -10   25.50    1.40
   5   7  10   24.60    1.30
   5   7  10   25.10    1.40
   1   8  10    0.10    0.40
   1   8  10    0.30    0.30
   1   8  10    0.50    0.40
   1   8  10    0.60    0.30
   2   8  10    0.20    0.40
   2   8  10    0.20    0.50
   2   8  10   -0.10    0.40
   2   8  10   -0.20    0.30
   2   8  10   -0.20    0.40
   3   8  10    4.80    0.50
   3   8  10    5.50    0.70
   3   8  10    7.10    0.70
   3   8  10    7.80    0.60
  -4  -8 -10    1.10    0.50
   4   8  10    0.70    0.50
   4   8  10    0.50    0.40
   4   8  10    0.60    0.40
   4   8  10    1.00    0.40
   4   8  10    0.60    0.30
  -1   1 -11    3.50    0.60
   1  -1  11    5.00    0.60
   1  -1  11    4.80    0.60
  -2   1 -11   -0.20    0.50
   2  -1  11    0.50    0.30
   2  -1  11    0.10    0.40
   0   0 -11    3.70    0.60
   0   0  11    3.90    0.60
  -1   0 -11    1.00    0.50
   1   0  11    0.50    0.40
   1   0  11    0.30    0.40
  -2   0 -11    4.50    0.70
   2   0  11    4.70    0.60
   2   0  11    4.10    0.60
  -3   0 -11    0.30    0.50
   3   0  11    0.00    0.40
  -4   0 -11    3.30    0.50
   4   0  11    3.20    0.40
   4   0  11    3.10    0.50
   0  -1 -11    9.00    0.80
   0   1  11    9.60    0.70
   0   1  11    7.00    0.70
  -1  -1 -11    1.20    0.60
   1   1  11    0.00    0.40
   1   1  11    0.80    0.40
  -2  -1 -11    1.20    0.60
   2   1  11    1.70    0.50
   2   1  11    0.70    0.50
   3   1  11   17.00    1.20
   3   1  11   14.70    1.10
  -4  -1 -11    0.20    0.40
   4   1  11    0.00    0.30
   4   1  11   -0.10    0.40
   0  -2 -11   29.30    1.60
   0   2  11   29.20    1.50
   0   2  11   26.90    1.30
  -1  -2 -11    0.10    0.50
   1   2  11    0.10    0.40
   1   2  11    0.20    0.40
  -2  -2 -11    5.00    0.70
   2   2  11    4.10    0.60
   2   2  11    5.00    0.70
  -3  -2 -11    9.90    0.90
   3   2  11    7.70    0.80
   3   2  11    8.10    0.80
  -4  -2 -11    0.50    0.50
   4   2  11    1.10    0.40
   4   2  11    0.60    0.50
  -5  -2 -11    0.20    0.30
   5   2  11    0.80    0.40
   5   2  11    0.20    0.30
   0  -3 -11   13.10    1.10
   0   3  11   15.10    0.90
   0   3  11   13.20    1.00
  -1  -3 -11   -0.50    0.50
   1   3  11   -0.30    0.30
   1   3  11    0.00    0.40
   1   3  11    0.00    0.40
   1   3  11   -0.30    0.40
  -2  -3 -11    8.30    0.90
   2   3  11   10.20    0.90
   2   3  11    7.10    0.80
  -3  -3 -11    4.50    0.60
   3   3  11    3.80    0.60
   3   3  11    5.00    0.60
  -4  -3 -11    0.00    0.40
   4   3  11    0.20    0.40
   4   3  11    0.20    0.30
  -5  -3 -11    1.00    0.40
   5   3  11    2.10    0.50
   5   3  11    1.50    0.40
   0  -4 -11    0.00    0.50
   0   4  11    0.20    0.30
   0   4  11    0.40    0.40
   0   4  11    0.60    0.40
  -1  -4 -11    0.20    0.50
   1   4  11    0.80    0.40
   1   4  11    0.60    0.40
   1   4  11    0.30    0.40
   1   4  11    0.60    0.50
  -2  -4 -11    4.40    0.70
   2   4  11    2.70    0.50
   2   4  11    3.90    0.60
   2   4  11    3.60    0.60
  -3  -4 -11   23.00    1.30
   3   4  11   23.50    1.30
   3   4  11   21.90    1.30
  -4  -4 -11    1.30    0.40
   4   4  11    2.40    0.40
   4   4  11    2.00    0.50
   5   4  11    6.50    0.70
   5   4  11    5.90    0.60
   0  -5 -11   13.50    1.00
   0   5  11   14.10    0.90
   0   5  11   14.40    0.80
   0   5  11   13.70    0.80
   0   5  11   13.80    0.90
  -1  -5 -11    2.30    0.50
   1   5  11    2.70    0.40
   1   5  11    2.30    0.50
   1   5  11    2.60    0.40
   1   5  11    3.50    0.60
  -2  -5 -11   11.80    0.90
   2   5  11   11.80    1.00
   2   5  11   13.70    1.00
   2   5  11   10.90    0.80
   2   5  11   11.40    1.00
   3   5  11    9.30    0.90
   3   5  11    9.70    0.90
  -4  -5 -11   -0.10    0.50
   4   5  11    0.30    0.40
   4   5  11    0.30    0.40
  -5  -5 -11   -0.60    0.40
   5   5  11   -0.20    0.30
   5   5  11   -0.20    0.40
   1   6  11    0.40    0.40
   1   6  11    0.90    0.40
   1   6  11    0.70    0.40
   1   6  11    0.40    0.30
   2   6  11    1.30    0.50
   2   6  11    1.30    0.50
   2   6  11    1.40    0.50
   2   6  11    0.90    0.30
   2   6  11    1.70    0.40
   3   6  11   10.90    0.90
   3   6  11   11.50    0.90
  -4  -6 -11    1.50    0.50
   4   6  11    1.20    0.40
   4   6  11    1.80    0.50
   0   0   0    0.00    0.00

_computing_structure_solution     'SHELXT 2014/5 (Sheldrick, 2014)'
;
_shelx_hkl_checksum              37694
loop_
_space_group_symop_operation_xyz
'x, y, z'
'-x, -y, -z'
loop_
_atom_site_label
_atom_site_type_symbol
_atom_site_fract_x
_atom_site_fract_y
_atom_site_fract_z
_atom_site_U_iso_or_equiv
_atom_site_adp_type
_atom_site_occupancy
_atom_site_site_symmetry_order
_atom_site_calc_flag
_atom_site_refinement_flags_posn
_atom_site_refinement_flags_adp
_atom_site_refinement_flags_occupancy
_atom_site_disorder_assembly
_atom_site_disorder_group
N1 N 0.00171(18) 0.17706(14) 1.00581(13) 0.0328(4) Uani 1 1 d . . . . .
N3 N 0.3581(2) 0.22337(16) 0.28384(14) 0.0422(5) Uani 1 1 d . . . . .
C3 C 0.2878(2) 0.13737(16) 0.87001(16) 0.0284(4) Uani 1 1 d . . . . .
N2 N 0.8083(2) 0.14274(17) 0.47807(16) 0.0443(5) Uani 1 1 d . . . . .
C5 C 0.3475(2) 0.11413(16) 0.63566(15) 0.0275(4) Uani 1 1 d . . . . .
C8 C 0.4128(2) 0.16303(16) 0.37876(16) 0.0305(4) Uani 1 1 d . . . . .
C4 C 0.4142(2) 0.11424(16) 0.74818(15) 0.0282(4) Uani 1 1 d . . . . .
H4 H 0.543491 0.098857 0.742369 0.034 Uiso 1 1 calc R U . . .
C6 C 0.4831(2) 0.08185(16) 0.50273(15) 0.0275(4) Uani 1 1 d . . . . .
C11 C 0.0956(2) 0.15929(16) 0.87517(16) 0.0294(4) Uani 1 1 d . . . . .
C9 C 0.1562(2) 0.13930(17) 0.64180(16) 0.0312(4) Uani 1 1 d . . . . .
H9 H 0.114430 0.140699 0.562450 0.037 Uiso 1 1 calc R U . . .
C7 C 0.6665(2) 0.11813(16) 0.48816(15) 0.0312(4) Uani 1 1 d . . . . .
C2 C 0.3029(2) 0.14509(18) 1.00322(16) 0.0344(5) Uani 1 1 d . . . . .
H2 H 0.414340 0.135221 1.031869 0.041 Uiso 1 1 calc R U . . .
C10 C 0.0291(2) 0.16190(17) 0.76121(17) 0.0321(5) Uani 1 1 d . . . . .
H10 H -0.099979 0.178736 0.765678 0.039 Uiso 1 1 calc R U . . .
C1 C 0.1295(2) 0.16900(18) 1.08067(16) 0.0348(5) Uani 1 1 d . . . . .
H1 H 0.099807 0.178896 1.173918 0.042 Uiso 1 1 calc R U . . .
C12 C -0.1977(2) 0.2075(2) 1.05368(18) 0.0404(5) Uani 1 1 d . . . . .
H12A H -0.229751 0.181637 1.156179 0.048 Uiso 1 1 calc R U . . .
H12B H -0.254663 0.148696 1.019246 0.048 Uiso 1 1 calc R U . . .
C13 C -0.2784(3) 0.3564(2) 1.0080(2) 0.0511(6) Uani 1 1 d . . . . .
H13 H -0.409237 0.380861 1.033109 0.061 Uiso 1 1 calc R U . . .
C14 C -0.1859(3) 0.4566(2) 0.9367(3) 0.0628(7) Uani 1 1 d . . . . .
H14A H -0.054805 0.437041 0.909304 0.075 Uiso 1 1 calc R U . . .
H14B H -0.249630 0.548968 0.912168 0.075 Uiso 1 1 calc R U . . .
C15 C 0.4663(11) 0.5143(4) 0.3881(5) 0.1175(15) Uani 1 1 d . . . A -1
C16 C 0.6559(16) 0.5106(7) 0.3306(9) 0.105(2) Uani 0.5 1 d . . P A -1
C17 C 0.7819(10) 0.4929(5) 0.4087(8) 0.168(2) Uani 1 1 d . . . A -1
C18 C 0.709(2) 0.4810(8) 0.5574(11) 0.119(3) Uani 0.5 1 d . . P A -1
C19 C 0.6046(16) 0.4984(6) 0.4635(15) 0.141(5) Uani 0.5 1 d . . P A -1
loop_
_atom_site_aniso_label
_atom_site_aniso_U_11
_atom_site_aniso_U_22
_atom_site_aniso_U_33
_atom_site_aniso_U_23
_atom_site_aniso_U_13
_atom_site_aniso_U_12
N1 0.0284(8) 0.0331(8) 0.0313(8) -0.0071(6) -0.0005(6) -0.0018(6)
N3 0.0500(10) 0.0427(9) 0.0332(8) -0.0051(7) -0.0152(7) -0.0032(7)
C3 0.0280(9) 0.0257(8) 0.0306(8) -0.0057(6) -0.0071(6) -0.0029(6)
N2 0.0324(9) 0.0472(10) 0.0574(10) -0.0163(7) -0.0077(7) -0.0117(7)
C5 0.0270(9) 0.0270(8) 0.0286(8) -0.0064(6) -0.0062(6) -0.0046(6)
C8 0.0296(9) 0.0326(9) 0.0299(9) -0.0087(7) -0.0051(7) -0.0063(7)
C4 0.0248(8) 0.0297(9) 0.0314(9) -0.0080(6) -0.0079(6) -0.0037(6)
C6 0.0250(8) 0.0310(9) 0.0277(8) -0.0060(6) -0.0068(6) -0.0064(6)
C11 0.0297(9) 0.0243(8) 0.0320(8) -0.0061(6) -0.0044(6) -0.0036(7)
C9 0.0272(9) 0.0360(9) 0.0333(9) -0.0086(7) -0.0108(6) -0.0051(7)
C7 0.0296(10) 0.0331(9) 0.0319(9) -0.0091(7) -0.0058(7) -0.0067(7)
C2 0.0338(9) 0.0401(10) 0.0314(9) -0.0103(7) -0.0097(7) -0.0046(7)
C10 0.0238(8) 0.0329(9) 0.0392(9) -0.0081(7) -0.0075(6) -0.0031(7)
C1 0.0380(10) 0.0357(9) 0.0294(8) -0.0095(7) -0.0067(7) -0.0023(7)
C12 0.0293(10) 0.0421(10) 0.0419(10) -0.0073(8) 0.0024(7) -0.0055(8)
C13 0.0321(10) 0.0431(11) 0.0676(13) -0.0109(9) -0.0017(9) 0.0011(8)
C14 0.0481(12) 0.0394(11) 0.0886(16) -0.0071(11) -0.0094(11) 0.0014(9)
C15 0.160(5) 0.062(2) 0.142(4) -0.020(2) -0.040(4) -0.038(3)
C16 0.153(8) 0.056(4) 0.105(6) 0.004(3) -0.024(6) -0.047(4)
C17 0.168(5) 0.071(3) 0.241(8) -0.022(4) 0.002(5) -0.049(3)
C18 0.185(11) 0.065(4) 0.123(7) -0.030(4) -0.041(8) -0.033(6)
C19 0.128(8) 0.042(3) 0.194(11) -0.018(5) 0.071(9) -0.040(4)
loop_
_geom_angle_atom_site_label_1
_geom_angle_atom_site_label_2
_geom_angle_atom_site_label_3
_geom_angle
_geom_angle_site_symmetry_1
_geom_angle_site_symmetry_3
_geom_angle_publ_flag
C11 N1 C1 108.19(13) . . ?
C11 N1 C12 125.85(14) . . ?
C1 N1 C12 125.86(14) . . ?
C4 C3 C11 119.12(14) . . ?
C4 C3 C2 134.67(15) . . ?
C11 C3 C2 106.21(14) . . ?
C4 C5 C9 121.34(14) . . ?
C4 C5 C6 119.84(13) . . ?
C9 C5 C6 118.80(13) . . ?
N3 C8 C6 178.96(16) . . ?
C5 C4 C3 118.69(14) . . ?
C5 C4 H4 120.7 . . ?
C3 C4 H4 120.7 . . ?
C8 C6 C7 107.62(12) . . ?
C8 C6 C5 110.80(12) . . ?
C7 C6 C5 111.28(11) . . ?
C8 C6 C6 106.87(13) . 2_656 ?
C7 C6 C6 107.23(15) . 2_656 ?
C5 C6 C6 112.76(14) . 2_656 ?
N1 C11 C10 130.18(15) . . ?
N1 C11 C3 107.75(14) . . ?
C10 C11 C3 122.07(15) . . ?
C10 C9 C5 120.90(14) . . ?
C10 C9 H9 119.5 . . ?
C5 C9 H9 119.5 . . ?
N2 C7 C6 178.42(18) . . ?
C1 C2 C3 107.29(14) . . ?
C1 C2 H2 126.4 . . ?
C3 C2 H2 126.4 . . ?
C9 C10 C11 117.86(14) . . ?
C9 C10 H10 121.1 . . ?
C11 C10 H10 121.1 . . ?
C2 C1 N1 110.54(14) . . ?
C2 C1 H1 124.7 . . ?
N1 C1 H1 124.7 . . ?
N1 C12 C13 113.76(14) . . ?
N1 C12 H12A 108.8 . . ?
C13 C12 H12A 108.8 . . ?
N1 C12 H12B 108.8 . . ?
C13 C12 H12B 108.8 . . ?
H12A C12 H12B 107.7 . . ?
C14 C13 C12 125.95(18) . . ?
C14 C13 H13 117.0 . . ?
C12 C13 H13 117.0 . . ?
C13 C14 H14A 120.0 . . ?
C13 C14 H14B 120.0 . . ?
H14A C14 H14B 120.0 . . ?
C16 C15 C19 54.4(6) . . ?
C19 C16 C17 58.9(8) . . ?
C19 C16 C15 64.0(8) . . ?
C17 C16 C15 122.8(8) . . ?
C19 C17 C16 57.8(9) . . ?
C19 C17 C18 58.7(10) . . ?
C16 C17 C18 116.5(8) . . ?
C19 C18 C17 55.2(6) . . ?
C17 C19 C16 63.4(7) . . ?
C17 C19 C18 66.1(10) . . ?
C16 C19 C18 129.5(12) . . ?
C17 C19 C15 125.0(13) . . ?
C16 C19 C15 61.6(11) . . ?
C18 C19 C15 168.9(9) . . ?
loop_
_geom_bond_atom_site_label_1
_geom_bond_atom_site_label_2
_geom_bond_distance
_geom_bond_site_symmetry_2
_geom_bond_publ_flag
N1 C11 1.375(2) . ?
N1 C1 1.376(2) . ?
N1 C12 1.451(2) . ?
N3 C8 1.135(2) . ?
C3 C4 1.394(2) . ?
C3 C11 1.420(2) . ?
C3 C2 1.430(2) . ?
N2 C7 1.136(2) . ?
C5 C4 1.386(2) . ?
C5 C9 1.409(2) . ?
C5 C6 1.533(2) . ?
C8 C6 1.483(2) . ?
C4 H4 0.9500 . ?
C6 C7 1.485(2) . ?
C6 C6 1.625(3) 2_656 ?
C11 C10 1.392(2) . ?
C9 C10 1.377(2) . ?
C9 H9 0.9500 . ?
C2 C1 1.349(2) . ?
C2 H2 0.9500 . ?
C10 H10 0.9500 . ?
C1 H1 0.9500 . ?
C12 C13 1.488(3) . ?
C12 H12A 0.9900 . ?
C12 H12B 0.9900 . ?
C13 C14 1.306(3) . ?
C13 H13 0.9500 . ?
C14 H14A 0.9500 . ?
C14 H14B 0.9500 . ?
C15 C16 1.400(12) . ?
C15 C19 1.430(16) . ?
C16 C19 1.294(16) . ?
C16 C17 1.367(10) . ?
C17 C19 1.309(11) . ?
C17 C18 1.459(11) . ?
C18 C19 1.36(2) . ?
