#------------------------------------------------------------------------------
#$Date: 2020-02-27 01:45:02 +0200 (Thu, 27 Feb 2020) $
#$Revision: 248459 $
#$URL: file:///home/coder/svn-repositories/cod/cif/4/13/42/4134253.cif $
#------------------------------------------------------------------------------
#
# This file is available in the Crystallography Open Database (COD),
# http://www.crystallography.net/
#
# All data on this site have been placed in the public domain by the
# contributors.
#
data_4134253
loop_
_publ_author_name
'Zhang, Han-Yue'
'Song, Xian-Jiang'
'Cheng, Hao'
'Zeng, Yu-Ling'
'Zhang, Yi'
'Li, Peng-Fei'
'Liao, Wei-Qiang'
'Xiong, Ren-Gen'
_publ_section_title
;
 A Three-Dimensional Lead Halide Perovskite-Related Ferroelectric.
;
_journal_name_full               'Journal of the American Chemical Society'
_journal_paper_doi               10.1021/jacs.0c00375
_journal_year                    2020
_chemical_formula_moiety         '2(Cl3 Pb), C5 H16 N2'
_chemical_formula_sum            'C5 H16 Cl6 N2 Pb2'
_chemical_formula_weight         731.30
_space_group_crystal_system      orthorhombic
_space_group_IT_number           28
_space_group_name_Hall           'P 2 -2a'
_space_group_name_H-M_alt        'P m a 2'
_atom_sites_solution_hydrogens   difmap
_audit_creation_method           SHELXL-2014/7
_cell_angle_alpha                90
_cell_angle_beta                 90
_cell_angle_gamma                90
_cell_formula_units_Z            2
_cell_length_a                   14.8771(9)
_cell_length_b                   9.4425(5)
_cell_length_c                   5.8322(4)
_cell_measurement_reflns_used    4468
_cell_measurement_temperature    293(2)
_cell_measurement_theta_max      30.8840
_cell_measurement_theta_min      2.5510
_cell_volume                     819.29(9)
_computing_cell_refinement       'CrysAlisPro 1.171.39.46 (Rigaku OD, 2018)'
_computing_data_collection       'CrysAlisPro 1.171.39.46 (Rigaku OD, 2018)'
_computing_data_reduction        'CrysAlisPro 1.171.39.46 (Rigaku OD, 2018)'
_computing_molecular_graphics    'DIAMOND (Brandenburg & Putz, 2005)'
_computing_publication_material  'SHELXL-2014/7 (Sheldrick, 2014)'
_computing_structure_refinement  'SHELXL-2014/7 (Sheldrick, 2014)'
_computing_structure_solution    'SHELXL-2014/7 (Sheldrick, 2014)'
_diffrn_ambient_temperature      293(2)
_diffrn_measured_fraction_theta_full 0.998
_diffrn_measured_fraction_theta_max 0.998
_diffrn_measurement_device_type  'XtaLAB Synergy R, DW system, HyPix'
_diffrn_measurement_method       'four-circle diffractometer'
_diffrn_radiation_type           MoK\a
_diffrn_radiation_wavelength     0.71073
_diffrn_reflns_av_R_equivalents  0.0908
_diffrn_reflns_av_unetI/netI     0.0539
_diffrn_reflns_Laue_measured_fraction_full 0.998
_diffrn_reflns_Laue_measured_fraction_max 0.998
_diffrn_reflns_limit_h_max       15
_diffrn_reflns_limit_h_min       -17
_diffrn_reflns_limit_k_max       11
_diffrn_reflns_limit_k_min       -10
_diffrn_reflns_limit_l_max       6
_diffrn_reflns_limit_l_min       -6
_diffrn_reflns_number            5551
_diffrn_reflns_point_group_measured_fraction_full 0.998
_diffrn_reflns_point_group_measured_fraction_max 0.998
_diffrn_reflns_theta_full        24.991
_diffrn_reflns_theta_max         24.991
_diffrn_reflns_theta_min         2.555
_diffrn_source                   'Rotating-anode X-ray tube'
_exptl_absorpt_coefficient_mu    21.476
_exptl_absorpt_correction_T_max  0.019
_exptl_absorpt_correction_T_min  0.017
_exptl_absorpt_correction_type   multi-scan
_exptl_absorpt_process_details   'CrysAlisPro 1.171.39.46 (Rigaku OD, 2018)'
_exptl_crystal_colour            Colourless
_exptl_crystal_density_diffrn    2.964
_exptl_crystal_description       Block
_exptl_crystal_F_000             652
_exptl_crystal_size_max          0.200
_exptl_crystal_size_mid          0.200
_exptl_crystal_size_min          0.190
_refine_diff_density_max         2.756
_refine_diff_density_min         -2.842
_refine_diff_density_rms         0.406
_refine_ls_abs_structure_details
;
 Refined as an inversion twin.
;
_refine_ls_abs_structure_Flack   0.50(10)
_refine_ls_extinction_coef       0.0077(12)
_refine_ls_extinction_expression Fc^*^=kFc[1+0.001xFc^2^\l^3^/sin(2\q)]^-1/4^
_refine_ls_extinction_method     'SHELXL-2014/7 (Sheldrick 2014'
_refine_ls_goodness_of_fit_ref   1.003
_refine_ls_hydrogen_treatment    constr
_refine_ls_matrix_type           full
_refine_ls_number_parameters     86
_refine_ls_number_reflns         1462
_refine_ls_number_restraints     61
_refine_ls_restrained_S_all      0.986
_refine_ls_R_factor_all          0.0585
_refine_ls_R_factor_gt           0.0545
_refine_ls_shift/su_max          0.000
_refine_ls_shift/su_mean         0.000
_refine_ls_structure_factor_coef Fsqd
_refine_ls_weighting_details
'w=1/[\s^2^(Fo^2^)+(0.0751P)^2^+50.8163P] where P=(Fo^2^+2Fc^2^)/3'
_refine_ls_weighting_scheme      calc
_refine_ls_wR_factor_gt          0.1520
_refine_ls_wR_factor_ref         0.1569
_reflns_Friedel_coverage         0.807
_reflns_Friedel_fraction_full    0.999
_reflns_Friedel_fraction_max     0.999
_reflns_number_gt                1330
_reflns_number_total             1462
_reflns_threshold_expression     'I > 2\s(I)'
_cod_data_source_file            ja0c00375_si_002.cif
_cod_data_source_block           PMA2
_cod_database_code               4134253
_shelx_shelxl_version_number     2014/7
_shelx_space_group_comment
;
The symmetry employed for this shelxl refinement is uniquely defined
by the following loop, which should always be used as a source of
symmetry information in preference to the above space-group names.
They are only intended as comments.
;
_shelx_estimated_absorpt_t_min   0.099
_shelx_estimated_absorpt_t_max   0.106
_shelx_res_file
;

    PMA2.res created by SHELXL-2014/7


TITL PMA2 in Pma2
CELL 0.71073  14.8771   9.4425   5.8322  90.000  90.000  90.000
ZERR    2.00   0.0009   0.0005   0.0004   0.000   0.000   0.000
LATT -1
SYMM -X, -Y, Z
SYMM 0.5+X, -Y, Z
SYMM 0.5-X, Y, Z
SFAC C  H  N  Cl Pb
UNIT 10 32 4 12 4
OMIT 0   2  -5
OMIT 0   1   4
OMIT  0   0  -6
OMIT 5   1   6
OMIT   0.00  50.00
L.S. 25
ACTA
BOND
FMAP 2
PLAN 5
DFIX 1.50 0.02 N1 C1 C1 C2 C2 N2 N2 C3 N2 C4
DFIX 2.45 0.02 C3 C4
DELU 0.02 N2 C2 C3 C4
SIMU 0.02 N2 C2 C3 C4
ISOR 0.01 N2
ISOR 0.02 C1 C2 C3 C4
TWIN
TEMP 20
SIZE 0.19 0.20 0.20
WGHT    0.075100   50.816296
EXTI    0.007742
BASF   0.49917
FVAR       0.11934
PB1   5    0.058686    0.711452    0.483741    11.00000    0.02183    0.02488 =
         0.04378    0.01504    0.00651    0.00084
CL1   4    0.000000    1.000000    0.463684    10.50000    0.05989    0.03494 =
         0.10566    0.00000    0.00000    0.01725
CL2   4    0.063936    0.705449    0.965802    11.00000    0.06228    0.05715 =
         0.03704   -0.00544    0.01144    0.00912
CL3   4    0.113516    0.418392    0.471563    11.00000    0.02766    0.03832 =
         0.08504   -0.01663   -0.00111    0.00423
CL4   4    0.250000    0.753981    0.495963    10.50000    0.02754    0.05048 =
         0.10324   -0.01849    0.00000    0.00000
N1    3    0.250000    0.523452   -0.071105    10.50000    0.05374    0.03346 =
         0.10567   -0.00589    0.00000    0.00000
AFIX   3
H1A   2    0.213320    0.590992   -0.015385    10.50000   -1.50000
H1B   2    0.306980    0.542202   -0.029045    10.50000   -1.50000
H1C   2    0.250000    0.522031   -0.225105    10.50000   -1.50000
AFIX   0
N2    3    0.250000    0.126436    0.008991    10.50000    0.05216    0.04762 =
         0.05160   -0.00823    0.00000    0.00000
C1    1    0.222241    0.384062    0.023308    10.50000    0.03247    0.02654 =
         0.02272   -0.00272    0.00594    0.00203
AFIX   3
H1D   2    0.161171    0.364673   -0.019602    10.50000   -1.20000
H1E   2    0.225381    0.386003    0.187688    10.50000   -1.20000
AFIX   0
C2    1    0.281532    0.268650   -0.067972    10.50000    0.05159    0.04698 =
         0.04241   -0.01483    0.00617    0.00363
AFIX   3
H2A   2    0.282592    0.272080   -0.232462    10.50000   -1.20000
H2B   2    0.341712    0.283350   -0.013522    10.50000   -1.20000
AFIX   0
C3    1    0.250000    0.115146    0.266439    10.50000    0.08097    0.04389 =
         0.05468   -0.00454    0.00000    0.00000
AFIX   3
H3A   2    0.302680    0.160986    0.325809    11.00000   -1.50000
H3C   2    0.250000    0.017466    0.312039    10.50000   -1.50000
AFIX   0
C4    1    0.170165    0.051246   -0.087141    11.00000    0.08709    0.11802 =
         0.08373   -0.01617   -0.00528   -0.04181
AFIX   3
H4A   2    0.169815    0.056946   -0.251481    11.00000   -1.50000
H4B   2    0.169465   -0.046345   -0.041051    11.00000   -1.50000
H4C   2    0.118015    0.098297   -0.027171    11.00000   -1.50000
AFIX   0
HKLF 4

REM  PMA2 in Pma2
REM R1 =  0.0545 for    1330 Fo > 4sig(Fo)  and  0.0585 for all    1462 data
REM     86 parameters refined using     61 restraints

END

WGHT      0.0711     25.4648

REM Highest difference peak  2.756,  deepest hole -2.842,  1-sigma level  0.406
Q1    1   0.0638  0.6181  0.4814  11.00000  0.05    2.76
Q2    1   0.1075  0.7185  0.5876  11.00000  0.05    2.73
Q3    1   0.1073  0.7163  0.3892  11.00000  0.05    2.71
Q4    1   0.0096  0.7192  0.3875  11.00000  0.05    2.58
Q5    1   0.0113  0.7156  0.5870  11.00000  0.05    2.58
;
_shelx_res_checksum              14910
_shelx_hkl_file
;
   2   0   0  336.27    6.16
  -2   0   0  327.29    6.23
  -3   0   0   -0.04    0.46
   3   0   0   -0.04    0.50
   4   0   0   47.45    2.29
  -4   0   0   41.75    2.15
   5   0   0    0.03    0.78
  -5   0   0    0.97    0.91
  -5   0   0    0.03    0.73
  -6   0   0  515.16   11.28
   6   0   0  514.08   10.80
  -7   0   0    0.05    1.06
  -7   0   0   -0.31    1.02
   7   0   0   -0.08    0.95
  -8   0   0  321.25    9.44
  -8   0   0  327.75    9.23
  -9   0   0   -0.12    1.25
   9   0   0    0.31    1.20
  -9   0   0   -0.38    1.53
  10   0   0  364.84    9.92
 -10   0   0  345.99   10.22
 -11   0   0    0.53    1.72
 -11   0   0   -0.67    1.75
 -12   0   0   13.71    2.97
 -12   0   0   15.16    2.51
 -13   0   0   -0.09    2.45
 -13   0   0    0.08    1.81
 -14   0   0   27.82    3.90
 -14   0   0   22.68    3.32
 -15   0   0   -0.59    2.47
 -15   0   0   -0.29    2.48
 -16   0   0  191.16    8.87
 -17   0   0    1.72    2.57
 -18   0   0  111.42    7.00
   1   1   0  121.57    2.30
  -1   1   0  115.73    2.65
  -1  -1   0  124.48    2.23
   1  -1   0  119.13    2.31
  -1   1   0  118.99    2.32
  -2   1   0   35.00    1.20
  -2  -1   0   39.67    1.33
   2  -1   0   34.67    1.23
  -2   1   0   37.79    1.38
  -3  -1   0  732.91   12.85
  -3   1   0  815.63   12.62
   3  -1   0  779.58   12.54
  -3   1   0  706.74   12.25
  -4   1   0   38.19    1.82
   4  -1   0   41.05    1.87
  -4   1   0   36.31    1.54
  -5  -1   0  985.24   17.05
   5  -1   0  993.92   16.35
  -5   1   0  963.55   16.18
   6  -1   0   99.64    3.72
  -6   1   0   97.33    3.71
  -6  -1   0   98.51    4.68
  -6   1   0  100.77    2.90
  -7  -1   0  232.47    7.89
  -7  -1   0  255.64    7.60
   7  -1   0  235.70    6.88
  -8   1   0   21.78    2.18
  -8  -1   0   32.97    2.92
  -8  -1   0   30.25    3.06
   8  -1   0   25.45    2.41
  -9  -1   0   30.08    3.04
  -9   1   0   24.15    2.42
   9  -1   0   25.11    2.46
  10  -1   0   15.83    2.29
 -10   1   0   12.33    2.14
 -10  -1   0   18.36    2.62
 -10  -1   0   19.86    3.05
 -11   1   0  314.97    9.93
 -11  -1   0  430.19   12.53
 -11  -1   0  369.94   10.87
  11  -1   0  390.97   10.75
 -11   1   0  308.89    9.96
 -12  -1   0   20.64    3.04
  12  -1   0   13.31    2.29
 -12   1   0   12.32    2.36
 -12   1   0   13.30    2.38
 -12  -1   0   19.05    3.28
 -13  -1   0  293.17   10.29
 -13   1   0  200.34    8.37
 -13   1   0  210.29    8.44
 -13  -1   0  295.08   10.39
  13  -1   0  256.98    8.84
 -14   1   0   -0.39    1.86
  14  -1   0   -0.35    1.74
 -14  -1   0    0.86    2.09
 -14  -1   0    0.73    2.20
 -14   1   0    0.08    1.96
 -15   1   0   79.74    5.69
 -15   1   0   80.34    5.50
 -15  -1   0   93.46    5.60
 -16   1   0    8.22    2.70
 -16  -1   0    8.11    2.99
 -17   1   0    1.78    2.45
 -17  -1   0    1.31    2.67
 -18  -1   0   11.72    3.70
 -18   1   0   10.30    3.15
   0   2   0  578.42    8.96
   0   2   0  558.97    8.69
  -1   2   0   35.91    1.68
  -1  -2   0   34.66    1.25
   1  -2   0   32.89    1.20
   1   2   0   35.90    1.12
  -1   2   0   35.68    1.24
  -2   2   0  347.26    6.18
   2  -2   0  340.54    6.21
   2   2   0  358.01    6.14
  -3   2   0  119.40    3.08
   3  -2   0  115.20    3.03
  -3   2   0  109.74    3.38
   4  -2   0   26.46    1.52
  -4   2   0   22.26    1.52
   4   2   0   28.35    1.18
  -4   2   0   24.24    1.42
  -4  -2   0   29.26    1.53
   5   2   0  299.83    5.25
  -5  -2   0  319.42    6.92
   5  -2   0  296.27    6.57
  -5   2   0  292.58    6.59
  -5   2   0  262.02    6.30
   5   2   0  347.77    8.65
  -6  -2   0  387.46    8.86
   6   2   0  417.96   11.32
  -6   2   0  406.11    8.56
   6  -2   0  409.10    8.56
   7   2   0  117.43    5.65
  -7   2   0  106.41    4.06
   7  -2   0  106.78    4.09
  -7   2   0   88.10    3.13
  -7  -2   0   95.38    4.08
  -7  -2   0  114.16    4.64
  -8   2   0  554.86   12.03
   8   2   0  654.01   15.52
  -8  -2   0  653.54   13.64
  -8   2   0  508.36   10.37
  -8  -2   0  495.64   12.17
   8  -2   0  572.62   12.12
  -9  -2   0    4.06    1.56
  -9  -2   0    4.23    1.81
  -9   2   0    4.07    1.44
   9  -2   0    3.22    1.31
 -10  -2   0  354.77   10.30
 -10   2   0  345.93    9.93
 -11  -2   0  119.74    5.71
  11  -2   0  110.07    5.45
 -11   2   0  101.17    5.16
 -12   2   0    9.79    2.27
 -12  -2   0   18.34    3.28
 -12  -2   0   14.10    2.49
  12  -2   0   12.10    2.34
  13  -2   0   57.83    4.18
 -13  -2   0   64.02    4.48
 -13  -2   0   68.22    5.14
 -14   2   0   30.24    3.26
 -14  -2   0   42.75    4.22
 -14  -2   0   37.97    3.62
  14  -2   0   36.56    3.58
 -14   2   0   30.40    3.42
 -15   2   0    8.81    2.64
 -15  -2   0   13.50    2.66
 -15  -2   0   15.45    3.21
 -16   2   0   88.82    5.97
 -16  -2   0  133.34    7.72
 -17   2   0    1.12    2.57
 -17  -2   0    2.00    2.88
 -18   2   0   45.54    4.81
 -18  -2   0   59.66    5.48
   0   3   0  558.70    9.07
   0   3   0  569.84    9.42
   0  -3   0  537.21    9.42
  -1   3   0  288.18    5.45
  -1   3   0  278.97    6.57
  -1  -3   0  293.15    5.59
   1   3   0  297.68    5.25
   1  -3   0  280.64    5.51
   2   3   0  399.71    7.11
  -2   3   0  390.46    8.43
  -2   3   0  411.62    7.38
   2   3   0  414.84    8.18
   2  -3   0  383.39    7.32
  -3   3   0  506.63    9.12
   3   3   0  498.47    9.56
  -3   3   0  485.20   10.09
   3  -3   0  504.53    9.14
   4   3   0    7.08    0.89
  -4   3   0    6.43    1.16
   4  -3   0    5.68    0.84
   4   3   0    7.12    0.98
  -4  -3   0    7.88    0.85
  -4   3   0    7.14    0.85
   5   3   0  507.15    9.65
   5  -3   0  463.96    9.14
  -5   3   0  465.93    9.16
  -5  -3   0  486.22    8.98
  -5   3   0  410.09    9.32
   5   3   0  431.56    8.54
  -6   3   0   65.84    2.98
   6   3   0   73.04    2.44
   6   3   0   73.23    3.43
  -6  -3   0   75.09    2.95
   6  -3   0   72.90    3.01
  -6   3   0   72.83    3.05
   7   3   0   27.82    2.89
   7  -3   0   22.74    1.89
  -7  -3   0   24.27    1.96
  -7   3   0   19.94    1.72
  -7   3   0   22.73    1.85
  -8   3   0  268.95    7.19
  -8  -3   0  280.11    7.38
   8  -3   0  277.71    7.29
  -8   3   0  241.48    6.42
   8   3   0  309.86   10.33
   9   3   0    2.86    2.11
   9  -3   0    0.90    1.20
  -9  -3   0    1.21    1.44
  -9   3   0    0.88    1.15
  -9  -3   0    0.75    1.32
  -9   3   0    1.25    1.07
  10  -3   0  104.43    4.79
  10   3   0  132.53    7.17
 -10  -3   0  121.87    5.82
 -10  -3   0  103.16    4.83
 -10   3   0   97.03    4.66
  11  -3   0  111.65    5.05
 -11  -3   0  120.95    5.48
 -11   3   0  104.19    5.08
 -12  -3   0    9.58    2.19
  12  -3   0    9.84    2.29
 -12  -3   0   12.18    2.75
 -12   3   0    8.44    2.18
  13  -3   0  104.30    5.57
 -13  -3   0  113.71    5.75
 -14  -3   0   31.11    3.38
 -14   3   0   22.62    3.14
 -15  -3   0   92.71    5.45
 -15  -3   0  103.46    6.69
 -16   3   0   39.07    4.10
 -16  -3   0   66.44    5.38
 -17  -3   0    0.53    2.72
 -17   3   0   -0.62    2.40
   0   4   0  358.64    6.86
   0  -4   0  356.98    7.03
   0   4   0  345.93    6.42
   1   4   0  122.03    4.21
   1  -4   0  103.13    3.09
  -1   4   0  115.74    2.79
  -1   4   0  114.10    3.07
   1   4   0  118.29    2.92
  -1  -4   0  116.27    3.23
  -1  -4   0  106.00    2.82
  -2  -4   0  149.56    3.69
  -2  -4   0  162.12    4.17
  -2   4   0  154.47    5.03
   2  -4   0  157.00    4.04
  -2   4   0  163.94    4.03
   2   4   0  160.96    4.97
   2   4   0  160.95    3.78
   3   4   0  622.43   10.80
   3   4   0  613.64   10.53
  -3   4   0  629.75   11.08
  -3  -4   0  583.41   10.78
   3  -4   0  590.74   10.97
   3   4   0  647.38   12.25
  -3   4   0  593.90   12.39
   4   4   0   45.61    1.96
  -4   4   0   39.52    2.57
  -4  -4   0   46.03    2.12
   4  -4   0   42.45    2.09
  -4   4   0   43.20    2.06
   4   4   0   42.59    2.42
  -5   4   0  408.82    8.45
  -5   4   0  365.01    9.07
   5  -4   0  409.53    8.48
   5   4   0  379.15    8.65
   5   4   0  437.40    8.55
  -5  -4   0  407.56    8.51
  -6  -4   0   71.57    2.82
  -6   4   0   64.79    2.84
   6  -4   0   65.44    2.94
   6   4   0   58.15    2.76
   6   4   0   66.35    3.05
  -6   4   0   53.46    2.98
  -6  -4   0   60.57    2.78
  -7   4   0   61.34    3.00
   7  -4   0   57.89    2.89
   7   4   0   55.02    2.53
  -7  -4   0   59.17    2.95
  -7   4   0   51.58    2.97
  -7  -4   0   65.81    2.94
   7   4   0   62.59    3.42
  -8  -4   0  135.28    4.97
  -8  -4   0  141.66    4.75
  -8   4   0  133.88    4.89
   8  -4   0  137.38    4.80
  -9  -4   0   12.19    1.75
  -9  -4   0   12.68    1.72
   9  -4   0   14.03    1.91
  -9   4   0   11.37    1.67
  -9   4   0   13.49    1.88
   9   4   0   13.73    2.88
 -10   4   0   93.55    4.50
  10   4   0  103.67    6.35
 -10   4   0   81.25    3.69
  10  -4   0   96.33    4.40
 -10  -4   0   97.19    4.62
 -10  -4   0  101.64    4.41
 -11  -4   0  101.88    4.75
 -11  -4   0   92.85    4.85
  11  -4   0   99.89    4.95
 -11   4   0   91.49    4.76
 -12  -4   0   -0.58    1.59
  12  -4   0    0.40    1.46
 -12   4   0    0.60    1.65
 -12  -4   0    0.78    1.58
 -12  -4   0    0.08    1.78
  12   4   0    1.29    2.47
 -13  -4   0  152.99    6.84
 -13   4   0  139.59    6.40
  13  -4   0  155.23    6.52
 -14  -4   0   18.05    3.37
 -14  -4   0   16.59    2.62
 -14   4   0   15.18    2.69
 -15  -4   0  100.31    6.70
 -15   4   0   57.61    4.47
 -16   4   0   34.28    3.82
 -16  -4   0   58.42    5.61
 -17  -4   0    0.42    2.65
 -17   4   0    0.94    2.34
   0  -5   0  435.29    8.93
   0   5   0  458.94    8.24
   0   5   0  456.62    8.77
   0   5   0  437.31   10.50
  -1   5   0   21.98    1.21
  -1  -5   0   17.55    1.12
  -1   5   0   18.99    1.31
   1   5   0   22.81    2.16
   1  -5   0   21.58    1.53
   1   5   0   21.54    1.25
  -1  -5   0   21.12    1.50
   2   5   0  261.67    5.53
   2   5   0  257.99    7.32
  -2   5   0  248.66    5.73
   2  -5   0  254.85    5.93
  -2  -5   0  237.19    5.39
  -2  -5   0  252.00    5.92
  -2   5   0  248.41    5.10
  -3   5   0   14.36    1.33
  -3  -5   0   13.23    1.15
  -3   5   0   16.72    1.44
   3   5   0   16.17    1.92
  -3  -5   0   15.17    1.51
   3   5   0   14.51    1.14
   3   5   0   13.87    1.13
   3  -5   0   15.64    1.36
  -3   5   0   16.59    2.00
  -4  -5   0   14.15    1.28
  -4  -5   0   14.82    1.60
  -4   5   0   12.33    1.85
   4   5   0   13.87    1.76
  -4   5   0   15.23    1.47
   4  -5   0   15.21    1.47
   4   5   0   14.45    1.21
  -5   5   0  123.43    4.06
  -5   5   0  115.66    4.74
   5  -5   0  121.52    4.06
  -5  -5   0  122.73    3.97
   5   5   0  123.97    4.66
   5   5   0  121.86    3.80
   6  -5   0  204.40    5.72
  -6  -5   0  206.47    5.72
   6   5   0  192.27    6.03
   6   5   0  214.91    5.86
  -6   5   0  208.25    5.79
  -6   5   0  185.30    6.29
  -7   5   0    6.38    1.39
  -7  -5   0    7.53    1.28
   7   5   0    7.26    1.44
   7   5   0    6.97    1.38
  -7   5   0    6.25    1.62
   7  -5   0    8.10    1.41
   8  -5   0  440.51    9.99
  -8   5   0  449.26   10.21
  -8  -5   0  439.82   10.19
   8   5   0  440.76   10.92
  -9   5   0    0.17    1.35
  -9   5   0    0.38    1.09
  -9  -5   0    0.54    1.20
  -9  -5   0    0.13    0.99
   9   5   0   -0.38    1.96
   9  -5   0    0.51    1.23
  10  -5   0  320.31    8.86
 -10  -5   0  314.75    8.15
 -10  -5   0  253.47    7.91
 -10   5   0  247.81    7.43
 -10   5   0  264.04    7.99
  10   5   0  321.70   11.38
  11   5   0   59.39    5.24
 -11   5   0   45.01    2.91
  11  -5   0   53.36    3.44
 -11   5   0   51.71    3.61
 -11  -5   0   49.10    3.45
 -11  -5   0   53.07    3.29
  12  -5   0   10.68    2.08
 -12  -5   0    8.08    1.81
 -12  -5   0    8.86    2.41
 -12  -5   0   10.71    1.96
  12   5   0   11.40    3.23
 -12   5   0    8.28    2.07
  13   5   0   18.88    3.89
 -13  -5   0   13.82    2.84
 -13  -5   0   16.31    2.41
 -13   5   0   11.88    2.43
 -14   5   0   33.19    3.54
 -14  -5   0   36.78    3.28
 -15  -5   0    8.99    2.99
 -15   5   0    7.17    2.47
 -16  -5   0  102.17    7.01
 -16   5   0   59.20    4.84
   0   6   0   32.77    1.67
   0   6   0   32.21    1.91
   0   6   0   34.43    2.90
   0  -6   0   32.21    2.08
   1  -6   0   71.32    2.99
  -1  -6   0   78.61    3.13
  -1   6   0   71.72    2.90
   1   6   0   75.71    2.65
  -1   6   0   75.73    2.58
   1   6   0   69.11    3.95
  -2  -6   0    2.13    0.93
  -2   6   0    2.01    0.67
  -2  -6   0    1.48    0.64
   2  -6   0    1.72    1.00
   2   6   0    1.77    1.42
   2   6   0    2.13    0.67
  -2   6   0    2.06    0.87
  -3   6   0  439.32    8.15
   3   6   0  414.89    8.32
  -3  -6   0  451.52    9.25
  -3  -6   0  401.67    8.45
   3   6   0  444.33   10.89
   3  -6   0  421.20    8.93
  -3   6   0  408.26    8.76
   3   6   0  410.95    8.41
  -3   6   0  410.76   10.65
   4  -6   0   10.56    1.44
   4   6   0    9.36    1.88
   4   6   0    8.71    1.09
  -4  -6   0   11.78    1.64
  -4  -6   0   10.34    1.22
  -4   6   0    9.39    2.04
  -4   6   0    9.17    1.33
   4   6   0    8.94    1.14
  -5  -6   0  376.32    8.58
   5  -6   0  399.34    9.09
  -5   6   0  384.00   10.26
   5   6   0  397.30    8.49
  -5   6   0  425.75    9.22
   5   6   0  399.52   10.34
  -5  -6   0  430.96    9.60
  -6   6   0   22.57    2.00
  -6   6   0   21.19    2.48
  -6  -6   0   21.54    1.85
   6  -6   0   22.49    2.00
   6   6   0   20.82    2.33
   6   6   0   21.41    1.82
  -7   6   0  102.40    4.78
   7  -6   0  123.50    4.60
   7   6   0  115.06    4.43
  -7  -6   0  121.87    4.49
   7   6   0  103.63    4.68
  -7   6   0  122.87    4.63
   8   6   0    0.74    1.22
  -8   6   0    0.80    1.28
   8  -6   0    1.89    1.37
  -8   6   0    0.90    1.45
  -8  -6   0    1.31    1.07
   8   6   0    0.22    1.40
   9  -6   0   15.52    1.98
  -9   6   0   14.45    2.19
  -9  -6   0   15.08    1.90
  -9   6   0   14.69    2.05
   9   6   0   14.72    2.19
  10   6   0    1.67    2.15
 -10  -6   0    1.79    1.22
  10  -6   0    2.75    1.51
 -10   6   0    2.93    1.60
 -10   6   0    2.71    1.51
 -11   6   0  125.64    5.50
  11  -6   0  148.25    6.04
 -11   6   0  105.58    4.77
  11   6   0  150.12    8.01
 -11  -6   0  120.74    5.44
 -12   6   0    1.75    1.72
 -12  -6   0    0.98    1.44
  12   6   0    1.09    2.51
 -13  -6   0  161.93    6.17
 -13   6   0  140.35    6.27
 -13  -6   0  157.81    7.54
 -14   6   0    0.40    1.85
 -14  -6   0    1.17    2.26
  14   6   0    2.15    3.00
 -15   6   0   40.66    3.78
 -15  -6   0   54.46    5.17
   0   7   0  599.23   11.05
   0   7   0  563.76   14.00
   0  -7   0  589.75   12.20
  -1   7   0    7.86    2.10
   1  -7   0    4.31    1.31
  -1   7   0    4.96    0.90
   1   7   0    5.52    1.92
   1   7   0    5.75    1.00
  -1  -7   0    4.48    1.36
  -1  -7   0    6.31    1.36
  -1   7   0    5.27    1.18
  -2  -7   0  276.35    7.14
  -2   7   0  286.73    6.30
  -2   7   0  263.20    6.64
   2   7   0  276.32    6.40
   2   7   0  268.47    8.69
   2  -7   0  274.53    7.03
  -3   7   0   11.41    1.43
   3   7   0   12.23    2.38
   3  -7   0   13.35    1.64
   3   7   0   11.53    1.24
  -3   7   0   13.99    1.31
   3   7   0   11.03    1.24
  -3  -7   0   12.14    1.32
  -3  -7   0   12.02    1.61
   4  -7   0    1.92    1.10
   4   7   0    0.83    0.78
  -4   7   0    1.27    0.98
  -4   7   0    1.17    0.72
  -4  -7   0    1.05    0.85
  -4   7   0    1.24    1.62
  -4  -7   0    0.79    1.05
   4   7   0    2.18    1.94
   4   7   0    0.82    0.80
  -5  -7   0    5.29    1.16
  -5   7   0    6.18    1.32
   5  -7   0    4.51    1.39
  -5  -7   0    5.77    1.51
  -5   7   0    5.16    1.90
   5   7   0    4.95    1.92
   5   7   0    4.74    1.10
  -6  -7   0  124.82    5.03
   6   7   0  108.97    5.25
   6   7   0  112.50    4.10
  -6   7   0  112.96    5.32
  -6  -7   0  116.58    4.32
  -6   7   0  126.76    4.74
   6  -7   0  121.41    4.61
   7  -7   0    1.06    1.33
  -7  -7   0   -0.67    1.54
   7   7   0   -0.27    1.16
  -7  -7   0   -0.08    1.03
  -7   7   0    0.60    1.53
   7   7   0    0.17    1.65
  -7   7   0    0.49    1.23
  -8  -7   0  182.57    6.06
  -8   7   0  164.07    6.34
   8   7   0  172.80    6.03
   8   7   0  150.33    6.12
  -8   7   0  192.28    6.25
   8  -7   0  198.88    6.41
   9   7   0    1.41    1.48
   9  -7   0    0.64    1.42
  -9   7   0    1.69    1.67
  -9   7   0    0.44    1.44
  -9  -7   0    1.31    1.22
 -10   7   0   89.13    4.56
 -10  -7   0   99.12    4.73
 -10   7   0   99.79    4.80
  10   7   0   97.78    5.18
  11   7   0   -0.09    2.38
 -11   7   0    1.58    1.74
 -11   7   0    0.94    1.61
 -12   7   0   15.05    2.59
  12   7   0   11.68    3.46
  13   7   0    2.94    2.74
 -13   7   0    5.35    2.23
 -14   7   0   15.23    2.81
 -14  -7   0   18.93    3.34
  14   7   0   22.59    4.22
  15   7   0    2.85    3.36
   0  -8   0   28.11    2.36
   0   8   0   28.34    1.85
   0   8   0   27.62    3.30
  -1   8   0   18.20    1.54
  -1  -8   0   17.10    2.06
   1   8   0   17.90    1.55
  -1   8   0   16.94    1.77
   1   8   0   17.75    2.86
  -1   8   0   18.23    2.91
   1  -8   0   16.99    1.93
  -2  -8   0   47.27    2.95
  -2   8   0   40.47    2.18
  -2   8   0   35.97    3.54
   2   8   0   40.38    3.77
   2  -8   0   37.94    2.64
   2   8   0   40.17    2.25
  -2   8   0   37.81    2.49
   3  -8   0  190.35    5.87
   3   8   0  179.84    5.12
  -3   8   0  208.51    5.28
  -3  -8   0  166.12    5.02
   3   8   0  192.36    5.33
  -3   8   0  181.00    5.57
  -3  -8   0  211.53    6.30
   3   8   0  187.44    7.49
  -4  -8   0   13.91    1.87
  -4   8   0    9.98    2.34
  -4   8   0   13.01    1.44
   4   8   0   10.42    2.44
   4   8   0   12.94    1.52
   4   8   0   10.84    1.38
   4  -8   0   11.56    1.83
  -4  -8   0   11.07    1.45
  -4   8   0   10.64    1.60
   5  -8   0  215.84    6.61
  -5   8   0  181.04    7.15
  -5  -8   0  199.09    5.93
  -5   8   0  195.07    6.17
  -5   8   0  216.42    5.38
  -5  -8   0  217.61    6.68
   5   8   0  185.00    5.51
   5   8   0  194.57    7.59
   6   8   0    9.20    2.40
  -6  -8   0   13.21    1.72
  -6   8   0   10.48    2.25
  -6   8   0   11.58    1.79
   6  -8   0   10.61    1.85
  -6  -8   0   12.75    2.01
   6   8   0   11.40    1.59
  -7  -8   0   74.09    3.66
  -7   8   0   76.22    3.94
   7   8   0   70.10    4.60
  -7   8   0   68.72    4.34
   7   8   0   73.38    3.65
  -7  -8   0   84.39    4.48
   7  -8   0   78.67    3.99
  -8   8   0   43.49    3.19
  -8  -8   0   40.17    2.90
   8   8   0   38.58    2.87
  -9  -8   0    8.01    1.70
   9   8   0    9.62    1.95
  -9   8   0   11.89    2.13
 -10   8   0   16.22    2.42
  10   8   0   11.57    2.21
 -11   8   0  101.57    5.12
  11   8   0  105.87    6.33
 -12   8   0    8.05    2.28
  12   8   0    8.41    3.15
  13   8   0  102.70    7.42
 -13   8   0   95.34    5.32
  14   8   0    1.17    2.91
  15   8   0   24.36    4.54
   0   9   0  126.17    6.36
   0  -9   0  130.83    5.18
   1   9   0    3.13    1.10
  -1  -9   0    2.41    1.50
  -1   9   0    2.82    2.10
   1   9   0    3.61    2.25
   1  -9   0    3.48    1.56
  -1   9   0    3.28    1.05
  -2   9   0   74.79    3.66
  -2   9   0   67.65    4.70
  -2   9   0   76.92    3.17
   2   9   0   72.92    3.19
   2   9   0   71.41    4.94
  -2  -9   0   74.12    4.02
   2  -9   0   74.96    3.84
   3   9   0   55.56    4.41
   3   9   0   50.46    2.71
  -3   9   0   51.83    3.13
   3  -9   0   52.77    3.18
  -3   9   0   54.87    2.71
   3   9   0   51.68    2.79
  -3  -9   0   60.06    3.65
  -4   9   0    0.20    1.20
   4   9   0   -0.22    1.00
   4   9   0    1.51    2.09
  -4   9   0    0.91    1.04
   4   9   0    0.23    1.00
  -5   9   0   70.51    3.67
   5   9   0   67.42    4.82
   5   9   0   70.81    3.30
  -5  -9   0   64.82    3.22
  -6   9   0   55.59    3.32
  -6   9   0   60.76    2.90
  -6  -9   0   54.98    3.23
   6   9   0   50.46    4.36
   6   9   0   53.06    3.03
  -7   9   0   46.82    2.62
   7   9   0   38.88    2.84
  -7  -9   0   39.38    2.83
  -7   9   0   41.37    2.99
   8   9   0  112.69    4.87
  -8   9   0  118.76    5.20
   9   9   0    4.48    1.74
  -9   9   0    3.72    1.82
  10   9   0   50.80    3.82
 -10   9   0   55.29    3.95
 -11   9   0   30.18    3.23
  11   9   0   24.20    3.18
  12   9   0    5.38    2.97
  13   9   0   33.29    4.94
  14   9   0   10.98    3.75
   0  10   0  131.92    4.52
   1  10   0   19.01    1.86
  -1  10   0   20.85    1.90
   2  10   0   71.80    3.32
   2  10   0   69.48    3.29
  -3  10   0   79.13    3.40
   3  10   0   67.74    5.18
  -3  10   0   70.34    3.86
   3  10   0   71.32    3.41
   3  10   0   74.10    3.51
  -4  10   0    1.15    1.16
   4  10   0   -0.47    1.11
   4  10   0    1.16    1.15
   4  10   0    2.32    2.63
  -4  10   0    0.47    1.40
  -5  10   0   53.91    3.42
   5  10   0   48.79    4.54
   5  10   0   46.71    2.86
  -5  10   0   60.46    3.11
  -6  10   0   21.54    2.38
  -6  10   0   25.68    2.24
   6  10   0   19.96    2.16
   7  10   0    5.28    1.69
  -7  10   0    6.11    1.77
  -7  10   0    7.62    1.59
   8  10   0   56.39    3.62
  -8  10   0   64.14    3.18
  -8  10   0   55.82    3.78
   9  10   0    0.95    1.58
  -9  10   0    1.46    1.34
  -9  10   0    1.34    1.66
  10  10   0   26.02    3.00
  11  10   0   12.12    2.57
  12  10   0    2.69    2.74
   0  11   0   22.81    2.13
   1  11   0   11.27    1.74
  -1  11   0   13.27    1.73
   2  11   0   18.31    1.95
  -2  11   0   18.72    2.00
   2  11   0   18.62    2.03
  -3  11   0  108.75    4.24
   3  11   0  104.23    4.35
  -4  11   0    1.43    1.53
   4  11   0    2.41    1.47
  -4  11   0    2.39    1.33
   5  11   0   58.24    3.30
  -5  11   0   63.71    3.94
  -6  11   0    2.18    1.61
   6  11   0    2.26    1.48
  -6  11   0    2.78    1.46
   7  11   0   15.38    2.28
  -7  11   0   19.01    2.12
   8  11   0   20.18    2.53
  -8  11   0   26.15    2.45
   9  11   0    2.58    1.82
  -9  11   0    3.45    1.63
  10  11   0    9.23    2.38
 -10  11   0    9.92    2.00
   0  12   0   61.49    3.34
   1  12   0    0.84    1.41
   1  12   0    0.33    1.32
  -1  12   0    0.37    1.34
   2  12   0   38.50    2.84
   2  12   0   37.33    2.84
  -2  12   0   39.61    2.77
   3  12   0    4.36    1.56
   3  12   0    4.03    1.54
  -3  12   0    4.70    1.60
   4  12   0    1.65    1.51
  -4  12   0    1.90    1.46
  -5  12   0    2.31    1.57
   5  12   0    2.32    1.61
  -6  12   0   29.45    2.58
  -7  12   0    0.64    1.51
  -8  12   0   82.02    4.16
   0  13   0    0.48    1.48
   1  13   0    8.47    1.85
  -1  13   0    7.50    1.76
  -2  13   0   -0.35    1.59
   2  13   0    0.52    1.55
   0   0   1  727.18   11.11
   1   0   1    0.65    0.51
  -1   0   1    1.14    0.18
  -2   0   1  471.66    8.20
   2   0   1  470.84    9.71
   3   0   1    0.28    0.61
  -3   0   1    0.33    0.47
   3   0   1    0.25    0.90
  -4   0   1    0.78    0.57
   4   0   1    0.77    0.70
  -5   0  -1    5.79    1.55
   5   0   1    8.01    1.18
  -5   0   1    6.33    1.02
   6   0  -1  159.89    5.42
  -6   0  -1  198.96    7.15
  -6   0   1  177.54    5.54
   6   0   1  220.77    5.86
   7   0  -1   -0.36    1.10
   7   0   1   -0.23    0.91
  -7   0   1   -0.04    1.13
  -7   0  -1    0.93    1.45
   8   0   1  250.22    7.06
   8   0  -1  180.44    6.67
  -8   0  -1  231.35    8.45
  -8   0   1  188.67    6.67
   9   0   1    0.10    1.05
   9   0  -1    0.05    1.27
  -9   0  -1   -0.08    1.86
   9   0   1    0.69    1.12
  -9   0   1    0.46    1.42
  -9   0   1    0.39    0.49
  -9   0   1   -0.26    1.23
 -10   0   1  172.41    3.74
 -10   0   1  169.55    6.69
  10   0   1  199.51    5.77
 -10   0  -1  213.95    8.89
 -10   0   1  160.88    6.58
 -11   0   1    1.19    1.57
 -11   0  -1    1.39    2.28
  11   0   1    2.65    1.33
 -11   0  -1    1.06    1.78
 -11   0   1    0.97    1.64
 -12   0  -1   30.17    4.01
 -12   0   1   22.16    3.01
 -12   0  -1   28.29    3.21
 -12   0   1   24.11    3.05
 -13   0   1    0.62    1.95
 -13   0  -1    0.78    2.08
 -13   0   1    0.33    2.05
 -13   0  -1    0.97    2.25
 -14   0  -1   12.96    3.18
 -14   0   1   15.06    3.16
 -14   0   1   11.75    3.00
 -14   0  -1   11.06    2.83
 -15   0   1   -1.05    2.37
 -15   0   1    0.46    2.18
 -15   0  -1    1.65    2.28
 -16   0   1  155.51    8.03
 -16   0  -1  153.09    7.74
 -16   0   1  149.46    7.75
 -17   0   1    0.76    2.43
 -17   0  -1    0.74    2.47
 -18   0  -1   92.55    6.35
 -18   0   1   90.04    6.32
 -18   1  -1    7.26    3.02
 -18  -1   1   15.69    3.86
 -17  -1   1    1.68    2.74
 -17   1  -1   -0.19    2.47
 -16  -1   1    8.20    2.45
 -16   1  -1    6.16    2.65
 -16  -1   1    8.14    2.94
 -15   1  -1   65.25    5.07
 -15  -1   1   80.73    5.71
 -15  -1   1   68.95    4.81
 -14  -1   1    1.12    2.13
 -14  -1   1    1.54    2.35
 -14   1  -1   -0.10    2.40
  14  -1  -1    0.54    1.79
 -14   1  -1    0.86    1.88
 -13  -1   1  219.97    9.02
  13  -1  -1  177.56    7.75
 -13   1  -1  163.26    7.75
 -13   1  -1  167.22    7.36
 -13  -1   1  204.99    8.55
 -12  -1   1   10.25    2.71
 -12   1  -1    8.09    2.22
 -12   1  -1   10.19    2.45
 -12  -1   1   10.16    2.55
  12  -1  -1    9.32    2.26
 -11  -1   1  268.11    9.25
  11  -1  -1  232.35    8.36
 -11   1  -1  210.21    7.78
 -11  -1   1  246.22    8.62
  11   1   1  218.15    5.47
 -11   1  -1  208.59    8.24
 -10  -1   1    9.89    2.38
 -10   1  -1    9.02    2.09
  10  -1  -1   10.78    2.16
 -10  -1   1    8.61    2.06
  10   1   1   13.16    1.47
  -9  -1   1    1.56    1.68
  -9   1  -1    0.94    1.41
   9  -1  -1    1.60    1.37
  -9  -1   1    1.69    1.59
  -8  -1   1   16.79    2.23
  -8   1  -1   16.39    2.21
   8  -1  -1   19.08    2.25
  -8  -1   1   15.16    2.28
  -7  -1   1  158.12    5.89
  -7  -1   1  146.99    5.77
  -6  -1   1   23.27    2.21
  -6  -1   1   26.95    2.26
   6  -1  -1   27.40    2.10
  -5  -1   1  573.73   12.23
   5  -1  -1  558.82   11.69
  -4  -1   1   75.03    2.43
  -4  -1   1   70.78    2.79
  -4  -1   1   71.28    2.91
   3   1   1  241.41    5.72
  -3  -1   1  225.89    4.46
  -3  -1   1  231.73    4.60
  -2  -1   1    9.30    0.62
   2   1   1   13.74    1.03
   1   1   1  193.57    3.51
  -1  -1   1  159.17    3.17
   0  -1   1   68.78    1.50
   0   1   1   91.19    1.61
   1  -1   1  160.21    3.02
  -1   1   1  175.02    3.00
   2  -1   1    8.80    0.67
  -2   1   1   15.11    0.75
  -3   1   1  248.05    4.93
   3  -1   1  270.12    5.23
  -4   1   1   78.84    2.53
   4  -1   1   78.33    2.63
   5  -1   1  676.07   11.52
  -5   1   1  672.44   11.53
  -6   1   1   28.93    1.91
   6  -1   1   27.05    1.88
  -7   1   1  123.20    4.45
   7  -1   1  145.10    4.96
  -7  -1  -1  109.83    5.19
   7  -1   1  156.58    5.21
   8  -1   1   15.94    1.88
   8  -1   1   19.74    2.09
  -8   1   1   18.93    1.97
  -8  -1  -1   21.47    2.64
  -9   1   1    1.41    0.72
   9  -1   1    2.48    1.48
  -9   1   1    0.86    1.15
  -9  -1  -1    0.74    1.55
   9  -1   1    2.23    1.25
 -10   1   1    9.07    1.88
 -10  -1  -1   13.62    2.36
  10  -1   1    8.70    1.88
  10  -1   1    8.53    1.93
 -10   1   1   11.13    1.15
 -10  -1  -1   14.43    2.60
 -11  -1  -1  237.20    8.36
  11  -1   1  240.36    7.23
 -11   1   1  210.79    4.95
 -11  -1  -1  255.94    8.97
  11  -1   1  261.81    7.98
 -11   1   1  194.08    7.30
 -12  -1  -1   13.16    2.57
 -12   1   1    9.39    1.03
  12  -1   1    9.44    2.06
 -12  -1  -1   11.40    2.64
 -12   1   1    8.02    2.07
 -12   1   1    6.82    2.01
 -13   1   1  144.72    6.80
 -13  -1  -1  194.08    7.95
 -13  -1  -1  215.47    8.76
  13  -1   1  198.47    7.33
 -13   1   1  135.92    6.60
 -14  -1  -1    2.26    2.48
 -14   1   1   -0.08    1.86
  14  -1   1    1.54    1.78
 -14  -1  -1    0.80    2.06
 -14   1   1    0.68    1.79
 -15   1   1   51.47    4.38
 -15   1   1   56.61    4.64
 -16  -1  -1   13.24    3.08
 -16   1   1    7.66    2.60
 -17   1   1   -0.09    2.36
 -17  -1  -1    0.89    2.70
 -18   1   1    9.13    3.02
 -18  -1  -1   10.77    3.52
 -18   2  -1   37.03    4.43
 -18  -2   1   50.40    5.21
 -17   2  -1   -1.12    2.54
 -17  -2   1    0.32    2.79
 -16   2  -1   83.32    5.77
 -16  -2   1   98.03    5.48
 -15  -2   1    6.33    2.83
 -15   2  -1    3.49    2.42
 -15  -2   1    5.50    2.14
  14  -2  -1   15.23    2.79
 -14   2  -1   13.32    2.75
 -14   2  -1   11.70    2.60
 -14  -2   1   18.28    2.67
 -14  -2   1   17.65    3.19
 -13  -2   1   57.90    4.79
 -13  -2   1   58.70    4.03
  13  -2  -1   53.09    4.30
 -13   2  -1   48.95    4.07
 -13   2  -1   45.00    3.95
 -12  -2   1    8.81    2.01
 -12  -2   1    7.47    2.69
 -12   2  -1    7.87    2.13
  12  -2  -1    8.46    2.23
 -12   2  -1    3.92    1.83
 -11  -2   1   53.37    3.59
  11   2   1   51.18    1.87
  11  -2  -1   56.64    4.16
 -11  -2   1   66.50    4.91
 -11   2  -1   42.27    3.50
  10  -2  -1  314.34    9.84
 -10  -2   1  315.29    8.85
   9  -2  -1    5.08    1.55
  -9  -2   1    4.94    1.75
  -9  -2   1    5.25    1.43
  -8  -2   1  350.91    8.59
   8  -2  -1  322.35    8.84
  -7  -2   1   97.11    4.47
  -7  -2   1   86.82    1.90
   7  -2  -1   91.58    4.17
  -7  -2   1   86.98    3.47
  -7  -2   1   88.84    3.46
  -6  -2   1  224.78    5.63
  -6  -2   1  228.18    5.46
   5  -2  -1  153.81    4.48
  -5  -2   1  163.13    3.87
  -4  -2   1   36.98    1.32
   4   2   1   32.21    1.89
  -4  -2   1   34.30    1.61
   3   2   1   49.31    1.99
  -3  -2   1   39.50    1.62
   2   2   1   97.58    2.50
  -2  -2   1   90.36    2.37
  -1  -2   1    2.91    0.40
   1   2   1    2.98    0.45
  -1  -2   1    3.65    0.46
   0  -2  -1  381.70    6.06
   0   2   1  397.38    6.67
   0   2   1  399.38    6.13
  -1  -2  -1    2.52    0.29
   1   2  -1    3.35    0.45
  -1   2   1    2.86    0.41
  -1   2   1    2.41    0.43
   1  -2   1    3.80    0.49
   2   2  -1   94.45    2.55
  -2  -2  -1  105.31    2.76
   2   2  -1  100.44    2.07
  -2   2   1   98.20    2.41
   2  -2   1   99.05    2.45
   3  -2   1   36.67    1.50
  -3   2   1   44.75    1.61
   3   2  -1   38.14    1.66
   3   2  -1   42.31    1.56
  -3  -2  -1   47.88    1.99
  -4  -2  -1   35.63    2.03
   4  -2   1   34.85    1.62
   4   2  -1   32.53    2.10
  -4   2   1   30.15    1.52
   5  -2   1  166.40    5.48
  -5   2   1  159.45    4.05
  -5  -2  -1  157.47    4.98
   6  -2   1  209.20    5.30
  -6   2   1  205.25    5.31
   7  -2   1   95.69    4.51
  -7   2   1   90.84    3.62
   7  -2   1  100.13    3.89
  -8   2   1  356.02    8.50
   8  -2   1  325.34    8.06
  -9   2   1    4.10    1.05
  -9   2   1    4.22    1.39
   9  -2   1    4.22    1.33
   9  -2   1    6.68    1.97
  -9  -2  -1    5.10    1.71
 -10  -2  -1  358.23   10.50
 -10  -2  -1  300.58    9.54
  10  -2   1  320.83    8.96
 -10   2   1  258.64    6.53
 -10   2   1  273.73    8.27
  10  -2   1  322.40    9.26
 -11   2   1   48.28    3.44
  11  -2   1   52.45    3.59
 -11   2   1   47.42    2.37
 -12   2   1    6.79    1.98
 -12   2   1    5.61    1.09
 -12  -2  -1    8.49    2.67
 -12  -2  -1   10.23    2.50
  12  -2   1    8.06    1.87
 -13  -2  -1   63.86    4.67
 -13  -2  -1   64.67    4.79
 -13   2   1   44.49    3.78
 -13   2   1   45.52    2.24
  13  -2   1   53.12    3.83
 -14   2   1   14.00    2.66
 -14  -2  -1   21.41    3.27
 -14  -2  -1   18.51    3.06
  14  -2   1   15.93    2.57
 -15  -2  -1    8.79    2.79
 -15   2   1    4.38    2.32
 -15   2   1    3.76    2.03
 -16  -2  -1  120.44    7.33
 -16   2   1   66.97    5.10
 -17  -2  -1   -0.10    2.56
 -17   2   1    0.27    2.43
 -18   2   1   33.99    4.30
 -18  -2  -1   44.17    4.79
 -17   3  -1   -0.53    2.41
 -17  -3   1    2.26    2.92
 -16  -3   1   50.17    3.98
 -16  -3   1   53.61    5.00
 -15  -3   1   95.13    6.54
 -15  -3   1   80.93    4.80
 -14  -3   1   12.58    2.40
 -14   3  -1    9.61    2.56
 -14  -3   1   17.96    3.56
  13  -3  -1   89.19    5.56
 -13   3  -1   83.65    5.08
 -13  -3   1   88.12    4.89
 -12  -3   1    3.66    1.44
 -12  -3   1    5.27    2.33
  12  -3  -1    4.64    2.01
 -12   3  -1    5.11    2.08
 -12  -3   1    5.01    1.76
 -11   3  -1   57.04    3.96
  11  -3  -1   52.90    3.82
 -11  -3   1   63.70    3.79
  11   3   1   80.98    5.87
 -11  -3   1   66.17    3.65
 -11  -3   1   79.67    5.30
  10  -3  -1   85.74    4.52
 -10  -3   1   84.23    4.12
 -10  -3   1   95.07    5.30
 -10  -3   1   95.91    4.13
  -9  -3   1    0.39    1.48
  -9  -3   1   -0.10    1.10
  -9  -3   1    0.47    0.96
   9  -3  -1    0.63    1.33
   9   3   1   -0.25    2.12
  -8  -3   1  106.55    4.16
  -8  -3   1  109.88    3.77
   8  -3  -1  104.34    4.38
   7  -3  -1   14.78    1.81
  -7  -3   1   19.10    1.44
  -7  -3   1   16.52    1.53
   6  -3  -1   56.90    2.77
  -6  -3   1   55.94    2.11
  -6  -3   1   50.92    1.82
  -6  -3   1   51.45    2.43
  -5  -3   1  341.88    6.54
   5  -3  -1  295.50    7.16
  -5  -3   1  345.72    6.29
  -5  -3   1  303.12    6.94
   4  -3  -1   28.89    1.69
  -4  -3   1   26.23    1.58
   3  -3  -1  289.30    6.35
  -3  -3   1  294.89    6.14
  -2  -3   1  191.58    4.24
   2   3   1  187.52    4.16
  -2  -3   1  202.07    4.35
   1   3   1  139.46    2.81
  -1  -3   1  134.05    3.11
   0  -3   1  353.38    7.86
   0   3   1  335.16    5.28
   0   3   1  304.80    5.76
   0   3  -1  314.44    6.04
   0  -3   1  284.38    5.75
  -1   3   1  132.93    3.11
  -1  -3  -1  134.01    2.81
  -1   3   1  144.55    2.60
   1  -3   1  138.29    3.20
   1   3  -1  139.98    3.38
   2   3  -1  214.13    4.63
  -2  -3  -1  201.08    4.13
  -2   3   1  201.54    4.29
  -3  -3  -1  310.99    6.21
  -3   3   1  294.28    5.97
   3   3  -1  308.01    6.31
   3  -3   1  307.10    6.13
   4  -3   1   21.80    1.38
   4   3  -1   25.00    1.45
   4   3  -1   22.27    1.47
  -5   3   1  298.98    6.64
   5   3  -1  320.40    7.47
   5  -3   1  306.51    6.70
  -5  -3  -1  314.65    7.33
   6  -3   1   60.56    3.91
   6   3  -1   55.77    3.58
   6  -3   1   52.64    2.43
  -6  -3  -1   63.66    3.05
  -6   3   1   64.32    2.73
   7  -3   1   18.70    2.61
  -7  -3  -1   12.83    1.82
  -7   3   1   15.11    1.56
   7  -3   1   16.49    1.61
   7   3  -1   13.63    2.30
   8  -3   1   99.82    3.86
  -8  -3  -1  102.39    4.56
  -8   3   1  105.36    4.08
  -9  -3  -1   -0.05    1.43
  -9   3   1    0.37    0.99
   9  -3   1    0.38    1.19
   9  -3   1    1.33    1.86
   9   3  -1   -0.41    1.79
  -9   3   1    1.25    1.14
  -9  -3  -1   -0.29    1.44
 -10   3   1   81.35    4.04
 -10   3   1   80.23    3.48
 -10  -3  -1   81.73    4.70
  10  -3   1   79.23    3.91
 -11   3   1   49.83    3.46
 -11   3   1   46.19    2.65
  11  -3   1   58.57    3.49
 -11  -3  -1   51.22    3.95
 -12  -3  -1    3.95    2.01
 -12   3   1    4.06    1.79
  12  -3   1    4.87    1.81
 -12  -3  -1    6.61    2.38
 -12   3   1    5.19    1.31
 -13   3   1   69.13    3.05
 -13   3   1   71.51    4.52
 -13  -3  -1  105.65    6.28
  13  -3   1   84.75    4.79
 -13  -3  -1   93.98    5.42
 -14   3   1   10.25    1.41
 -14  -3  -1   17.21    3.30
 -14  -3  -1   13.03    2.71
 -14   3   1   10.03    2.41
 -15   3   1   52.40    4.26
 -15  -3  -1   92.35    6.12
 -16   3   1   33.51    3.77
 -16  -3  -1   57.19    4.75
 -17   3   1   -0.17    2.28
 -17  -3  -1    0.51    2.58
 -17   4  -1    0.43    2.39
 -17  -4   1    0.67    2.81
 -16  -4   1   59.76    5.86
 -16   4  -1   36.14    3.98
 -15  -4   1   78.29    6.19
 -15  -4   1   66.40    4.17
 -14  -4   1   14.07    3.46
 -14   4  -1   12.16    2.61
 -14  -4   1   13.99    2.24
 -13  -4   1  137.59    7.44
  13   4   1  141.57    8.15
  13  -4  -1  100.91    5.71
 -13  -4   1  120.57    5.05
 -13   4  -1   97.78    5.44
 -12  -4   1    0.30    1.27
 -12   4  -1    0.38    1.64
 -12  -4   1    0.45    1.29
  12  -4  -1    0.25    1.52
  12   4   1   -0.51    2.14
 -12  -4   1   -0.43    2.11
  11  -4  -1   61.08    4.15
 -11  -4   1   50.64    3.33
  11   4   1   70.96    5.48
 -11  -4   1   63.47    3.28
 -11   4  -1   53.21    3.82
 -11  -4   1   71.13    4.92
  11   4   1   43.24    1.91
 -10  -4   1  104.58    3.94
 -10   4  -1   94.31    4.72
  10  -4  -1   92.10    4.69
  10   4   1   96.44    6.32
  -9   4  -1    3.59    1.53
   9  -4  -1    2.53    1.50
  -9  -4   1    4.31    1.14
   9   4   1    1.98    2.09
   8   4   1   81.65    4.64
   8  -4  -1   76.25    3.80
  -8  -4   1   87.83    3.15
   7  -4  -1   43.28    2.67
  -7  -4   1   41.31    1.98
   6  -4  -1   43.84    2.55
   5  -4  -1  213.25    5.72
  -4  -4   1   56.84    2.54
   4  -4  -1   45.34    2.29
  -3  -4   1  336.99    7.10
   3  -4  -1  326.18    7.18
  -2  -4   1  104.41    3.07
   2  -4  -1   93.33    3.09
  -1  -4   1  103.72    2.84
   1  -4  -1   93.57    3.03
   1   4   1   88.14    2.30
  -1   4  -1  106.42    2.93
   0   4   1  230.87    4.45
   0   4   1  232.16    5.10
   0  -4   1  268.52    5.32
   0  -4  -1  215.84    5.42
   0   4  -1  272.41    5.50
   0  -4   1  314.20    7.69
   0  -4   1  258.06    5.39
  -1   4   1   88.96    2.63
  -1  -4  -1   89.11    2.37
  -1   4   1   97.94    2.22
   1   4  -1  105.57    2.98
   1  -4   1  100.30    2.87
  -2   4   1   92.60    2.79
  -2  -4  -1   91.55    3.13
  -2  -4  -1   92.24    2.55
   2  -4   1   95.84    2.86
  -3  -4  -1  325.58    7.32
  -3  -4  -1  345.63    6.68
  -3   4   1  361.70    6.89
   3   4  -1  313.86    6.82
   3  -4   1  306.14    6.55
   3   4  -1  321.45    6.24
   4   4  -1   51.89    2.31
   4   4  -1   51.05    1.99
  -4  -4  -1   45.51    2.11
   4  -4   1   50.01    2.15
  -4   4   1   44.36    2.06
   5  -4   1  195.16    5.11
  -5   4   1  209.63    5.24
  -5  -4  -1  204.97    5.39
   6  -4   1   45.69    2.30
   6   4  -1   43.62    2.56
   6  -4   1   53.10    3.96
  -6  -4  -1   49.54    2.73
  -6   4   1   41.04    2.24
  -6  -4  -1   38.75    2.39
  -7   4   1   44.41    2.46
   7   4  -1   42.84    3.30
   7  -4   1   48.37    3.93
  -7  -4  -1   46.30    2.74
   7  -4   1   40.24    2.34
  -8   4   1   72.01    3.35
  -8  -4  -1   76.16    3.79
   8  -4   1   78.44    3.40
   8   4  -1   83.69    5.35
  -9   4   1    2.78    1.25
   9   4  -1    3.18    2.17
  -9   4   1    4.13    1.40
   9  -4   1    3.12    1.29
  -9  -4  -1    3.41    1.55
 -10  -4  -1   80.35    4.40
 -10   4   1   75.79    3.70
  10  -4   1   96.84    4.20
  10   4  -1   99.18    6.26
 -10   4   1   87.40    4.25
 -11  -4  -1   56.31    3.87
 -11   4   1   48.09    2.92
  11  -4   1   59.12    3.58
 -11   4   1   56.27    3.60
 -12  -4  -1   -0.20    1.70
 -12   4   1    0.06    1.55
 -12   4   1    0.71    1.24
  12  -4   1    0.53    1.28
 -12  -4  -1    0.61    1.83
  13  -4   1  103.44    5.09
 -13   4   1   85.62    3.68
 -13   4   1   95.06    5.03
 -13  -4  -1  113.46    5.78
 -14   4   1    8.80    1.54
 -14   4   1    8.35    2.35
 -14  -4  -1   13.27    3.11
 -15  -4  -1   79.60    5.88
 -15   4   1   49.32    4.11
 -16  -4  -1   52.75    5.24
 -16   4   1   27.67    3.45
 -17  -4  -1   -0.20    2.50
 -17   4   1    0.58    2.15
 -16  -5   1   67.71    6.22
 -16   5  -1   44.65    4.42
 -15  -5   1    7.55    1.97
 -15  -5   1   11.46    3.24
 -15   5  -1    6.60    2.43
 -14   5  -1   22.36    3.20
  14   5   1   30.64    4.47
 -14  -5   1   34.42    4.41
 -14  -5   1   29.69    2.64
 -13  -5   1   24.28    3.48
  13   5   1   19.87    3.66
 -13  -5   1   20.65    2.25
 -13   5  -1   20.74    2.89
  12   5   1   17.69    3.52
 -12  -5   1   17.57    3.13
 -12   5  -1   15.90    2.55
 -12  -5   1   17.91    2.04
  12  -5  -1   17.07    2.87
 -11   5  -1   36.20    3.19
  11   5   1   38.54    4.48
  11  -5  -1   35.20    3.15
 -11  -5   1   45.03    2.74
 -10  -5   1  193.77    5.39
  10   5   1  204.61    8.54
  10  -5  -1  194.62    6.98
   9   5   1    1.71    1.78
   9  -5  -1    0.78    1.45
  -9   5  -1    1.66    1.42
  -8   5  -1  309.19    8.43
   8   5   1  333.51    9.12
   8  -5  -1  339.61    8.78
   7   5   1   19.24    1.98
  -7   5  -1   19.04    1.98
   7  -5  -1   20.31    2.09
   6   5   1   87.14    3.59
   6  -5  -1   91.30    3.80
   5  -5  -1   62.84    3.00
  -4  -5   1    6.40    1.14
   4  -5  -1    9.45    1.35
  -3  -5   1   26.17    1.71
  -3   5  -1   24.21    1.72
   2  -5  -1  161.68    4.63
  -2  -5   1  168.86    4.39
  -2   5  -1  170.09    4.26
   2   5   1  159.25    3.87
   1  -5  -1    6.67    1.10
  -1  -5   1   11.05    1.07
  -1  -5   1   11.75    1.82
   1   5   1    7.90    0.71
  -1   5  -1   11.36    1.10
   0   5   1  193.83    3.96
   0   5  -1  187.23    4.66
   0  -5  -1  185.17    5.02
   0   5   1  188.14    4.55
  -1  -5  -1    9.27    0.76
  -1  -5  -1    6.87    1.04
   1  -5   1    9.72    1.07
  -1   5   1    8.48    0.68
   1   5  -1    9.51    1.03
   1  -5   1   10.95    1.93
  -1   5   1    7.30    0.88
   2  -5   1  161.98    4.30
  -2  -5  -1  157.04    3.88
  -2   5   1  165.08    3.54
  -2  -5  -1  160.40    4.64
  -2   5   1  158.52    4.15
   3   5  -1   24.39    1.60
  -3   5   1   17.17    1.38
   3  -5   1   22.79    1.53
  -3  -5  -1   14.86    1.16
   3   5  -1   24.83    1.33
   3  -5   1   30.78    3.01
  -3  -5  -1   19.30    1.70
   4   5  -1    6.46    0.97
  -4  -5  -1    8.36    1.02
   4   5  -1    5.46    0.81
  -4   5   1    7.65    1.11
  -4  -5  -1    7.70    1.30
   4  -5   1    7.00    1.10
   5   5  -1   81.36    3.20
   5  -5   1   75.47    2.95
   5   5  -1   74.22    2.83
  -5   5   1   67.41    2.83
  -5  -5  -1   64.35    2.81
  -6  -5  -1   87.60    3.53
   6  -5   1   82.46    3.31
   6   5  -1   89.39    3.52
  -6   5   1   85.81    3.36
  -7  -5  -1   18.34    1.85
  -7   5   1   17.25    2.16
   7  -5   1   19.42    1.77
  -7   5   1   18.06    1.82
   7   5  -1   19.96    2.03
   8   5  -1  336.16    9.69
   8  -5   1  313.83    7.85
  -8   5   1  284.88    8.27
  -8   5   1  329.37    8.08
  -8  -5  -1  305.48    8.37
  -8  -5  -1  354.95    8.72
  -9  -5  -1    1.41    1.42
   9   5  -1   -0.35    2.19
   9  -5   1    0.92    1.13
  -9   5   1    1.21    1.52
  -9   5   1    1.92    1.26
  -9  -5  -1    0.80    1.15
 -10  -5  -1  165.71    6.56
  10  -5   1  179.97    6.07
  10   5  -1  178.12    8.57
 -10   5   1  170.38    5.87
 -10   5   1  155.70    5.75
 -10  -5  -1  187.91    6.57
 -11  -5  -1   30.32    2.98
  11   5  -1   40.16    4.41
 -11   5   1   33.56    2.83
  11  -5   1   36.48    2.81
 -11   5   1   31.85    2.63
 -11  -5  -1   38.17    3.18
 -12   5   1   14.92    1.97
 -12  -5  -1   13.09    2.36
  12  -5   1   16.35    2.43
 -12  -5  -1   16.01    2.73
 -12   5   1   15.60    2.31
 -12  -5  -1   14.58    2.39
  12   5  -1   15.50    3.48
 -13  -5  -1   18.50    2.94
 -13   5   1   16.76    2.47
 -13   5   1   11.94    1.84
 -14   5   1   19.98    2.12
 -14   5   1   24.26    3.04
 -14  -5  -1   29.12    3.78
 -15  -5  -1    8.53    2.84
 -15   5   1    5.11    2.17
 -16  -5  -1   65.64    5.58
 -16   5   1   42.64    4.07
  15   6   1   52.36    5.57
 -15  -6   1   49.03    5.22
 -14   6  -1    3.24    2.16
  14   6   1    5.01    3.11
 -14  -6   1    4.46    2.68
 -13  -6   1  130.79    7.15
  13   6   1  129.27    7.72
 -13   6  -1  108.55    5.63
  12   6   1   -0.11    2.75
 -12   6  -1    3.12    1.82
 -11  -6   1   81.49    4.34
  11   6   1   64.83    3.31
  11  -6  -1   94.15    5.10
  11   6   1  104.29    6.38
 -11   6  -1   84.07    4.62
 -10  -6   1    6.00    1.59
  10  -6  -1    6.44    1.90
 -10   6  -1    4.98    1.74
  10   6   1    3.73    1.57
  10   6   1    3.89    2.16
   9  -6  -1    5.36    1.74
  -9   6  -1    6.00    1.73
   9   6   1    4.91    1.60
   9   6   1    3.93    1.51
  -9  -6   1    5.98    1.43
   8  -6  -1    2.19    1.46
   8   6   1    1.84    1.23
  -8  -6   1    2.13    1.12
  -8   6  -1    2.51    1.43
   7  -6  -1   88.30    4.15
  -7  -6   1   81.20    3.64
   7   6   1   81.28    3.69
  -7   6  -1   85.74    3.99
   6  -6  -1   27.39    2.30
  -6   6  -1   25.24    2.20
  -6  -6   1   25.52    1.97
   6   6   1   22.61    1.96
  -5   6  -1  270.66    7.19
   5   6   1  256.87    6.60
  -5  -6   1  292.43    7.23
  -5  -6   1  255.29    6.61
   5  -6  -1  289.23    7.38
  -4  -6   1    6.23    1.25
  -4  -6   1    5.62    1.04
  -4   6  -1    6.52    1.27
   4  -6  -1    7.12    1.45
   3  -6  -1  245.43    6.52
  -3  -6   1  252.28    6.16
  -3  -6   1  264.26    6.38
  -3   6  -1  254.07    6.49
  -2  -6   1    2.30    0.92
   2   6   1    1.81    0.60
  -2  -6   1    2.36    0.75
  -2   6  -1    2.33    0.93
  -2   6  -1    2.19    0.84
   2  -6  -1    2.78    1.06
  -1   6  -1   40.66    2.08
  -1   6  -1   34.62    2.11
   1   6   1   35.45    1.61
   1  -6  -1   37.05    2.30
  -1  -6   1   40.72    2.17
   0   6   1   32.77    1.51
   0   6  -1   33.59    2.05
   0  -6  -1   28.44    2.10
   0  -6   1   35.81    2.10
   0   6   1   29.97    1.77
   0   6  -1   34.14    1.90
  -1  -6  -1   42.48    2.45
  -1   6   1   36.84    1.54
  -1   6   1   38.48    2.01
   1  -6   1   33.86    2.01
   1   6  -1   42.34    2.15
  -2  -6  -1    2.29    0.65
   2  -6   1    2.50    0.91
  -2   6   1    2.41    0.84
  -2  -6  -1    2.54    1.04
  -2   6   1    2.32    0.58
   2   6  -1    2.64    0.85
  -3   6   1  246.69    6.02
  -3  -6  -1  251.47    6.69
  -3  -6  -1  244.27    5.77
   3  -6   1  244.80    6.00
  -3   6   1  257.94    5.15
   3   6  -1  248.88    5.62
  -4  -6  -1    6.21    1.40
  -4   6   1    6.38    1.13
   4  -6   1    7.46    1.27
   4   6  -1    6.76    1.09
   4   6  -1    6.38    0.95
  -4  -6  -1    5.85    0.96
  -5  -6  -1  278.62    7.71
  -5  -6  -1  270.82    6.70
   5  -6   1  268.66    6.70
  -5   6   1  283.11    6.90
   5   6  -1  266.68    6.41
   5   6  -1  273.81    6.94
   6  -6   1   26.04    2.00
   6   6  -1   27.95    2.06
  -6  -6  -1   24.77    1.95
  -6   6   1   23.53    2.55
  -6   6   1   25.94    2.06
  -7   6   1   83.76    3.66
   7   6  -1   85.55    3.82
  -7   6   1   73.96    4.18
   7  -6   1   84.61    3.63
  -7  -6  -1   80.70    3.61
   8  -6   1    3.45    1.26
  -8  -6  -1    1.29    1.11
   8   6  -1    2.34    1.42
  -8   6   1    1.18    1.60
  -8   6   1    1.39    1.22
  -9   6   1    4.73    1.82
  -9   6   1    4.32    1.49
   9  -6   1    4.61    1.47
  -9  -6  -1    3.86    1.38
   9   6  -1    4.45    2.00
  10  -6   1    5.71    1.59
 -10   6   1    3.59    1.66
 -10  -6  -1    2.78    1.47
 -10   6   1    3.99    1.58
  10   6  -1    3.80    2.55
 -11  -6  -1   74.43    4.45
  11  -6   1   96.64    4.61
  11   6  -1   89.32    6.42
 -11  -6  -1   94.97    4.77
 -11   6   1   87.49    4.44
 -11   6   1   81.55    4.27
  12   6  -1    2.79    2.73
 -12   6   1    1.45    1.57
 -12   6   1    1.20    1.57
 -12  -6  -1    1.20    1.42
 -13   6   1  105.64    5.23
  13   6  -1  125.40    8.00
 -13  -6  -1  124.23    6.38
 -13   6   1   93.66    4.40
 -14   6   1    3.62    1.91
 -14  -6  -1    4.54    2.40
 -14   6   1    3.43    1.62
 -15   6   1   35.11    3.44
 -15  -6  -1   47.06    4.67
  15   7   1   -0.23    2.94
  14   7   1   10.50    3.42
 -14  -7   1   10.98    3.18
 -14   7  -1   10.79    2.73
 -13   7  -1    2.70    2.10
  13   7   1    1.68    2.80
  12   7   1   15.77    3.56
 -12   7  -1   16.20    2.74
 -11   7  -1    2.50    1.84
  11   7   1   -0.34    1.40
  11   7   1    1.11    2.21
  10   7   1   73.96    4.37
 -10   7  -1   84.16    4.53
   9   7   1    2.62    1.53
   9  -7  -1    2.80    1.64
   9   7   1    1.67    1.69
  -9   7  -1    3.80    1.59
  -9  -7   1    1.84    1.29
   8  -7  -1  135.37    5.53
   8   7   1  119.00    4.83
   8   7   1  108.94    5.23
  -8  -7   1  119.36    4.74
  -8   7  -1  129.50    5.24
   7   7   1    1.54    1.16
  -7  -7   1    0.90    1.03
  -7   7  -1    1.69    1.44
  -7  -7   1    1.07    1.32
   7   7   1    1.63    1.75
   7  -7  -1    1.14    1.31
   6   7   1   63.12    3.09
  -6  -7   1   71.83    3.64
  -6  -7   1   61.59    3.15
   6   7   1   58.48    3.96
  -6   7  -1   71.44    3.74
   6  -7  -1   68.52    3.60
   5  -7  -1    3.27    1.41
   5   7   1    2.90    1.04
  -5   7  -1    3.32    1.24
  -5  -7   1    3.21    1.02
  -5  -7   1    3.75    1.32
  -4  -7   1    1.17    0.92
   4   7   1    0.36    0.82
  -4  -7   1    0.58    1.01
  -4   7  -1    1.79    0.85
  -4   7  -1    0.77    1.02
   4  -7  -1    0.28    1.27
  -3  -7   1   12.95    1.32
  -3   7  -1   15.11    1.65
  -3   7  -1   18.40    1.63
   3  -7  -1   17.29    1.85
   3   7   1   16.30    1.49
  -3  -7   1   14.91    1.69
  -2   7  -1  220.62    5.67
  -2   7  -1  191.23    5.72
  -2  -7   1  216.75    5.84
   2   7   1  199.29    4.96
   2  -7  -1  208.34    6.18
  -1   7  -1    1.62    0.89
   1  -7  -1    1.38    1.17
   1   7   1    0.94    0.64
  -1   7  -1    2.00    1.02
  -1  -7   1    2.26    1.20
   0   7   1  380.25    7.41
   0  -7  -1  367.17    8.99
   0  -7   1  368.84    8.47
  -1  -7  -1    0.91    1.24
  -1   7   1    1.34    0.63
  -1   7   1    0.99    0.87
   1   7  -1    2.09    0.88
   1  -7   1    2.22    1.05
   2   7  -1  218.84    5.76
  -2   7   1  196.26    5.39
  -2   7   1  203.19    4.63
   2  -7   1  197.15    5.60
  -2  -7  -1  213.26    6.30
  -3   7   1   18.38    1.60
   3   7  -1   15.62    1.57
  -3   7   1   17.24    1.21
  -3  -7  -1   18.27    1.96
  -3   7   1   16.16    2.50
  -3  -7  -1   17.96    1.46
   3  -7   1   14.34    1.57
   3   7  -1   14.24    1.32
   4   7  -1    0.26    0.80
  -4  -7  -1    0.80    0.82
  -4   7   1    0.62    0.88
  -4   7   1    0.70    1.70
   4  -7   1    0.68    1.10
   4   7  -1    0.75    0.78
  -4   7   1    0.69    0.60
  -4  -7  -1    0.83    1.22
  -5   7   1    2.00    1.05
  -5  -7  -1    2.46    1.42
  -5   7   1    2.73    1.88
   5   7  -1    2.68    1.01
  -5  -7  -1    2.49    0.98
   5   7  -1    3.94    1.03
   5  -7   1    4.48    1.29
  -6  -7  -1   65.59    3.88
  -6   7   1   68.14    3.35
  -6   7   1   57.86    3.99
  -6   7   1   66.37    3.21
   6   7  -1   64.27    3.02
  -6  -7  -1   59.83    3.04
   6  -7   1   63.27    3.11
  -7   7   1    2.12    1.83
   7   7  -1    2.59    1.21
  -7  -7  -1    0.59    1.54
  -7   7   1    2.01    1.35
  -7  -7  -1    2.31    1.09
   7  -7   1    1.17    1.21
  -8  -7  -1  119.43    4.87
  -8   7   1  125.30    4.84
   8  -7   1  133.78    4.93
   8   7  -1  124.09    5.13
   9   7  -1    2.71    1.74
   9  -7   1    2.52    1.40
  -9   7   1    2.23    1.45
  -9   7   1    1.65    1.73
  -9  -7  -1    1.31    1.29
 -10   7   1   70.94    4.32
 -10  -7  -1   72.26    4.10
 -10   7   1   80.78    4.19
  11   7  -1    0.65    2.76
 -11  -7  -1    0.89    1.35
 -11   7   1    0.99    1.52
 -11   7   1    1.30    1.71
  12   7  -1   13.41    3.55
 -12   7   1   14.74    2.41
 -13   7   1    2.34    2.02
  13   7  -1    2.37    2.74
 -14   7   1    8.54    2.47
 -14  -7  -1   13.23    2.96
  14   7  -1   13.92    3.94
  14   8   1    0.79    2.89
  13   8   1   82.25    6.68
 -13   8  -1   85.93    5.20
  12   8   1    6.47    2.82
 -12   8  -1    6.19    2.29
 -11   8  -1   79.48    4.67
  11   8   1   71.27    4.76
  10   8   1    5.72    2.07
 -10   8  -1    9.23    2.24
  10   8   1    8.50    2.06
   9   8   1    2.83    1.49
   9   8   1    4.54    2.09
  -9   8  -1    3.51    1.71
   8   8   1   16.48    2.04
  -8   8  -1   17.06    2.43
   8   8   1   14.91    2.58
   7  -8  -1   63.54    3.85
  -7   8  -1   58.21    3.60
  -7  -8   1   68.80    3.84
  -7  -8   1   62.59    3.37
   7   8   1   51.88    3.09
   7   8   1   55.27    4.19
  -6   8  -1    8.62    1.67
   6   8   1   13.25    2.58
   6  -8  -1   14.57    2.16
  -6  -8   1   11.52    1.65
   6   8   1   11.17    1.54
  -6  -8   1    8.58    1.71
  -5  -8   1  168.36    5.39
   5  -8  -1  183.65    6.34
  -5  -8   1  188.53    5.96
   5   8   1  161.15    6.99
   5   8   1  148.24    4.90
  -5   8  -1  187.30    5.37
  -5   8  -1  172.58    5.81
   4   8   1    2.97    1.03
  -4   8  -1    3.89    1.34
   4   8   1    3.45    2.02
   4  -8  -1    4.83    1.56
  -4   8  -1    4.87    1.29
  -4  -8   1    2.46    0.98
  -4  -8   1    3.67    1.36
  -3  -8   1  121.83    4.49
   3   8   1   99.59    3.71
  -3   8  -1  124.98    4.27
   3   8   1   89.59    5.28
   3  -8  -1  103.25    4.40
  -3   8  -1  106.16    4.25
  -2  -8   1    6.46    1.55
   2  -8  -1    9.20    1.72
  -2  -8   1    8.11    1.54
   2   8   1    8.18    1.11
   2   8   1   11.43    2.47
  -2   8  -1   10.52    1.46
  -2   8  -1    7.98    1.53
   2   8   1    8.95    1.27
   1   8   1   17.04    2.79
   1   8   1   17.69    1.39
  -1   8  -1   19.63    1.76
  -1  -8   1   18.52    1.94
  -1   8  -1   17.40    1.87
   1  -8  -1   20.07    2.14
   0  -8   1   21.43    1.97
   0  -8  -1   31.52    2.56
   0   8   1   28.58    1.65
   0   8   1   30.71    3.26
   0   8  -1   27.14    2.07
  -1   8   1   17.49    1.70
   1  -8   1   17.70    1.85
  -1   8   1   20.08    1.41
  -1   8   1   18.01    2.72
   1   8  -1   19.63    1.79
  -1  -8  -1   17.48    2.19
   2   8  -1    8.91    1.35
  -2   8   1    9.53    1.07
  -2  -8  -1   10.44    1.88
  -2  -8  -1   10.02    1.90
  -2   8   1    9.34    1.44
   2  -8   1    7.29    1.49
  -3   8   1  101.05    3.87
  -3  -8  -1  109.28    4.67
  -3   8   1  107.33    3.26
   3   8  -1  103.23    3.60
   3   8  -1  110.41    4.13
   3  -8   1  108.54    4.06
   4  -8   1    3.82    1.29
   4   8  -1    3.91    1.04
  -4   8   1    2.14    1.84
  -4   8   1    3.35    0.85
  -4   8   1    2.99    1.15
  -4  -8  -1    3.78    1.52
   4   8  -1    2.29    1.09
  -4  -8  -1    3.39    1.04
  -5   8   1  187.45    4.61
  -5  -8  -1  158.14    5.13
  -5  -8  -1  173.25    6.33
  -5   8   1  168.78    7.12
  -5   8   1  165.13    5.38
   5   8  -1  184.03    5.76
   5  -8   1  179.27    5.69
   5   8  -1  165.26    5.02
  -6  -8  -1   11.17    1.63
  -6  -8  -1   12.86    2.15
  -6   8   1   13.14    1.73
   6   8  -1   11.56    1.60
  -6   8   1   11.60    1.21
   6  -8   1    9.25    1.65
  -7   8   1   56.76    4.17
  -7   8   1   60.74    3.36
  -7  -8  -1   52.95    3.10
   7   8  -1   60.58    3.34
  -7  -8  -1   61.19    4.00
   7  -8   1   64.25    3.45
   8   8  -1   14.62    2.08
  -8   8   1   17.23    2.14
  -8  -8  -1   16.49    2.02
  -9  -8  -1    2.44    1.49
   9   8  -1    5.33    1.82
  -9   8   1    5.10    1.72
  10   8  -1    6.29    2.15
 -10   8   1    8.69    2.03
 -10  -8  -1    9.03    1.88
 -11   8   1   76.34    4.31
  11   8  -1   85.49    6.20
  12   8  -1    3.41    3.10
 -12   8   1    6.29    2.09
  13   8  -1   91.23    6.89
 -13   8   1   76.88    4.71
  14   8  -1    0.62    3.14
  15   8  -1   22.55    4.56
  13   9   1   20.54    3.91
  12   9   1    3.71    2.70
  11   9   1   18.05    2.73
 -11   9  -1   19.28    2.93
  10   9   1   40.25    3.64
  10   9   1   48.28    3.64
 -10   9  -1   62.68    4.25
 -10   9  -1   53.81    3.93
   9   9   1    1.81    1.50
  -9   9  -1    0.48    1.68
   9   9   1    0.70    2.05
  -8   9  -1   93.62    4.75
   8   9   1   79.62    5.19
   8   9   1   85.21    4.21
  -7   9  -1   29.32    2.79
   7   9   1   29.24    3.58
  -7   9  -1   35.13    2.57
   7   9   1   28.66    2.50
   6   9   1   34.17    3.75
  -6   9  -1   38.19    2.91
   6   9   1   32.50    2.43
  -5  -9   1   34.31    2.41
   5   9   1   40.77    3.99
  -5   9  -1   40.83    2.97
   5   9   1   40.13    2.52
   4   9   1    1.34    2.16
  -4   9  -1    1.74    1.16
   4   9   1    0.94    1.08
  -4   9  -1   -0.14    1.22
  -3   9  -1   28.03    2.52
  -3   9  -1   32.58    2.40
   3  -9  -1   32.96    2.79
   3   9   1   31.30    3.71
   3   9   1   31.14    2.17
  -3  -9   1   32.28    2.69
  -2   9  -1   65.81    3.22
   2   9   1   62.00    2.73
  -2  -9   1   62.48    3.54
   2   9   1   53.68    4.55
   2  -9  -1   56.95    3.61
  -2   9  -1   57.74    3.36
   2   9   1   53.60    2.75
   1   9   1   -0.23    2.11
   1   9   1    0.53    0.81
   1  -9  -1    1.09    1.65
  -1   9  -1    0.76    1.04
  -1  -9   1    1.25    1.35
   0   9   1   82.97    5.40
   0   9  -1  107.84    4.15
   0  -9   1  100.07    4.26
   0  -9  -1   88.83    4.47
   0   9   1   91.30    3.25
  -1  -9  -1   -0.31    1.51
   1   9  -1    1.32    1.09
  -1   9   1    1.47    2.07
   1  -9   1   -0.25    1.37
  -1   9   1    1.34    0.86
   2   9  -1   65.67    3.31
   2  -9   1   58.81    3.28
  -2   9   1   54.62    4.48
  -2  -9  -1   59.16    3.81
  -2   9   1   62.41    2.59
  -2   9   1   54.58    2.99
   3   9  -1   28.85    2.27
  -3   9   1   31.97    1.84
   3  -9   1   26.47    2.29
  -3   9   1   31.20    2.35
   3   9  -1   25.93    1.99
  -4   9   1   -0.19    0.79
  -4   9   1    0.46    1.15
   4   9  -1   -0.32    1.10
   4   9  -1    0.32    0.95
  -5   9   1   42.23    2.74
  -5  -9  -1   38.47    2.51
   5   9  -1   37.08    2.45
   5   9  -1   43.42    2.88
  -5   9   1   46.62    2.24
  -6  -9  -1   35.75    2.61
   6   9  -1   39.77    2.66
  -6   9   1   36.52    2.64
  -7   9   1   31.70    2.64
  -7  -9  -1   27.99    2.46
  -7   9   1   32.38    1.99
   7   9  -1   28.10    2.55
  -8  -9  -1   84.86    4.24
  -8   9   1   91.16    4.37
   8   9  -1   93.76    4.49
   9   9  -1    1.64    1.71
  -9   9   1    1.57    1.57
 -10   9   1   57.79    4.00
 -10   9   1   53.67    3.66
  10   9  -1   57.30    4.17
 -11   9   1   20.34    2.67
  11   9  -1   19.06    3.57
  12   9  -1    2.21    3.19
  13   9  -1   20.23    4.28
  14   9  -1    6.01    3.57
  15   9  -1    3.78    3.84
  10  10   1   17.57    2.54
   9  10   1    0.31    2.23
   9  10   1    1.41    1.52
  -9  10  -1    2.83    1.63
  -9  10  -1    2.20    1.79
  -8  10  -1   38.41    3.33
  -8  10  -1   46.41    3.07
   8  10   1   34.08    3.82
   8  10   1   41.43    3.13
  -7  10  -1   13.07    2.09
   7  10   1    8.89    1.86
  -7  10  -1   10.93    2.08
   7  10   1    9.45    2.94
  -6  10  -1   11.95    2.07
   6  10   1   13.44    1.83
  -6  10  -1   16.65    2.08
   6  10   1   11.35    2.99
  -5  10  -1   40.98    3.17
   5  10   1   39.37    4.21
   5  10   1   32.90    2.47
  -4  10  -1    0.04    1.26
   4  10   1    0.44    1.15
  -4  10  -1    0.32    1.41
  -3  10  -1   77.89    3.71
  -3  10  -1   74.67    4.09
   2  10   1   58.95    2.86
   2  10   1   55.70    3.00
  -1  10  -1   14.35    1.94
   1  10   1    8.67    1.35
   0  10  -1   88.32    4.03
   0  10   1   78.48    3.15
  -1  10   1   12.70    1.48
   1  10  -1   12.06    1.72
   2  10  -1   58.12    3.29
  -2  10   1   65.99    2.90
   3  10  -1   71.91    3.64
   3  10  -1   67.72    3.31
  -3  10   1   73.13    3.01
  -3  10   1   68.91    3.64
  -4  10   1    0.62    1.26
  -4  10   1    0.46    0.95
   4  10  -1    0.64    1.11
   4  10  -1    0.54    1.31
   5  10  -1   42.79    3.02
  -5  10   1   40.88    2.93
   5  10  -1   40.53    2.68
  -5  10   1   40.00    2.28
  -6  10   1   13.09    1.93
  -6 -10  -1   11.71    1.71
  -6  10   1   13.40    1.54
   6  10  -1   11.85    1.83
   7  10  -1   10.43    1.96
  -7  10   1    8.45    1.80
  -7  10   1   11.52    1.56
  -8  10   1   40.60    3.11
   8  10  -1   38.93    3.15
  -8  10   1   46.07    2.59
   9  10  -1    3.35    1.84
  -9  10   1    1.72    1.20
  -9  10   1    2.28    1.79
  10  10  -1   16.23    2.80
  11  10  -1   10.86    3.07
  12  10  -1    3.92    3.26
  13  10  -1   20.21    4.69
  14  10  -1    6.15    3.77
  -9  11  -1    2.72    1.89
  -8  11  -1   26.08    2.75
  -7  11  -1   19.06    2.36
   7  11   1   13.31    2.15
   6  11   1    3.00    1.53
  -6  11  -1    4.03    1.78
  -6  11  -1    4.45    1.90
  -5  11  -1   52.79    3.84
  -5  11  -1   56.00    3.42
   5  11   1   44.03    3.01
   4  11   1    2.99    1.41
  -4  11  -1    3.66    1.76
  -4  11  -1    2.28    1.48
  -3  11  -1   73.91    3.84
   3  11   1   60.86    3.26
  -2  11  -1   23.92    2.45
   2  11   1   15.72    1.95
   1  11   1    8.70    1.45
  -1  11  -1   11.86    1.94
   1  11   1   10.14    1.64
   0  11  -1   20.30    2.23
   0  11   1   19.44    1.78
  -1  11   1   11.32    1.53
   1  11  -1   11.22    1.92
   2  11  -1   18.47    2.21
  -2  11   1   17.54    1.72
   2  11  -1   17.49    1.98
   3  11  -1   63.56    3.45
   3  11  -1   69.28    3.80
   4  11  -1    3.30    1.46
  -4  11   1    2.48    1.50
  -4  11   1    3.88    1.25
   4  11  -1    3.63    1.61
  -5  11   1   46.70    3.40
  -5  11   1   50.52    2.67
   5  11  -1   42.50    2.89
   6  11  -1    4.19    1.63
  -6  11   1    4.18    1.33
  -6  11   1    3.50    1.74
   7  11  -1   14.46    2.23
  -7  11   1   17.69    1.93
  -8  11   1   19.36    1.96
   8  11  -1   18.37    2.49
   9  11  -1    1.82    1.82
  10  11  -1   14.37    2.83
  11  11  -1   15.21    3.17
  -5  12  -1    5.24    1.83
  -4  12  -1    0.55    1.60
  -3  12  -1    3.41    1.75
  -2  12  -1   39.26    3.11
  -1  12  -1    0.34    1.46
   1  12   1    0.29    1.27
   0  12  -1   44.93    3.26
   0  12   1   42.07    2.64
   1  12  -1    1.27    1.45
  -1  12   1    0.16    1.13
  -2  12   1   36.60    2.41
   2  12  -1   38.80    3.02
   2  12  -1   31.89    2.69
   3  12  -1    4.85    1.58
   3  12  -1    4.64    1.78
   4  12  -1    0.53    1.58
   4  12  -1    1.18    1.50
   5  12  -1    4.29    1.72
   6  12  -1   12.64    2.13
   7  12  -1    1.63    1.90
   8  12  -1   62.74    4.19
   0   0  -2 1888.07   24.92
   0   0  -2 1878.34   24.94
   1   0  -2   10.43    0.66
  -1   0  -2    8.72    0.97
   1   0   2    8.16    1.16
  -1   0   2    9.01    0.54
  -1   0   2    9.61    0.50
   2   0   2  381.13    9.05
   2   0  -2  494.19    7.32
  -2   0   2  387.90    6.72
  -2   0  -2  348.16    7.00
  -2   0   2  448.89    6.75
  -2   0  -2  330.12    8.35
  -3   0  -2    3.22    1.11
  -3   0   2    3.08    0.56
  -3   0   2    4.56    0.48
  -3   0  -2    3.13    0.66
   3   0   2    2.23    1.13
  -4   0   2   11.50    0.82
  -4   0  -2    6.87    1.55
  -4   0  -2    7.66    1.06
  -4   0   2   11.65    1.08
   4   0   2   12.08    1.81
   5   0   2   14.11    1.42
  -5   0   2   18.84    1.18
  -5   0   2   17.88    1.53
  -5   0  -2   12.96    1.57
  -5   0  -2   17.20    2.60
  -6   0   2  381.79    7.73
  -6   0  -2  386.24    9.14
  -7   0   2    2.99    1.21
  -7   0  -2    3.63    1.25
  -8   0   2  293.42    8.18
  -8   0  -2  348.75    9.09
  -9   0   2   -0.39    1.33
  -9   0  -2    0.44    1.40
 -10   0   2  231.57    7.55
 -10   0   2  225.06    7.64
 -11   0  -2    8.10    2.89
 -11   0   2    5.62    1.88
 -11   0   2    5.86    1.91
 -11   0  -2    8.12    2.20
 -12   0   2   16.13    2.78
 -12   0  -2   15.34    2.81
  12   0   2   17.43    2.51
 -12   0   2   12.11    2.32
 -13   0   2    2.74    2.21
 -13   0   2    3.17    2.01
 -13   0  -2    3.46    2.45
 -13   0  -2    3.81    2.41
  13   0   2    3.98    2.04
 -13   0   2    2.93    0.77
 -14   0  -2   25.27    3.40
 -14   0   2   19.34    3.11
  14   0   2   18.34    2.57
 -14   0   2   16.69    1.01
 -14   0   2   21.58    3.34
 -15   0   2   -0.27    2.45
 -15   0   2    1.26    2.20
 -15   0  -2    1.75    2.28
  15   0   2    2.32    1.79
 -16   0   2  145.69    7.48
 -16   0  -2  162.85    7.80
 -16   0   2  153.36    7.77
 -17   0  -2    1.42    2.47
 -17   0   2    0.18    2.44
 -18   0   2   92.64    6.44
 -18   0  -2   99.03    6.51
 -18   1  -2    9.22    3.07
 -18  -1   2    8.47    3.32
 -17   1  -2    1.69    2.52
 -17  -1   2    2.09    2.89
 -16  -1   2    8.38    2.31
 -16   1  -2    7.09    2.83
 -16  -1   2    9.02    3.28
 -15  -1   2   78.81    5.48
 -15  -1   2   71.80    4.57
 -15   1  -2   73.77    5.20
 -14  -1   2    1.17    2.00
  14   1   2    1.07    1.46
 -14   1  -2    1.00    1.98
 -14  -1   2    0.93    2.16
 -13  -1   2  223.52    8.87
 -13   1  -2  204.37    7.98
  13   1   2  162.99    6.06
 -13  -1   2  245.13    8.75
  13  -1  -2  174.02    7.89
 -13   1  -2  222.78    9.81
 -12   1  -2    9.02    2.87
 -12  -1   2    9.25    2.36
 -12   1  -2    8.01    2.32
 -12  -1   2    9.14    2.75
  12  -1  -2    8.27    2.53
 -11  -1   2  303.62    9.81
 -11   1  -2  293.29    9.30
  10  -1  -2   18.70    2.55
 -10  -1   2   14.10    2.52
 -10  -1   2   12.07    2.16
 -10   1  -2   14.66    2.39
  -9   1  -2   12.72    2.03
  -9  -1   2   11.52    1.50
  -9  -1   2   11.87    2.05
  -9  -1   2   12.25    2.15
   9  -1  -2   12.28    2.22
  -8  -1   2   18.18    1.71
  -8   1  -2   20.34    2.21
  -8  -1   2   17.26    2.34
  -8  -1   2   21.09    2.36
  -7  -1   2  178.26    4.87
  -7  -1   2  157.25    5.46
  -7   1  -2  185.65    5.80
  -7  -1   2  167.55    6.14
   7  -1  -2  148.67    5.91
  -6   1  -2   62.81    2.98
  -6  -1   2   55.54    2.25
  -6   1  -2   58.45    3.98
   6  -1  -2   65.92    3.44
  -6  -1   2   51.26    3.12
  -5  -1   2  778.22   13.07
  -5   1  -2  721.53   16.39
   5  -1  -2  676.28   14.59
  -5  -1   2  710.31   13.41
  -5  -1   2  756.33   14.67
  -4   1  -2   14.42    1.25
   4  -1  -2   11.32    1.24
  -4  -1   2   17.20    1.08
   4   1   2   17.04    2.11
  -4  -1   2   15.13    0.96
  -4   1  -2   11.68    1.86
  -4  -1   2   13.09    1.41
  -3  -1   2  454.43    9.61
  -3   1  -2  553.82    9.30
  -3  -1   2  550.00    9.07
   3  -1  -2  519.29   10.01
  -3   1  -2  474.41   11.66
  -2   1  -2    1.16    1.17
  -2  -1   2   13.48    0.80
   2  -1  -2   29.92    1.34
  -2   1  -2   13.71    0.81
   2   1   2   31.37    1.62
   1  -1  -2  105.62    2.46
   1  -1  -2  117.02    2.36
  -1  -1   2  116.38    2.55
  -1   1  -2  129.45    2.43
  -1   1  -2   96.20    4.00
  -1  -1   2  127.87    2.22
   1   1   2  148.64    3.29
   0  -1  -2  154.06    2.18
   0  -1  -2  159.69    2.19
   0   1   2  155.49    2.69
   1   1  -2  140.05    3.07
  -1  -1  -2  151.54    3.41
  -2   1   2   28.50    0.84
  -2   1   2   27.74    0.74
  -2  -1  -2   28.48    1.56
  -3  -1  -2  407.16    9.13
  -3   1   2  544.45    8.22
   3  -1   2  415.16    8.71
   3   1  -2  585.46    9.39
  -3  -1  -2  567.34   10.67
  -3   1   2  523.83    8.42
  -4   1   2   14.44    1.04
  -4   1   2   14.05    0.88
   4  -1   2   14.47    1.10
  -5   1   2  761.86   13.85
  -5  -1  -2  770.26   15.36
  -6   1   2   78.10    2.89
  -6  -1  -2   91.29    4.02
  -7   1   2  160.35    4.96
   7  -1   2  181.54    5.53
   8  -1   2   25.07    2.30
  -8   1   2   29.39    2.25
  -9   1   2   14.31    1.79
  -9  -1  -2   14.90    2.17
   9  -1   2   12.35    1.87
 -10  -1  -2   26.36    2.87
 -10  -1  -2   28.53    3.34
 -10   1   2   20.46    2.22
  11  -1   2  327.54    8.79
 -11  -1  -2  309.07    9.84
 -11  -1  -2  314.96   10.60
  11  -1   2  298.59    9.50
  12  -1   2   10.79    2.02
 -12   1   2    9.90    2.18
  12  -1   2    9.97    2.53
 -12  -1  -2   12.44    2.68
 -12  -1  -2   12.69    2.92
 -13  -1  -2  244.68    8.93
 -13   1   2  162.38    6.88
 -13   1   2  153.29    4.37
 -13   1   2  165.70    7.03
 -13  -1  -2  244.37    9.11
  13  -1   2  197.10    7.53
  13  -1   2  213.15    7.19
 -14   1   2    0.93    0.83
  14  -1   2    0.72    1.93
 -14   1   2    0.64    1.78
 -14  -1  -2   -0.08    2.11
 -14   1   2    0.65    1.70
 -15   1   2   51.76    2.07
 -15   1   2   58.27    4.56
 -15   1   2   58.50    4.53
 -16   1   2    6.27    2.53
 -16   1   2    8.54    2.70
 -17   1   2    1.20    2.48
 -17  -1  -2    0.50    2.75
 -18   1   2    9.95    3.16
 -18  -1  -2   12.20    3.33
 -17   2  -2    0.45    2.38
 -17  -2   2    0.84    2.65
 -16   2  -2   90.43    6.01
 -16  -2   2  110.11    7.12
 -16  -2   2  100.20    5.12
  15   2   2    6.78    1.26
 -15  -2   2   11.22    2.20
 -15   2  -2    6.55    2.60
 -15  -2   2   12.93    3.33
  14  -2  -2   27.48    3.74
 -14   2  -2   30.17    3.63
  14   2   2   18.88    1.88
 -14  -2   2   41.80    4.43
 -14  -2   2   36.41    3.13
 -13  -2   2   44.07    3.41
 -13   2  -2   51.43    4.29
 -13  -2   2   58.54    4.73
 -13  -2   2   56.40    3.57
  13  -2  -2   56.88    4.71
 -12   2  -2   11.86    2.50
 -12  -2   2   11.62    1.93
 -12  -2   2    7.47    1.69
 -12  -2   2   11.85    2.70
  12  -2  -2   10.35    2.70
 -11   2  -2   80.41    4.80
 -11  -2   2   78.10    3.99
 -11  -2   2   92.66    4.13
 -11  -2   2  100.28    6.00
  11  -2  -2   87.95    5.35
 -10   2  -2  323.00    9.46
 -10  -2   2  302.28    8.18
  10  -2  -2  263.98    9.85
 -10  -2   2  335.25    8.13
  10   2   2  401.59   12.43
 -10  -2   2  379.57   11.33
  -9   2  -2    2.89    1.49
  -9  -2   2    3.85    1.12
   9  -2  -2    6.01    1.91
  -9  -2   2    5.58    1.24
   9   2   2    4.75    2.24
  -9  -2   2    2.85    1.69
  -8   2  -2  450.07   10.71
   8   2   2  528.81   13.87
  -8   2  -2  404.76   11.52
  -8  -2   2  431.69    9.57
   8  -2  -2  409.86   11.05
  -8  -2   2  494.20    9.39
  -8  -2   2  527.82   12.72
  -7  -2   2   77.95    4.14
  -7   2  -2   70.35    3.44
   7  -2  -2   73.22    3.78
  -7  -2   2   83.04    2.70
  -7  -2   2   70.18    2.93
  -6  -2   2  312.61    8.43
  -6  -2   2  300.14    6.74
  -6  -2   2  312.11    5.78
   6  -2  -2  297.12    8.13
   6   2   2  321.61    9.67
  -6   2  -2  293.20    7.19
  -5  -2   2  178.49    4.64
  -5  -2   2  188.74    3.53
  -5   2  -2  182.34    4.98
   4  -2  -2   14.93    1.37
  -4  -2   2   17.66    1.15
  -4   2  -2   16.97    1.33
   4   2   2   17.81    1.53
   3  -2  -2  140.24    3.56
  -3  -2   2   97.37    2.83
  -3   2  -2  108.23    3.03
   3   2   2  145.75    3.87
  -2  -2   2  257.97    5.19
   2   2   2  283.70    5.67
  -2   2  -2  283.73    5.25
   2  -2  -2  254.52    5.31
   1  -2  -2   13.19    0.81
  -1  -2   2    8.60    0.66
  -1  -2   2    8.11    0.54
  -1   2  -2    8.74    0.66
   1   2   2   12.87    0.89
   0  -2  -2  581.47    9.76
   0  -2   2  602.30    9.33
   0   2   2  586.77    9.79
  -1  -2  -2   14.35    0.83
  -1   2   2   13.95    0.66
  -2   2   2  257.07    4.00
   2  -2   2  259.01    4.78
   3  -2   2  114.68    3.02
  -3   2   2  140.47    3.00
   4   2  -2   16.67    1.29
   4  -2   2   16.95    1.15
  -4   2   2   16.03    1.06
   5  -2   2  189.22    4.82
  -5   2   2  224.47    4.85
  -6  -2  -2  305.61    7.77
   6  -2   2  329.29    7.12
  -7   2   2   81.42    3.19
   7  -2   2   74.63    3.17
  -8   2   2  433.15    9.48
   8  -2   2  438.42    9.68
  -9  -2  -2    4.79    1.85
   9  -2   2    4.52    2.26
   9  -2   2    4.28    1.44
  -9   2   2    3.48    1.45
  -9  -2  -2    7.73    2.10
 -10   2   2  281.61    8.17
  10  -2   2  300.61    8.52
 -10  -2  -2  277.41    9.70
 -11   2   2   87.28    4.45
  11  -2   2   81.61    4.23
  11  -2   2   93.53    5.72
 -11  -2  -2   98.73    5.63
 -12  -2  -2   10.91    2.64
  12  -2   2   10.67    2.77
 -12  -2  -2   11.93    2.54
  12  -2   2   10.02    2.02
 -12   2   2    8.87    2.04
 -13   2   2   50.05    3.84
  13  -2   2   51.05    4.46
 -13  -2  -2   73.00    4.83
 -13   2   2   48.04    2.50
 -13  -2  -2   70.88    5.00
  13  -2   2   48.53    3.53
 -14   2   2   21.91    3.07
  14  -2   2   27.55    3.49
 -14   2   2   21.50    1.76
 -15   2   2    9.48    1.30
 -15   2   2   10.90    2.73
 -16  -2  -2  106.68    6.43
 -16   2   2   62.82    4.93
 -17  -2  -2    0.45    2.41
 -17   2   2   -1.43    2.49
 -17  -3   2   -0.12    2.93
 -17   3  -2   -1.11    2.47
 -16  -3   2   50.16    3.65
 -16  -3   2   61.41    5.64
 -15  -3   2   81.24    5.96
 -15  -3   2   77.64    4.19
 -14   3  -2   20.66    3.04
 -14  -3   2   27.29    3.97
 -14  -3   2   26.03    2.58
 -13   3  -2   89.97    5.30
 -13  -3   2   92.98    4.66
  13  -3  -2   86.76    5.99
 -12  -3   2    6.15    1.56
 -12  -3   2    6.33    1.48
  12  -3  -2    6.56    2.49
 -12   3  -2    7.95    2.10
 -12  -3   2    8.94    2.86
 -11  -3   2   90.38    4.25
  11  -3  -2   88.25    5.78
 -11  -3   2  107.36    3.94
 -11   3  -2   93.32    4.93
 -10  -3   2   81.95    3.79
 -10  -3   2   96.33    3.45
 -10  -3   2   85.53    2.36
  10  -3  -2   89.19    4.99
 -10   3  -2   82.80    4.40
   9   3   2    1.26    2.15
   9  -3  -2    0.96    1.52
  -9  -3   2    3.39    1.00
  -9  -3   2    1.91    1.03
  -9  -3   2    2.89    0.81
  -9   3  -2    2.12    1.41
  -9  -3   2    2.48    1.68
  -8  -3   2  220.84    7.62
  -8  -3   2  200.52    5.81
  -8   3  -2  204.88    6.47
  -8  -3   2  209.93    4.84
   7   3   2   27.80    2.98
  -7  -3   2   30.76    1.94
  -7   3  -2   31.00    2.34
  -7  -3   2   32.19    1.42
   6  -3  -2   73.82    3.44
  -6   3  -2   66.91    3.01
  -6  -3   2   65.49    2.75
   6   3   2   69.29    3.47
   5  -3  -2  350.45    7.98
  -5   3  -2  351.74    7.55
  -5  -3   2  350.35    7.35
   5   3   2  335.91    8.06
   4  -3  -2    9.33    1.23
  -4   3  -2    8.15    1.05
   4   3   2    8.09    1.10
  -4  -3   2    6.45    0.87
  -3  -3   2  422.42    7.99
   3  -3  -2  406.33    8.23
   3   3   2  403.81    8.17
  -2  -3   2  257.31    5.19
  -2  -3   2  251.74    5.43
  -2   3  -2  260.60    5.58
   2  -3  -2  296.82    5.88
   2   3   2  289.83    5.69
  -1   3  -2  161.95    3.75
  -1  -3   2  165.35    3.45
   1  -3  -2  159.60    3.90
   1   3   2  153.87    3.68
   0   3   2  476.94    8.00
   0  -3  -2  500.69    8.68
   0   3  -2  475.01    8.50
  -1  -3  -2  147.25    2.72
  -1  -3  -2  146.97    3.67
  -1   3   2  143.33    3.18
  -2  -3  -2  279.90    5.27
  -2  -3  -2  296.35    6.07
  -2   3   2  297.24    5.42
   3   3  -2  437.64    7.08
   3  -3   2  424.94    7.54
   4  -3   2    7.89    0.94
  -4   3   2    8.66    0.87
   4   3  -2    5.87    0.89
   5  -3   2  356.07    6.66
  -5   3   2  311.64    6.30
  -6   3   2   71.32    2.68
   6  -3   2   83.49    5.01
   6   3  -2   54.04    3.28
   6  -3   2   65.34    2.66
   7  -3   2   29.23    1.94
   7  -3   2   33.89    3.75
  -7  -3  -2   20.85    2.26
  -7   3   2   21.86    1.73
  -8  -3  -2  248.68    7.32
   8  -3   2  245.30    9.12
   8  -3   2  212.68    5.98
  -8  -3  -2  193.12    7.24
  -8   3   2  226.46    6.13
   9  -3   2    2.33    1.23
  -9  -3  -2    1.24    1.60
   9  -3   2    2.52    2.41
  -9  -3  -2    2.89    1.61
  -9   3   2    0.74    1.15
  10  -3   2   84.02    3.91
 -10  -3  -2   82.82    4.93
  10  -3   2  116.17    6.53
 -10  -3  -2  131.74    5.89
 -10   3   2   99.90    4.26
  11  -3   2  101.69    4.69
  11  -3   2  104.06    6.25
 -11  -3  -2   80.07    4.98
 -11  -3  -2  109.48    5.72
 -11   3   2   77.93    4.05
 -12  -3  -2    7.10    2.24
 -12   3   2    5.76    1.87
  12  -3   2    7.56    2.91
  12  -3   2    7.65    1.85
 -12  -3  -2    8.74    2.56
 -13   3   2   77.27    4.42
 -13   3   2   71.43    3.37
 -13  -3  -2  115.27    6.48
  13  -3   2   89.37    4.72
  13  -3   2   98.74    6.17
 -14   3   2   20.47    2.82
 -14   3   2   19.47    1.88
 -15   3   2   44.92    3.86
 -15   3   2   45.48    2.60
 -16  -3  -2   66.71    5.31
 -16   3   2   34.58    3.68
 -17  -3  -2   -0.29    2.56
 -17   3   2    0.86    2.13
 -17  -4   2    2.54    3.05
 -17   4  -2   -0.09    2.60
 -16   4  -2   43.28    4.37
 -16  -4   2   56.26    5.62
 -15  -4   2   62.93    3.50
 -15   4  -2   53.04    4.61
 -14   4  -2   17.38    2.95
 -14  -4   2   22.80    3.94
 -14  -4   2   17.58    2.03
  13   4   2  161.20    8.41
 -13  -4   2  174.82    8.60
 -13  -4   2  146.74    4.90
  12  -4  -2    1.46    1.98
 -12  -4   2    0.67    2.43
 -12   4  -2    0.79    1.78
 -12  -4   2    1.15    1.07
 -12  -4   2    0.89    1.28
 -11  -4   2   96.22    5.80
 -11  -4   2   80.00    4.07
 -11   4  -2   79.11    4.60
  11  -4  -2   85.15    5.09
 -11  -4   2   89.28    3.31
 -10  -4   2   88.31    4.06
 -10   4  -2   84.54    4.54
  10  -4  -2   84.90    5.26
 -10  -4   2  100.13    3.31
  -9   4  -2    8.18    1.81
  -9  -4   2    8.97    1.44
   9  -4  -2    8.53    2.02
  -9  -4   2   11.11    1.15
  -9  -4   2   11.09    1.12
   8  -4  -2  120.54    5.54
  -8  -4   2  130.09    4.57
  -8  -4   2  129.65    3.84
  -8   4  -2  120.54    4.78
  -7  -4   2   49.65    2.60
   7  -4  -2   56.43    3.28
  -7  -4   2   57.46    2.58
   7   4   2   51.80    3.17
  -7   4  -2   54.99    2.98
  -6  -4   2   56.03    2.68
  -6  -4   2   66.91    3.02
  -6   4  -2   62.86    3.04
   6   4   2   50.00    2.82
   6  -4  -2   58.68    3.17
   5  -4  -2  377.18    8.36
  -5  -4   2  284.42    6.91
  -5  -4   2  357.02    8.09
  -5   4  -2  315.70    7.44
   5   4   2  333.69    7.69
  -4  -4   2   29.23    1.71
  -4  -4   2   30.63    2.46
  -4   4  -2   29.74    1.87
   4   4   2   27.49    1.79
   4  -4  -2   28.35    1.93
   3   4   2  476.01    9.20
  -3  -4   2  447.21    8.98
  -3   4  -2  514.46    9.66
  -3  -4   2  482.81    8.94
   3  -4  -2  506.35    9.85
  -2  -4   2  134.58    3.25
  -2  -4   2  115.16    3.19
  -2   4  -2  133.06    3.61
   2  -4  -2  101.56    3.37
   2   4   2   99.58    3.11
  -1   4  -2   84.29    2.83
  -1   4  -2   94.28    3.20
   1  -4  -2  102.80    3.19
  -1  -4   2   77.16    2.46
   1   4   2  106.95    2.91
   0   4   2  261.11    5.64
   0   4  -2  315.22    6.74
   0  -4  -2  277.04    6.37
   0  -4   2  305.90    5.90
   0   4  -2  319.00    6.51
  -1  -4  -2   98.74    2.16
  -1  -4  -2  109.29    3.32
  -1   4   2  100.91    2.69
   1  -4   2  114.59    5.24
  -1   4   2   97.34    1.83
  -2   4   2   89.65    2.69
  -2  -4  -2   93.35    3.22
  -2   4   2  100.88    1.90
  -2  -4  -2   97.04    2.48
  -3  -4  -2  473.02    8.58
  -3   4   2  474.92    8.75
  -3  -4  -2  461.20    9.67
   3  -4   2  463.13    8.70
   3   4  -2  475.21    8.13
  -4  -4  -2   25.88    1.63
  -4   4   2   28.04    1.56
   4   4  -2   30.27    1.49
   4  -4   2   30.01    1.61
   5  -4   2  314.76    6.85
   5   4  -2  297.93    7.06
   6  -4   2   58.03    2.54
   6   4  -2   48.96    3.37
  -6   4   2   47.35    2.32
  -6  -4  -2   53.35    3.17
   7  -4   2   49.83    2.49
  -7   4   2   47.01    2.43
   8  -4   2  129.55    4.45
   8   4  -2   81.51    5.00
   8  -4   2  139.81    7.26
  -8   4   2   96.20    3.77
  -8  -4  -2   99.36    4.69
   9  -4   2    9.23    1.52
  -9   4   2   10.41    1.57
  -9  -4  -2    8.95    2.01
   9  -4   2   11.00    3.15
 -10  -4  -2   78.25    4.60
  10  -4   2   95.86    4.27
  10  -4   2  103.80    6.57
 -10   4   2   75.05    3.80
 -10  -4  -2   64.96    4.24
 -11  -4  -2   94.62    5.06
  11  -4   2   98.47    6.55
  11  -4   2   80.98    3.93
 -11   4   2   88.39    4.27
  12  -4   2    0.28    1.33
 -12  -4  -2    0.49    1.75
 -12  -4  -2   -0.23    2.08
 -12   4   2   -0.24    1.27
  12  -4   2   -1.40    2.59
 -12   4   2   -0.05    1.57
 -13   4   2  115.12    4.60
 -13   4   2  126.91    5.63
 -14   4   2    8.64    1.72
 -14   4   2   10.91    2.43
 -15   4   2   46.48    2.90
 -15   4   2   54.98    4.17
 -16  -4  -2   42.35    4.47
 -16   4   2   28.04    3.40
 -17  -4  -2    0.87    2.36
 -17   4   2   -1.19    2.27
 -16  -5   2   87.97    7.20
 -16   5  -2   57.22    4.82
 -15   5  -2    7.58    2.62
 -15  -5   2   13.68    3.96
  14   5   2   32.03    4.44
 -14   5  -2   28.61    3.34
 -14  -5   2   35.80    2.52
  13   5   2   14.08    3.42
 -13   5  -2   16.56    2.81
 -13  -5   2   20.53    1.90
 -13  -5   2   22.03    3.82
  12   5   2    8.56    2.87
  12  -5  -2    8.23    2.48
 -12   5  -2    7.17    2.23
 -12  -5   2   10.60    2.88
 -11  -5   2   47.78    3.22
 -11  -5   2   54.81    4.50
  11   5   2   33.34    4.35
  11  -5  -2   41.11    3.90
 -11   5  -2   41.30    3.31
 -10   5  -2  209.51    7.07
  10  -5  -2  222.87    7.82
 -10  -5   2  208.16    6.64
  -9  -5   2    1.64    1.15
  -9   5  -2    0.55    1.42
   9  -5  -2   -0.25    1.71
  -8  -5   2  368.82    8.90
  -8  -5   2  385.82    8.19
   8  -5  -2  392.70   10.16
  -8   5  -2  380.43    9.59
  -7  -5   2   10.28    1.51
  -7   5  -2    9.71    1.68
  -7  -5   2    8.12    1.30
   7  -5  -2    8.37    1.77
   6  -5  -2  175.89    5.82
  -6  -5   2  138.45    4.55
  -6  -5   2  169.70    5.29
  -6   5  -2  153.61    5.12
   6   5   2  148.11    4.92
   5  -5  -2   81.94    3.73
  -5  -5   2   97.77    3.47
  -5  -5   2  113.64    4.43
  -5   5  -2  107.59    3.94
   5   5   2   74.98    3.25
  -4  -5   2    7.53    1.09
  -4  -5   2    6.02    0.98
  -4   5  -2    6.45    1.28
  -4  -5   2    8.07    1.79
   4   5   2    6.76    1.07
   4  -5  -2    7.94    1.42
  -3  -5   2   26.24    1.66
  -3  -5   2   30.27    1.69
  -3  -5   2   35.67    2.91
  -3   5  -2   29.27    1.87
   3  -5  -2   18.01    1.74
   3   5   2   17.70    1.39
  -2  -5   2  217.08    5.04
  -2   5  -2  247.05    5.77
  -2  -5   2  188.61    4.86
  -2   5  -2  217.95    5.50
   2  -5  -2  230.67    5.88
   2   5   2  207.59    5.06
  -1  -5   2   19.26    2.49
  -1   5  -2   19.50    1.51
  -1  -5   2   21.70    1.41
  -1   5  -2   20.25    1.61
   1  -5  -2   11.61    1.36
   1   5   2   10.34    1.06
   0   5  -2  397.67    8.26
   0  -5  -2  369.27    8.31
   0  -5   2  439.79   11.15
   0  -5   2  334.67    7.21
  -1   5   2   11.14    1.03
   1   5  -2   18.16    1.51
  -1  -5  -2   11.92    1.40
   1  -5   2   22.96    2.89
   1  -5   2   19.68    1.32
  -1   5   2   11.00    0.62
  -2  -5  -2  210.57    4.52
  -2  -5  -2  223.60    5.86
  -2   5   2  223.35    3.93
  -2   5   2  211.34    4.92
   2  -5   2  212.80    5.05
   3   5  -2   28.70    1.89
  -3  -5  -2   15.34    1.58
  -3  -5  -2   16.03    1.17
  -3   5   2   16.81    1.25
   3  -5   2   29.91    3.49
  -3   5   2   19.70    0.83
   3  -5   2   30.05    1.68
   3   5  -2   29.31    1.36
   4   5  -2    8.06    1.22
  -4  -5  -2    7.94    0.97
  -4   5   2    8.12    1.10
  -4  -5  -2    7.95    1.45
   4   5  -2    6.10    0.84
   4  -5   2    7.30    1.08
   5  -5   2   99.14    3.31
   5   5  -2  102.00    3.87
  -5  -5  -2   69.78    3.01
  -5   5   2   76.44    3.02
   5   5  -2   96.86    3.27
   6  -5   2  144.46    4.45
   6   5  -2  155.06    5.15
   6   5  -2  139.36    4.82
  -6  -5  -2  143.39    4.72
  -6   5   2  157.74    4.54
  -7  -5  -2    5.82    1.30
   7  -5   2    9.19    1.40
   7  -5   2   11.48    3.11
  -7   5   2    8.43    1.35
   7   5  -2   10.33    2.15
   8  -5   2  487.97   14.38
  -8  -5  -2  342.87    9.28
   8   5  -2  255.08   10.41
  -8   5   2  373.39    8.48
  -8  -5  -2  393.29    9.95
   8  -5   2  353.27    8.22
   9   5  -2   -0.51    2.00
   9  -5   2    1.26    3.05
  -9  -5  -2    0.11    1.20
  -9   5   2   -0.19    1.18
   9  -5   2    0.34    1.25
  -9  -5  -2    0.52    1.50
 -10   5   2  214.52    6.43
 -10  -5  -2  221.81    7.77
 -11  -5  -2   37.56    3.29
 -11   5   2   28.45    2.75
 -11   5   2   32.47    2.67
 -11  -5  -2   32.42    3.12
  12  -5   2    7.61    1.87
 -12   5   2    9.45    1.88
 -12  -5  -2    9.50    2.41
 -12   5   2    9.29    1.94
 -13   5   2   10.33    2.03
 -13   5   2   12.18    2.19
 -13  -5  -2   14.87    2.79
 -14   5   2   28.09    3.08
 -14   5   2   22.47    2.38
 -15   5   2    6.57    2.32
 -15   5   2    3.71    1.61
 -15  -5  -2    6.53    2.90
 -16   5   2   56.04    4.32
 -16  -5  -2   86.06    6.10
  15   6   2   42.69    4.97
 -15   6  -2   39.85    4.09
 -15  -6   2   51.39    5.70
  14   6   2    2.01    2.79
 -14   6  -2    1.20    2.27
 -14  -6   2    0.11    2.81
 -13   6  -2  120.16    5.94
  13   6   2  126.00    7.31
  12   6   2   -0.72    2.77
 -12   6  -2    1.96    1.97
  11   6   2  119.00    6.77
 -11   6  -2  107.68    5.40
  10   6   2    2.99    2.07
  10  -6  -2    4.81    2.23
 -10   6  -2    6.62    1.94
   9  -6  -2   10.07    2.15
  -9  -6   2   10.95    1.70
  -9   6  -2   11.93    2.02
   8  -6  -2    4.88    1.76
  -8   6  -2    4.59    1.62
   7  -6  -2   98.88    4.69
  -7   6  -2   93.28    4.20
  -6  -6   2   22.78    2.25
  -6   6  -2   22.89    2.23
  -6  -6   2   23.67    1.96
  -5  -6   2  409.97    9.77
  -5   6  -2  330.80    8.52
  -5   6  -2  385.92    9.16
  -5  -6   2  367.09    8.31
   5  -6  -2  350.29    9.03
  -4  -6   2    8.08    1.21
  -4  -6   2    8.45    1.96
  -4   6  -2    7.85    1.31
   4   6   2    6.42    1.13
   4  -6  -2    7.79    1.57
  -3   6  -2  343.20    7.99
  -3   6  -2  370.68    8.13
  -3  -6   2  353.30    7.57
   3  -6  -2  355.80    8.56
   2  -6  -2    4.67    1.31
  -2  -6   2    4.17    2.00
  -2   6  -2    4.55    1.16
  -2   6  -2    3.33    1.01
  -2  -6   2    3.43    0.93
   2   6   2    4.96    0.97
  -1   6  -2   64.40    2.97
   1  -6  -2   63.32    3.09
  -1  -6   2   63.99    2.69
  -1   6  -2   71.08    3.09
   0   6  -2   34.84    2.13
   0   6   2   19.42    1.05
   0  -6   2   42.45    3.83
   0  -6  -2   18.93    1.83
   0  -6   2   40.67    2.00
  -1   6   2   58.12    2.42
  -1   6   2   60.28    1.75
  -1  -6  -2   59.74    3.16
   1  -6   2   58.59    2.48
  -2   6   2    4.12    0.52
   2   6  -2    4.76    1.11
   2  -6   2    2.61    0.91
  -2  -6  -2    4.74    1.24
   2  -6   2    3.59    2.56
  -2  -6  -2    4.29    0.66
  -2   6   2    4.61    0.91
  -3   6   2  346.77    6.00
  -3  -6  -2  309.82    6.75
  -3  -6  -2  319.69    8.21
  -3   6   2  316.24    7.03
   3  -6   2  337.33    7.30
   3   6  -2  337.20    6.79
  -4   6   2    8.03    1.12
  -4  -6  -2    7.57    1.02
  -4   6   2    7.05    0.63
  -4  -6  -2    7.00    1.51
   4  -6   2    8.96    2.98
   4   6  -2    5.66    1.20
   4  -6   2    5.50    1.18
   4   6  -2    5.17    0.89
  -5  -6  -2  322.21    8.92
   5   6  -2  351.90    8.39
  -5   6   2  340.13    7.59
  -5  -6  -2  320.59    7.46
  -5   6   2  356.28    7.79
   5   6  -2  329.66    7.34
   5  -6   2  325.21    7.44
   6  -6   2   20.13    1.77
   6   6  -2   20.75    2.02
  -6  -6  -2   12.64    2.07
  -6   6   2   16.32    1.66
  -6  -6  -2   13.98    1.54
   6   6  -2   20.54    1.85
   7  -6   2   90.64    3.62
  -7  -6  -2   88.57    3.88
   7   6  -2   84.10    4.08
  -7   6   2   89.76    3.61
   8   6  -2    5.29    2.09
   8  -6   2    4.70    1.32
  -8   6   2    4.23    1.28
  -8  -6  -2    4.31    1.34
   8  -6   2    4.96    3.13
   9   6  -2    5.53    2.60
  -9  -6  -2    8.54    1.69
   9  -6   2   13.19    3.65
  -9   6   2   11.25    1.72
   9  -6   2   10.26    1.57
  10   6  -2    6.10    2.65
 -10  -6  -2    2.05    1.47
 -10   6   2    3.00    1.58
  10  -6   2    5.95    1.62
 -10   6   2    3.94    1.74
 -11  -6  -2   93.06    4.99
 -11   6   2   98.38    4.80
  11   6  -2   75.98    5.97
 -11   6   2  115.73    4.82
 -12   6   2    1.73    1.61
 -12  -6  -2    0.60    1.76
 -12   6   2   -0.10    1.57
 -12  -6  -2    0.42    1.59
 -13   6   2  121.48    5.42
 -13   6   2  105.13    4.97
 -14   6   2    1.22    1.81
 -14  -6  -2    1.05    2.12
 -15   6   2   36.65    3.49
 -15  -6  -2   42.32    4.38
  14   7   2   14.59    3.63
 -14  -7   2   21.87    4.07
 -14   7  -2   15.26    3.11
  13   7   2    6.30    3.04
 -13   7  -2    5.20    2.45
 -13  -7   2    5.81    2.84
  12   7   2   13.24    3.20
  12   7   2    6.83    1.85
 -12   7  -2    9.20    2.36
  11   7   2    3.06    2.18
 -11   7  -2    0.83    1.74
 -10   7  -2   95.07    4.95
  10   7   2   72.81    4.39
   9   7   2    1.26    1.39
  -9   7  -2    0.39    1.53
   9  -7  -2    2.00    1.78
   8  -7  -2  173.78    6.82
  -8  -7   2  183.27    6.17
  -8   7  -2  181.07    6.64
  -7   7  -2    2.04    1.57
  -7  -7   2    0.45    1.33
   7  -7  -2    2.99    1.83
   6  -7  -2   99.17    4.70
  -6  -7   2  101.51    4.09
  -6   7  -2  100.14    4.46
  -5  -7   2    4.47    1.26
  -5   7  -2    5.41    1.37
  -4  -7   2    0.52    1.01
  -4   7  -2    0.53    1.00
  -4   7  -2    0.88    1.01
   4  -7  -2    0.98    1.40
  -4  -7   2    0.17    1.65
  -3   7  -2   11.79    1.57
  -3   7  -2   18.81    1.92
  -3  -7   2   10.04    1.39
  -3  -7   2   17.23    2.55
   3  -7  -2   19.62    2.11
   3   7   2   18.53    1.58
  -2   7  -2  230.47    6.58
  -2   7  -2  256.44    6.70
  -2  -7   2  248.77    6.20
  -2  -7   2  285.23    8.97
   2  -7  -2  225.36    6.82
   2   7   2  210.03    5.71
  -1  -7   2    3.73    2.26
  -1   7  -2    1.80    1.15
  -1  -7   2    0.67    1.07
   1  -7  -2    3.19    1.38
  -1   7  -2    2.19    1.13
   0   7   2  445.25    8.16
   0  -7  -2  432.33   10.44
   0  -7   2  435.81    9.34
  -1  -7  -2    3.11    1.52
   1   7  -2    3.11    1.14
   1  -7   2    1.59    1.14
  -1   7   2    1.94    0.56
   1  -7   2    2.47    2.56
  -1   7   2    2.13    0.91
  -2   7   2  232.01    4.69
  -2   7   2  212.06    5.65
  -2  -7  -2  240.52    7.12
   2  -7   2  220.62    5.81
  -3   7   2   17.32    1.00
  -3  -7  -2   16.47    1.31
  -3  -7  -2   21.25    2.17
   3  -7   2   10.85    1.43
  -3   7   2   17.41    1.48
   3   7  -2   15.60    1.76
   3  -7   2   19.08    3.62
   3   7  -2   12.72    1.25
   4   7  -2    0.60    0.72
   4   7  -2    0.08    1.02
  -4  -7  -2    0.58    0.70
  -4   7   2    0.81    0.51
  -4  -7  -2    0.14    1.28
  -4   7   2    0.74    0.87
   4  -7   2    0.79    2.60
   4  -7   2    0.76    1.05
   5   7  -2    6.72    1.41
  -5  -7  -2    8.84    1.23
  -5  -7  -2    9.12    1.77
  -5   7   2   10.92    1.40
   5  -7   2    4.76    1.27
   5   7  -2    5.24    1.20
  -5   7   2    9.26    0.81
   6  -7   2   92.08    3.66
  -6  -7  -2   92.96    4.70
  -6   7   2   89.55    3.66
  -6  -7  -2   79.61    3.49
   6   7  -2   87.70    3.71
   7   7  -2    2.83    1.27
  -7   7   2    3.69    1.29
   7  -7   2    1.79    1.28
  -7  -7  -2    2.09    1.67
  -7  -7  -2    2.86    1.15
   8  -7   2  161.10    5.28
  -8  -7  -2  133.43    6.18
  -8   7   2  166.05    5.49
  -8  -7  -2  144.88    5.57
   8   7  -2  150.52    6.02
   9   7  -2    1.21    2.24
   9  -7   2    0.93    1.23
  -9   7   2    0.04    1.34
  -9  -7  -2    1.38    1.29
  -9   7   2    0.65    1.72
 -10  -7  -2   67.76    4.06
 -10   7   2   83.72    4.06
  10   7  -2   77.61    6.14
  11   7  -2    0.43    2.48
 -11  -7  -2    2.28    1.52
 -11   7   2    2.87    1.65
 -12   7   2   10.59    2.16
  12   7  -2    7.03    3.03
 -13   7   2    7.28    2.07
 -13  -7  -2    7.07    2.23
 -14  -7  -2   15.11    2.96
 -14   7   2   14.33    2.58
 -13   8  -2   82.86    5.20
  13   8   2   71.17    6.01
  12   8   2    5.57    2.63
 -12   8  -2    5.94    2.34
 -11   8  -2   90.29    5.21
  11   8   2   74.49    4.77
  10   8   2    8.88    2.26
 -10   8  -2   12.90    2.55
  10   8   2   13.36    2.23
  -9   8  -2    9.53    2.24
   9   8   2    8.39    1.89
  -8   8  -2   27.21    2.87
   8   8   2   28.65    2.49
   7  -8  -2   63.59    4.15
  -7   8  -2   63.04    3.80
  -7  -8   2   67.09    3.62
   7   8   2   54.65    3.25
  -6  -8   2   11.27    1.74
  -6   8  -2   10.13    1.89
  -6   8  -2   15.71    1.96
   6  -8  -2   17.78    2.45
  -5   8  -2  196.16    5.95
  -5  -8   2  184.87    5.66
   5  -8  -2  185.00    6.71
  -4   8  -2    5.84    1.55
  -4   8  -2    4.60    1.43
  -4  -8   2    4.66    1.36
   4  -8  -2    4.53    1.77
  -3   8  -2  171.36    5.91
  -3  -8   2  176.83    5.39
  -3   8  -2  182.92    5.83
  -2   8  -2   24.90    2.29
  -2  -8   2   21.32    2.00
  -2   8  -2   31.39    2.46
   2  -8  -2   33.45    2.83
  -1   8  -2   17.34    1.89
  -1  -8   2   15.67    1.78
   1  -8  -2   15.59    2.22
   1   8   2   14.38    1.47
   0   8   2   38.57    1.70
   0   8  -2   33.76    2.46
   0  -8  -2   39.02    2.99
  -1   8   2   15.57    1.11
  -1  -8  -2   15.29    2.19
   1  -8   2   16.24    1.74
   1   8  -2   18.53    1.97
  -2   8   2   29.94    1.42
  -2   8   2   28.40    2.01
   2   8  -2   29.50    2.38
  -2  -8  -2   28.54    2.76
   2  -8   2   22.41    1.96
  -3   8   2  165.57    3.84
  -3  -8  -2  157.03    6.05
   3  -8   2  159.66    4.99
  -3   8   2  144.46    4.75
   3   8  -2  155.60    4.57
   4   8  -2    4.31    1.10
  -4   8   2    4.88    0.78
   4  -8   2    4.58    1.39
  -4   8   2    4.39    1.14
  -4  -8  -2    4.02    0.98
  -4  -8  -2    4.59    1.68
   4   8  -2    5.01    1.41
  -5   8   2  150.97    4.92
   5   8  -2  185.29    5.98
  -5  -8  -2  142.83    4.76
  -5  -8  -2  161.30    6.25
   5   8  -2  166.68    4.97
   5  -8   2  169.18    5.28
  -5   8   2  173.36    3.98
   6   8  -2   12.93    1.93
  -6   8   2   15.30    1.18
  -6   8   2   16.05    1.79
  -6  -8  -2   13.54    1.64
  -6  -8  -2   16.98    2.34
   6   8  -2   11.62    1.68
   6  -8   2    9.82    1.56
  -7   8   2   58.45    3.14
  -7  -8  -2   51.13    3.02
  -8  -8  -2   29.73    2.51
  -8   8   2   34.22    2.65
   8   8  -2   29.29    2.82
   9   8  -2    7.68    2.11
  -9  -8  -2    7.75    1.71
  -9   8   2    8.85    1.81
  10   8  -2    9.28    3.02
 -10  -8  -2   11.67    1.96
 -10   8   2   15.30    2.16
 -11   8   2   79.41    4.43
  11   8  -2   69.45    6.18
  12   8  -2    3.39    2.84
 -12   8   2    6.02    2.01
 -13   8   2   72.45    4.41
  13   8  -2   74.20    6.41
 -11   9  -2   16.43    2.77
 -11   9  -2   24.55    3.28
  11   9   2   18.21    2.71
 -10   9  -2   46.59    3.93
  10   9   2   33.96    3.69
  10   9   2   42.70    3.50
   9   9   2    2.84    1.60
  -9   9  -2    2.67    1.91
   9   9   2    1.84    2.08
   8   9   2   66.91    4.89
   8   9   2   80.77    4.06
  -7   9  -2   36.18    2.89
  -7   9  -2   29.83    2.86
   7   9   2   31.25    2.62
  -6   9  -2   58.59    3.44
  -6   9  -2   49.31    3.43
  -5   9  -2   51.92    3.42
   5   9   2   55.79    3.13
  -4   9  -2    0.36    1.41
  -4   9  -2    2.25    1.46
  -3   9  -2   55.65    3.34
  -3   9  -2   47.27    3.29
  -2   9  -2   65.27    3.85
  -2  -9   2   66.14    3.49
  -2   9  -2   69.45    3.61
  -1  -9   2    2.38    1.41
  -1   9  -2    3.04    1.41
   1  -9  -2    4.25    1.94
   0   9   2  111.87    3.37
   0   9  -2  135.67    5.10
   0  -9  -2  104.23    5.07
   0  -9   2  123.70    4.52
   1   9  -2    3.35    1.36
  -1  -9  -2    2.51    1.74
  -1   9   2    3.28    0.79
   1  -9   2    1.97    1.33
  -2   9   2   53.93    2.14
  -2   9   2   54.31    2.96
   2   9  -2   66.99    3.54
  -2  -9  -2   53.58    3.94
   2  -9   2   64.41    3.24
  -3   9   2   51.02    2.83
  -3   9   2   52.05    2.12
   3   9  -2   47.63    3.10
   4   9  -2    0.51    1.03
   4   9  -2    0.28    1.23
  -4   9   2    0.28    0.67
  -4   9   2   -0.22    1.15
  -5   9   2   64.69    2.32
  -5   9   2   60.15    3.07
   5   9  -2   53.74    2.88
   5   9  -2   57.98    3.57
  -5  -9  -2   50.58    2.71
   6   9  -2   50.15    3.44
  -6  -9  -2   37.23    2.59
  -6   9   2   49.38    2.13
  -6   9   2   43.22    2.74
   6   9  -2   43.20    2.81
  -7  -9  -2   29.92    2.45
  -7   9   2   31.76    2.49
  -7   9   2   36.09    1.88
   7   9  -2   32.08    2.72
  -8   9   2   93.00    2.99
  -8   9   2   84.16    3.96
   8   9  -2   94.61    4.72
   9   9  -2    2.61    1.92
  -9  -9  -2    1.33    1.41
  -9   9   2    1.88    1.48
 -10   9   2   44.82    3.37
  10   9  -2   52.11    4.96
  11   9  -2   24.30    4.35
 -11   9   2   24.38    2.67
 -11   9   2   24.60    2.89
  12   9  -2    3.63    3.17
  13   9  -2   26.02    4.48
  -9  10  -2    1.78    1.77
  -9  10  -2    1.04    2.02
  -8  10  -2   45.69    3.64
   8  10   2   46.74    3.23
   7  10   2    4.61    1.53
  -7  10  -2    9.13    2.23
  -7  10  -2    8.07    2.07
  -6  10  -2   16.49    2.41
  -6  10  -2   21.71    2.64
   6  10   2   16.28    2.01
  -5  10  -2   52.04    3.49
  -5  10  -2   46.67    3.56
   4  10   2    0.86    1.19
  -4  10  -2    0.46    1.50
  -4  10  -2    0.62    1.62
  -3  10  -2   79.19    4.14
  -3  10  -2   68.57    4.09
  -2  10  -2   73.49    3.93
  -1  10  -2   14.13    2.14
   0  10  -2  114.94    4.91
  -1  10   2   12.09    1.27
   1  10  -2   15.23    2.15
   2  10  -2   69.37    3.92
  -2  10   2   63.74    2.47
  -3  10   2   65.71    2.52
   3  10  -2   73.95    3.99
   3  10  -2   67.22    3.29
  -4  10   2    1.47    0.86
  -4  10   2    0.04    1.28
   4  10  -2    1.24    1.23
   4  10  -2    0.91    1.41
  -5  10   2   37.27    2.77
   5  10  -2   38.24    2.68
  -5  10   2   40.64    2.03
   6  10  -2   22.22    2.65
  -6  10   2   20.01    1.53
  -6 -10  -2   15.40    1.80
  -6  10   2   18.22    2.08
   6  10  -2   17.43    2.10
   7  10  -2    9.34    1.94
  -7  10   2    6.71    1.18
  -7 -10  -2    5.05    1.47
  -7  10   2    6.83    1.60
  -8 -10  -2   44.54    3.14
  -8  10   2   46.59    3.16
   8  10  -2   48.82    3.57
   9  10  -2    1.83    2.01
  -9  10   2    0.64    1.47
  10  10  -2   21.10    3.34
  11  10  -2   12.59    3.68
  -6  11  -2    4.16    1.96
  -5  11  -2   60.94    4.23
  -5  11  -2   66.14    4.07
   4  11   2    1.77    1.37
  -4  11  -2    1.57    1.64
  -4  11  -2    1.49    1.78
  -3  11  -2   82.89    4.45
   3  11   2   67.73    3.46
  -2  11  -2   19.16    2.51
   2  11   2   12.00    1.73
  -1  11  -2   13.63    2.18
   0  11  -2   27.59    2.85
   1  11  -2   13.05    2.09
   2  11  -2   18.22    2.36
   2  11  -2   14.97    1.88
   3  11  -2   85.77    4.48
   3  11  -2   69.75    3.53
   4  11  -2    1.42    1.70
  -4  11   2    1.61    1.46
   4  11  -2    2.19    1.41
   5  11  -2   60.96    3.99
  -5  11   2   59.78    3.51
   5  11  -2   51.67    3.30
   6  11  -2    3.66    1.69
   7  11  -2   15.71    2.44
   8  11  -2   18.43    2.62
   9  11  -2    2.75    2.32
  10  11  -2    8.27    2.83
   2  12  -2   31.96    2.70
   3  12  -2    5.15    1.61
   4  12  -2    1.35    1.57
   5  12  -2    2.79    1.82
   6  12  -2   18.57    2.51
   7  12  -2    1.18    1.82
   0   0  -3  502.64    8.37
   0   0   3  415.71    9.16
   1   0   3    0.41    1.04
  -1   0   3    0.71    0.52
  -1   0  -3    1.19    0.63
   1   0  -3    0.70    0.43
   2   0  -3  292.78    5.49
   2   0   3  280.81    7.39
  -2   0  -3  264.29    6.41
  -2   0   3  253.24    3.93
  -2   0  -3  252.23    4.28
  -3   0   3    9.64    0.65
  -3   0  -3   11.11    0.93
   3   0  -3    9.65    0.98
   3   0   3   10.28    1.77
  -3   0   3    9.48    0.68
  -3   0  -3    7.41    1.52
  -3   0   3    8.46    0.52
  -4   0  -3    1.08    1.26
  -4   0   3    0.91    0.52
  -4   0   3    1.33    0.45
  -4   0  -3    1.59    0.76
   4   0   3    0.81    1.25
  -5   0   3   19.28    1.12
  -5   0  -3   15.36    1.53
  -5   0   3   16.13    1.27
  -6   0   3  109.73    3.13
  -6   0   3  118.27    3.74
  -6   0  -3  106.47    4.28
  -6   0  -3  111.79    5.55
  -7   0  -3    2.37    1.95
  -7   0   3    4.34    0.79
  -7   0   3    6.08    1.30
  -7   0  -3    3.79    1.41
  -8   0   3  155.57    4.55
  -8   0  -3  199.87    6.66
  -8   0   3  171.62    5.54
  -8   0  -3  184.67    7.62
  -9   0  -3    0.24    1.89
  -9   0   3    0.15    0.81
  -9   0  -3   -0.86    1.74
  -9   0   3    0.22    1.26
 -10   0  -3  145.11    6.09
 -10   0   3  130.97    4.53
 -10   0   3  106.89    4.75
 -10   0  -3  156.69    7.09
 -10   0   3  126.82    5.24
 -11   0  -3    9.47    2.63
 -11   0   3    6.24    1.44
 -11   0   3    5.68    1.86
 -11   0  -3    7.76    2.22
 -11   0   3    3.90    1.57
 -12   0   3   13.00    1.87
 -12   0  -3   18.53    2.76
 -12   0   3   15.99    2.44
 -12   0   3   14.78    2.35
 -12   0  -3   20.85    3.09
 -13   0   3    3.10    1.96
 -13   0   3    5.88    2.06
 -13   0  -3    5.67    2.25
 -13   0   3    4.98    1.52
 -14   0   3    9.46    2.62
 -14   0   3   11.22    2.49
 -14   0   3    9.43    2.01
  14   0   3   11.83    2.64
 -14   0  -3   11.80    2.70
 -15   0   3    0.57    2.44
 -15   0   3    4.00    2.38
  15   0   3    0.79    2.02
 -15   0  -3    3.20    2.39
 -16   0   3   86.62    5.63
 -16   0  -3   95.72    5.92
 -17   0  -3   -0.17    2.39
 -17   0   3    0.80    2.36
  17   0   3    0.36    2.02
 -17  -1   3    0.56    2.47
 -17   1  -3    0.62    2.58
 -16   1  -3    4.04    2.72
 -16  -1   3    5.14    2.90
  16   1   3    5.22    2.13
 -15   1  -3   52.48    4.49
 -15  -1   3   52.75    4.94
  15   1   3   38.51    3.38
 -15  -1   3   49.41    3.53
 -14   1  -3    1.41    2.14
 -14  -1   3    1.20    1.56
 -14  -1   3    0.99    2.22
 -13   1  -3  145.74    6.73
 -13  -1   3  123.12    5.06
 -13  -1   3  129.51    6.38
 -13  -1   3  131.46    5.38
 -12   1  -3    3.43    2.72
 -12  -1   3    6.12    1.95
 -12   1  -3    6.26    2.25
 -12  -1   3    2.97    1.35
 -12  -1   3    4.65    2.12
 -11   1  -3  169.81    6.82
 -11  -1   3  147.51    6.49
 -11   1  -3  190.17    8.78
 -11  -1   3  179.01    6.25
 -11  -1   3  140.38    5.10
 -10   1  -3   10.49    3.02
 -10   1  -3    9.37    2.18
  10  -1  -3   13.91    2.62
 -10  -1   3    7.59    1.41
 -10  -1   3   11.22    1.99
 -10  -1   3    8.05    2.23
  -9  -1   3    1.37    1.25
  -9   1  -3    3.04    2.31
  -9   1  -3    2.20    1.60
   9  -1  -3    0.95    1.66
  -9  -1   3    1.77    0.95
  -9  -1   3    0.11    1.59
  -8  -1   3    7.40    1.76
  -8   1  -3   14.74    2.07
  -8  -1   3    9.70    1.48
  -8   1  -3   13.20    3.20
  -8  -1   3   10.51    1.36
  -7   1  -3  100.93    4.09
  -7  -1   3   91.43    3.04
  -7  -1   3   85.73    3.84
   7   1   3   75.69    5.14
  -7  -1   3   78.58    3.06
  -7   1  -3  106.37    6.18
   7  -1  -3   66.33    4.03
  -6   1  -3   19.16    1.81
  -6  -1   3   17.02    1.23
  -6  -1   3   17.18    1.73
   6   1   3   40.09    3.41
  -6  -1   3    5.55    0.85
  -6   1  -3   19.63    3.15
   6  -1  -3   35.13    2.67
  -5   1  -3  390.25    7.74
  -5  -1   3  349.83    6.75
  -5  -1   3  270.22    7.21
   5   1   3  334.29    9.91
  -5   1  -3  425.17   11.97
   5  -1  -3  340.83    8.63
   4   1   3    9.05    2.06
  -4  -1   3   11.42    0.88
  -4  -1   3    8.68    1.14
  -4   1  -3   11.72    2.34
   4  -1  -3    7.28    1.28
  -4   1  -3   10.68    1.05
  -3  -1   3  166.03    3.46
  -3  -1   3  127.56    3.62
   3   1   3  140.19    5.25
  -3   1  -3  137.71    5.58
  -3   1  -3  159.60    3.43
   3  -1  -3  107.51    3.69
  -2   1  -3    1.61    1.07
  -2  -1   3    7.44    0.64
  -2   1  -3    6.30    0.63
   2  -1  -3   14.89    1.07
   2   1   3   16.41    1.42
  -2  -1   3    0.74    0.50
   1  -1  -3   64.64    1.74
  -1   1  -3   67.35    2.25
   1  -1  -3   38.08    1.31
  -1  -1   3   57.84    1.02
   1   1   3   61.20    2.30
  -1   1  -3   44.15    2.34
  -1  -1   3   32.45    1.20
   0  -1  -3   76.08    1.87
   0   1  -3   51.88    2.12
   0   1   3   85.43    2.43
   0   1  -3   40.85    1.76
   1   1  -3   70.60    2.27
   1  -1   3   32.96    1.06
  -1  -1  -3   50.19    1.13
  -1  -1  -3   37.26    1.41
  -1   1   3   61.47    1.83
  -2  -1  -3   12.72    0.72
  -2   1   3   15.17    0.56
  -2  -1  -3   15.30    1.09
  -2  -1  -3   15.48    1.38
  -2   1   3   15.75    0.81
   3   1  -3  168.01    4.25
  -3  -1  -3  122.39    3.93
  -3   1   3  146.38    2.85
   3  -1   3  137.21    3.58
  -3   1   3  143.29    2.90
  -3  -1  -3  161.91    4.87
   4   1  -3   11.47    1.17
  -4   1   3    9.33    0.68
  -4  -1  -3    7.65    1.25
   4  -1   3   10.32    1.09
  -4  -1  -3    6.60    1.53
  -4   1   3    8.86    0.77
  -5   1   3  354.89    6.81
  -5   1   3  357.11    6.54
  -5  -1  -3  364.22    8.48
  -6   1   3   30.89    1.68
  -6  -1  -3   29.94    2.24
  -6   1   3   31.93    1.46
  -7   1   3   70.95    2.52
  -7  -1  -3   78.75    3.94
  -7  -1  -3   73.02    4.64
  -8   1   3   23.52    1.90
  -8   1   3   24.28    1.61
  -8  -1  -3   24.37    2.50
  -8  -1  -3   18.82    2.93
  -9   1   3    1.95    1.20
  -9  -1  -3    2.14    1.91
  -9   1   3    0.77    0.88
   9  -1   3    2.56    1.37
  -9  -1  -3    2.16    1.85
 -10   1   3   18.42    1.82
 -10   1   3   16.86    2.06
 -10  -1  -3   21.47    2.88
 -10  -1  -3   18.76    3.03
 -11   1   3  142.06    5.61
 -11  -1  -3  155.96    6.69
 -12   1   3    6.51    1.97
 -12  -1  -3    6.92    2.28
 -13   1   3  116.14    5.52
 -13  -1  -3  126.62    6.32
  13  -1   3  113.33    6.25
 -14   1   3    1.00    1.80
 -14  -1  -3    1.61    2.34
  14  -1   3    2.15    2.29
 -14   1   3   -1.03    1.75
 -15   1   3   39.23    3.79
  15  -1   3   44.09    4.21
 -15   1   3   33.97    3.65
 -16  -1  -3    9.26    3.01
  16  -1   3    6.31    2.63
 -16   1   3   10.90    2.71
 -17  -1  -3    0.86    2.60
  17  -1   3    0.21    2.32
 -17   1   3    1.01    2.36
 -17  -2   3   -0.94    2.88
 -17   2  -3   -0.09    2.59
 -16   2  -3   59.09    4.86
 -16  -2   3   68.04    5.50
 -15  -2   3    4.64    2.78
 -15   2  -3    2.14    2.44
 -14  -2   3   15.76    1.97
 -14   2  -3   14.33    2.81
 -14  -2   3   14.60    3.35
 -13   2  -3   30.27    3.47
  13  -2  -3   31.71    4.20
 -13  -2   3   31.66    3.95
 -13  -2   3   40.91    2.63
 -12   2  -3   10.05    3.18
  12  -2  -3    2.39    2.29
 -12  -2   3    6.67    1.50
 -12  -2   3   11.91    2.68
 -12  -2   3   10.79    1.54
 -12   2  -3    7.66    2.23
 -11   2  -3   31.96    3.18
 -11  -2   3   27.59    2.35
 -11  -2   3   30.94    3.27
 -11   2  -3   33.24    4.29
 -11  -2   3   37.36    2.17
  11  -2  -3   34.09    3.83
 -10   2  -3  195.48    6.93
 -10  -2   3  179.47    5.67
  10   2   3  228.43    9.15
 -10  -2   3  202.91    7.84
 -10   2  -3  192.22    8.75
 -10  -2   3  201.77    4.99
  10  -2  -3  153.01    7.47
  -9   2  -3    0.09    2.08
   9  -2  -3    1.18    1.87
  -9  -2   3    2.65    0.80
  -9  -2   3    3.56    1.05
  -9  -2   3    2.76    1.91
  -9   2  -3    2.17    1.55
   9   2   3    6.53    2.31
  -8  -2   3  226.50    5.86
   8   2   3  263.53    9.21
  -8   2  -3  221.25    8.76
  -8  -2   3  263.90    8.42
   8  -2  -3  182.25    7.54
  -8  -2   3  211.24    4.33
  -8   2  -3  232.14    6.79
  -7  -2   3   40.51    2.10
  -7   2  -3   38.10    3.72
   7   2   3   52.98    4.15
   7  -2  -3   49.60    3.69
  -7  -2   3   46.00    3.33
  -7  -2   3   41.63    1.18
  -7   2  -3   44.83    2.71
  -6  -2   3  119.16    3.58
   6  -2  -3  101.56    4.53
  -6   2  -3  102.03    5.67
   6   2   3  133.20    6.09
  -6   2  -3  124.85    4.22
  -6  -2   3  137.21    5.21
  -5  -2   3   45.61    2.93
  -5  -2   3   58.93    2.30
   5  -2  -3   93.92    3.88
  -5   2  -3   56.23    4.17
   5   2   3  115.82    4.96
  -5   2  -3   65.93    2.72
  -4   2  -3    7.02    1.98
  -4  -2   3    8.83    0.90
   4  -2  -3    8.98    1.30
   4   2   3   11.12    1.47
  -4   2  -3    9.41    1.03
  -3  -2   3   33.61    1.56
   3  -2  -3   58.51    2.46
  -3   2  -3   30.18    1.53
  -3   2  -3   25.61    2.82
   3   2   3   53.05    2.47
  -2  -2   3   91.91    2.49
  -2   2  -3   97.30    2.43
  -2   2  -3   89.90    4.61
  -1   2  -3    4.27    1.41
  -1   2  -3    4.91    0.58
  -1   2  -3    6.86    0.91
  -1  -2   3    3.63    0.45
   1   2   3    6.76    0.88
   1  -2  -3    6.51    0.70
   0  -2  -3  148.65    3.15
   0   2  -3  218.06    5.26
   0   2  -3  274.34    5.35
   0  -2  -3  176.55    3.80
   0  -2   3  225.79    3.50
   0   2   3  219.43    4.33
  -1   2   3    6.77    0.48
   1   2  -3    5.47    0.85
  -1  -2  -3    6.49    0.67
   1   2  -3    4.24    0.53
  -1   2   3    6.83    0.68
   1  -2   3    3.14    0.46
   2   2  -3  108.60    3.29
   2  -2   3   93.38    2.19
  -2  -2  -3   68.09    2.17
  -2   2   3   71.89    1.81
   3   2  -3   36.23    2.10
  -3   2   3   52.95    1.53
  -3   2   3   51.90    1.16
   3  -2   3   27.32    1.49
  -3  -2  -3   65.38    2.98
   4   2  -3    9.86    1.21
  -4   2   3   10.84    0.62
   4  -2   3    7.99    0.94
  -4   2   3   10.13    0.81
  -4  -2  -3    9.32    1.51
  -5  -2  -3  104.46    3.81
  -5   2   3  101.10    2.29
  -5   2   3  101.67    2.66
   6  -2   3  117.72    3.64
  -6   2   3  104.34    2.84
  -6  -2  -3   88.09    4.60
  -6   2   3  103.87    3.17
  -6  -2  -3   95.98    4.48
  -7   2   3   52.71    2.13
   7  -2   3   46.36    2.66
  -7  -2  -3   55.68    3.44
  -7   2   3   49.90    2.29
  -8  -2  -3  241.26    7.78
   8  -2   3  235.61    6.27
  -8  -2  -3  162.01    7.02
  -8   2   3  180.28    5.16
   9  -2   3    2.34    1.37
  -9  -2  -3    2.58    1.98
  -9  -2  -3    4.51    1.96
  -9   2   3    2.79    1.22
 -10  -2  -3  204.17    7.40
  10  -2   3  188.75    6.09
 -11   2   3   42.09    2.96
 -11  -2  -3   51.90    3.76
  12  -2   3    8.63    1.77
 -12  -2  -3    5.65    2.26
  12  -2   3    6.72    2.79
 -12   2   3    5.70    1.84
 -13   2   3   35.50    3.10
  13  -2   3   33.55    2.88
  13  -2   3   34.23    4.11
 -14  -2  -3   15.49    3.15
  14  -2   3   10.44    3.12
 -14   2   3    8.01    2.29
  15  -2   3    8.09    2.96
 -15  -2  -3   11.20    2.88
 -15   2   3    9.34    2.50
 -16   2   3   43.60    4.01
  16  -2   3   43.40    4.57
 -17  -2  -3    0.26    2.57
 -17   2   3   -0.23    2.27
 -17   3  -3    0.85    2.58
 -17  -3   3    1.46    3.10
 -16  -3   3   40.12    5.37
 -16   3  -3   27.87    3.74
 -15  -3   3   64.62    5.67
 -15   3  -3   47.71    4.33
 -14  -3   3    7.14    2.77
 -14   3  -3    8.11    2.52
 -14  -3   3    8.89    1.60
 -13  -3   3   54.25    1.81
 -13  -3   3   90.88    5.96
 -13  -3   3   82.61    3.15
  13  -3  -3   55.77    5.25
 -13   3  -3   73.03    4.75
 -12  -3   3    3.54    1.02
  12  -3  -3    5.51    2.60
 -12  -3   3    4.99    2.63
 -12   3  -3    2.72    2.06
 -12  -3   3    3.25    1.36
  12   3   3    4.83    2.63
 -11  -3   3   45.41    2.84
  11   3   3   46.78    4.43
 -11   3  -3   37.89    3.85
 -11  -3   3   61.69    5.05
  11  -3  -3   31.13    4.15
 -11  -3   3   53.14    2.13
 -11   3  -3   55.92    3.89
 -10  -3   3   47.38    2.91
 -10   3  -3   43.95    3.91
 -10  -3   3   56.49    4.66
 -10   3  -3   56.15    3.78
 -10  -3   3   52.40    1.96
   9   3   3   -0.41    2.15
  -9  -3   3    1.40    0.57
  -9  -3   3    1.61    1.03
   9  -3  -3    1.55    1.77
  -9  -3   3    0.80    1.80
  -9   3  -3    0.76    1.47
  -9   3  -3    0.86    1.74
  -8  -3   3   72.04    4.46
  -8  -3   3   64.22    3.03
   8  -3  -3   77.70    4.50
  -8   3  -3   64.63    4.54
  -8   3  -3   70.55    3.73
  -7  -3   3   21.09    2.64
  -7  -3   3   22.52    1.69
   7  -3  -3   16.64    2.53
  -7   3  -3   18.66    2.58
   7   3   3   16.65    2.70
  -7   3  -3   22.31    2.11
  -6   3  -3   27.09    2.86
  -6  -3   3   25.69    1.70
   6  -3  -3   39.20    2.77
   6   3   3   38.63    2.94
  -6   3  -3   27.36    2.11
  -5  -3   3  167.95    4.41
   5   3   3  158.71    5.34
  -4  -3   3    8.13    0.97
   4  -3  -3   14.35    1.53
  -4   3  -3    9.29    1.18
   4   3   3   17.98    1.64
   3  -3  -3  173.28    4.98
  -3  -3   3  207.73    4.16
  -3  -3   3  181.16    4.37
  -3   3  -3  180.76    4.54
  -3   3  -3  202.10    4.82
   3   3   3  176.77    4.95
  -2   3  -3   77.72    2.56
  -2  -3   3   83.71    2.18
   2   3   3  104.49    3.15
   2  -3  -3   96.96    3.07
  -1   3  -3   54.79    2.05
  -1   3  -3   65.72    2.73
  -1  -3   3   58.44    1.72
   1  -3  -3   45.84    2.00
   1   3   3   47.84    2.00
   0   3  -3  193.92    5.04
   0  -3  -3  191.43    4.23
   0   3   3  200.98    4.15
  -1  -3  -3   42.71    1.94
  -1   3   3   42.87    1.48
  -1   3   3   42.40    1.71
   2   3  -3  102.02    3.55
  -2   3   3  101.67    2.35
  -2  -3  -3   93.50    2.87
   3  -3   3  199.31    4.05
   3   3  -3  199.77    5.20
  -3   3   3  147.08    3.49
  -3  -3  -3  139.52    4.27
   4   3  -3    9.45    1.29
  -4   3   3   15.68    0.61
   4  -3   3    7.59    0.96
  -4   3   3   15.41    1.02
  -4  -3  -3   16.15    1.74
   5   3  -3  191.56    5.42
  -5   3   3  139.22    3.14
   5  -3   3  185.58    4.32
  -5   3   3  132.70    3.67
  -5  -3  -3  160.17    5.63
  -6   3   3   42.93    1.94
  -6  -3  -3   40.13    3.04
  -7  -3  -3   14.51    2.05
  -7   3   3   14.71    1.38
  -7  -3  -3   14.56    2.30
  -8   3   3   88.75    3.33
  -8  -3  -3   93.98    4.48
  -9  -3  -3    3.44    1.76
   9  -3   3    1.13    1.13
  -9   3   3    0.56    1.08
  10  -3   3   65.71    5.52
 -10   3   3   71.98    3.47
  11  -3   3   43.73    4.75
 -11  -3  -3   46.09    3.98
  11  -3   3   48.15    3.17
  12  -3   3    2.93    1.60
 -12  -3  -3    4.40    2.24
  12  -3   3    2.87    2.88
 -12   3   3    4.19    1.59
  13  -3   3   68.92    5.78
 -13  -3  -3   70.14    4.83
  13  -3   3   66.60    3.90
 -14  -3  -3   15.24    2.78
  14  -3   3    8.70    3.38
 -14   3   3    8.75    2.14
  15  -3   3   38.74    4.80
 -15   3   3   32.18    3.29
  16  -3   3   24.12    4.13
 -16   3   3   29.07    3.33
 -17   3   3   -0.15    2.14
 -17  -3  -3   -0.18    2.63
 -16  -4   3   42.44    4.95
 -16   4  -3   31.15    3.97
 -15  -4   3   45.32    5.16
 -15   4  -3   37.67    4.17
 -14  -4   3   14.30    3.86
 -14   4  -3   10.53    2.76
  13   4   3  100.46    6.53
 -13  -4   3   97.17    6.86
 -13   4  -3   76.19    5.03
 -13  -4   3   80.27    3.01
 -12  -4   3    0.40    2.44
 -12  -4   3    1.01    0.80
 -12   4  -3    1.65    1.87
  12  -4  -3    0.21    2.50
  12   4   3   -0.76    2.32
 -11  -4   3   36.35    1.99
 -11  -4   3   36.00    2.74
  11  -4  -3   42.49    4.13
 -11   4  -3   40.80    3.47
 -11  -4   3   44.80    4.56
 -10  -4   3   99.77    5.77
 -10  -4   3   75.21    3.54
  10  -4  -3   56.85    4.47
 -10  -4   3   74.28    3.05
 -10   4  -3   57.87    4.20
  10   4   3   46.69    4.88
 -10   4  -3   78.14    4.25
   9   4   3    0.89    2.04
  -9  -4   3    1.68    1.98
  -9  -4   3    2.38    1.10
  -9   4  -3    1.38    1.43
   9  -4  -3    1.56    2.03
  -8  -4   3   64.16    2.97
   8  -4  -3   47.57    3.70
   8   4   3   49.48    4.08
  -8   4  -3   65.19    3.53
  -7  -4   3   23.21    1.81
  -7   4  -3   25.82    2.31
   7   4   3   26.24    2.41
  -6  -4   3   31.79    1.96
   6  -4  -3   29.86    2.56
   6   4   3   26.84    2.27
   5  -4  -3  157.28    5.25
  -5  -4   3  114.67    3.76
  -5   4  -3  118.75    4.14
   5   4   3  141.93    4.65
   4  -4  -3   20.47    1.94
  -4  -4   3   25.17    1.65
  -4  -4   3   27.73    1.52
  -4   4  -3   25.77    1.91
   4   4   3   22.40    1.81
  -3  -4   3  150.18    4.00
  -3   4  -3  146.32    4.32
   3   4   3  204.03    4.92
  -3  -4   3  152.30    3.75
   3  -4  -3  198.55    5.20
  -2   4  -3   49.64    2.20
   2  -4  -3   43.40    2.35
   2   4   3   47.65    2.23
  -1   4  -3   37.33    1.96
  -1  -4   3   36.00    1.57
   1  -4  -3   41.86    2.14
   1   4   3   41.84    1.90
   0  -4  -3  113.60    3.79
   0   4   3  115.87    3.52
  -1   4   3   39.44    1.55
   1   4  -3   40.45    2.32
  -1  -4  -3   37.67    2.07
   1  -4   3   34.88    1.50
   2   4  -3   62.78    2.88
  -2  -4  -3   36.60    2.07
  -2  -4  -3   38.12    1.22
  -2   4   3   38.17    1.55
   2  -4   3   56.02    1.94
  -3  -4  -3  180.84    3.90
  -3   4   3  195.77    3.97
   3   4  -3  184.45    5.29
  -3  -4  -3  174.40    4.78
   3   4  -3  133.93    3.17
   3  -4   3  151.54    3.81
   4  -4   3   27.34    1.56
  -4   4   3   18.72    0.60
   4   4  -3   27.45    2.06
  -4  -4  -3   16.36    1.67
  -4   4   3   17.13    1.24
   4   4  -3   15.79    1.33
   5  -4   3  120.71    3.61
   5   4  -3  124.71    4.57
   6   4  -3   38.67    2.62
   6  -4   3   35.41    1.93
  -6   4   3   25.74    1.67
  -6  -4  -3   25.27    2.50
   7  -4   3   26.77    2.00
   7  -4   3   32.25    4.10
  -7   4   3   31.46    1.92
   8  -4   3   58.22    2.78
   8  -4   3   69.03    5.87
  -9  -4  -3    2.78    1.56
  -9   4   3    1.48    1.05
   9  -4   3    2.68    2.84
   9  -4   3    0.95    1.23
  10  -4   3   75.56    5.91
  10  -4   3   64.73    3.20
 -10   4   3   47.66    2.87
 -10  -4  -3   57.88    3.99
  11  -4   3   46.13    5.23
  11  -4   3   32.85    2.65
 -11   4   3   41.68    2.82
 -11  -4  -3   55.13    4.01
 -12  -4  -3    1.30    2.04
  12  -4   3    2.06    3.24
 -12   4   3    0.42    1.41
  12  -4   3    0.25    1.46
  13  -4   3   81.24    6.74
 -13   4   3   77.28    4.20
 -14  -4  -3    7.80    2.84
  14  -4   3   10.45    3.78
 -14   4   3    5.82    2.03
  15  -4   3   33.63    4.79
 -15   4   3   37.50    3.44
 -16  -4  -3   23.75    3.47
 -16   4   3   20.37    3.01
 -16  -5   3   48.89    5.89
 -16   5  -3   35.13    3.97
 -15   5  -3   10.24    2.75
 -15  -5   3   14.22    4.11
 -14   5  -3   17.09    2.91
 -14  -5   3   23.85    4.49
 -13   5  -3   20.85    2.92
 -13  -5   3   25.21    4.13
 -12   5  -3    9.59    2.29
 -12  -5   3    9.38    3.03
 -11  -5   3   34.17    4.03
 -11  -5   3   24.06    1.76
  11  -5  -3   23.02    3.40
  11   5   3   16.30    3.47
 -11   5  -3   28.02    3.03
 -10  -5   3  130.66    6.82
  10  -5  -3  126.98    6.54
 -10  -5   3  112.05    3.99
  10   5   3  120.87    6.48
 -10   5  -3  110.01    5.19
   9   5   3    1.58    1.81
  -9   5  -3    1.73    1.63
  -9  -5   3    0.69    1.08
  -9  -5   3    1.59    1.24
   9  -5  -3    1.24    1.88
  -8  -5   3  186.98    5.72
   8  -5  -3  237.65    8.25
  -8  -5   3  226.64    6.46
  -8   5  -3  203.60    6.59
   8   5   3  188.62    6.67
   7  -5  -3   10.45    2.09
  -7  -5   3   15.31    1.62
  -7  -5   3   16.80    2.22
  -7   5  -3   15.96    2.00
   7   5   3   10.36    1.72
   6  -5  -3   65.76    3.79
  -6  -5   3   61.93    3.70
  -6   5  -3   55.07    3.20
   6   5   3   54.91    2.99
  -6  -5   3   48.73    2.55
   5  -5  -3   42.82    3.06
  -5  -5   3   55.37    2.57
  -5  -5   3   63.70    2.58
  -5   5  -3   57.09    3.07
   5   5   3   38.23    2.47
   4   5   3    4.27    1.15
  -4  -5   3    3.77    0.87
  -4  -5   3    3.02    0.84
   4  -5  -3    3.77    1.31
  -4   5  -3    2.83    1.05
  -3   5  -3   34.01    2.06
  -3  -5   3   38.10    1.74
  -3  -5   3   31.89    1.76
   3   5   3   16.53    1.59
   3  -5  -3   22.38    2.11
  -2   5  -3   97.46    3.61
  -2  -5   3  101.71    2.99
   2  -5  -3  105.50    3.96
   2   5   3   98.80    3.28
   1   5   3    3.00    0.83
  -1   5  -3    6.47    1.11
   1  -5  -3    4.23    1.14
  -1  -5   3    6.67    0.94
   0  -5  -3  135.33    4.39
   0   5   3  143.71    3.79
  -1   5   3    3.51    0.73
  -1  -5  -3    1.93    1.11
  -2   5   3  100.49    2.89
  -2  -5  -3   99.04    3.76
   2  -5   3   97.62    2.91
  -3  -5  -3   13.80    1.00
  -3   5   3   15.48    1.18
   3  -5   3   31.31    4.13
  -3  -5  -3   13.98    1.61
   3  -5   3   35.54    1.75
   3   5  -3   32.93    1.33
   4   5  -3    2.31    0.76
  -4   5   3    3.39    0.24
  -4   5   3    3.62    0.79
  -4  -5  -3    2.39    1.09
  -4  -5  -3    3.83    0.73
   4  -5   3    2.72    0.88
  -5  -5  -3   25.76    1.80
  -5  -5  -3   25.59    2.47
  -5   5   3   34.12    1.98
   5   5  -3   33.34    2.07
  -6  -5  -3   49.70    2.78
   6  -5   3   50.52    2.45
   6  -5   3   61.93    5.75
  -6   5   3   59.76    2.60
  -7  -5  -3    6.99    1.49
   7  -5   3   13.69    1.47
   7  -5   3   13.11    3.44
  -7   5   3   10.68    1.38
   7   5  -3   10.91    1.93
  -8   5   3  205.07    5.58
   8  -5   3  205.97    5.84
  -9   5   3    1.24    1.17
   9  -5   3    1.55    3.15
   9  -5   3    0.80    1.09
 -10  -5  -3  125.63    5.47
  10  -5   3  108.93    4.37
 -10   5   3  118.07    4.45
 -11  -5  -3   20.16    2.68
  11  -5   3   25.78    4.79
  11  -5   3   23.77    2.26
 -11   5   3   15.74    2.03
  12  -5   3   12.92    4.06
 -12  -5  -3   11.53    2.62
 -12   5   3    9.90    1.93
  13  -5   3   18.70    4.54
 -13   5   3   10.87    2.13
 -13  -5  -3   14.31    2.91
 -14   5   3   12.73    2.22
  14  -5   3   16.43    4.29
 -14   5   3   16.51    2.39
 -14  -5  -3   21.55    3.44
 -15   5   3    4.80    2.05
 -15  -5  -3    4.40    2.79
 -16  -5  -3   47.65    4.67
 -16   5   3   33.84    3.33
 -15   6  -3   30.57    3.76
 -15  -6   3   37.61    5.40
 -14   6  -3    1.51    2.29
 -14  -6   3    3.07    3.34
 -13   6  -3   82.01    5.24
 -13  -6   3  101.24    7.17
 -12  -6   3    1.55    2.51
 -12   6  -3    1.65    2.12
 -11   6  -3   63.84    4.29
  10   6   3    3.71    2.27
 -10   6  -3    7.03    2.10
 -10  -6   3    8.48    1.50
  10  -6  -3    5.37    2.42
   9   6   3    2.11    1.61
  -9   6  -3    3.41    1.77
   9  -6  -3    2.95    2.11
  -9  -6   3    3.86    1.50
   8   6   3    6.44    1.71
  -8   6  -3    8.26    1.89
  -8  -6   3    8.78    1.49
   8  -6  -3    7.21    2.07
  -8  -6   3   10.29    1.86
   7  -6  -3   59.59    3.97
  -7  -6   3   47.87    2.70
  -7  -6   3   46.42    2.73
  -7  -6   3   60.42    3.63
  -7   6  -3   56.23    3.49
   7   6   3   47.92    2.98
   6  -6  -3   13.49    2.24
  -6  -6   3   18.52    1.75
  -6  -6   3   17.71    1.71
  -6   6  -3   15.76    2.03
  -6   6  -3   16.61    2.14
  -6  -6   3   18.12    2.54
   6   6   3   10.27    1.55
  -5  -6   3  178.69    4.85
  -5   6  -3  164.67    5.49
  -5  -6   3  157.58    4.91
   5   6   3  169.79    5.28
   4   6   3    3.10    1.05
  -4  -6   3    2.44    0.88
  -4   6  -3    4.12    1.32
  -4  -6   3    2.14    0.96
  -4   6  -3    2.44    1.10
  -4  -6   3    4.39    2.11
   4  -6  -3    3.43    1.55
  -3   6  -3  146.05    4.93
  -3   6  -3  179.30    5.71
  -3  -6   3  164.89    4.35
  -3  -6   3  201.41    7.50
   3   6   3  144.11    4.49
   3  -6  -3  164.74    5.68
  -2  -6   3    6.38    1.13
  -2  -6   3    7.46    1.10
  -2   6  -3    6.84    1.51
  -2   6  -3    6.37    1.35
   2   6   3    3.98    0.98
   2  -6  -3    4.98    1.44
  -2  -6   3    6.82    2.36
  -1  -6   3   26.82    1.72
   1  -6  -3   24.38    2.22
   1   6   3   25.79    1.71
   0  -6   3   40.34    4.00
   0  -6  -3   15.75    1.86
   0  -6   3   35.34    1.78
   0   6   3   13.28    1.29
   1  -6   3   26.76    3.92
  -1  -6  -3   25.04    2.30
   1  -6   3   24.48    1.59
  -2   6   3    4.54    0.96
  -2  -6  -3    5.45    1.45
   2  -6   3    3.92    2.87
   2  -6   3    5.70    1.03
  -2  -6  -3    4.18    1.45
  -3   6   3  133.57    3.81
  -3  -6  -3  122.00    3.31
  -3  -6  -3  133.32    5.00
   3  -6   3  158.95    4.25
   3   6  -3  154.84    3.76
   4   6  -3    2.40    0.85
  -4   6   3    4.00    0.34
  -4  -6  -3    3.39    0.76
  -4   6   3    3.69    0.89
   4  -6   3    3.02    2.90
   4  -6   3    1.80    0.97
  -4  -6  -3    3.22    1.38
   5  -6   3  168.09    4.73
  -5  -6  -3  162.96    4.62
  -5  -6  -3  150.95    5.71
  -5   6   3  171.85    4.61
  -5   6   3  182.95    3.20
   5   6  -3  155.99    4.71
  -6  -6  -3    5.99    1.17
  -6   6   3    8.70    1.25
  -6  -6  -3    8.05    1.82
   6   6  -3   10.40    1.60
   7  -6   3   50.20    2.59
  -7  -6  -3   37.23    3.18
   7  -6   3   62.79    6.16
  -7   6   3   51.90    2.62
  -7  -6  -3   42.54    2.64
   7   6  -3   27.81    3.18
   8   6  -3    4.73    1.98
  -8   6   3    4.97    1.30
  -8  -6  -3    3.04    1.29
   8  -6   3   11.56    3.70
   8  -6   3    8.73    1.42
  -9   6   3    2.13    1.25
  -9  -6  -3    2.03    1.27
   9  -6   3    2.21    1.32
   9  -6   3    2.83    3.42
 -10   6   3    3.80    1.45
 -10  -6  -3    2.38    1.57
  10  -6   3    8.54    3.95
  10  -6   3    7.24    1.49
 -11  -6  -3   65.90    4.16
 -11   6   3   62.73    3.42
 -12  -6  -3   -0.57    1.70
 -12   6   3   -0.05    1.57
  12  -6   3    0.27    3.46
 -12  -6  -3    0.07    1.83
  13  -6   3   87.88    7.50
 -13   6   3   78.55    4.26
 -13  -6  -3   85.90    5.26
 -14  -6  -3    2.00    2.21
 -14   6   3    2.55    1.89
 -15   6   3   26.44    3.05
 -15  -6  -3   36.38    4.10
 -14   7  -3    8.33    2.71
 -14  -7   3   11.87    3.86
 -13   7  -3    2.82    2.38
 -13  -7   3    1.82    2.97
 -12   7  -3   11.16    2.69
 -11   7  -3    4.38    2.12
 -10   7  -3   64.81    4.27
   9   7   3    1.14    1.50
  -9   7  -3    0.96    1.87
   8  -7  -3   93.70    5.28
  -8  -7   3  102.21    4.16
  -8  -7   3  106.51    4.66
  -8   7  -3  106.93    5.09
   7  -7  -3    4.20    1.92
   7   7   3    2.92    1.35
  -7  -7   3    2.16    1.25
  -7   7  -3    1.29    1.43
  -7  -7   3    2.34    1.76
   6  -7  -3   44.84    3.56
  -6  -7   3   45.05    2.50
  -6   7  -3   39.18    2.96
   6   7   3   39.79    2.63
   5   7   3    5.29    1.34
  -5  -7   3    7.56    1.22
  -5   7  -3    8.35    1.66
  -5   7  -3    7.18    1.55
  -5  -7   3   11.70    2.40
  -5  -7   3    8.57    1.36
   5  -7  -3    7.59    1.92
   4   7   3    0.03    1.01
  -4   7  -3    0.28    1.21
  -4   7  -3    0.08    1.14
  -4  -7   3    0.08    0.96
  -4  -7   3    0.07    2.00
   4  -7  -3    1.12    1.46
  -3   7  -3    8.60    1.69
  -3  -7   3    6.44    1.30
  -3  -7   3   12.55    2.83
   3  -7  -3   14.57    2.16
   3   7   3   13.05    1.43
  -3   7  -3   11.98    1.89
  -2   7  -3  130.41    4.89
  -2  -7   3  130.03    4.10
   2  -7  -3  120.58    4.97
   2   7   3  115.57    3.95
   1   7   3    2.11    0.97
  -1  -7   3    1.54    1.06
  -1   7  -3    2.00    1.34
   1  -7  -3    0.75    1.39
  -1  -7   3    3.08    2.40
   0  -7  -3  206.51    6.71
   0  -7   3  214.36    5.45
   0   7   3  205.86    5.48
  -1  -7  -3    1.44    1.42
   1   7  -3    1.64    1.28
   1  -7   3    0.91    0.95
   1  -7   3    1.84    2.74
   2   7  -3  154.03    5.37
  -2   7   3  114.62    3.70
   2  -7   3  166.68    8.47
  -2  -7  -3  104.81    4.80
   2  -7   3  121.32    3.79
   3   7  -3   11.82    1.76
  -3   7   3   14.73    1.42
  -3  -7  -3   14.26    2.07
   3  -7   3   13.45    3.74
   3  -7   3    6.71    1.30
   3   7  -3    8.28    1.10
   4   7  -3    0.55    0.78
   4   7  -3    0.24    1.20
  -4   7   3    0.53    0.32
  -4  -7  -3    0.67    0.65
  -4   7   3    0.10    0.78
  -4  -7  -3    0.05    1.26
   4  -7   3   -0.11    2.96
   4  -7   3    0.61    1.03
   5  -7   3    7.94    1.34
   5   7  -3    6.38    1.28
  -5   7   3    6.94    0.57
  -5  -7  -3    5.48    1.02
  -5   7   3    6.65    1.16
   5   7  -3    7.84    1.61
  -5  -7  -3    4.56    1.70
   6  -7   3   39.96    2.39
  -6  -7  -3   35.08    2.99
  -6  -7  -3   35.96    2.27
  -6   7   3   42.40    2.32
  -6   7   3   43.18    1.41
   6   7  -3   45.22    3.24
   6   7  -3   37.98    2.56
   7  -7   3    2.42    1.20
   7   7  -3    0.37    1.41
  -7  -7  -3    2.67    1.09
  -7  -7  -3    3.41    1.80
  -7   7   3    4.15    1.22
   7  -7   3    4.62    3.62
  -8  -7  -3   68.25    3.64
  -8  -7  -3   64.42    4.47
   8  -7   3   89.49    3.62
  -8   7   3   86.11    3.72
   8   7  -3   53.86    4.68
   9   7  -3   -0.69    2.11
  -9  -7  -3    0.84    1.13
   9  -7   3    0.56    3.53
  -9   7   3    0.62    1.27
 -10   7   3   56.07    3.27
  10   7  -3   48.85    4.38
 -11   7   3    3.35    1.54
 -11  -7  -3    2.32    1.49
  11  -7   3    7.85    4.28
 -12   7   3    9.18    1.98
 -12  -7  -3    8.76    2.30
 -13   7   3    4.55    1.89
 -13  -7  -3    3.15    2.17
 -14   7   3    6.61    2.16
 -14  -7  -3    7.93    2.63
 -12   8  -3    3.74    2.55
 -11   8  -3   53.63    4.34
 -10   8  -3    5.44    2.39
  -9   8  -3    4.09    1.92
  -8   8  -3    7.69    2.00
  -7   8  -3   39.58    3.24
   7   8   3   36.75    2.70
  -6  -8   3    6.56    1.46
  -6   8  -3    7.15    1.85
  -6   8  -3   11.05    2.03
  -6  -8   3    8.19    2.36
   6   8   3   11.37    1.77
   6  -8  -3   13.95    2.60
  -5   8  -3  105.57    4.73
  -5  -8   3  120.16    4.26
  -5   8  -3  130.21    5.39
  -5  -8   3  138.32    6.30
   5   8   3   92.54    3.95
   5  -8  -3  109.88    5.40
   4   8   3    1.85    1.15
  -4   8  -3    1.47    1.50
  -4   8  -3    2.10    1.42
  -4  -8   3    1.30    1.13
  -4  -8   3    1.81    2.22
   4  -8  -3    0.25    1.75
  -3   8  -3   85.18    4.16
  -3   8  -3   94.84    4.46
  -3  -8   3   85.19    3.52
   3  -8  -3   82.02    4.59
  -2  -8   3    4.79    1.45
  -2   8  -3    7.80    1.84
   2  -8  -3    7.12    1.90
  -2  -8   3   11.78    3.16
   2   8   3    8.74    1.31
  -1   8  -3   13.15    2.01
  -1  -8   3   13.27    1.60
   1  -8  -3   10.90    2.10
   1   8   3   13.01    1.49
   0   8  -3   26.13    2.53
   0  -8   3   30.74    4.26
   0  -8  -3   30.94    2.98
   0   8   3   31.84    2.03
   1   8  -3   13.24    1.94
   1  -8   3   14.59    3.67
  -1  -8  -3   10.71    2.13
   1  -8   3   12.24    1.54
   2   8  -3    8.47    1.81
  -2  -8  -3   10.91    2.25
   2  -8   3    3.34    1.18
   2  -8   3   12.16    3.70
  -3   8   3   71.54    3.05
   3  -8   3  107.72    7.60
  -3  -8  -3   60.96    4.13
   3   8  -3   94.22    4.40
   3  -8   3   85.09    3.43
   3   8  -3   80.66    3.08
   4   8  -3    1.56    0.97
  -4   8   3    0.93    0.44
   4   8  -3    2.29    1.49
  -4   8   3    0.88    0.95
  -4  -8  -3    1.19    1.57
   4  -8   3    0.12    3.11
   4  -8   3    1.95    1.21
   5   8  -3  122.28    5.10
  -5   8   3  104.52    2.38
  -5   8   3   90.82    3.53
  -5  -8  -3   74.19    3.23
  -5  -8  -3   92.57    4.96
   5   8  -3  105.69    3.87
   5  -8   3  106.09    3.87
   6  -8   3    8.67    1.56
  -6   8   3   11.36    0.83
  -6  -8  -3   12.10    1.48
  -6   8   3   11.79    1.51
   6   8  -3    8.23    1.96
  -6  -8  -3    9.88    2.12
   6   8  -3    9.30    1.63
  -7   8   3   39.57    1.52
  -7   8   3   36.67    2.44
   7   8  -3   35.00    2.89
  -8  -8  -3   14.06    1.81
  -8   8   3   13.57    0.98
  -8   8   3   14.52    1.78
   9   8  -3   -1.65    2.90
  -9  -8  -3    2.22    1.31
  -9   8   3    3.06    1.48
  10   8  -3    4.52    2.57
 -10   8   3   10.92    1.95
 -10  -8  -3    9.80    1.92
 -10   8   3   10.26    1.84
 -11  -8  -3   34.59    3.17
  11   8  -3   30.46    4.09
 -12   8   3    3.81    1.87
 -11   9  -3   10.14    2.65
 -10   9  -3   40.51    3.70
  -9   9  -3    0.64    1.89
  -8   9  -3   65.18    4.20
  -8   9  -3   82.85    4.55
  -7   9  -3   16.53    2.54
  -7   9  -3   24.70    2.84
  -6   9  -3   32.23    2.89
  -6   9  -3   33.09    3.20
  -5   9  -3   29.69    3.02
  -5   9  -3   36.16    3.21
   5   9   3   29.66    2.34
   4   9   3    0.11    1.12
  -4   9  -3    0.95    1.56
  -4   9  -3   -0.28    1.53
  -3   9  -3   22.91    2.56
  -3   9  -3   26.86    2.75
   3   9   3   24.92    2.02
  -2  -9   3   57.91    5.05
  -2   9  -3   50.47    3.50
   1   9   3    2.54    1.14
  -1   9  -3    1.07    1.53
  -1  -9   3    2.26    2.93
   0  -9   3   92.88    6.53
   0   9  -3   86.26    4.42
   1   9  -3    3.06    1.66
   1  -9   3    1.23    2.95
   2   9  -3   47.36    3.37
   2  -9   3   57.73    5.87
  -3   9   3   26.29    2.02
   3   9  -3   25.57    2.66
   3   9  -3   19.63    1.83
   4   9  -3    0.42    1.05
  -4   9   3    0.34    0.51
   4   9  -3    0.83    1.47
  -4   9   3    0.27    1.03
   4  -9   3    1.31    3.17
  -5   9   3   34.97    2.41
   5  -9   3   38.67    5.53
   5   9  -3   30.44    2.86
   5   9  -3   27.32    2.26
  -6   9   3   22.80    2.05
   6   9  -3   31.78    3.01
   6   9  -3   28.30    2.47
  -7   9   3   23.34    2.16
  -7  -9  -3   16.92    1.84
   7   9  -3   19.46    2.36
  -8   9   3   55.36    3.11
   8   9  -3   56.53    3.97
   9   9  -3    0.10    2.74
  -9  -9  -3    1.04    1.23
  -9   9   3    1.59    1.40
  10   9  -3   23.98    4.12
 -10   9   3   32.37    2.72
  -8  10  -3   23.75    3.04
  -7  10  -3    9.01    2.38
  -6  10  -3   13.89    2.59
  -6  10  -3    8.79    2.30
  -5  10  -3   34.31    3.36
  -5  10  -3   38.72    3.52
   4  10   3    0.41    1.30
  -4  10  -3    0.06    1.82
  -4  10  -3    0.06    1.74
  -3  10  -3   56.87    3.90
   3  10   3   35.43    2.48
  -2  10  -3   44.05    3.50
   2  10   3   34.32    2.42
   1  10   3    6.20    1.41
  -1  10  -3    9.51    2.16
   0  10  -3   60.33    3.93
   0  10   3   53.23    2.96
  -1  10   3    6.34    1.41
   1  10  -3    9.37    2.16
   2  10  -3   42.19    3.41
   2  10  -3   33.14    2.30
   3  10  -3   55.09    3.83
   3  10  -3   43.98    2.64
   4  10  -3    1.33    1.30
   4  10  -3   -0.06    1.68
  -4  10   3    0.30    1.23
   5  10  -3   37.89    3.38
   5  10  -3   32.25    2.55
   6  10  -3    9.03    1.93
  -6  10   3   11.30    1.77
   6  10  -3   10.19    2.27
   7  10  -3    9.34    2.11
  -7  10   3    4.69    1.59
  -8  10   3   28.58    2.43
   8  10  -3   25.19    3.04
   2  11  -3   14.05    1.91
   3  11  -3   36.50    2.63
   4  11  -3    1.68    1.39
   5  11  -3   34.65    2.78
   6  11  -3    1.96    1.79
   1  12  -3    0.89    1.40
   2  12  -3   24.65    2.45
   0   0  -4  497.38    9.46
   0   0   4  513.19   10.80
   1   0   4    2.96    1.29
  -1   0   4    2.80    1.11
   1   0  -4    3.08    0.76
  -1   0  -4    3.18    0.83
  -1   0  -4    5.03    0.91
   2   0  -4  176.96    4.64
   2   0   4  205.81    6.46
  -2   0   4  153.34    4.26
  -2   0  -4  181.94    5.21
   3   0  -4   14.86    1.39
   3   0   4   15.22    2.26
  -3   0   4   15.37    0.48
  -3   0  -4   17.15    0.80
  -3   0  -4   12.92    1.77
  -4   0  -4    4.55    1.70
  -4   0   4    4.09    0.58
  -4   0   4    2.44    0.49
  -4   0   4    3.90    0.52
  -4   0  -4    4.44    0.81
  -5   0   4   20.15    1.11
  -5   0  -4   24.84    1.76
  -5   0   4   19.40    1.09
  -5   0  -4   24.73    2.82
  -6   0   4  128.30    3.53
  -6   0  -4  179.82    5.04
  -6   0   4  129.06    3.40
  -6   0  -4  166.95    6.92
  -7   0  -4    9.09    2.45
  -7   0  -4   12.23    1.84
  -7   0   4    8.01    0.96
  -7   0   4   10.22    1.25
  -8   0   4  205.99    5.50
  -8   0  -4  224.14    6.77
  -8   0  -4  218.58    8.64
  -9   0   4    0.99    1.10
  -9   0  -4    1.90    2.01
  -9   0  -4    0.30    1.50
  -9   0   4    0.42    0.79
  -9   0   4   -0.33    1.04
 -10   0   4  134.38    4.83
 -10   0  -4  166.36    6.18
 -10   0   4  125.66    4.10
 -10   0  -4  162.06    7.42
 -11   0   4    6.97    1.71
 -11   0  -4   12.80    2.49
 -11   0   4    9.05    1.43
 -11   0   4    7.49    1.77
 -11   0  -4   15.89    3.20
 -12   0   4    6.42    2.01
 -12   0   4   11.69    2.09
 -12   0  -4   13.25    2.55
 -12   0   4   10.08    1.61
 -13   0   4    8.56    2.15
 -13   0  -4   10.76    2.70
 -13   0   4    7.88    1.60
 -14   0   4   17.37    2.69
 -14   0  -4   18.13    3.16
 -15   0   4    3.38    2.27
 -15   0  -4    3.92    2.57
 -16   0   4   80.27    5.26
 -16   0  -4   83.94    5.63
  16   0   4   83.46    5.30
 -17   0   4    2.21    2.48
 -17   0  -4    0.66    2.60
 -17  -1   4    1.08    2.40
 -17   1  -4   -0.65    2.67
 -16  -1   4    8.71    2.85
  16   1   4   12.58    2.73
 -16   1  -4    6.23    2.96
 -15   1  -4   43.48    4.21
 -15  -1   4   43.98    4.03
 -14  -1   4   -0.68    1.95
 -14   1  -4    0.07    2.37
 -13   1  -4  135.56    6.37
 -13  -1   4  122.27    5.82
 -12  -1   4    3.39    1.19
 -12  -1   4    3.65    1.28
 -12  -1   4    4.36    1.97
 -12   1  -4    4.52    2.22
 -11   1  -4  177.10    6.67
 -11  -1   4  134.31    4.72
 -11  -1   4  162.72    6.38
 -11   1  -4  174.64    7.88
 -11  -1   4  128.50    3.99
 -10   1  -4   12.28    2.37
 -10  -1   4   10.17    1.39
 -10  -1   4   11.24    2.27
 -10   1  -4   14.02    2.95
 -10  -1   4    5.32    1.00
  -9   1  -4    9.99    2.71
  -9  -1   4    8.08    1.18
  -9  -1   4    8.00    1.73
  -9  -1   4    4.74    0.72
  -9   1  -4    7.72    1.91
  -8   1  -4   20.54    2.31
  -8  -1   4   13.80    1.33
  -8  -1   4   13.33    1.92
  -8   1  -4   19.69    3.24
  -7  -1   4   71.31    2.68
  -7  -1   4   69.91    3.08
   7   1   4   88.43    5.23
  -7   1  -4   88.80    5.43
  -7   1  -4   93.47    3.73
  -6  -1   4   14.69    1.22
  -6   1  -4   18.22    2.97
  -6   1  -4   17.45    1.72
  -5  -1   4  321.45    6.55
  -5  -1   4  331.10    6.74
  -5   1  -4  381.48   10.75
  -5   1  -4  379.11    7.28
  -4   1  -4    5.93    1.89
  -4  -1   4    7.19    0.82
  -4  -1   4    6.67    0.73
  -4   1  -4    7.15    0.85
  -3  -1   4  267.35    3.96
  -3   1  -4  260.71    7.79
  -2   1  -4   12.18    1.40
  -2   1  -4   13.61    1.66
   1  -1  -4   30.84    1.55
  -1   1  -4   44.96    2.31
   1   1   4   34.78    2.21
  -1   1  -4   45.28    2.18
   0  -1  -4   75.16    2.27
   0   1   4   89.66    2.95
  -1  -1  -4   34.01    1.63
  -1   1   4   36.18    1.74
  -2   1   4   27.31    1.34
  -2  -1  -4   27.34    1.92
   3   1  -4  213.89    5.80
  -3  -1  -4  226.90    4.66
  -3  -1  -4  197.41    4.18
  -3   1   4  251.16    3.78
  -3   1   4  192.43    4.38
  -3  -1  -4  253.31    6.64
  -4  -1  -4    3.58    1.41
  -4   1   4    1.41    0.50
  -4   1   4    2.63    0.45
  -4  -1  -4    1.91    1.00
  -4   1   4    1.76    0.48
  -5   1   4  272.88    5.31
  -5   1   4  286.06    5.32
  -5  -1  -4  281.38    8.67
  -6   1   4   34.13    1.49
  -6  -1  -4   34.28    3.19
  -6   1   4   38.89    1.66
  -7   1   4   70.89    2.41
  -7  -1  -4   77.58    4.89
  -7   1   4   74.92    2.63
  -8   1   4   30.87    1.88
  -8   1   4   32.05    1.71
  -8  -1  -4   40.09    3.05
  -8  -1  -4   34.71    3.62
  -9   1   4    9.11    1.42
  -9  -1  -4   11.43    2.67
  -9   1   4    8.40    1.09
  -9  -1  -4    8.81    2.04
 -10   1   4   23.38    2.08
 -10   1   4   26.61    1.84
 -10  -1  -4   29.45    3.16
 -10  -1  -4   25.81    3.50
 -11   1   4  127.37    4.80
 -11   1   4  114.99    4.14
 -12   1   4    4.67    1.23
 -12   1   4    4.28    1.71
 -13   1   4  100.31    4.76
 -13   1   4   90.34    3.99
 -14  -1  -4   -0.22    2.23
 -14   1   4   -0.62    1.89
 -15   1   4   32.74    3.31
 -15  -1  -4   40.85    4.06
  15  -1   4   46.16    4.52
 -16  -1  -4   14.96    3.19
  16  -1   4    6.39    3.03
 -16   1   4   10.25    2.62
 -17  -1  -4    1.53    2.74
 -17   1   4    0.07    2.48
 -17  -2   4   -0.09    2.67
 -17   2  -4    0.81    2.73
 -16  -2   4   65.84    5.46
 -16   2  -4   56.56    4.64
 -15  -2   4    6.81    3.11
 -15   2  -4    5.38    2.63
 -14  -2   4   18.71    3.23
 -14   2  -4   20.74    3.16
 -13  -2   4   28.59    3.51
 -13   2  -4   26.09    3.29
 -12   2  -4    8.20    2.26
 -12  -2   4    7.16    2.27
 -12  -2   4    7.05    0.92
  11  -2  -4   50.19    4.45
 -11  -2   4   31.61    2.31
 -11  -2   4   37.33    3.68
 -11   2  -4   45.51    4.95
 -11  -2   4   24.43    1.15
 -11   2  -4   38.11    3.37
  10  -2  -4  137.04    7.12
 -10  -2   4  142.41    4.56
 -10  -2   4  170.96    6.58
 -10   2  -4  191.94    8.84
 -10  -2   4  114.46    2.36
 -10   2  -4  165.29    5.99
  -9   2  -4    1.78    2.53
  -9  -2   4    1.76    1.61
   9  -2  -4    3.27    2.10
  -9  -2   4    1.74    1.06
  -9   2  -4    1.36    1.61
   9   2   4    3.81    2.29
  -8  -2   4  207.03    5.56
  -8  -2   4  249.70    7.14
   8   2   4  230.08    8.76
  -8   2  -4  259.71    7.18
   8  -2  -4  212.49    8.23
  -7  -2   4   19.13    1.49
  -7  -2   4   21.52    2.28
   7   2   4   37.31    3.53
  -7   2  -4   34.84    4.17
  -7   2  -4   25.65    2.17
   7  -2  -4   39.21    3.31
  -6  -2   4  119.79    3.56
  -6  -2   4  126.39    4.66
   6   2   4  113.62    5.99
  -6   2  -4  132.23    4.20
  -5   2  -4   71.05    2.92
   5   2   4  144.08    5.97
  -5  -2   4   43.02    2.95
  -5   2  -4  100.59    5.85
   5  -2  -4  144.22    5.09
  -5  -2   4   65.69    2.48
   4   2   4    5.07    1.67
  -4   2  -4    3.01    1.83
  -4   2  -4    3.09    0.87
  -4  -2   4    3.85    0.68
   4  -2  -4    5.21    1.41
  -4  -2   4    2.58    1.03
  -3   2  -4   29.06    1.33
   3  -2  -4   85.45    3.20
   3   2   4   87.99    3.53
  -3   2  -4   47.76    3.51
  -2   2  -4  129.91    4.11
  -2  -2   4  120.73    2.11
  -2  -2   4  124.88    3.00
  -1   2  -4    8.18    1.31
   1  -2  -4   10.09    0.87
  -1   2  -4    8.61    1.37
   0   2  -4  303.80    6.07
   0   2   4  218.35    4.59
   0   2  -4  260.29    4.33
  -1  -2  -4   11.04    0.77
  -1  -2  -4   11.35    0.74
   2  -2   4   90.21    2.15
  -2  -2  -4   59.68    2.14
  -2   2   4   85.65    2.49
  -2  -2  -4   55.09    2.24
   3   2  -4   41.45    2.53
  -3  -2  -4   56.61    1.92
  -3   2   4   81.57    1.59
  -3  -2  -4   94.50    3.00
  -3   2   4   82.12    2.16
  -4  -2  -4    5.55    1.61
   4   2  -4    2.43    1.04
  -4  -2  -4    2.69    0.74
  -4   2   4    4.47    0.60
   4  -2   4    1.38    0.80
  -4  -2  -4    5.45    1.28
   5   2  -4   49.82    3.19
  -5   2   4  114.61    2.23
  -5   2   4  123.54    2.63
  -5  -2  -4  144.59    4.85
  -5  -2  -4  100.53    4.55
  -6   2   4   93.31    2.41
  -6   2   4   98.76    2.79
  -7   2   4   33.40    1.47
  -7  -2  -4   37.35    2.76
  -7   2   4   33.95    1.71
  -8   2   4  175.77    4.39
  -8   2   4  181.93    4.87
  -8  -2  -4  188.96    7.69
  -9  -2  -4    3.36    1.76
   9  -2   4    1.23    1.28
  -9  -2  -4    5.11    2.25
  -9   2   4    2.89    0.82
  -9   2   4    3.31    1.13
  10  -2   4  157.00    5.19
 -10   2   4  116.58    3.85
 -10  -2  -4  158.90    6.46
 -10  -2  -4  121.27    6.46
 -10   2   4  115.61    4.24
 -11   2   4   47.13    2.48
 -11   2   4   49.58    2.88
 -12   2   4    3.91    1.18
 -12   2   4    3.52    1.56
 -12  -2  -4    4.25    2.22
 -13   2   4   37.13    2.51
  13  -2   4   32.46    4.28
 -13   2   4   42.13    3.04
 -14   2   4   13.24    1.87
 -14  -2  -4   20.05    3.23
  14  -2   4   22.73    3.85
 -14   2   4   15.63    2.43
 -15  -2  -4   14.99    3.20
  15  -2   4    9.87    3.32
 -15   2   4    8.79    2.24
 -16  -2  -4   52.44    4.78
  16  -2   4   48.59    5.02
 -16   2   4   39.22    3.64
 -17  -2  -4    1.06    2.59
  17  -2   4   -0.58    3.07
 -17   2   4   -0.13    2.18
 -16  -3   4   29.22    4.27
 -16   3  -4   26.13    3.93
 -15  -3   4   47.58    4.85
 -15   3  -4   36.18    3.97
 -14   3  -4    8.69    2.74
 -14  -3   4   11.64    3.54
 -13  -3   4   83.97    5.65
 -13   3  -4   77.06    4.88
 -12  -3   4    4.33    2.31
 -12   3  -4    3.62    2.21
  12  -3  -4    5.53    2.81
 -11  -3   4   74.43    4.82
  11   3   4   56.63    4.90
 -11   3  -4   72.06    4.38
  11  -3  -4   46.20    5.20
 -10  -3   4   40.28    2.60
  10   3   4   75.67    5.32
 -10  -3   4   58.64    4.84
 -10   3  -4   57.80    5.31
 -10   3  -4   47.68    3.53
  10  -3  -4   69.15    5.40
   9   3   4    0.73    2.09
  -9   3  -4    1.70    2.47
  -9  -3   4    2.17    1.03
  -9   3  -4    2.99    1.59
  -9  -3   4    0.50    1.88
   9  -3  -4    2.88    2.42
  -8  -3   4   75.88    3.22
   8   3   4  136.92    6.63
  -8   3  -4  110.70    6.88
   8  -3  -4  151.02    7.02
  -8   3  -4   92.78    4.28
  -8  -3   4  110.78    5.66
  -7  -3   4   21.98    1.71
   7  -3  -4   13.61    2.66
  -7   3  -4   27.90    3.86
   7   3   4   13.02    2.67
  -7   3  -4   23.16    2.11
  -7  -3   4   32.77    2.97
  -6  -3   4   28.88    1.82
   6  -3  -4   44.65    3.24
  -6   3  -4   28.48    2.16
  -6   3  -4   28.91    4.01
   6   3   4   46.90    3.71
  -6  -3   4   36.52    2.97
  -5  -3   4  245.75    6.81
  -5  -3   4  186.50    4.60
   5  -3  -4  128.97    5.60
  -5   3  -4  186.19    5.15
  -5   3  -4  235.25    9.08
   5   3   4  109.21    5.20
  -4   3  -4    3.30    2.28
   4   3   4    2.61    1.20
  -4  -3   4    1.84    0.56
  -4  -3   4    2.83    0.72
  -4   3  -4    2.59    0.82
   4  -3  -4    2.57    1.31
  -3   3  -4  148.27    3.95
   3  -3  -4  107.25    4.33
  -3  -3   4  191.88    3.49
  -3   3  -4  234.18    8.42
   3   3   4  140.74    4.68
   2  -3  -4  123.97    3.68
  -2   3  -4  131.42    5.85
   2   3   4  134.84    3.87
  -1   3  -4   61.81    3.02
  -1  -3   4   53.16    1.48
  -1   3  -4   70.76    3.66
   1   3   4   45.20    2.23
   0   3  -4  171.06    5.16
   0   3  -4  180.20    4.72
   0  -3  -4  163.63    3.93
   1  -3   4   50.66    1.55
   1   3  -4   49.74    1.33
  -2   3   4  123.24    2.39
   2  -3   4   51.77    2.08
   2   3  -4   93.34    3.88
  -2  -3  -4   83.22    2.01
  -2  -3  -4   86.33    2.91
  -2   3   4  124.01    3.03
   3   3  -4  187.26    5.41
  -3   3   4  112.70    2.67
   3  -3   4  165.88    3.47
  -3  -3  -4   96.08    3.35
  -3   3   4  113.08    3.14
   4   3  -4    1.99    1.08
  -4   3   4    2.95    0.60
  -4  -3  -4    1.78    0.81
   4  -3   4    1.59    0.78
  -5  -3  -4   98.92    4.27
   5   3  -4  187.50    5.77
  -5   3   4  105.96    2.23
   5  -3   4  189.35    4.31
  -5   3   4  118.62    3.19
  -5  -3  -4  137.52    5.47
  -6   3   4   37.88    1.23
   6  -3   4   30.37    1.85
  -6   3   4   39.99    1.77
  -6  -3  -4   37.76    3.20
  -6  -3  -4   46.63    2.95
  -7   3   4   13.54    0.92
  -7   3   4   12.46    1.24
  -7  -3  -4   13.56    2.17
  -7  -3  -4   10.82    2.16
  -8   3   4  129.50    3.27
   8  -3   4  102.25    4.15
  -8   3   4  129.25    3.82
  -8  -3  -4  101.64    5.59
  -9   3   4    1.54    0.73
  -9  -3  -4    0.07    1.89
  -9   3   4    1.02    0.98
  -9  -3  -4    2.40    1.93
   9  -3   4    1.93    1.35
 -10   3   4   61.49    2.50
 -10   3   4   62.97    2.98
 -11   3   4   39.12    2.24
 -11  -3  -4   47.32    3.83
 -11   3   4   41.11    2.64
 -12  -3  -4    4.47    2.12
 -12   3   4    3.93    1.23
 -12   3   4    3.78    1.58
  12  -3   4    3.17    2.87
  12  -3   4    1.92    1.42
 -13   3   4   44.15    2.79
 -13  -3  -4   58.20    4.50
  13  -3   4   65.92    5.71
 -13   3   4   47.04    3.25
 -14  -3  -4   18.80    3.23
  14  -3   4   14.22    3.72
 -14   3   4   13.40    2.27
 -15  -3  -4   30.85    3.77
  15  -3   4   35.56    4.89
 -15   3   4   27.09    2.99
 -16  -3  -4   39.95    4.04
  16  -3   4   26.72    4.62
 -16   3   4   31.00    3.29
  17  -3   4   -1.38    3.63
 -16  -4   4   37.77    5.08
 -16   4  -4   29.33    3.83
 -15  -4   4   37.01    4.92
 -15   4  -4   25.18    3.60
 -14  -4   4   14.20    3.22
 -14   4  -4   11.78    2.74
  13   4   4   94.42    6.37
 -13  -4   4   93.39    6.45
  12  -4  -4   -0.12    2.83
 -12   4  -4    2.30    2.01
 -12  -4   4    4.06    2.95
  12   4   4    1.40    2.36
  11   4   4   66.79    5.17
 -11   4  -4   53.75    3.91
 -11  -4   4   59.07    5.24
  11  -4  -4   58.61    5.50
 -10   4  -4   48.42    4.46
  10   4   4   25.15    3.85
  10  -4  -4   39.12    4.79
 -10   4  -4   57.30    3.75
 -10  -4   4   76.15    5.26
  -9   4  -4    4.56    2.32
   9   4   4    1.96    2.43
  -9  -4   4    5.94    1.28
   9  -4  -4    4.26    2.39
  -9   4  -4    5.14    1.80
  -9  -4   4    5.82    2.44
  -8  -4   4  104.32    5.39
  -8  -4   4   79.31    3.35
   8  -4  -4   53.88    4.45
  -8   4  -4   77.19    5.08
  -8   4  -4   88.39    4.07
   8   4   4   53.09    4.42
  -7  -4   4   32.29    3.20
  -7  -4   4   27.81    1.87
   7  -4  -4   31.82    3.44
  -7   4  -4   27.34    2.43
  -7   4  -4   27.60    3.29
   7   4   4   28.85    3.15
  -6  -4   4   33.66    1.77
  -6  -4   4   32.41    1.98
   6  -4  -4   18.51    2.57
  -6   4  -4   36.17    2.51
  -6   4  -4   29.73    3.27
   6   4   4   16.70    2.13
  -5  -4   4  125.67    3.43
   5  -4  -4  197.89    6.51
  -5  -4   4  115.53    3.69
  -5   4  -4  108.68    4.10
  -5   4  -4  150.91    6.51
   5   4   4  177.07    5.48
   4   4   4    3.56    1.18
   4  -4  -4    3.35    1.43
  -4  -4   4    6.84    0.82
  -4   4  -4    5.59    1.07
  -4  -4   4    6.80    0.98
  -4   4  -4    5.59    1.92
   3  -4  -4  200.08    5.85
  -3   4  -4  162.60    4.76
  -3   4  -4  194.99    5.91
  -3  -4   4  173.08    3.90
  -3   4  -4  210.30    7.26
   3   4   4  199.20    5.40
   2  -4  -4   31.91    2.40
  -2   4  -4   82.03    3.85
  -2  -4   4   85.11    2.29
  -2   4  -4   72.28    4.11
   2   4   4   49.03    2.50
  -1   4  -4   41.11    2.69
  -1   4  -4   38.76    3.00
   1   4   4   48.17    2.18
   1  -4  -4   48.56    2.45
   0   4  -4  132.74    4.58
   0   4  -4  139.99    5.10
   0  -4  -4   56.76    2.81
   0  -4   4  120.27    2.68
   0   4   4   75.63    2.86
   1   4  -4   33.08    2.41
  -1  -4  -4   40.61    2.14
   1   4  -4   29.13    2.24
   1  -4   4   20.42    1.28
  -1   4   4   50.13    2.03
   2  -4   4   73.71    2.12
  -2   4   4   35.57    1.55
   2   4  -4   88.76    3.75
  -2  -4  -4   28.31    2.16
  -2   4   4   38.53    1.95
   3  -4   4  163.59    3.91
  -3  -4  -4  136.88    3.42
   3   4  -4  184.81    5.82
  -3   4   4  195.19    3.83
  -3  -4  -4  153.58    4.69
   4  -4   4    6.50    0.94
  -4   4   4    3.34    0.67
  -4  -4  -4    2.12    0.96
   4   4  -4    7.19    1.50
   5   4  -4  116.82    4.97
  -5  -4  -4  115.02    4.52
   6   4  -4   30.04    2.67
  -6  -4  -4    7.92    1.68
   6  -4   4   31.09    1.80
  -6   4   4   13.10    1.28
  -6   4   4   16.30    0.66
  -7  -4  -4   27.98    2.59
  -7   4   4   29.82    1.16
   7  -4   4   30.87    2.16
  -7   4   4   27.53    1.73
  -7  -4  -4   25.01    2.79
  -8  -4  -4   47.27    3.47
  -8   4   4   47.05    1.76
  -8   4   4   43.35    2.27
  -8  -4  -4   41.42    3.90
  -9   4   4    4.01    0.78
   9  -4   4    3.85    1.25
  -9   4   4    3.86    1.18
  -9  -4  -4    4.59    1.98
 -10   4   4   27.84    1.81
  10  -4   4   45.23    5.42
  10  -4   4   51.15    3.06
 -10   4   4   27.69    2.13
 -10  -4  -4   36.67    3.64
 -11   4   4   53.14    2.53
  11  -4   4   54.45    5.62
 -11   4   4   56.18    2.97
  11  -4   4   44.40    3.08
  12  -4   4    1.38    1.50
 -12   4   4    1.85    1.40
 -12  -4  -4    0.08    2.22
  12  -4   4    2.43    3.17
  13  -4   4   76.75    6.64
 -13   4   4   67.37    3.58
 -14  -4  -4    8.11    2.50
 -14   4   4    7.81    1.96
  14  -4   4   11.12    4.12
  15  -4   4   30.88    5.11
 -15  -4  -4   42.52    4.21
 -15   4   4   29.04    2.93
 -16  -4  -4   23.89    3.92
  16  -4   4   21.97    4.74
 -16   4   4   14.37    2.57
  17  -4   4   -1.61    3.74
 -15  -5   4   10.42    3.80
 -15   5  -4    9.53    2.98
 -14  -5   4   21.66    4.48
 -14   5  -4   17.36    3.15
 -13   5  -4   22.45    3.22
 -13  -5   4   25.80    4.34
  12   5   4    5.92    2.60
 -12   5  -4    5.24    2.36
 -12  -5   4    9.98    3.49
  11   5   4   12.98    3.04
  11  -5  -4   15.94    3.57
 -11  -5   4   26.09    2.32
 -11   5  -4   30.34    3.31
 -11  -5   4   35.41    4.32
 -10  -5   4  114.27    4.69
  10  -5  -4  106.17    6.51
 -10   5  -4  107.43    5.15
  10   5   4  113.07    6.60
 -10  -5   4  122.63    6.98
   9  -5  -4   -0.74    2.42
  -9  -5   4    0.42    2.19
   9   5   4    0.54    1.88
  -9   5  -4    1.64    1.74
  -9   5  -4    0.07    1.84
   8  -5  -4  188.18    7.90
  -8   5  -4  175.59    6.23
   8   5   4  195.27    7.53
   7   5   4    3.20    1.48
  -7   5  -4    8.18    1.76
  -7  -5   4    9.27    1.29
  -7  -5   4    9.12    1.36
   7  -5  -4    3.66    2.12
  -7   5  -4    7.93    2.20
  -6  -5   4   68.28    2.64
  -6  -5   4   63.60    2.87
  -6   5  -4   63.57    3.37
  -5   5  -4   59.46    2.98
   5  -5  -4   29.06    2.90
  -5  -5   4   64.19    2.26
  -5  -5   4   49.88    2.33
   5   5   4   26.83    2.33
   4   5   4    4.16    1.12
  -4   5  -4    3.35    1.37
  -4   5  -4    2.39    1.04
  -4  -5   4    3.54    0.83
   4  -5  -4    3.12    1.55
   3  -5  -4    9.73    1.92
  -3   5  -4   28.29    2.04
  -3   5  -4   34.86    2.69
  -3  -5   4   40.64    1.75
   3   5   4   17.67    1.74
   2   5   4  106.21    3.56
   2  -5  -4  101.98    4.16
  -1   5  -4   12.88    1.85
   1  -5  -4    3.61    1.34
  -1  -5   4   11.14    1.02
   1   5   4    5.68    1.06
   0   5  -4  197.15    6.12
   0  -5  -4  148.96    4.99
   0  -5   4  141.48    3.71
   0   5   4  185.17    4.57
   1   5  -4   10.58    1.74
  -1  -5  -4    2.10    1.21
   1  -5   4   13.36    1.13
  -1   5   4    4.73    0.99
   2   5  -4  116.59    4.64
  -2  -5  -4   74.06    3.60
   2   5  -4   70.66    1.92
   2  -5   4   83.44    2.65
  -2   5   4  113.28    3.25
   3  -5   4   33.02    1.66
   3   5  -4   32.77    2.56
  -3   5   4   10.67    1.04
  -3  -5  -4    5.44    0.42
  -3  -5  -4   13.35    1.68
   4  -5   4    3.18    0.89
   4   5  -4    1.22    1.20
  -4  -5  -4    2.38    0.61
  -4   5   4    2.46    0.70
  -4  -5  -4    2.20    1.18
   5   5  -4   55.85    3.36
  -5  -5  -4   15.89    1.44
   5  -5   4   57.26    2.25
  -5  -5  -4   19.69    2.10
  -5   5   4   22.85    1.55
  -6  -5  -4   55.76    2.92
   6   5  -4   71.80    4.04
  -6  -5  -4   54.05    3.43
   6  -5   4   64.16    2.72
  -6   5   4   78.30    2.73
  -7   5   4    3.31    1.06
  -7   5   4    4.13    0.47
   7  -5   4    8.46    1.35
  -7  -5  -4    0.92    1.36
   7  -5   4    6.82    3.46
  -8   5   4  177.66    3.67
  -8   5   4  175.19    4.88
   9  -5   4    1.00    1.23
  -9   5   4    0.95    1.09
  -9   5   4    0.44    0.64
   9  -5   4    1.61    3.11
  -9  -5  -4    0.11    1.57
 -10   5   4  104.52    3.24
  10  -5   4  117.72    7.83
 -10   5   4  106.36    3.96
 -10  -5  -4  120.70    5.49
  11  -5   4   21.73    4.77
  11  -5   4   21.52    2.12
 -11   5   4   12.45    1.85
 -11  -5  -4   19.85    3.03
 -12   5   4    5.79    1.67
  12  -5   4    3.89    3.78
 -12  -5  -4    6.48    2.50
 -13   5   4    6.50    1.85
  13  -5   4   13.91    4.43
 -13  -5  -4   12.38    2.98
  14  -5   4   14.89    4.71
 -14  -5  -4   19.79    3.50
 -14   5   4   13.87    2.26
 -15  -5  -4    4.01    2.54
 -15   5   4    2.56    1.90
  15  -5   4    5.35    3.97
  16  -5   4   31.46    5.51
 -14   6  -4    0.07    2.45
 -14  -6   4    0.13    3.41
 -13   6  -4   77.71    5.06
 -13  -6   4   99.86    7.58
  12   6   4    0.28    2.33
 -12   6  -4    0.95    2.24
 -12  -6   4   -0.34    3.04
 -11  -6   4   66.05    5.70
 -11  -6   4   64.95    3.47
 -11   6  -4   65.56    4.50
  11   6   4   58.61    5.16
  10   6   4    5.47    2.43
 -10  -6   4   10.89    2.95
 -10   6  -4    8.90    2.35
 -10  -6   4   11.26    2.07
  10  -6  -4    7.55    3.31
   9   6   4    6.13    2.20
  -9   6  -4    6.36    2.19
  -9  -6   4    5.17    1.39
  -9  -6   4    7.77    1.96
   9  -6  -4    5.22    2.64
   8   6   4    7.67    1.86
  -8   6  -4    8.90    2.14
  -8  -6   4    9.91    1.56
   8  -6  -4    7.76    2.69
  -8  -6   4    9.28    2.25
  -7  -6   4   44.53    2.48
   7  -6  -4   51.98    4.15
  -7   6  -4   40.59    2.95
   7   6   4   48.07    3.15
   6  -6  -4    7.08    2.15
  -6  -6   4   17.26    1.47
  -6   6  -4   16.49    1.98
  -6  -6   4   17.46    2.89
   6   6   4    8.32    1.55
   5  -6  -4  174.54    6.72
  -5   6  -4  149.57    5.30
  -5  -6   4  157.04    4.26
  -5   6  -4  186.91    6.48
   5   6   4  152.09    5.15
   4   6   4    3.43    1.21
  -4   6  -4    2.83    1.64
  -4   6  -4    1.54    1.24
  -4  -6   4    1.94    0.88
   4  -6  -4    4.56    1.78
  -3   6  -4  152.27    5.34
  -3  -6   4  165.25    4.32
   3   6   4  158.10    4.85
   3  -6  -4  148.92    5.74
  -2   6  -4    7.61    1.77
  -2  -6   4    5.09    1.00
   2  -6  -4    6.65    1.78
   2   6   4    6.59    1.27
  -1   6  -4   26.44    2.51
  -1  -6   4   21.38    1.45
   1  -6  -4   20.94    2.21
   1   6   4   22.58    1.70
   0   6  -4   28.93    2.62
   0  -6  -4   13.98    1.90
   0  -6   4   32.27    1.66
   0   6   4   13.67    1.45
   1   6  -4   29.03    2.62
   1  -6   4   31.34    4.26
  -1  -6  -4   20.10    2.15
   1  -6   4   22.52    1.50
  -1   6   4   23.83    1.72
   2   6  -4    9.93    1.83
  -2  -6  -4    2.64    1.38
   2  -6   4    8.59    3.30
   2  -6   4    5.24    1.02
  -2   6   4    5.79    1.04
  -3   6   4  152.06    3.94
   3   6  -4  187.55    6.23
  -3  -6  -4  106.52    4.87
   3  -6   4  194.05    9.50
   3   6  -4  118.86    3.27
   3  -6   4  157.09    4.01
   4   6  -4    0.53    0.76
   4   6  -4    2.46    1.50
  -4  -6  -4    2.11    0.54
  -4   6   4    3.26    0.86
  -4  -6  -4    2.85    1.32
   4  -6   4    0.70    2.98
   4  -6   4    0.67    0.93
   5  -6   4  158.72    4.34
  -5  -6  -4  120.30    3.64
  -5   6   4  155.95    4.04
  -5  -6  -4  119.28    5.11
   5   6  -4  166.53    6.08
   6   6  -4   14.14    2.21
   6  -6   4   14.34    1.46
  -6   6   4    6.56    1.17
  -6  -6  -4    3.05    0.98
  -6  -6  -4    4.84    1.60
  -7  -6  -4   34.11    2.32
  -7  -6  -4   29.37    2.94
   7  -6   4   44.48    2.39
  -7   6   4   45.66    2.32
   7  -6   4   56.23    5.98
  -8   6   4    5.92    1.34
   8  -6   4    8.74    1.50
  -8  -6  -4    5.06    1.33
  -8  -6  -4    3.86    1.83
   8  -6   4   10.73    4.04
  -9  -6  -4    4.62    1.45
  -9  -6  -4    3.99    1.85
  -9   6   4    6.14    1.42
   9  -6   4    9.31    4.13
   9  -6   4    6.00    1.39
 -10   6   4    6.25    1.56
 -10  -6  -4    2.21    1.46
 -10  -6  -4    6.45    2.10
  10  -6   4   11.91    4.55
  10  -6   4    7.77    1.74
 -11  -6  -4   64.45    4.14
 -11   6   4   59.84    3.18
 -12   6   4    0.95    1.49
 -12  -6  -4    0.07    1.65
 -12  -6  -4    0.49    2.13
  12  -6   4    3.04    4.10
  13  -6   4   77.65    7.49
 -13   6   4   66.46    3.78
 -13  -6  -4   88.66    5.38
 -14   6   4    0.91    1.70
  14  -6   4   -2.05    4.28
 -14  -6  -4   -0.80    2.43
 -13   7  -4    7.14    2.75
 -13  -7   4    5.84    3.86
 -12   7  -4    5.49    2.73
 -12  -7   4    4.73    3.28
 -11   7  -4    2.97    2.35
 -11  -7   4    5.44    3.06
 -10  -7   4   57.35    3.62
 -10   7  -4   59.06    4.27
   9   7   4   -0.12    1.56
  -9   7  -4    1.21    1.79
  -9  -7   4    1.31    1.89
  -8  -7   4  101.39    3.87
   8  -7  -4   93.82    5.90
  -8   7  -4   87.76    4.61
  -8  -7   4  110.41    5.34
   8   7   4   77.22    4.23
   7   7   4    4.81    1.54
   7  -7  -4    5.88    2.48
  -7  -7   4    1.88    1.13
  -7   7  -4    3.30    1.75
  -7  -7   4    5.02    2.40
   6  -7  -4   55.06    4.33
  -6   7  -4   42.43    3.08
  -6  -7   4   45.65    2.38
  -6  -7   4   60.99    4.42
   6   7   4   43.74    2.85
   5  -7  -4   16.24    2.76
  -5   7  -4    7.73    1.75
  -5  -7   4    8.62    1.31
  -5  -7   4   12.70    2.89
   5   7   4   15.17    1.75
   4   7   4    0.63    1.07
  -4  -7   4   -0.11    1.06
  -4   7  -4    0.53    1.38
  -4  -7   4    0.26    0.95
  -4  -7   4    1.28    2.43
   4  -7  -4    0.63    1.85
  -3   7  -4    8.85    1.83
  -3  -7   4    5.39    1.29
  -3  -7   4   13.30    3.23
   3   7   4   13.64    1.55
   3  -7  -4   15.76    2.42
   2   7   4   91.75    3.60
   2  -7  -4   94.15    4.84
   1   7   4    3.01    1.01
  -1  -7   4    0.24    0.94
   1  -7  -4    1.81    1.55
  -1  -7   4    2.14    2.82
   0  -7  -4  182.00    6.56
   0   7   4  191.46    5.25
  -1   7   4    4.22    1.10
  -1  -7  -4    1.48    1.55
   1  -7   4    0.54    0.93
   1  -7   4    0.65    2.79
   2  -7   4  104.69    3.41
  -2   7   4   90.70    3.37
  -3   7   4   15.53    1.38
  -3  -7  -4   11.08    2.12
   3  -7   4   13.06    3.75
   3   7  -4    6.73    1.02
   3  -7   4    6.97    1.27
   4   7  -4    1.15    0.91
   4   7  -4    0.46    1.41
  -4   7   4    0.12    0.87
  -4  -7  -4    0.75    1.54
   4  -7   4    2.08    3.25
   4  -7   4    1.08    1.01
   5   7  -4    5.59    1.33
   5  -7   4    8.52    1.41
   5   7  -4   10.62    2.01
  -5   7   4   12.79    1.31
  -5  -7  -4    9.33    0.97
  -5  -7  -4   10.09    1.95
   5  -7   4   13.97    4.26
   6   7  -4   52.15    3.77
   6  -7   4   49.57    2.57
  -6  -7  -4   34.36    1.98
  -6   7   4   46.39    2.30
  -6  -7  -4   31.40    2.98
   6   7  -4   32.07    2.45
   7  -7   4    3.69    1.27
   7   7  -4    3.29    1.84
  -7  -7  -4    3.85    1.08
  -7  -7  -4    2.49    1.68
  -7   7   4    5.70    1.21
   7  -7   4    3.57    3.96
  -8  -7  -4   59.91    3.24
  -8  -7  -4   53.87    4.09
  -9  -7  -4    0.82    1.11
  -9   7   4    0.58    1.20
   9  -7   4    2.24    4.04
 -10  -7  -4   33.76    2.87
 -10   7   4   47.34    2.90
 -11   7   4    3.32    1.50
  11  -7   4    3.61    4.12
 -11  -7  -4    4.13    2.08
 -12  -7  -4    3.33    2.15
 -12   7   4    4.69    1.82
  12  -7   4    5.80    4.61
 -13   7   4    9.28    2.01
 -13  -7  -4    9.77    2.63
 -12   8  -4    2.67    2.72
 -12   8  -4    1.45    2.16
 -12  -8   4    1.34    3.26
 -11   8  -4   49.37    4.19
 -10   8  -4    6.39    2.38
  -9   8  -4    4.70    2.09
  -9  -8   4    5.02    2.16
  -8   8  -4   13.54    2.43
  -8   8  -4   24.89    3.07
  -8  -8   4   19.35    3.01
   8   8   4   20.54    2.36
  -7   8  -4   29.56    2.91
  -7   8  -4   40.69    3.45
  -7  -8   4   38.94    3.84
   7   8   4   25.37    2.44
  -6   8  -4   14.92    2.61
  -6   8  -4    6.21    1.88
  -6  -8   4    9.59    2.99
   6   8   4   12.07    1.76
   5  -8  -4   94.36    5.56
  -5   8  -4  100.97    4.82
   4   8   4    0.83    1.14
  -4  -8   4    0.98    1.20
  -4   8  -4    0.65    1.59
  -4  -8   4    1.87    2.64
   4  -8  -4    0.49    2.07
   3   8   4   65.64    3.21
   3  -8  -4   73.28    4.75
  -2  -8   4   21.60    3.89
   2  -8  -4   20.72    2.91
   2   8   4   18.71    1.77
   1  -8  -4    7.06    2.17
  -1  -8   4   11.26    1.43
   1   8   4    8.64    1.35
   0  -8   4   29.61    4.60
   0  -8  -4   23.06    2.75
   0   8   4   29.47    2.03
  -1  -8  -4    9.25    2.27
   1  -8   4   11.54    1.47
  -1   8   4    9.00    1.44
   2  -8   4   21.99    4.46
  -2  -8  -4   14.67    2.44
   2  -8   4    9.17    1.47
   2   8  -4   11.77    1.26
  -2   8   4   22.31    1.80
   3   8  -4   76.55    2.87
   3  -8   4   86.39    3.27
   4   8  -4    1.50    1.04
  -4  -8  -4    0.20    1.81
  -4   8   4    1.71    1.01
   4  -8   4    2.33    3.56
   4  -8   4    1.67    1.13
  -5   8   4   82.60    3.27
   5   8  -4   75.31    3.45
  -6   8   4   10.96    1.41
  -6  -8  -4    9.50    1.18
  -7   8   4   23.79    1.94
   7   8  -4   23.42    2.78
  -8   8   4   22.92    1.94
   8  -8   4   23.22    5.31
  -9   8   4    2.40    1.33
   9  -8   4    6.97    4.45
 -10   8   4   12.07    1.81
 -11   8   4   33.04    2.64
 -12  -8  -4    3.15    2.11
 -10   9  -4   30.89    3.47
  -9   9  -4   -0.13    1.89
  -8   9  -4   61.34    4.14
  -7   9  -4   13.41    2.57
  -7  -9   4   15.77    3.01
  -6   9  -4   28.18    3.15
  -6   9  -4   30.86    3.44
  -6  -9   4   31.03    3.85
   6   9   4   20.98    2.20
  -5   9  -4   31.70    3.33
  -5   9  -4   44.01    3.76
  -5  -9   4   48.85    4.70
   5   9   4   34.54    2.62
   4   9   4    0.75    1.27
  -4   9  -4   -0.27    1.95
  -4  -9   4    0.57    2.76
  -3   9  -4   29.08    3.18
   3   9   4   25.51    2.20
  -2   9  -4   45.84    3.67
  -2  -9   4   56.84    5.56
   1   9   4    4.15    1.22
  -1   9  -4    3.72    1.99
  -1  -9   4    4.17    3.50
   0   9  -4   78.65    4.71
   0  -9   4   89.45    7.12
  -1   9   4    4.72    1.32
   1   9  -4    5.82    2.10
   1  -9   4    4.65    3.58
   2   9  -4   38.02    2.25
  -2   9   4   27.51    2.17
   3   9  -4   30.49    3.25
   3  -9   4   34.27    5.36
   3   9  -4   21.61    1.80
   4   9  -4    0.13    1.14
   4  -9   4    1.03    3.69
  -5   9   4   42.72    2.48
   5  -9   4   50.82    6.60
  -6   9   4   20.86    2.00
   6  -9   4   31.38    5.71
  -7   9   4   16.08    1.83
  -8   9   4   39.38    2.59
  -9   9   4    0.45    1.33
  -7  10  -4    5.43    2.30
  -6  10  -4   12.77    2.74
  -3 -10   4   54.36    5.46
  -2 -10   4   36.70    5.00
  -1 -10   4    7.29    3.69
   0 -10   4   76.78    6.78
   1 -10   4    6.84    3.98
   2  10  -4   27.32    2.16
   3  10  -4   34.27    2.39
  -6  10   4   12.38    1.84
  -7  10   4    3.22    1.55
   0   0  -5  113.42    4.02
   0   0   5  156.04    5.10
   1   0  -5    0.94    0.81
  -1   0  -5    0.66    0.81
  -1   0   5    0.98    1.12
   2   0  -5   47.16    2.57
  -2   0  -5   50.85    2.67
  -2   0   5   54.43    2.53
  -3   0  -5    7.84    1.28
   3   0  -5    5.57    1.22
  -3   0  -5    7.80    1.54
  -3   0   5    5.85    1.03
  -4   0  -5    0.61    1.35
  -4   0   5    0.38    0.71
  -5   0   5   20.04    0.77
  -5   0  -5   22.85    1.29
  -5   0  -5   20.27    2.62
  -6   0  -5   58.36    2.49
  -6   0  -5   54.29    4.12
  -7   0  -5    4.61    2.29
  -7   0   5    4.54    0.82
  -7   0  -5    7.01    1.52
  -7   0   5    4.49    0.81
  -8   0   5   56.33    2.32
  -8   0  -5   83.58    5.38
  -8   0   5   66.66    2.44
  -8   0  -5   93.94    3.92
  -9   0   5   -0.17    0.77
  -9   0  -5   -0.35    2.29
  -9   0   5    0.55    0.36
  -9   0   5   -0.04    0.76
  -9   0   5    0.82    0.98
  -9   0  -5    0.59    1.63
 -10   0   5   57.01    2.75
 -10   0   5   50.10    2.41
 -11   0   5    8.36    1.61
 -11   0   5    8.25    1.28
 -11   0  -5    9.87    2.34
 -12   0   5    5.28    1.32
 -12   0   5    6.35    1.65
 -12   0  -5    7.78    2.32
 -13   0   5    7.11    1.90
 -13   0  -5   10.29    2.58
 -14   0   5    3.96    1.97
 -14   0  -5    7.93    2.64
 -15   0   5    0.65    1.87
 -15   0  -5    0.85    2.40
 -16   0  -5   46.80    4.30
 -16   1  -5    3.40    2.87
 -15  -1   5   25.24    3.09
 -15   1  -5   23.72    3.34
 -14  -1   5    2.67    2.00
 -14   1  -5    1.66    2.31
 -13  -1   5   67.12    3.97
 -13   1  -5   74.82    4.65
 -12  -1   5    1.90    1.53
 -12   1  -5    1.06    2.00
 -11  -1   5   55.04    3.18
 -11  -1   5   45.57    2.51
 -10  -1   5    7.48    1.60
 -10  -1   5    3.78    1.10
 -10   1  -5    6.33    2.07
  -9   1  -5    3.00    2.41
  -9  -1   5    3.01    1.20
  -9  -1   5    1.93    0.92
  -9   1  -5    2.35    1.62
  -8  -1   5    7.69    1.27
  -8  -1   5    5.93    1.00
  -7  -1   5   39.59    1.83
  -7  -1   5   35.38    1.85
  -7   1  -5   47.38    2.49
  -7   1  -5   50.08    4.23
  -6  -1   5    3.36    0.80
  -6  -1   5    2.98    0.72
  -6   1  -5    5.55    1.18
  -5  -1   5  116.56    2.29
  -5   1  -5  117.27    3.20
   5   1   5  120.13    5.86
  -5  -1   5  106.54    2.34
  -4   1  -5    2.33    1.57
   4   1   5    0.24    1.67
  -3   1  -5   66.30    3.22
   3   1   5   58.65    3.85
  -2   1  -5    4.80    1.19
  -2   1  -5    2.78    1.18
   1  -1  -5    6.22    0.96
  -1   1  -5    9.83    1.42
   0  -1  -5   19.76    1.43
   0   1  -5    6.17    1.34
   1   1  -5   11.02    1.44
  -1  -1  -5    7.89    1.05
  -1   1   5   13.42    1.67
  -2  -1  -5    9.53    1.13
  -2   1   5   13.57    1.31
  -3  -1  -5   47.34    2.34
  -3   1   5   40.86    1.88
  -4   1   5    0.65    0.63
  -4  -1  -5    0.15    1.31
   4   1  -5    1.19    1.05
  -5  -1  -5   72.06    2.37
  -5  -1  -5   92.53    4.62
  -6   1   5   10.08    0.78
  -6   1   5   13.04    0.86
  -6  -1  -5   13.09    2.34
  -7  -1  -5   38.45    2.58
  -7   1   5   21.86    1.24
  -7   1   5   26.80    1.29
  -7  -1  -5   23.51    3.14
  -7   1   5    8.33    0.79
  -8   1   5   20.54    1.27
  -8   1   5   22.07    1.37
  -8  -1  -5   22.00    3.21
  -9  -1  -5    1.36    1.72
  -9  -1  -5    2.21    2.35
  -9   1   5    2.11    0.78
  -9   1   5    1.49    0.95
 -10   1   5   12.73    1.26
 -10   1   5   14.27    1.54
 -11   1   5   36.71    2.14
 -11   1   5   45.77    2.58
 -12  -1  -5    4.67    2.16
 -12   1   5    2.81    1.36
 -13  -1  -5   68.83    4.61
 -13   1   5   50.46    3.14
 -14  -1  -5    1.98    2.47
 -14   1   5    0.45    1.60
 -15  -1  -5   24.96    3.53
 -15   1   5   17.53    2.50
 -16  -1  -5   10.94    2.90
  16  -1   5    5.52    3.22
 -16   2  -5   32.07    3.97
 -15  -2   5    3.40    2.34
 -15   2  -5    3.16    2.75
 -14  -2   5    5.91    2.26
 -14   2  -5    7.13    2.73
 -13  -2   5   13.63    2.56
 -13   2  -5   12.18    2.75
 -12  -2   5    5.60    1.96
 -12   2  -5    7.70    2.31
 -11  -2   5   10.53    2.25
 -11   2  -5   14.15    2.52
 -10  -2   5   78.19    3.98
 -10   2  -5   81.98    4.19
  -9   2  -5    1.02    2.37
  -9  -2   5    0.25    0.93
  -9   2  -5    1.19    1.48
  -9  -2   5    0.12    1.36
  -8  -2   5   80.50    3.04
  -8  -2   5   90.06    3.63
   8   2   5   69.33    5.03
  -8   2  -5   99.49    4.10
  -8   2  -5  118.45    6.40
  -7  -2   5    6.24    1.04
  -7  -2   5    6.08    1.35
  -7   2  -5    8.59    1.55
  -6  -2   5   45.52    2.06
  -6  -2   5   35.98    1.77
  -6   2  -5   39.93    2.34
   6   2   5   21.38    2.97
  -6   2  -5   56.59    4.39
  -5  -2   5   14.68    0.77
  -5   2  -5   13.88    1.15
   4   2   5   -0.39    1.95
  -4   2  -5    2.41    1.81
  -4  -2   5    1.12    0.37
  -4  -2   5    1.67    0.53
  -4   2  -5    1.20    0.54
  -3   2  -5   10.11    1.76
  -3   2  -5   22.77    2.49
  -2   2  -5   42.54    2.78
  -2   2  -5   51.35    2.88
  -1   2  -5    1.88    1.15
  -1   2  -5    3.80    0.92
   0  -2  -5    9.80    0.90
   0   2   5   35.69    2.14
  -1  -2  -5    3.25    0.63
   1   2  -5    1.26    1.14
  -2  -2  -5   13.68    1.16
  -2   2   5   18.64    1.42
  -3  -2  -5   18.77    1.36
  -3   2   5   28.42    1.51
  -4   2   5    1.55    0.73
  -4  -2  -5    1.81    0.90
   4   2  -5    1.53    1.20
  -4   2   5    1.47    0.36
   5   2  -5    6.35    1.89
  -5  -2  -5   30.91    1.68
  -5  -2  -5   78.03    3.16
  -5   2   5   51.55    1.36
  -5   2   5   38.23    1.64
  -5  -2  -5   39.45    3.18
  -6  -2  -5   26.39    2.28
  -6   2   5   19.91    1.19
  -6  -2  -5   27.98    3.07
  -7   2   5   12.89    0.89
  -7   2   5   15.80    1.10
  -7  -2  -5   14.22    2.54
  -8   2   5   51.44    1.90
  -8  -2  -5   87.99    4.34
  -8   2   5   65.35    2.33
  -8  -2  -5   78.53    5.09
  -9   2   5    0.38    0.64
  -9   2   5    0.95    0.84
  -9  -2  -5    1.58    1.84
 -10   2   5   40.11    1.93
 -10   2   5   48.89    2.41
 -11  -2  -5   32.64    3.30
 -11   2   5   23.39    1.88
 -12  -2  -5    3.70    2.23
 -12   2   5    4.51    1.43
 -13  -2  -5   28.15    3.18
 -13   2   5   23.84    2.28
 -14  -2  -5    9.95    2.66
 -14   2   5    4.96    1.79
 -15  -2  -5   10.02    2.73
  15  -2   5    7.71    3.49
 -16  -2  -5   23.50    3.58
  16  -2   5   28.80    4.42
 -16   3  -5   14.40    3.36
 -15   3  -5   25.28    3.58
 -14   3  -5    5.50    2.56
 -14  -3   5    2.64    2.46
 -13  -3   5   46.89    3.93
 -13   3  -5   45.06    3.73
 -12   3  -5    2.36    2.04
 -12  -3   5    2.85    2.15
 -11  -3   5   34.72    3.26
 -11   3  -5   33.33    3.11
  10  -3  -5   43.00    4.37
 -10  -3   5   19.36    3.08
  10   3   5   44.07    4.24
 -10   3  -5   15.12    2.60
  -9  -3   5   -0.59    1.78
  -9   3  -5   -0.17    2.24
  -9   3  -5    2.36    1.77
  -9  -3   5    0.27    0.99
   9  -3  -5    0.55    1.99
   9   3   5   -0.08    2.10
   8  -3  -5   59.90    4.27
  -8  -3   5   22.94    1.82
  -8  -3   5   22.42    2.44
  -8   3  -5   24.16    2.51
   8   3   5   51.39    4.28
  -8   3  -5   45.22    4.21
   7   3   5    6.62    2.30
  -7  -3   5   13.09    1.31
  -7   3  -5   14.02    1.91
  -7  -3   5   19.62    1.92
   7  -3  -5    6.26    2.31
  -7   3  -5   18.51    3.12
  -6  -3   5    6.47    0.81
  -6  -3   5    3.26    1.31
  -6  -3   5    6.38    1.05
  -6   3  -5    6.42    1.24
   6   3   5   20.81    3.04
  -6   3  -5   13.26    2.75
   6  -3  -5   24.27    2.68
  -5  -3   5   79.87    1.96
  -5   3  -5   61.89    2.51
  -5  -3   5   89.54    3.37
   5   3   5   24.97    3.16
  -5   3  -5  109.80    5.82
   5  -3  -5   21.67    2.83
   4   3   5    5.04    1.84
  -4   3  -5    5.22    2.09
  -4  -3   5    0.01    0.49
  -4   3  -5    0.04    0.70
  -4   3  -5    2.03    1.43
  -4  -3   5    0.52    0.99
   4  -3  -5    5.21    1.56
  -3   3  -5   66.81    3.68
  -3  -3   5   49.13    1.39
   3  -3  -5   22.25    2.14
   3   3   5   37.23    2.65
  -3  -3   5   62.68    2.29
  -2   3  -5   25.56    2.52
   2  -3  -5   19.84    1.48
   2   3   5   39.97    2.48
  -2   3  -5   48.55    3.12
  -2  -3   5   11.78    1.09
  -1  -3   5    3.36    0.45
  -1   3  -5   17.29    2.01
   1   3   5    8.21    1.33
   1  -3  -5    2.79    0.93
  -1   3  -5   17.84    1.60
   0  -3  -5   36.91    1.56
   0   3  -5   39.85    1.54
   1  -3   5    3.83    0.60
  -1  -3  -5    1.99    0.73
  -1  -3  -5    4.58    0.87
   2   3  -5   21.52    2.31
  -2  -3  -5    8.29    0.68
   2  -3   5    5.64    0.72
  -2  -3  -5   26.55    1.38
  -2  -3  -5   28.65    1.63
  -2   3   5   36.74    1.80
  -3  -3  -5   14.83    1.13
  -3  -3  -5   11.69    1.25
   3  -3   5   29.40    1.57
  -3  -3  -5   23.98    1.78
  -3   3   5   24.88    1.56
  -4   3   5    3.54    0.81
  -4   3   5    4.78    0.56
   4   3  -5    0.39    1.23
  -4  -3  -5    5.31    1.31
   4  -3   5   -0.04    0.80
   5   3  -5   67.89    3.88
  -5   3   5   31.10    1.24
  -5  -3  -5   23.88    1.71
  -5  -3  -5   31.01    2.54
   5  -3   5   65.69    2.45
  -5   3   5   19.61    1.42
  -6  -3  -5   12.39    1.52
  -6   3   5   21.38    1.14
  -6  -3  -5   26.80    2.29
  -6   3   5   15.73    1.17
  -7  -3  -5    9.10    2.27
  -7  -3  -5    5.90    1.70
  -7   3   5    4.28    0.48
  -7  -3  -5    6.56    1.51
  -7   3   5    6.93    0.99
  -8   3   5   36.30    1.33
  -8   3   5   44.31    1.94
  -9  -3  -5    0.05    1.83
  -9   3   5    0.64    0.93
   9  -3   5    0.46    1.18
 -10  -3  -5   47.81    3.84
 -10   3   5   34.02    2.03
 -11  -3  -5   20.66    2.99
 -11   3   5   15.33    1.70
 -12   3   5    4.82    1.39
 -12  -3  -5    4.99    2.25
 -13  -3  -5   28.58    3.45
 -13   3   5   20.13    2.11
 -14   3   5    6.49    1.67
 -14  -3  -5   10.72    2.74
  14  -3   5    4.94    3.43
 -15  -3  -5   18.94    3.52
  15  -3   5   18.52    4.17
 -16  -3  -5   23.31    3.51
  16  -3   5   16.60    4.31
 -15   4  -5   14.36    3.21
 -14   4  -5    3.80    2.59
 -14  -4   5    6.43    3.06
 -13  -4   5   42.06    4.60
 -13   4  -5   31.73    3.61
 -12  -4   5    2.65    2.38
  12  -4  -5   -0.83    3.07
 -12   4  -5    5.66    2.40
  12   4   5   -0.18    2.40
 -11  -4   5   20.97    3.11
  11   4   5   28.87    3.83
 -11   4  -5   17.00    2.71
  11  -4  -5   30.11    4.47
  10   4   5   12.33    3.02
 -10  -4   5   47.85    3.84
 -10   4  -5   35.80    3.22
  10  -4  -5   20.92    4.28
   9   4   5    0.57    2.04
  -9   4  -5   -0.30    2.71
   9  -4  -5    1.18    2.81
  -9   4  -5   -0.14    1.58
  -9  -4   5    0.27    2.03
   8   4   5    7.90    2.88
  -8  -4   5   42.38    1.99
  -8   4  -5   42.34    3.19
  -8   4  -5   51.66    5.00
  -8  -4   5   57.98    3.97
   8  -4  -5   20.45    3.91
  -7  -4   5    9.50    1.10
  -7  -4   5    8.41    1.24
  -7   4  -5   11.82    1.78
   7   4   5   17.85    2.93
   7  -4  -5   23.11    3.42
  -7   4  -5   19.57    3.63
  -7  -4   5    9.51    2.28
   6   4   5    6.35    2.22
  -6  -4   5   18.51    1.17
   6  -4  -5    3.31    2.30
  -6   4  -5   17.45    1.74
  -6   4  -5   28.24    3.89
  -6  -4   5   27.21    2.67
  -5  -4   5   36.51    2.76
  -5   4  -5   30.56    2.05
  -5  -4   5   33.35    1.47
  -5   4  -5   45.24    3.40
   5  -4  -5   77.15    4.33
  -5   4  -5   81.96    5.69
   5   4   5   57.19    3.49
  -4   4  -5    6.71    2.61
   4   4   5    2.55    1.30
  -4   4  -5    3.40    1.04
  -4   4  -5    6.00    1.75
  -4  -4   5    4.99    0.75
   4  -4  -5    1.59    1.84
  -3   4  -5   43.40    3.31
   3  -4  -5   94.10    3.97
  -3   4  -5   90.21    4.86
   3   4   5   76.31    3.36
  -2   4  -5   29.79    2.72
   2  -4  -5    6.56    1.56
  -2   4  -5   44.96    3.41
  -2  -4   5   26.75    1.12
   2   4   5   10.62    1.53
   1  -4  -5   12.72    1.62
  -1   4  -5    6.25    1.64
  -1   4  -5   16.69    1.90
   1   4   5   11.61    1.39
  -1  -4   5    4.29    0.66
   0  -4  -5    8.06    1.49
   0  -4   5   51.21    1.55
   0   4  -5   60.96    3.51
   0   4   5   22.74    1.90
   0   4  -5   51.58    1.91
   1   4  -5   10.76    1.97
  -1   4   5   10.09    1.24
  -1  -4  -5   10.08    1.40
   2   4  -5   31.83    2.79
   2  -4   5   23.27    1.21
  -2  -4  -5    4.20    1.16
  -2   4   5   10.39    1.25
   3   4  -5   36.21    3.02
  -3  -4  -5   49.51    2.54
  -4  -4  -5    1.58    1.09
  -4  -4  -5   -0.26    1.05
  -4   4   5    1.77    0.84
   4   4  -5    4.63    1.53
  -4   4   5    1.50    0.56
   4  -4   5    4.85    0.95
   5   4  -5   31.91    3.09
  -5   4   5   57.20    1.77
  -5  -4  -5   36.99    2.36
   5  -4   5   26.60    1.79
  -5   4   5   48.96    2.11
  -5  -4  -5   63.33    3.12
   6   4  -5   16.36    2.33
  -6  -4  -5    2.71    1.61
  -6   4   5    5.02    0.83
  -6  -4  -5    3.71    1.26
   6  -4   5   14.08    1.39
  -7   4   5   19.30    1.35
  -7  -4  -5   19.68    2.39
  -8  -4  -5   14.65    2.17
  -8   4   5    9.72    1.38
  -8  -4  -5   15.52    2.55
   9  -4   5    0.86    1.27
  -9   4   5    1.76    0.96
  -9  -4  -5    1.74    1.89
 -10  -4  -5   20.75    2.91
 -10   4   5   10.23    1.52
 -11  -4  -5   26.89    2.93
  11  -4   5   17.80    4.37
 -11   4   5   20.63    1.82
 -12  -4  -5    1.98    2.21
 -12   4   5    0.24    1.30
  12  -4   5    4.22    3.77
  13  -4   5   37.97    5.50
 -13   4   5   37.73    2.68
  14  -4   5    8.14    3.69
 -14  -4  -5    2.36    2.53
 -15  -4  -5   18.58    3.13
 -15   5  -5    8.34    3.05
 -14   5  -5    7.56    2.78
 -13  -5   5   16.69    3.35
 -13   5  -5   12.79    2.95
 -12   5  -5    3.30    2.35
 -12  -5   5    4.56    2.88
  11   5   5    4.91    2.63
 -11   5  -5   16.70    2.70
 -11  -5   5   24.94    3.85
  11  -5  -5   12.30    4.40
 -10   5  -5   47.02    3.91
  10   5   5   51.86    4.60
  10  -5  -5   65.87    6.28
 -10  -5   5   59.74    5.36
   9   5   5   -0.43    2.35
  -9   5  -5    1.05    1.82
  -9  -5   5    1.96    2.34
   9  -5  -5   -0.12    3.05
  -8  -5   5   63.97    2.72
  -8   5  -5   65.84    3.78
   8  -5  -5   93.15    6.15
  -8   5  -5   89.60    6.31
   8   5   5   71.28    4.79
  -8  -5   5   91.25    5.65
  -7   5  -5    6.35    2.88
   7   5   5    3.04    2.01
   7  -5  -5    2.84    2.58
  -7  -5   5    8.26    1.07
  -7   5  -5    5.40    1.50
  -6   5  -5   14.77    1.85
  -6  -5   5   18.11    1.32
  -6   5  -5   22.43    2.87
  -6   5  -5   23.77    3.91
   6   5   5   24.00    2.43
  -5   5  -5   29.80    2.29
  -5   5  -5   30.32    3.02
  -5  -5   5   38.14    1.67
   5  -5  -5    6.52    2.54
  -5   5  -5   42.55    4.43
   5   5   5   11.78    1.96
  -4   5  -5    0.62    2.34
   4   5   5    2.30    1.28
  -4  -5   5    0.63    0.76
   4  -5  -5    1.68    1.88
  -4   5  -5    0.21    1.08
  -4   5  -5    1.78    1.68
   3  -5  -5    1.43    1.71
  -3   5  -5   26.62    2.78
  -3  -5   5   23.39    1.29
  -3   5  -5   30.26    3.78
   3   5   5    7.33    1.48
   2  -5  -5   32.85    2.76
  -2   5  -5   37.03    3.26
   2   5   5   38.07    2.33
   1   5   5    0.90    1.05
  -1   5  -5    3.87    1.70
  -1  -5   5    4.18    0.76
   1  -5  -5   -0.21    1.42
   0   5   5   68.32    2.77
   0  -5  -5   65.57    3.31
  -1   5   5    1.10    0.97
   1   5  -5    5.77    1.79
  -1  -5  -5   -0.44    1.19
   1  -5   5    4.76    0.82
   2  -5   5   23.95    1.42
   2   5  -5   33.07    3.06
  -2  -5  -5   25.67    2.20
  -2   5   5   32.57    1.90
   3   5  -5   25.80    2.72
   3  -5   5   19.64    1.30
  -3  -5  -5    1.45    1.38
  -3   5   5    3.48    1.04
  -4   5   5    2.13    0.94
  -4  -5  -5    0.83    1.24
   4   5  -5    0.71    1.47
   4  -5   5    1.01    0.84
  -4   5   5    1.63    0.63
   5   5  -5   31.08    2.95
  -5  -5  -5    4.22    0.77
  -5   5   5    6.95    0.97
   5  -5   5   26.60    1.63
  -5  -5  -5    7.73    1.57
  -5   5   5    2.77    1.09
  -6  -5  -5   26.74    2.34
   6   5  -5   15.29    2.52
  -6  -5  -5   18.45    1.60
  -6   5   5   26.05    1.46
  -6  -5  -5   19.79    2.16
   6  -5   5   15.47    1.61
  -7  -5  -5    2.32    1.53
  -7  -5  -5    0.34    0.99
  -7  -5  -5    2.26    1.50
  -7   5   5    1.13    0.84
  -8  -5  -5   59.96    3.87
   8  -5   5   59.28    2.89
  -9  -5  -5    0.89    1.79
  -9   5   5    0.44    1.02
  -9  -5  -5   -0.19    1.59
   9  -5   5    1.53    3.29
 -10  -5  -5   46.98    3.72
  10  -5   5   62.23    6.79
 -10   5   5   47.74    2.58
 -10  -5  -5   60.41    4.23
 -11   5   5    4.70    1.41
 -11  -5  -5    6.59    2.63
 -12   5   5    2.71    1.43
 -12  -5  -5    4.60    2.39
  12  -5   5    6.28    3.96
 -13  -5  -5    8.17    2.53
 -13   5   5    2.56    1.58
 -14  -5  -5   10.08    2.79
 -15  -5  -5    2.30    2.74
 -14   6  -5    1.72    2.65
 -13   6  -5   38.47    4.18
 -12   6  -5    0.76    2.35
 -12  -6   5    1.64    3.08
 -11   6  -5   24.58    3.34
 -11  -6   5   35.53    4.63
 -10  -6   5   12.81    3.30
 -10   6  -5    9.80    2.26
 -10  -6   5   11.22    2.60
  -9  -6   5   -1.26    2.48
   9   6   5    2.05    2.23
   9  -6  -5    2.86    3.06
  -9   6  -5    1.30    1.74
  -9  -6   5    2.42    2.12
   8   6   5    7.57    2.32
  -8   6  -5   12.22    2.08
   8  -6  -5    7.26    3.52
  -7   6  -5   20.74    2.32
  -7   6  -5   26.74    3.10
   7  -6  -5   28.29    3.88
  -7   6  -5   20.64    3.31
   7   6   5   17.07    2.32
  -6   6  -5    8.54    2.57
   6   6   5    2.21    1.48
  -6  -6   5    7.85    1.09
  -6   6  -5    9.47    2.29
  -6   6  -5    7.20    1.67
   6  -6  -5    3.06    2.62
  -5   6  -5   52.41    3.35
   5  -6  -5   78.62    5.05
  -5   6  -5   77.37    4.66
  -5  -6   5   52.13    2.39
  -5   6  -5   71.62    4.97
   5   6   5   65.76    3.49
  -4   6  -5    0.36    1.81
   4   6   5    1.54    1.22
   4  -6  -5    1.25    1.96
  -4  -6   5    0.51    0.85
  -4   6  -5    1.33    1.94
   3  -6  -5   61.59    4.09
  -3   6  -5   71.50    4.52
  -3  -6   5   54.33    2.19
  -3   6  -5   71.09    4.67
   3   6   5   56.83    3.01
  -2   6  -5    9.02    2.31
   2   6   5    4.42    1.26
  -2   6  -5    7.14    2.10
  -2  -6   5    7.20    0.98
   2  -6  -5    4.07    1.88
  -1   6  -5    9.35    2.27
  -1   6  -5    9.96    2.17
   1  -6  -5    6.61    1.87
  -1  -6   5    5.95    0.93
   1   6   5    7.89    1.31
   0   6   5    4.13    1.21
   0   6  -5   19.15    2.56
   0  -6  -5    1.30    1.61
   0   6  -5   25.53    2.82
   0  -6   5   18.46    1.30
   1   6  -5    8.10    2.00
  -1  -6  -5    4.61    1.65
   1   6  -5    8.24    1.38
  -1   6   5    8.38    1.30
   1  -6   5    6.25    1.00
  -2   6   5    3.62    1.09
  -2  -6  -5    2.41    1.58
   2  -6   5    5.48    0.98
   3  -6   5   54.11    2.24
  -3   6   5   45.92    2.37
  -4   6   5    1.32    1.02
   4  -6   5    0.67    0.88
  -4  -6  -5    0.42    1.43
   4   6  -5   -0.06    1.55
   5   6  -5   61.00    4.18
  -5   6   5   65.03    2.42
   5  -6   5   56.26    2.49
   6  -6   5    7.34    1.31
   6   6  -5    6.59    2.18
  -6  -6  -5    0.52    0.63
  -6   6   5    1.59    0.83
  -6  -6  -5    1.90    1.47
  -7   6   5   20.26    1.51
  -7  -6  -5   16.47    2.30
  -8  -6  -5    4.94    1.84
  -8   6   5    4.43    1.08
  -8  -6  -5    5.64    1.88
  -9  -6  -5    0.53    1.76
  -9   6   5    2.01    1.07
   9  -6   5    3.20    3.82
  -9  -6  -5    1.37    1.71
 -10  -6  -5    3.60    2.12
 -10   6   5    1.72    1.24
  10  -6   5    6.56    4.04
 -11   6   5   27.14    2.25
 -11  -6  -5   34.33    3.46
 -12   6   5    0.83    1.37
 -12  -6  -5    1.18    2.24
 -13  -6  -5   45.90    4.30
 -14  -6  -5    1.18    2.29
 -12   7  -5    4.78    2.52
 -11   7  -5    3.87    2.30
 -10  -7   5   40.90    4.83
 -10   7  -5   31.76    3.28
  -9  -7   5    0.83    2.76
  -9   7  -5    0.06    1.87
  -9  -7   5   -0.20    2.22
  -8   7  -5   47.74    3.50
  -8   7  -5   54.31    4.22
   8  -7  -5   40.42    4.99
  -8  -7   5   52.49    4.35
   8   7   5   33.29    3.18
   7   7   5    3.53    1.66
  -7   7  -5    4.05    2.28
  -7   7  -5    0.26    1.61
   7  -7  -5    3.38    3.03
  -7  -7   5    2.70    2.56
  -7   7  -5    2.42    2.24
  -6   7  -5   18.61    2.42
  -6   7  -5   24.72    3.30
   6  -7  -5   16.81    3.33
  -6  -7   5   22.74    3.77
  -6   7  -5   14.62    2.89
   6   7   5   17.44    2.16
   5  -7  -5   10.34    2.85
  -5   7  -5    7.24    1.93
  -5   7  -5    8.41    2.57
  -5  -7   5   11.53    3.34
   5   7   5    9.55    1.71
  -5   7  -5    4.61    2.23
   4  -7  -5   -0.16    2.16
   4   7   5    1.57    1.27
  -4   7  -5    1.12    1.85
  -4  -7   5    0.68    2.66
  -4   7  -5    1.31    1.90
  -3  -7   5    3.20    1.03
  -3   7  -5    4.39    2.10
  -3  -7   5    3.82    3.01
   3   7   5    7.77    1.59
   3  -7  -5    6.28    2.37
  -3   7  -5    3.46    1.93
  -2   7  -5   48.23    3.89
  -2   7  -5   45.82    3.65
  -2  -7   5   42.46    2.08
   2   7   5   37.86    2.56
   2  -7  -5   32.51    3.31
   1   7   5    1.93    1.13
  -1   7  -5    1.13    1.91
  -1  -7   5    0.59    0.86
  -1  -7   5    1.80    3.10
   1  -7  -5    2.13    2.07
  -1   7  -5    1.73    1.71
   0   7  -5   92.28    5.13
   0  -7   5  107.78    7.40
   0   7  -5   87.63    4.25
   0  -7  -5   61.34    4.15
   0  -7   5   73.64    2.75
   0   7   5   70.30    3.16
   1   7  -5    0.17    1.47
  -1   7   5    2.01    1.11
   1   7  -5    0.88    1.82
  -1  -7  -5    0.33    1.67
   1  -7   5    6.29    3.70
   1  -7   5    1.41    0.97
   2  -7   5   40.32    1.97
   2   7  -5   52.06    3.92
   2  -7   5   61.90    6.65
   2   7  -5   36.38    1.94
  -2  -7  -5   29.84    2.88
   2   7  -5   13.20    0.92
  -2   7   5   36.17    2.21
  -3  -7  -5    4.41    1.82
   3   7  -5    5.73    2.07
   3  -7   5    8.28    3.82
   3  -7   5    2.66    1.05
  -3   7   5    8.04    1.34
  -4   7   5    0.21    1.03
  -4  -7  -5    0.06    1.61
   4   7  -5   -0.28    1.77
   4  -7   5    0.14    3.52
  -5  -7  -5    3.51    1.92
  -5   7   5    8.58    1.15
   5   7  -5    7.40    2.26
   5  -7   5    8.92    4.21
  -5   7   5    8.45    1.37
   6   7  -5   18.97    2.96
  -6   7   5   16.13    1.46
  -6  -7  -5   13.75    2.51
  -7   7   5    2.70    1.02
  -7  -7  -5    1.09    1.75
   7  -7   5    3.88    3.95
  -8   7   5   31.72    2.05
   8  -7   5   53.19    7.02
  -9   7   5    0.62    1.08
  -9  -7  -5   -0.33    1.76
 -10  -7  -5   28.43    3.03
 -10   7   5   25.06    2.00
 -11  -7  -5    5.36    2.46
 -12  -7  -5    4.08    2.40
 -11   8  -5   24.43    3.26
 -10   8  -5    3.94    2.27
  -9   8  -5    1.35    2.06
  -8   8  -5    4.93    2.24
  -8  -8   5    9.31    2.98
  -7   8  -5   21.28    2.85
  -7  -8   5   22.04    3.65
  -6   8  -5    4.39    2.09
  -6  -8   5    5.46    3.19
   5  -8  -5   41.78    4.64
  -5   8  -5   59.45    4.41
  -5  -8   5   68.27    5.66
   5   8   5   36.22    2.72
   4   8   5    2.09    1.29
  -4   8  -5    1.07    2.25
  -4  -8   5    2.66    3.17
   4  -8  -5   -0.45    2.46
   3  -8  -5   25.24    3.65
  -3   8  -5   49.04    4.06
  -3  -8   5   59.12    5.70
   3   8   5   30.18    2.41
   2   8   5    6.48    1.45
  -2   8  -5    2.74    2.12
  -2  -8   5    8.47    3.77
   2  -8  -5    8.70    2.58
   1   8   5    5.28    1.35
  -1   8  -5    4.70    2.25
  -1  -8   5    7.74    3.76
   1  -8  -5    2.91    2.23
   0   8  -5   14.16    2.80
   0  -8   5   13.86    4.32
   0  -8  -5   17.30    2.89
   0   8   5   17.46    1.78
  -1   8   5    3.77    1.26
   1   8  -5    3.83    0.88
   1   8  -5    9.02    2.42
  -1  -8  -5    3.28    1.98
   1  -8   5    8.81    4.05
   2   8  -5    5.68    2.20
  -2  -8  -5    4.52    2.20
   2  -8   5    7.56    4.09
  -2   8   5    7.56    1.40
   3   8  -5   46.34    3.95
   3  -8   5   55.60    6.68
  -3  -8  -5   16.92    2.85
  -3   8   5   24.65    2.07
  -4   8   5    1.38    1.25
  -4  -8  -5    0.28    1.90
   4   8  -5    0.29    1.93
   4  -8   5    0.45    3.82
  -5  -8  -5   21.75    3.23
  -5   8   5   28.95    2.19
  -6   8   5    5.88    1.24
  -7   8   5   12.41    1.53
  -8   8   5   12.41    1.53
  -9   8   5    0.73    1.16
 -10  -8  -5    5.36    2.12
 -11  -8  -5   17.76    2.83
  -9   9  -5   -1.04    2.36
  -8   9  -5   33.69    3.61
  -7   9  -5    6.01    2.43
  -7  -9   5    7.86    3.31
  -6  -9   5   16.68    3.87
  -5  -9   5   19.11    3.99
  -4  -9   5   -0.32    3.18
  -3  -9   5   14.93    4.16
  -2  -9   5   22.11    4.65
  -1  -9   5    3.72    3.89
   0   9   5   18.46    1.91
  -1   9   5    2.44    1.26
  -2   9   5   13.43    1.76
  -3   9   5   15.72    1.82
   0   0  -6   40.87    2.63
   1   0  -6    0.12    0.96
  -1   0  -6    0.60    1.01
   2   0  -6   20.06    2.07
  -2   0  -6   25.39    2.14
  -3   0  -6    6.99    1.50
  -4   0  -6    0.20    1.35
  -4   0  -6    0.74    1.28
  -5   0  -6   11.90    1.91
  -5   0  -6   15.48    2.51
  -6   0  -6   42.31    3.70
  -7   0  -6    6.11    2.40
  -7   0  -6    6.00    1.03
  -8   0  -6  103.69    3.58
  -9   0  -6    0.72    1.51
 -10   0  -6   71.32    3.83
 -11   0  -6   10.03    2.43
 -11   1  -6   64.87    3.73
 -10   1  -6    6.56    2.09
  -9   1  -6    3.51    1.66
  -8   1  -6   14.66    3.06
  -8   1  -6    7.77    1.63
  -7   1  -6   25.75    1.40
  -7   1  -6   34.89    3.81
  -6   1  -6    8.32    2.36
  -5   1  -6   75.26    4.15
  -5   1  -6  123.92    5.53
  -4   1  -6    0.85    1.43
  -4   1  -6    2.00    1.57
  -3   1  -6   55.26    3.44
  -3   1  -6   64.87    3.36
  -2   1  -6    0.42    1.29
   2   1   6   21.90    2.66
   1  -1  -6    2.29    0.96
  -1   1  -6    6.00    1.47
   0  -1  -6    8.66    1.24
   0   1  -6    2.14    1.32
   1   1  -6    5.40    1.40
  -1  -1  -6    2.78    0.98
   2   1  -6    0.67    1.15
  -2  -1  -6    4.70    1.06
   3   1  -6   37.84    2.93
  -3   1   6   47.60    2.72
  -4   1   6   -0.03    1.24
  -4  -1  -6    0.32    1.14
  -5  -1  -6   52.43    3.01
  -5   1   6   25.79    1.86
  -6  -1  -6   14.40    2.68
  -7  -1  -6   21.59    1.34
  -7  -1  -6   21.25    3.13
  -8  -1  -6   36.35    2.34
  -9  -1  -6    4.24    1.70
 -10  -1  -6   22.73    2.52
 -11  -1  -6   52.12    3.65
 -11   2  -6    7.79    2.36
 -10   2  -6   56.82    3.47
  -9   2  -6    0.71    1.45
  -8   2  -6   75.98    3.48
  -8   2  -6  117.06    6.34
  -7   2  -6   11.14    3.03
  -7   2  -6    3.49    0.95
   6   2   6   20.62    3.17
  -6   2  -6   59.24    4.37
   5   2   6   61.74    4.26
  -5   2  -6   38.30    3.46
   4   2   6    1.33    1.82
  -4   2  -6    1.92    1.62
  -4   2  -6    0.41    1.57
  -3   2  -6    2.41    1.82
  -3   2  -6   19.78    2.07
  -2   2  -6   26.47    2.58
   2   2   6   22.13    2.86
   1   2   6    7.32    2.07
  -1   2  -6   -0.78    1.39
   0   2  -6   66.53    3.79
   0   2   6   38.97    3.06
  -1  -2  -6    0.83    0.66
   1   2  -6   -0.11    1.32
  -2  -2  -6    3.64    0.86
  -2   2   6   13.30    1.54
  -3  -2  -6    8.57    1.11
   3   2  -6    1.97    1.48
  -4   2   6    0.22    0.82
   4   2  -6    0.42    1.40
  -4  -2  -6    0.70    0.90
  -5  -2  -6   34.82    2.26
  -5   2   6   24.94    1.54
  -6  -2  -6   12.11    1.07
  -6   2   6    7.57    1.08
  -7  -2  -6   11.90    1.25
  -7  -2  -6   18.94    1.73
  -8  -2  -6   86.06    3.86
  -9  -2  -6    3.51    1.85
 -10  -2  -6   50.80    3.57
 -10   3  -6   10.72    2.45
  -9   3  -6    0.98    1.73
   9   3   6    0.33    2.45
   8   3   6   62.24    4.71
  -8   3  -6   54.95    4.66
  -7   3  -6   13.84    1.42
  -7   3  -6   21.81    3.29
   6   3   6   21.52    3.04
  -6   3  -6   22.20    3.26
  -5   3  -6   65.02    4.22
   5   3   6   17.91    3.06
   4   3   6    0.14    2.09
  -4   3  -6    2.62    1.77
  -4   3  -6    1.27    1.93
  -3   3  -6   57.70    3.95
  -3   3  -6   79.73    3.75
  -2   3  -6    7.65    2.16
  -2   3  -6   27.10    1.96
   1   3   6    4.17    1.48
  -1   3  -6    9.62    2.02
   0   3  -6   16.75    2.58
   0   3   6   70.99    3.14
  -1   3   6    4.84    1.26
   1   3  -6    7.59    1.95
   2   3  -6    5.42    1.97
  -2   3   6   35.79    2.09
  -3  -3  -6    2.33    0.63
  -3   3   6   11.93    1.43
  -4   3   6    0.67    0.96
   4   3  -6    0.59    1.58
  -4  -3  -6    0.13    0.66
  -5  -3  -6   11.43    1.37
  -5  -3  -6    8.99    1.03
  -5   3   6    8.86    1.22
  -6  -3  -6   13.09    1.45
  -6   3   6    9.96    1.21
  -7   3   6    1.23    0.87
  -7  -3  -6    3.15    1.19
  -8  -3  -6   74.82    3.66
  -9  -3  -6   -0.13    1.75
 -10  -3  -6   44.90    3.39
  10   4   6    3.96    2.67
  -9   4  -6    1.95    1.45
   9   4   6    1.60    2.22
  -8   4  -6   41.88    2.59
  -8   4  -6   56.68    4.69
   7   4   6   12.67    2.77
  -7   4  -6    8.10    1.53
  -7   4  -6    9.83    2.46
  -6   4  -6   17.78    2.86
  -6   4  -6   23.18    3.37
   5  -4  -6   50.97    2.89
  -5   4  -6   27.01    3.48
   5   4   6   72.68    4.64
  -5   4  -6   94.04    5.28
   4   4   6   -0.43    1.78
  -4   4  -6    3.89    2.18
  -4   4  -6    1.82    1.97
   4  -4  -6    0.07    1.13
   3   4   6   62.35    3.58
  -3   4  -6   92.46    4.34
  -2   4  -6   26.01    2.81
  -2   4  -6   37.15    2.26
  -1   4  -6    1.33    1.75
   1   4   6   14.31    1.79
   0   4  -6   41.41    3.48
   0   4   6    5.89    1.40
   1   4  -6    4.27    1.92
  -1   4   6   13.68    1.50
  -2   4   6    1.80    1.23
   2   4  -6   20.08    2.61
   3   4  -6   22.45    2.86
  -3  -4  -6   27.76    1.63
  -3  -4  -6   21.57    1.42
  -4   4   6    0.14    0.86
   4   4  -6    0.14    1.66
  -4  -4  -6    0.20    1.07
  -4  -4  -6    0.52    1.21
   5   4  -6   20.41    2.92
  -5  -4  -6   17.43    1.21
  -5  -4  -6   42.07    2.31
  -5   4   6   41.22    2.06
  -6   4   6    1.63    0.93
  -6  -4  -6    2.36    1.73
  -7  -4  -6   16.99    2.36
  -7   4   6    8.05    1.19
  -8  -4  -6    8.42    2.42
  -9  -4  -6    3.10    1.93
  -8   5  -6   48.14    4.27
   8   5   6   57.10    4.73
   7   5   6   -0.16    2.25
  -7   5  -6    6.78    2.72
  -7   5  -6    4.97    1.62
  -7   5  -6    5.15    2.53
  -6   5  -6   20.38    3.28
   6   5   6   27.28    3.28
  -5   5  -6   28.38    3.45
  -5   5  -6   44.96    3.98
   4   5   6    0.52    1.40
  -4   5  -6    3.35    2.16
  -4   5  -6   -0.29    1.97
   3  -5  -6    0.09    1.81
   3   5   6    1.35    1.40
   2  -5  -6   35.44    2.87
   2   5   6   33.70    2.54
   1   5   6    0.97    1.17
  -1   5  -6    5.03    0.93
  -1   5  -6    6.38    2.32
   1  -5  -6    0.15    1.83
   0  -5  -6   47.77    2.77
   0   5   6   54.28    2.83
  -1   5   6    0.16    1.16
  -1  -5  -6    0.32    1.48
  -2   5   6   32.79    2.14
  -2  -5  -6   29.51    2.22
  -3   5   6    0.73    1.04
  -3  -5  -6    1.35    1.52
  -3  -5  -6    0.65    1.15
  -4   5   6    0.47    0.95
  -4  -5  -6    0.80    1.29
   4   5  -6    0.21    1.82
  -5   5   6    0.67    1.02
  -5  -5  -6    1.72    1.61
   6   5  -6   13.55    2.80
  -6   5   6   17.22    1.57
  -7   5   6    0.31    0.97
  -7  -5  -6    0.59    1.85
  -8  -5  -6   79.56    4.21
   7   6   6   14.29    2.81
   6   6   6    1.74    2.07
  -6   6  -6    7.59    2.88
  -5   6  -6   52.09    4.43
   5   6   6   43.16    3.14
   4   6   6    1.16    1.43
  -4   6  -6   -0.24    2.42
  -3   6  -6   44.14    4.08
   3   6   6   42.88    2.87
   2   6   6    5.29    1.48
  -2   6  -6    7.73    2.39
  -1   6  -6    6.95    2.46
   1   6   6    8.23    1.55
   0   6   6    4.90    1.42
   0   6  -6   13.69    2.72
  -1   6   6    6.92    1.44
   1   6  -6    6.82    2.46
  -2   6   6    3.12    1.21
   2   6  -6    5.27    2.15
   3   6  -6   40.92    3.88
  -3   6   6   32.09    2.20
  -4   6   6    1.20    1.09
   4   6  -6    0.31    2.03
   5   6  -6   33.47    3.83
  -5   6   6   33.88    2.15
  -6   6   6    0.51    1.07
  -6  -6  -6    1.50    1.78
  -7   6   6   10.93    1.51
  -7  -7   6    1.63    3.20
  -6  -7   6   20.26    4.05
  -5  -7   6    9.94    3.70
   4   7   6   -0.32    1.36
  -4  -7   6    1.78    3.31
   3   7   6   10.22    1.77
  -2   7  -6   32.83    3.81
   2   7   6   24.15    2.27
   1   7   6    2.05    1.25
  -1   7  -6    0.41    2.29
   0   7  -6   56.39    4.49
   0   7   6   48.52    2.87
  -1   7   6    1.93    1.25
   1   7  -6    0.91    2.35
   2   7  -6   26.85    3.44
  -2   7   6   21.89    2.01
   3   7  -6    3.15    2.32
  -3   7   6    9.02    1.46
  -4   7   6    0.34    1.10
  -5   7   6    9.83    1.50
  -6   7   6   10.57    1.55
  -7   7   6    3.26    1.35
  -1   8   6    3.03    1.38
  -2   8   6   10.30    1.69
  -3   8   6   15.81    1.81
  -4   8   6    0.10    1.21
   0   0  -7    5.31    1.42
   1   0  -7    0.46    1.08
  -1   0  -7   -0.05    1.06
  -2   0  -7    3.05    1.29
  -3   0  -7    1.11    1.50
  -4   0  -7    0.05    1.55
  -5   0  -7    4.16    1.81
  -6   0  -7    7.29    2.21
  -7   0  -7    2.45    1.97
  -8   1  -7    3.84    2.38
  -7   1  -7    6.76    2.43
  -6   1  -7    2.57    2.26
  -5   1  -7   14.81    2.57
  -4   1  -7   -0.66    1.76
  -3   1  -7    6.86    1.90
  -2   1  -7    1.41    1.41
  -1   1  -7    0.55    1.34
   0  -1  -7    1.33    1.08
   0   1  -7    1.40    1.47
   1   1  -7   -0.06    1.33
  -1  -1  -7   -0.04    0.88
   2   1  -7    0.68    1.38
  -2  -1  -7    0.62    0.93
  -3  -1  -7    3.16    1.20
  -4  -1  -7   -0.35    1.42
  -5  -1  -7    6.20    1.76
  -6  -1  -7    3.60    1.76
  -7  -1  -7    3.74    1.86
  -8   2  -7   19.74    3.22
  -7   2  -7    0.50    2.32
  -6   2  -7   11.94    2.79
  -5   2  -7    0.56    2.18
  -4   2  -7    0.81    1.94
  -3   2  -7   -0.26    1.93
   3   2   7   20.86    2.85
  -2   2  -7    6.38    2.06
   2   2   7    7.03    2.21
  -1   2  -7    0.13    1.60
   1   2   7    3.70    1.92
   0   2  -7   11.11    2.15
   1   2  -7    0.33    1.41
   2   2  -7    5.31    1.84
   3   2  -7    0.43    1.61
  -8   3  -7    3.60    2.65
  -7   3  -7    7.03    2.83
  -6   3  -7    0.55    2.49
   6   3   7    8.96    2.63
  -5   3  -7   19.86    3.17
   5   3   7    2.85    2.28
   4   3   7    1.12    2.05
  -4   3  -7   -0.15    2.28
   3   3   7    4.02    2.10
  -3   3  -7   16.16    2.78
  -2   3  -7    1.38    2.08
   2   3   7   15.71    2.57
   1   3   7   -0.06    2.03
  -1   3  -7    2.08    1.84
   0   3  -7    1.17    1.92
   1   3  -7    1.03    1.86
   2   3  -7    0.22    1.72
   3   3  -7   10.32    2.36
   4   3  -7   -0.57    2.00
  -7   4  -7    3.64    2.91
   7   4   7    7.01    2.57
   6   4   7    0.86    2.32
  -6   4  -7    8.02    2.88
  -5   4  -7    4.24    2.64
   5   4   7   21.39    3.14
   4   4   7   -0.83    2.30
  -4   4  -7    0.40    2.46
  -3   4  -7    1.72    2.28
   3   4   7   25.54    3.38
   2   4   7    0.50    1.97
  -2   4  -7    5.55    2.30
   1   4   7    2.71    1.94
  -1   4  -7    1.74    2.10
   0   4   7    0.66    1.78
   0   4  -7   16.42    2.88
   1   4  -7    0.56    1.95
   2   4  -7    4.22    2.12
   3   4  -7    2.40    1.98
   4   4  -7    0.09    2.04
   5   5   7   -0.30    2.57
   4   5   7    0.07    2.28
  -4   5  -7   -0.17    2.65
   3   5   7   -0.44    2.04
  -3   5  -7    7.37    2.82
  -2   5  -7    4.57    2.47
   2   5   7   13.43    2.49
   1   5   7    0.13    1.46
  -1   5  -7    3.13    2.41
   0   5  -7    7.91    2.72
   0   5   7   21.65    2.15
   1   5  -7    1.53    2.22
   2   5  -7    4.56    2.28
   3   5  -7    5.08    2.24
   4   5  -7   -0.92    2.49
   5   5  -7    9.06    2.82
   3   6   7   11.94    2.22
   2   6   7    1.14    1.58
   1   6   7    3.28    1.62
   0   6   7    2.18    1.44
  -2   3  -8    0.81    2.47
   1   4  -8   -0.19    2.65
   0   0   0    0.00    0.00
;
_shelx_hkl_checksum              85814
loop_
_space_group_symop_operation_xyz
'x, y, z'
'-x, -y, z'
'x+1/2, -y, z'
'-x+1/2, y, z'
loop_
_atom_site_label
_atom_site_type_symbol
_atom_site_fract_x
_atom_site_fract_y
_atom_site_fract_z
_atom_site_U_iso_or_equiv
_atom_site_adp_type
_atom_site_occupancy
_atom_site_site_symmetry_order
_atom_site_calc_flag
_atom_site_refinement_flags_posn
_atom_site_refinement_flags_adp
_atom_site_refinement_flags_occupancy
_atom_site_disorder_assembly
_atom_site_disorder_group
Pb1 Pb 0.05869(6) 0.71145(10) 0.4837(19) 0.0302(6) Uani 1 1 d . . . . .
Cl1 Cl 0.0000 1.0000 0.464(8) 0.067(5) Uani 1 2 d S T P . .
Cl2 Cl 0.0639(6) 0.7054(11) 0.966(6) 0.052(4) Uani 1 1 d . . . . .
Cl3 Cl 0.1135(5) 0.4184(8) 0.472(5) 0.050(2) Uani 1 1 d . . . . .
Cl4 Cl 0.2500 0.7540(14) 0.496(7) 0.060(4) Uani 1 2 d S T P . .
N1 N 0.2500 0.523(4) -0.071(14) 0.06(2) Uani 1 2 d DS T P . .
H1A H 0.2133 0.5910 -0.0154 0.096 Uiso 0.5 1 d R U P . .
H1B H 0.3070 0.5422 -0.0290 0.096 Uiso 0.5 1 d R U P . .
H1C H 0.2500 0.5220 -0.2251 0.096 Uiso 1 2 d R U P . .
N2 N 0.2500 0.126(4) 0.009(7) 0.050(9) Uani 1 2 d DS TU P . .
C1 C 0.222(3) 0.384(4) 0.023(10) 0.027(16) Uani 0.5 1 d D U P . .
H1D H 0.1612 0.3647 -0.0196 0.033 Uiso 0.5 1 d R U P . .
H1E H 0.2254 0.3860 0.1877 0.033 Uiso 0.5 1 d R U P . .
C2 C 0.282(4) 0.269(4) -0.068(12) 0.047(13) Uani 0.5 1 d D U P . .
H2A H 0.2826 0.2721 -0.2325 0.056 Uiso 0.5 1 d R U P . .
H2B H 0.3417 0.2833 -0.0135 0.056 Uiso 0.5 1 d R U P . .
C3 C 0.2500 0.115(7) 0.266(6) 0.060(14) Uani 1 2 d DS TU P . .
H3A H 0.3027 0.1610 0.3258 0.090 Uiso 1 1 d R U . . .
H3C H 0.2500 0.0175 0.3120 0.090 Uiso 1 2 d R U P . .
C4 C 0.170(3) 0.051(7) -0.087(8) 0.096(17) Uani 1 1 d D U . . .
H4A H 0.1698 0.0569 -0.2515 0.144 Uiso 1 1 d R U . . .
H4B H 0.1695 -0.0463 -0.0411 0.144 Uiso 1 1 d R U . . .
H4C H 0.1180 0.0983 -0.0272 0.144 Uiso 1 1 d R U . . .
loop_
_atom_site_aniso_label
_atom_site_aniso_U_11
_atom_site_aniso_U_22
_atom_site_aniso_U_33
_atom_site_aniso_U_23
_atom_site_aniso_U_13
_atom_site_aniso_U_12
Pb1 0.0218(7) 0.0249(7) 0.0438(8) 0.0150(6) 0.0065(10) 0.0008(4)
Cl1 0.060(7) 0.035(5) 0.106(14) 0.000 0.000 0.017(5)
Cl2 0.062(6) 0.057(5) 0.037(10) -0.005(5) 0.011(8) 0.009(4)
Cl3 0.028(3) 0.038(4) 0.085(7) -0.017(8) -0.001(8) 0.004(3)
Cl4 0.028(5) 0.050(6) 0.103(13) -0.02(2) 0.000 0.000
N1 0.05(3) 0.03(2) 0.11(8) -0.01(3) 0.000 0.000
N2 0.052(13) 0.048(12) 0.052(14) -0.008(11) 0.000 0.000
C1 0.03(3) 0.027(19) 0.02(3) -0.003(19) 0.006(18) 0.002(15)
C2 0.05(2) 0.047(17) 0.04(2) -0.015(16) 0.006(16) 0.004(15)
C3 0.08(3) 0.04(3) 0.05(2) 0.00(2) 0.000 0.000
C4 0.09(3) 0.12(3) 0.08(3) -0.02(3) -0.01(2) -0.04(2)
loop_
_atom_type_symbol
_atom_type_description
_atom_type_scat_dispersion_real
_atom_type_scat_dispersion_imag
_atom_type_scat_source
C C 0.0033 0.0016 'International Tables Vol C Tables 4.2.6.8 and 6.1.1.4'
H H 0.0000 0.0000 'International Tables Vol C Tables 4.2.6.8 and 6.1.1.4'
N N 0.0061 0.0033 'International Tables Vol C Tables 4.2.6.8 and 6.1.1.4'
Cl Cl 0.1484 0.1585 'International Tables Vol C Tables 4.2.6.8 and 6.1.1.4'
Pb Pb -3.3944 10.1111 'International Tables Vol C Tables 4.2.6.8 and 6.1.1.4'
loop_
_geom_angle_atom_site_label_1
_geom_angle_atom_site_label_2
_geom_angle_atom_site_label_3
_geom_angle
_geom_angle_site_symmetry_1
_geom_angle_site_symmetry_3
_geom_angle_publ_flag
Cl2 Pb1 Cl3 92.4(6) . 2_565 ?
Cl2 Pb1 Cl1 93.9(10) . . ?
Cl3 Pb1 Cl1 97.74(15) 2_565 . ?
Cl2 Pb1 Cl4 87.2(9) . . ?
Cl3 Pb1 Cl4 162.5(3) 2_565 . ?
Cl1 Pb1 Cl4 99.8(3) . . ?
Cl2 Pb1 Cl3 89.9(6) . . ?
Cl3 Pb1 Cl3 80.8(2) 2_565 . ?
Cl1 Pb1 Cl3 176.0(11) . . ?
Cl4 Pb1 Cl3 81.6(3) . . ?
Cl2 Pb1 Cl2 176.2(4) . 1_554 ?
Cl3 Pb1 Cl2 89.4(6) 2_565 1_554 ?
Cl1 Pb1 Cl2 89.1(10) . 1_554 ?
Cl4 Pb1 Cl2 90.1(8) . 1_554 ?
Cl3 Pb1 Cl2 87.1(6) . 1_554 ?
Pb1 Cl1 Pb1 175.3(19) . 2_575 ?
Pb1 Cl2 Pb1 176.2(4) . 1_556 ?
Pb1 Cl3 Pb1 99.1(2) 2_565 . ?
Pb1 Cl4 Pb1 163.7(6) . 4 ?
C1 N1 C1 32(4) 4 . ?
C2 N2 C2 37(5) 4 . ?
C2 N2 C4 94(3) 4 . ?
C2 N2 C4 124(4) . . ?
C2 N2 C4 124(4) 4 4 ?
C2 N2 C4 94(3) . 4 ?
C4 N2 C4 105(6) . 4 ?
C2 N2 C3 111(4) 4 . ?
C2 N2 C3 111(4) . . ?
C4 N2 C3 110(2) . . ?
C4 N2 C3 110(2) 4 . ?
C1 C1 C2 93(4) 4 4 ?
C1 C1 N1 74(2) 4 . ?
C2 C1 N1 130(6) 4 . ?
C1 C1 C2 54(3) 4 . ?
C2 C1 C2 39(6) 4 . ?
N1 C1 C2 110(4) . . ?
C2 C2 C1 87(4) 4 4 ?
C2 C2 N2 72(3) 4 . ?
C1 C2 N2 131(5) 4 . ?
C2 C2 C1 54(3) 4 . ?
C1 C2 C1 33(5) 4 . ?
N2 C2 C1 111(3) . . ?
loop_
_geom_bond_atom_site_label_1
_geom_bond_atom_site_label_2
_geom_bond_distance
_geom_bond_site_symmetry_2
_geom_bond_publ_flag
Pb1 Cl2 2.81(4) . ?
Pb1 Cl3 2.841(8) 2_565 ?
Pb1 Cl1 2.863(2) . ?
Pb1 Cl4 2.875(2) . ?
Pb1 Cl3 2.886(7) . ?
Pb1 Cl2 3.02(4) 1_554 ?
Cl1 Pb1 2.864(2) 2_575 ?
Cl2 Pb1 3.02(4) 1_556 ?
Cl3 Pb1 2.841(8) 2_565 ?
Cl4 Pb1 2.875(2) 4 ?
N1 C1 1.49(3) 4 ?
N1 C1 1.49(3) . ?
N2 C2 1.49(3) 4 ?
N2 C2 1.49(3) . ?
N2 C4 1.49(2) . ?
N2 C4 1.49(2) 4 ?
N2 C3 1.51(3) . ?
C1 C1 0.83(10) 4 ?
C1 C2 1.21(5) 4 ?
C1 C2 1.50(3) . ?
C2 C2 0.94(13) 4 ?
C2 C1 1.21(5) 4 ?
