#------------------------------------------------------------------------------
#$Date: 2020-04-28 22:53:56 +0300 (Tue, 28 Apr 2020) $
#$Revision: 251232 $
#$URL: file:///home/coder/svn-repositories/cod/cif/4/13/48/4134815.cif $
#------------------------------------------------------------------------------
#
# This file is available in the Crystallography Open Database (COD),
# http://www.crystallography.net/
#
# All data on this site have been placed in the public domain by the
# contributors.
#
data_4134815
loop_
_publ_author_name
'Mao, Lingling'
'Guo, Peijun'
'Kepenekian, Mika\"el'
'Spanopoulos, Ioannis'
'He, Yihui'
'Katan, Claudine'
'Even, Jacky'
'Schaller, Richard D.'
'Seshadri, Ram'
'Stoumpos, Constantinos C.'
'Kanatzidis, Mercouri G.'
_publ_section_title
;
 Organic Cation Alloying on Intralayer A and Interlayer A' sites in 2D
 Hybrid Dion-Jacobson Lead Bromide Perovskites
 (A')(A)Pb<sub>2</sub>Br<sub>7</sub>.
;
_journal_name_full               'Journal of the American Chemical Society'
_journal_paper_doi               10.1021/jacs.0c01625
_journal_year                    2020
_chemical_formula_moiety         '0.5(Br14 Pb4), C N, C12'
_chemical_formula_sum            'C7 H22 Br7 N4 Pb2'
_chemical_formula_weight         1136.03
_space_group_crystal_system      monoclinic
_space_group_IT_number           5
_space_group_name_Hall           'C 2y'
_space_group_name_H-M_alt        'C 1 2 1'
_atom_sites_solution_primary     direct
_audit_creation_date             2018-10-01
_audit_creation_method
;
Olex2 1.2
(compiled 2015.01.26 svn.r3150 for OlexSys, GUI svn.r4998)
;
_cell_angle_alpha                90
_cell_angle_beta                 89.983(4)
_cell_angle_gamma                90
_cell_formula_units_Z            2
_cell_length_a                   8.4121(8)
_cell_length_b                   8.4176(9)
_cell_length_c                   15.9228(19)
_cell_measurement_reflns_used    3486
_cell_measurement_temperature    293(2)
_cell_measurement_theta_max      28.20
_cell_measurement_theta_min      2.56
_cell_volume                     1127.5(2)
_computing_molecular_graphics    'Olex2 (Dolomanov et al., 2009)'
_computing_publication_material  'Olex2 (Dolomanov et al., 2009)'
_computing_structure_refinement  'XL (Sheldrick, 2008)'
_computing_structure_solution    'XS (Sheldrick, 2008)'
_diffrn_ambient_temperature      293.0
_diffrn_measured_fraction_theta_full 0.988
_diffrn_measured_fraction_theta_max 0.980
_diffrn_measurement_device_type  'Bruker APEX-II CCD'
_diffrn_measurement_method       '\f and \w scans'
_diffrn_radiation_type           MoK\a
_diffrn_radiation_wavelength     0.71073
_diffrn_reflns_av_R_equivalents  0.0365
_diffrn_reflns_av_unetI/netI     0.0536
_diffrn_reflns_Laue_measured_fraction_full 0.988
_diffrn_reflns_Laue_measured_fraction_max 0.980
_diffrn_reflns_limit_h_max       11
_diffrn_reflns_limit_h_min       -10
_diffrn_reflns_limit_k_max       11
_diffrn_reflns_limit_k_min       -11
_diffrn_reflns_limit_l_max       21
_diffrn_reflns_limit_l_min       -21
_diffrn_reflns_number            4756
_diffrn_reflns_point_group_measured_fraction_full 0.979
_diffrn_reflns_point_group_measured_fraction_max 0.968
_diffrn_reflns_theta_full        26.000
_diffrn_reflns_theta_max         28.364
_diffrn_reflns_theta_min         1.279
_diffrn_standards_number         0
_exptl_absorpt_coefficient_mu    27.312
_exptl_absorpt_correction_T_max  0.5598
_exptl_absorpt_correction_T_min  0.2639
_exptl_absorpt_correction_type   numerical
_exptl_absorpt_process_details
;
SADABS-2016/2 (Bruker,2016/2) was used for absorption correction.
wR2(int) was 0.1223 before and 0.0642 after correction.
The Ratio of minimum to maximum transmission is 0.4714.
The \l/2 correction factor is Not present.
;
_exptl_crystal_colour            yellow
_exptl_crystal_colour_primary    yellow
_exptl_crystal_density_diffrn    3.346
_exptl_crystal_description       plate
_exptl_crystal_F_000             1002
_exptl_crystal_size_max          0.118
_exptl_crystal_size_mid          0.047
_exptl_crystal_size_min          0.036
_refine_diff_density_max         2.142
_refine_diff_density_min         -1.926
_refine_diff_density_rms         0.317
_refine_ls_abs_structure_details
;
 Flack x determined using 1097 quotients [(I+)-(I-)]/[(I+)+(I-)]
 (Parsons and Flack (2004), Acta Cryst. A60, s61).
;
_refine_ls_abs_structure_Flack   0.47(2)
_refine_ls_extinction_coef       0.0009(4)
_refine_ls_extinction_expression Fc^*^=kFc[1+0.001xFc^2^\l^3^/sin(2\q)]^-1/4^
_refine_ls_extinction_method     SHELXL
_refine_ls_goodness_of_fit_ref   1.104
_refine_ls_hydrogen_treatment    undef
_refine_ls_matrix_type           full
_refine_ls_number_parameters     65
_refine_ls_number_reflns         2707
_refine_ls_number_restraints     20
_refine_ls_restrained_S_all      1.102
_refine_ls_R_factor_all          0.0473
_refine_ls_R_factor_gt           0.0443
_refine_ls_shift/su_max          0.000
_refine_ls_shift/su_mean         0.000
_refine_ls_structure_factor_coef Fsqd
_refine_ls_weighting_details
'w=1/[\s^2^(Fo^2^)+(0.0950P)^2^+1.6060P] where P=(Fo^2^+2Fc^2^)/3'
_refine_ls_weighting_scheme      calc
_refine_ls_wR_factor_gt          0.1365
_refine_ls_wR_factor_ref         0.1419
_reflns_Friedel_coverage         0.853
_reflns_Friedel_fraction_full    0.969
_reflns_Friedel_fraction_max     0.955
_reflns_number_gt                2491
_reflns_number_total             2707
_reflns_threshold_expression     'I > 2\s(I)'
_iucr_refine_instructions_details
;
TITL C2 in C2 #5
REM reset to C2 #5
CELL 0.71073 8.4121 8.4176 15.9228 90 89.9834 90
ZERR 2 0.0008 0.0009 0.0019 0 0.0043 0
LATT -7
SYMM -X,+Y,-Z
SFAC C H N Br Pb
UNIT 14 44 8 14 4
DFIX 1.5 N1 C1
DFIX 1.5 C2 C3 C3 C4
DFIX 1.5 C3 C4 C4 C5
DFIX 1.5 C4 C5 C5 C6
DFIX 1.5 C5 C6 C6 C7
DFIX 1.5 C6 C7 C7 C2
DFIX 1.5 C7 C2 C2 C3
DANG 2.53 C2 C4
DANG 2.516 C3 C5
DANG 2.558 C4 C6
DANG 2.544 C5 C7
DANG 2.516 C6 C2
DANG 2.544 C7 C3
EADP N1 C1
EADP C2 C3 C4 C5 C6 C7
 
L.S. 50
PLAN  150
SIZE 0.036 0.047 0.118
TEMP 19.85
BOND
MORE -1
BOND $H
CONF
fmap 2
acta 52
REM <olex2.extras>
REM <HklSrc "%.\\C2.hkl">
REM </olex2.extras>
 
WGHT    0.095000    1.606000
EXTI    0.000895
FVAR       0.06581
PB1   5    0.499991    0.252421    0.310650    11.00000    0.03072    0.02871 =
         0.04613   -0.00404   -0.00036    0.00020
BR3   4    0.500000    0.260040    0.500000    10.50000    0.11014    0.10106 =
         0.04054    0.00000   -0.00169    0.00000
BR4   4    0.757668    0.496344    0.312148    11.00000    0.07612    0.07333 =
         0.11859   -0.01100    0.01188   -0.05022
BR5   4    0.242548    0.496306    0.310633    11.00000    0.07571    0.07657 =
         0.11259   -0.01242   -0.01383    0.04975
BR6   4    0.499972    0.262479    0.127515    11.00000    0.18273    0.17002 =
         0.04630    0.01602   -0.00037    0.00375
N1    3    0.500000    0.661917    0.500000    10.50000    0.32511
C1    1    0.500000    0.837258    0.500000    10.50000    0.32511
C3    1    0.501504    0.789289    0.151141    11.00000    0.28931
C5    1    0.667199    0.828704    0.017443    11.00000    0.28931
C6    1    0.547296    0.720034   -0.021529    11.00000    0.28931
C2    1    0.441045    0.633623    0.120695    11.00000    0.28931
C4    1    0.635988    0.871563    0.107930    11.00000    0.28931
C7    1    0.482238    0.587793    0.032479    11.00000    0.28931
HKLF 4
 
REM  C2 in C2 #5
REM R1 =  0.0443 for    2491 Fo > 4sig(Fo)  and  0.0473 for all    2707 data
REM     65 parameters refined using     20 restraints
 
END  
     
WGHT      0.0950      1.6204 

REM Highest difference peak  2.142,  deepest hole -1.926,  1-sigma level  0.317
Q1    1   0.5070  0.7505  0.1730  11.00000  0.05    2.14
Q2    1   0.5168  0.3161  0.2618  11.00000  0.05    1.86
Q3    1   0.5127  0.1924  0.2641  11.00000  0.05    1.73
Q4    1   0.5042  0.2535  0.1004  11.00000  0.05    1.55
Q5    1   0.4812  0.1828  0.3606  11.00000  0.05    1.35
Q6    1   0.4811  0.3219  0.3603  11.00000  0.05    1.22
Q7    1   0.5190  0.7562  0.5546  11.00000  0.05    1.15
Q8    1   0.5186  0.4946  0.2205  11.00000  0.05    1.08
Q9    1   0.4237  0.1840  0.1371  11.00000  0.05    1.06
Q10   1   0.5175  0.4178  0.2418  11.00000  0.05    1.05
Q11   1   0.4254  0.3226  0.1367  11.00000  0.05    1.04
Q12   1   0.5678  0.3260  0.1366  11.00000  0.05    1.02
Q13   1   0.5694  0.1806  0.1364  11.00000  0.05    1.02
Q14   1   0.5159  1.0130  0.2226  11.00000  0.05    0.98
Q15   1   0.5986  0.7189  0.4864  11.00000  0.05    0.97
Q16   1   0.4817  0.1003  0.3782  11.00000  0.05    0.92
Q17   1   0.5164  0.0900  0.2443  11.00000  0.05    0.90
Q18   1   0.5000  0.7266  0.5000  10.50000  0.05    0.89
Q19   1   0.4813  0.3997  0.3775  11.00000  0.05    0.88
Q20   1   0.2719  0.7536  0.1803  11.00000  0.05    0.86
Q21   1   0.6287  0.7531  0.5378  11.00000  0.05    0.84
Q22   1   0.7263  0.7532  0.4395  11.00000  0.05    0.81
Q23   1   0.7489  0.4985  0.3606  11.00000  0.05    0.79
Q24   1   0.5198  0.4952  0.6007  11.00000  0.05    0.79
Q25   1   0.4995  0.7534 -0.0309  11.00000  0.05    0.78
Q26   1   0.5206  1.0111  0.6025  11.00000  0.05    0.77
Q27   1   0.7225  0.2517  0.1436  11.00000  0.05    0.75
Q28   1   0.2455  0.5053  0.3607  11.00000  0.05    0.73
Q29   1   0.7479  0.4987  0.2858  11.00000  0.05    0.71
Q30   1   0.3563  0.4910  0.3961  11.00000  0.05    0.70
Q31   1   0.6979  0.5609  0.3230  11.00000  0.05    0.68
Q32   1   0.5768  0.7482  0.4080  11.00000  0.05    0.68
Q33   1   0.2471  0.5003  0.2852  11.00000  0.05    0.67
Q34   1   0.3811  0.7748  0.1379  11.00000  0.05    0.66
Q35   1   0.3819  0.7290  0.1375  11.00000  0.05    0.66
Q36   1   0.6749  0.2487  0.0805  11.00000  0.05    0.64
Q37   1   0.5780  0.6192  0.3981  11.00000  0.05    0.64
Q38   1   0.6827  0.7535  0.5998  11.00000  0.05    0.63
Q39   1   0.8538  0.5012  0.3960  11.00000  0.05    0.63
Q40   1   0.8621  0.7526 -0.0207  11.00000  0.05    0.62
Q41   1   0.3242  0.7518  0.1173  11.00000  0.05    0.62
Q42   1   0.1954  0.4383  0.3231  11.00000  0.05    0.61
Q43   1   0.3758  0.6756  0.1094  11.00000  0.05    0.61
Q44   1   0.4961  0.3390  0.5588  11.00000  0.05    0.60
Q45   1   0.8571  0.6199  0.3869  11.00000  0.05    0.58
Q46   1   0.5763  0.8935  0.3982  11.00000  0.05    0.57
Q47   1   0.3565  0.3837  0.3869  11.00000  0.05    0.57
Q48   1   0.9322  0.4683  0.2335  11.00000  0.05    0.57
Q49   1   0.3273  0.2462  0.4028  11.00000  0.05    0.55
Q50   1   0.4327  0.5404  0.2334  11.00000  0.05    0.54
Q51   1   0.5779  0.3192  0.4837  11.00000  0.05    0.54
Q52   1   0.1588  0.4185  0.2200  11.00000  0.05    0.53
Q53   1   0.4915  0.2487  0.5372  11.00000  0.05    0.53
Q54   1   0.4284  0.9273  0.2245  11.00000  0.05    0.52
Q55   1   0.7265  0.7529  0.0017  11.00000  0.05    0.52
Q56   1   0.6562  0.5842  0.2203  11.00000  0.05    0.52
Q57   1   0.6632  0.5214  0.5185  11.00000  0.05    0.52
Q58   1   0.5858  0.8907  0.0150  11.00000  0.05    0.52
Q59   1   0.6618  0.9825  0.5149  11.00000  0.05    0.51
Q60   1   0.2517  0.4991  0.4999  11.00000  0.05    0.51
Q61   1   0.5540  0.9340  0.5826  11.00000  0.05    0.51
Q62   1   0.5321  0.5855  0.5833  11.00000  0.05    0.51
Q63   1   0.6258  0.2413  0.4036  11.00000  0.05    0.51
Q64   1   0.6301  0.7549  0.1158  11.00000  0.05    0.51
Q65   1   0.5743  0.1910  0.4820  11.00000  0.05    0.50
Q66   1   0.5501  1.0324  0.0445  11.00000  0.05    0.50
Q67   1   0.6710  0.2624  0.2230  11.00000  0.05    0.49
Q68   1   0.6819  0.7492  0.2241  11.00000  0.05    0.49
Q69   1   0.4972  0.1550  0.5604  11.00000  0.05    0.48
Q70   1   0.7652  0.7530  0.0849  11.00000  0.05    0.48
Q71   1   0.7472  0.7509  0.2217  11.00000  0.05    0.48
Q72   1   0.7062  0.2420  0.5078  11.00000  0.05    0.46
Q73   1   0.3007  0.5551  0.3198  11.00000  0.05    0.46
Q74   1   0.5847  0.6086  0.0177  11.00000  0.05    0.46
Q75   1   0.2478  0.2540  0.2517  11.00000  0.05    0.44
Q76   1   0.8033  0.4439  0.3174  11.00000  0.05    0.43
Q77   1   0.6491  0.3456  0.2348  11.00000  0.05    0.43
Q78   1   0.6502  0.7507 -0.0111  11.00000  0.05    0.42
Q79   1   0.4994  0.9972  0.1668  11.00000  0.05    0.41
Q80   1   0.6162  0.6574  0.1062  11.00000  0.05    0.41
Q81   1   0.6316  0.4044  0.1190  11.00000  0.05    0.41
Q82   1   0.4394  0.7483  0.2307  11.00000  0.05    0.41
Q83   1   0.6436  0.0940  0.1191  11.00000  0.05    0.40
Q84   1   0.3801  0.4840  0.2034  11.00000  0.05    0.40
Q85   1   0.6714  0.2585  0.2567  11.00000  0.05    0.40
Q86   1   0.6024  0.0975  0.0603  11.00000  0.05    0.39
Q87   1   0.8285  0.3859  0.4003  11.00000  0.05    0.39
Q88   1   0.5531  0.4800  0.0453  11.00000  0.05    0.39
Q89   1   0.7153  0.9205  0.4403  11.00000  0.05    0.39
Q90   1   0.5307  0.4300  0.4348  11.00000  0.05    0.38
Q91   1   0.1189  0.5202  0.4153  11.00000  0.05    0.38
Q92   1   0.3771  0.8994  0.1666  11.00000  0.05    0.38
Q93   1   0.5598  0.1129  0.3144  11.00000  0.05    0.37
Q94   1   0.4307  0.1101  0.3112  11.00000  0.05    0.37
Q95   1   0.7544  1.0263  0.1048  11.00000  0.05    0.37
Q96   1   0.6526  0.9983  0.1388  11.00000  0.05    0.36
Q97   1   0.5636  0.3766  0.3145  11.00000  0.05    0.36
Q98   1   0.6180  0.4897  0.4163  11.00000  0.05    0.35
Q99   1   0.4974  0.5015  0.1682  11.00000  0.05    0.35
Q100  1   0.4334  0.3940  0.3113  11.00000  0.05    0.35
Q101  1   0.5173  0.9146  0.1296  11.00000  0.05    0.35
Q102  1   0.3659  0.2970  0.2080  11.00000  0.05    0.35
Q103  1   0.6408  0.4470  0.2285  11.00000  0.05    0.35
Q104  1   0.3671  0.2078  0.2071  11.00000  0.05    0.35
Q105  1   0.6611  0.2524  0.4418  11.00000  0.05    0.35
Q106  1   0.8409  0.7489  0.0325  11.00000  0.05    0.34
Q107  1   0.7850  0.8313  0.1194  11.00000  0.05    0.34
Q108  1   0.4687  0.2471  0.1836  11.00000  0.05    0.34
Q109  1   0.5209  0.9947  0.5434  11.00000  0.05    0.34
Q110  1   0.5171  0.5153  0.5450  11.00000  0.05    0.34
Q111  1   0.6501  0.1550  0.2333  11.00000  0.05    0.34
Q112  1   0.7321  0.9749 -0.1163  11.00000  0.05    0.33
Q113  1   0.4258  0.3668  0.0390  11.00000  0.05    0.33
Q114  1   0.7213  0.4999  0.1495  11.00000  0.05    0.33
Q115  1   0.2847  0.1688  0.1193  11.00000  0.05    0.33
Q116  1   0.8838  0.5143  0.2051  11.00000  0.05    0.33
Q117  1   0.6121  0.3899  0.0618  11.00000  0.05    0.33
Q118  1   0.6541  0.5104  0.1355  11.00000  0.05    0.32
Q119  1   0.5350  0.5960  0.1217  11.00000  0.05    0.32
Q120  1   0.6377  0.3969  0.5449  11.00000  0.05    0.32
Q121  1   0.6003  0.1628  0.0211  11.00000  0.05    0.31
Q122  1   0.3730  0.6076  0.1676  11.00000  0.05    0.31
Q123  1   0.7361  1.0060  0.0780  11.00000  0.05    0.31
Q124  1   0.1558  0.5366  0.2322  11.00000  0.05    0.31
Q125  1   0.7205  1.0001  0.1469  11.00000  0.05    0.30
Q126  1   0.7146  0.5726  0.4421  11.00000  0.05    0.30
Q127  1   0.4108  0.4753  0.0598  11.00000  0.05    0.30
Q128  1   0.3967  0.3835  0.2571  11.00000  0.05    0.30
Q129  1   0.6446  0.1200  0.1614  11.00000  0.05    0.30
Q130  1   0.8791  0.8407  0.0212  11.00000  0.05    0.30
Q131  1   0.7245  1.0164 -0.1017  11.00000  0.05    0.30
Q132  1   0.6430  0.3884  0.1636  11.00000  0.05    0.30
Q133  1   0.3829  0.1571  0.0210  11.00000  0.05    0.29
Q134  1   0.3984  0.1183  0.2552  11.00000  0.05    0.28
Q135  1   0.5791  0.4219  0.4921  11.00000  0.05    0.28
Q136  1   0.5704  1.0260 -0.0616  11.00000  0.05    0.28
Q137  1   0.4204  0.1342  0.0398  11.00000  0.05    0.28
Q138  1   0.1174  0.6054  0.4074  11.00000  0.05    0.27
Q139  1   0.3030  0.2522  0.1620  11.00000  0.05    0.27
Q140  1   0.3825  0.1240  0.0570  11.00000  0.05    0.27
Q141  1   0.6986  0.3169  0.3179  11.00000  0.05    0.25
Q142  1   0.2997  0.3135  0.3025  11.00000  0.05    0.25
Q143  1   0.3682  0.2501  0.3685  11.00000  0.05    0.25
Q144  1   0.7318  0.8605 -0.0855  11.00000  0.05    0.25
Q145  1   0.7027  0.9801  0.0616  11.00000  0.05    0.24
Q146  1   0.6424  0.1069  0.5432  11.00000  0.05    0.24
Q147  1   0.8002  0.6964  0.2995  11.00000  0.05    0.24
Q148  1   0.3752  0.5131  0.0422  11.00000  0.05    0.24
Q149  1   0.1946  0.6853  0.3176  11.00000  0.05    0.23
Q150  1   0.6732  0.3808  0.4411  11.00000  0.05    0.22

REM The information below was added by Olex2.
REM
REM R1 = 0.0443 for 2491 Fo > 4sig(Fo) and 0.0473 for all 4756 data
REM n/a parameters refined using n/a restraints
REM Highest difference peak 2.14, deepest hole -1.93
REM Mean Shift 0, Max Shift 0.000.

REM +++ Tabular Listing of Refinement Information +++
REM R1_all = 0.0473
REM R1_gt = 0.0443
REM wR_ref = 0.1419
REM GOOF = 1.104
REM Shift_max = 0.000
REM Shift_mean = 0
REM Reflections_all = 4756
REM Reflections_gt = 2491
REM Parameters = n/a
REM Hole = -1.93
REM Peak = 2.14
REM Flack = 0.47(2)

;
_cod_data_source_file            ja0c01625_si_008.cif
_cod_data_source_block           c2
_cod_database_code               4134815
_shelxl_version_number           2013-4
_shelx_space_group_comment
;
The symmetry employed for this shelxl refinement is uniquely defined
by the following loop, which should always be used as a source of
symmetry information in preference to the above space-group names.
They are only intended as comments.
;
_shelx_estimated_absorpt_t_max   0.440
_shelx_estimated_absorpt_t_min   0.141
_olex2_refinement_description
;
1. Restrained distances
 N1-C1
 1.5 with sigma of 0.02
 C2-C3 = C3-C4
 1.5 with sigma of 0.02
 C3-C4 = C4-C5
 1.5 with sigma of 0.02
 C4-C5 = C5-C6
 1.5 with sigma of 0.02
 C5-C6 = C6-C7
 1.5 with sigma of 0.02
 C6-C7 = C7-C2
 1.5 with sigma of 0.02
 C7-C2 = C2-C3
 1.5 with sigma of 0.02
 C2-C4
 2.53 with sigma of 0.04
 C3-C5
 2.516 with sigma of 0.04
 C4-C6
 2.558 with sigma of 0.04
 C5-C7
 2.544 with sigma of 0.04
 C6-C2
 2.516 with sigma of 0.04
 C7-C3
 2.544 with sigma of 0.04
2. Uiso/Uaniso restraints and constraints
Uiso(N1) = Uiso(C1)
Uiso(C2) = Uiso(C3) = Uiso(C4) = Uiso(C5) = Uiso(C6) = Uiso(C7)
;
_olex2_submission_special_instructions 'No special instructions were received'
loop_
_space_group_symop_operation_xyz
'x, y, z'
'-x, y, -z'
'x+1/2, y+1/2, z'
'-x+1/2, y+1/2, -z'
loop_
_atom_site_label
_atom_site_type_symbol
_atom_site_fract_x
_atom_site_fract_y
_atom_site_fract_z
_atom_site_U_iso_or_equiv
_atom_site_adp_type
_atom_site_occupancy
_atom_site_site_symmetry_order
_atom_site_calc_flag
_atom_site_refinement_flags_posn
_atom_site_refinement_flags_adp
_atom_site_refinement_flags_occupancy
_atom_site_disorder_assembly
_atom_site_disorder_group
Pb1 Pb 0.49999(4) 0.2524(6) 0.31065(3) 0.0352(3) Uani 1 1 d . . . . .
Br3 Br 0.5000 0.260(2) 0.5000 0.0839(11) Uani 1 2 d S T P . .
Br4 Br 0.7577(12) 0.4963(4) 0.3121(8) 0.0893(13) Uani 1 1 d . . . . .
Br5 Br 0.2425(12) 0.4963(4) 0.3106(8) 0.0883(13) Uani 1 1 d . . . . .
Br6 Br 0.5000(6) 0.2625(19) 0.12752(16) 0.1330(15) Uani 1 1 d . . . . .
N1 N 0.5000 0.66(2) 0.5000 0.33(4) Uiso 1 2 d DS T P . .
C1 C 0.5000 0.84(2) 0.5000 0.33(4) Uiso 1 2 d DS T P . .
C3 C 0.502(9) 0.789(10) 0.151(4) 0.29(2) Uiso 1 1 d D . . . .
C5 C 0.667(7) 0.829(9) 0.017(5) 0.29(2) Uiso 1 1 d D . . . .
C6 C 0.547(9) 0.720(10) -0.022(3) 0.29(2) Uiso 1 1 d D . . . .
C2 C 0.441(10) 0.634(11) 0.121(5) 0.29(2) Uiso 1 1 d D . . . .
C4 C 0.636(9) 0.872(9) 0.108(5) 0.29(2) Uiso 1 1 d D . . . .
C7 C 0.482(12) 0.588(8) 0.032(6) 0.29(2) Uiso 1 1 d D . . . .
loop_
_atom_site_aniso_label
_atom_site_aniso_U_11
_atom_site_aniso_U_22
_atom_site_aniso_U_33
_atom_site_aniso_U_23
_atom_site_aniso_U_13
_atom_site_aniso_U_12
Pb1 0.0307(3) 0.0287(3) 0.0461(4) -0.0040(5) -0.00036(19) 0.0002(4)
Br3 0.110(3) 0.101(3) 0.0405(12) 0.000 -0.0017(14) 0.000
Br4 0.076(2) 0.073(2) 0.119(4) -0.0110(18) 0.012(2) -0.0502(16)
Br5 0.076(2) 0.077(2) 0.113(3) -0.0124(18) -0.0138(19) 0.0498(17)
Br6 0.183(3) 0.170(4) 0.0463(12) 0.016(5) -0.0004(14) 0.004(7)
loop_
_atom_type_symbol
_atom_type_description
_atom_type_scat_dispersion_real
_atom_type_scat_dispersion_imag
_atom_type_scat_source
C C 0.0033 0.0016 'International Tables Vol C Tables 4.2.6.8 and 6.1.1.4'
H H 0.0000 0.0000 'International Tables Vol C Tables 4.2.6.8 and 6.1.1.4'
N N 0.0061 0.0033 'International Tables Vol C Tables 4.2.6.8 and 6.1.1.4'
Br Br -0.2901 2.4595 'International Tables Vol C Tables 4.2.6.8 and 6.1.1.4'
Pb Pb -3.3944 10.1111 'International Tables Vol C Tables 4.2.6.8 and 6.1.1.4'
loop_
_geom_angle_atom_site_label_1
_geom_angle_atom_site_label_2
_geom_angle_atom_site_label_3
_geom_angle
_geom_angle_site_symmetry_1
_geom_angle_site_symmetry_3
_geom_angle_publ_flag
Br4 Pb1 Br3 88.7(3) . . ?
Br4 Pb1 Br3 90.4(3) 3_445 . ?
Br4 Pb1 Br4 176.7(4) 3_445 . ?
Br4 Pb1 Br5 90.07(8) 3_445 . ?
Br4 Pb1 Br5 86.8(4) 3_445 3_545 ?
Br5 Pb1 Br3 89.2(3) . . ?
Br5 Pb1 Br3 90.9(3) 3_545 . ?
Br5 Pb1 Br4 90.02(7) 3_545 . ?
Br5 Pb1 Br4 93.1(4) . . ?
Br5 Pb1 Br5 176.9(4) 3_545 . ?
Br6 Pb1 Br3 177.1(5) . . ?
Br6 Pb1 Br4 89.3(3) . . ?
Br6 Pb1 Br4 91.7(3) . 3_445 ?
Br6 Pb1 Br5 91.2(3) . 3_545 ?
Br6 Pb1 Br5 88.8(3) . . ?
Pb1 Br3 Pb1 177.6(6) 2_656 . ?
Pb1 Br4 Pb1 176.7(4) 3 . ?
Pb1 Br5 Pb1 176.9(4) 3_455 . ?
C2 C3 C4 121(3) . . ?
C6 C5 C6 30(3) . 2_655 ?
C6 C5 C4 115(3) . . ?
C4 C5 C6 86(4) . 2_655 ?
C5 C6 C5 108(6) . 2_655 ?
C5 C6 C2 126(7) . 2_655 ?
C5 C6 C7 117(4) . . ?
C6 C6 C5 104(5) 2_655 . ?
C6 C6 C5 46(4) 2_655 2_655 ?
C6 C6 C2 129(9) 2_655 2_655 ?
C6 C6 C7 50(4) 2_655 . ?
C6 C6 C7 86(7) 2_655 2_655 ?
C2 C6 C5 106(5) 2_655 2_655 ?
C7 C6 C5 90(4) . 2_655 ?
C7 C6 C5 143(9) 2_655 . ?
C7 C6 C5 104(7) 2_655 2_655 ?
C7 C6 C2 103(8) . 2_655 ?
C7 C6 C2 58(3) 2_655 2_655 ?
C7 C6 C7 45(9) 2_655 . ?
C3 C2 C6 85(5) . 2_655 ?
C3 C2 C7 117(3) . . ?
C7 C2 C6 41(3) . 2_655 ?
C3 C4 C5 117(3) . . ?
C6 C7 C6 44(6) 2_655 . ?
C6 C7 C2 81(5) 2_655 . ?
C2 C7 C6 115(3) . . ?
C7 C7 C6 50(4) 2_655 . ?
C7 C7 C6 85(7) 2_655 2_655 ?
C7 C7 C2 165(4) 2_655 . ?
loop_
_geom_bond_atom_site_label_1
_geom_bond_atom_site_label_2
_geom_bond_distance
_geom_bond_site_symmetry_2
_geom_bond_publ_flag
Pb1 Br3 3.0157(7) . ?
Pb1 Br4 2.967(7) 3_445 ?
Pb1 Br4 2.986(7) . ?
Pb1 Br5 2.968(7) 3_545 ?
Pb1 Br5 2.984(7) . ?
Pb1 Br6 2.917(3) . ?
Br3 Pb1 3.0156(7) 2_656 ?
Br4 Pb1 2.967(7) 3 ?
Br5 Pb1 2.968(7) 3_455 ?
N1 C1 1.48(3) . ?
C3 C2 1.487(19) . ?
C3 C4 1.494(19) . ?
C5 C6 1.497(19) . ?
C5 C6 2.02(9) 2_655 ?
C5 C4 1.508(19) . ?
C6 C5 2.02(9) 2_655 ?
C6 C6 1.05(12) 2_655 ?
C6 C2 1.74(8) 2_655 ?
C6 C7 1.15(7) 2_655 ?
C6 C7 1.509(19) . ?
C2 C6 1.74(8) 2_655 ?
C2 C7 1.497(19) . ?
C7 C6 1.15(7) 2_655 ?
C7 C7 1.08(18) 2_655 ?
loop_
_geom_torsion_atom_site_label_1
_geom_torsion_atom_site_label_2
_geom_torsion_atom_site_label_3
_geom_torsion_atom_site_label_4
_geom_torsion
_geom_torsion_site_symmetry_1
_geom_torsion_site_symmetry_2
_geom_torsion_site_symmetry_3
_geom_torsion_site_symmetry_4
_geom_torsion_publ_flag
C3 C2 C7 C6 -42(11) . . . 2_655 ?
C3 C2 C7 C6 -14(15) . . . . ?
C3 C2 C7 C7 -19(66) . . . 2_655 ?
C5 C6 C7 C6 85(7) . . . 2_655 ?
C5 C6 C7 C6 -25(7) 2_655 . . 2_655 ?
C5 C6 C7 C2 -67(9) 2_655 . . . ?
C5 C6 C7 C2 43(11) . . . . ?
C5 C6 C7 C7 -139(12) . . . 2_655 ?
C5 C6 C7 C7 111(12) 2_655 . . 2_655 ?
C6 C5 C6 C5 48(3) 2_655 . . 2_655 ?
C6 C5 C6 C2 174(10) 2_655 . . 2_655 ?
C6 C5 C6 C7 -103(14) 2_655 . . 2_655 ?
C6 C5 C6 C7 -52(6) 2_655 . . . ?
C6 C5 C4 C3 13(8) 2_655 . . . ?
C6 C5 C4 C3 6(12) . . . . ?
C6 C6 C7 C2 -42(10) 2_655 . . . ?
C6 C6 C7 C7 136(17) 2_655 . . 2_655 ?
C6 C2 C7 C6 28(8) 2_655 . . . ?
C6 C2 C7 C7 23(57) 2_655 . . 2_655 ?
C2 C3 C4 C5 23(14) . . . . ?
C2 C6 C7 C6 -131(10) 2_655 . . 2_655 ?
C2 C6 C7 C2 -173(7) 2_655 . . . ?
C2 C6 C7 C7 5(12) 2_655 . . 2_655 ?
C4 C3 C2 C6 -45(11) . . . 2_655 ?
C4 C3 C2 C7 -19(16) . . . . ?
C4 C5 C6 C5 60(8) . . . 2_655 ?
C4 C5 C6 C6 13(9) . . . 2_655 ?
C4 C5 C6 C2 -173(7) . . . 2_655 ?
C4 C5 C6 C7 -90(14) . . . 2_655 ?
C4 C5 C6 C7 -39(10) . . . . ?
C7 C6 C7 C6 -136(17) 2_655 . . 2_655 ?
C7 C6 C7 C2 -178(18) 2_655 . . . ?
loop_
_refln_index_h
_refln_index_k
_refln_index_l
_refln_F_squared_meas
_refln_F_squared_sigma
2 0 0 313.33 18.53
4 0 0 812.63 48.03
6 0 0 50.39 3.02
8 0 0 105.94 6.31
10 0 0 14.33 0.98
3 -1 0 542.74 31.62
3 1 0 526.61 31.61
5 -1 0 219.77 12.48
-5 1 0 199.43 12.47
-5 1 0 213.15 12.5
7 -1 0 110.43 6.41
7 1 0 104.4 6.41
-7 1 0 108.88 6.39
9 -1 0 31.18 1.95
9 1 0 31.89 1.95
11 -1 0 16.1 1.11
0 -2 0 321.62 19.84
0 -2 0 336.78 19.85
0 2 0 344.78 19.87
4 -2 0 88.81 5.45
-4 -2 0 85.98 5.45
-4 -2 0 95.83 5.45
4 -2 0 97.3 5.45
4 2 0 84.41 5.45
-4 2 0 100.05 5.46
-6 -2 0 278.39 17.16
-6 -2 0 289.1 17.2
6 -2 0 279.57 17.14
-6 2 0 327.89 17.27
6 2 0 277.01 17.14
-8 -2 0 26.4 1.51
8 -2 0 25.48 1.54
-8 2 0 24.86 1.51
8 2 0 22.04 1.54
10 -2 0 33.92 2.11
-1 -3 0 574.58 34.88
1 -3 0 549.22 34.87
1 3 0 610.71 34.9
-1 3 0 618.88 34.96
-3 -3 0 291.83 16.23
-3 -3 0 253.16 16.23
3 -3 0 264.01 16.14
3 -3 0 277.39 16.24
-3 3 0 292.85 16.32
3 3 0 258.51 16.23
-5 -3 0 253.32 14.66
-5 -3 0 257.5 14.7
5 -3 0 238.63 14.63
5 -3 0 256.12 14.7
-5 3 0 254.01 14.73
5 3 0 227.05 14.67
-7 -3 0 42.72 2.65
7 -3 0 46.99 2.67
-7 3 0 43.34 2.67
9 -3 0 44.42 2.6
-9 3 0 40.95 2.58
0 -4 0 925.61 56.19
0 4 0 972.03 56.28
-2 -4 0 95.59 5.8
2 -4 0 96.92 5.76
2 -4 0 96.42 5.8
-2 4 0 101.14 5.81
2 4 0 97.43 5.8
-4 -4 0 444.66 27.62
4 -4 0 494.5 27.67
4 -4 0 444.45 27.52
4 4 0 478.91 27.59
-4 4 0 464.58 27.65
6 -4 0 32 2.01
-6 -4 0 34.49 2.02
-6 4 0 33.1 2.04
8 -4 0 81.18 4.62
-8 -4 0 77.03 4.61
-8 4 0 73.79 4.64
10 -4 0 9.21 0.72
-1 -5 0 203.93 12.39
-1 5 0 214.71 12.5
1 5 0 209.4 12.4
3 -5 0 239.96 14.84
-3 -5 0 258.62 14.91
3 -5 0 249.84 14.83
3 5 0 268.49 15.04
-3 5 0 238.53 14.86
5 -5 0 50.51 2.96
5 -5 0 48.63 2.98
-5 -5 0 49.24 2.99
-5 5 0 48.79 3.02
5 5 0 50.43 2.97
7 -5 0 83.38 4.9
-7 -5 0 82.12 4.92
-7 5 0 81.09 4.94
9 -5 0 11.66 0.78
-9 5 0 10.46 0.8
0 -6 0 61.27 3.39
0 6 0 50.83 3.39
2 -6 0 288.92 16.87
2 -6 0 292.8 16.99
-2 -6 0 289.52 16.99
2 6 0 280.21 16.99
-2 6 0 277.29 16.93
-4 -6 0 32.95 2.02
4 -6 0 31.23 2.01
4 -6 0 34.27 1.95
4 6 0 32.27 2
-4 6 0 32.16 2.04
6 -6 0 112.55 6.67
-6 -6 0 113.25 6.71
-6 6 0 111.51 6.74
8 -6 0 9.26 0.64
-8 -6 0 8.44 0.65
-8 6 0 8.54 0.71
-1 -7 0 119.71 6.97
1 7 0 116.28 6.98
-1 7 0 113.64 6.98
3 -7 0 44.27 2.76
-3 -7 0 46.51 2.77
-3 7 0 44.43 2.79
3 7 0 45.02 2.76
5 -7 0 79.41 4.92
-5 -7 0 82.39 4.93
-5 7 0 83.76 4.96
-7 -7 0 10.18 0.78
-7 7 0 11.39 0.85
0 8 0 115.52 6.94
2 -8 0 24.36 1.63
-2 -8 0 24.91 1.64
-2 8 0 25.97 1.67
2 8 0 26.12 1.64
-4 -8 0 79.9 4.73
4 -8 0 74.08 4.71
4 8 0 79.14 4.78
-4 8 0 78.91 4.75
-6 -8 0 9.13 0.75
-6 8 0 8.78 0.79
1 -9 0 32.79 2.1
1 9 0 35.04 2.12
-1 9 0 30.77 2.11
3 -9 0 49.07 2.84
3 9 0 43.13 2.82
-3 9 0 43.91 2.86
-5 9 0 10.49 0.91
0 -10 0 15.57 1.15
0 10 0 14.95 1.14
2 -10 0 33.09 2.1
-2 -10 0 29.7 2.1
-2 10 0 33.8 2.14
2 10 0 32.97 2.11
4 -10 0 7.38 0.74
-4 10 0 8.88 0.85
1 -11 0 15.7 1.21
-1 -11 0 15.64 1.23
1 11 0 15.74 1.21
-1 11 0 17.22 1.26
-8 0 1 8.85 0.59
-6 0 1 5.92 0.39
-6 0 1 6.03 0.38
6 0 -1 5.56 0.42
-4 0 1 72.86 4.9
4 0 -1 86.67 4.92
-4 0 1 89.55 4.93
-2 0 1 1.06 0.08
2 0 -1 0.85 0.09
-2 0 1 1.26 0.09
0 0 -1 30.08 1.86
0 0 1 32.08 1.88
2 0 1 0.86 0.08
6 0 1 5.81 0.42
8 0 1 14.68 0.96
10 0 1 2.31 0.33
9 -1 -1 5.26 0.47
7 -1 -1 17.41 1.1
-7 -1 1 19.07 1.07
7 1 -1 16.42 1.1
-7 1 1 16.85 1.07
-5 -1 1 21.21 1.25
5 -1 -1 21.2 1.27
-5 -1 1 20.7 1.26
-5 1 1 19.92 1.26
-5 1 1 21.96 1.26
5 1 -1 20.02 1.27
-3 -1 1 35.26 2.21
3 -1 -1 37.77 2.21
3 -1 -1 36.94 2.22
-3 -1 1 35.67 2.22
-3 1 1 37.77 2.22
-3 1 1 39.09 2.22
3 1 -1 38.7 2.22
1 -1 -1 56.99 3.37
1 -1 -1 56.76 3.42
1 -1 -1 59.2 3.38
-1 -1 1 58.51 3.41
-1 -1 1 55.73 3.38
1 1 -1 58.27 3.38
-1 1 1 55.1 3.37
-1 1 1 50.46 3.39
1 1 -1 59.3 3.41
-1 1 1 59.74 3.4
1 -1 1 55.29 3.51
-1 -1 -1 55.33 3.52
-1 -1 -1 58.67 3.51
-1 -1 -1 58.45 3.54
1 -1 1 61.27 3.53
-1 1 -1 56.9 3.55
-1 1 -1 61.81 3.54
1 1 1 58.44 3.53
1 1 1 59.52 3.54
1 1 1 67.64 3.56
-3 -1 -1 36.29 2.17
3 -1 1 38.53 2.18
-3 -1 -1 35.19 2.17
-3 1 -1 37.6 2.17
3 1 1 34.86 2.18
-3 1 -1 37.28 2.17
5 -1 1 20.93 1.3
-5 1 -1 22.9 1.28
5 1 1 19.81 1.3
7 -1 1 15.71 1.04
7 1 1 16.45 1.04
-7 1 -1 16.84 1
9 -1 1 4.12 0.43
9 1 1 4.68 0.44
11 -1 1 2.31 0.36
10 -2 -1 5.52 0.52
8 -2 -1 3.91 0.36
-8 -2 1 3.48 0.28
-8 2 1 3.75 0.31
6 -2 -1 36.24 2.02
-6 -2 1 32.96 1.99
-6 -2 1 32.78 1.99
-6 2 1 32.7 2.01
-6 2 1 33 2
6 2 -1 32.4 2.01
-4 -2 1 3.71 0.27
4 -2 -1 3.76 0.28
4 -2 -1 3.95 0.28
-4 -2 1 4.23 0.27
-4 2 1 4.04 0.29
-4 2 1 3.89 0.27
2 -2 -1 112.61 6.64
-2 -2 1 106.28 6.71
-2 -2 1 123.42 6.72
2 -2 -1 104.64 6.71
-2 2 1 108.32 6.67
2 2 -1 118.43 6.71
-2 2 1 112.57 6.65
0 -2 1 0.74 0.09
0 -2 -1 0.86 0.1
0 2 -1 0.79 0.1
0 2 1 0.9 0.09
0 2 1 1.02 0.11
0 2 -1 0.82 0.09
-2 -2 -1 115.14 6.59
-2 -2 -1 111.46 6.56
2 -2 1 109.93 6.49
2 2 1 110.81 6.54
-2 2 -1 106.49 6.58
2 2 1 109.17 6.54
2 2 1 107 6.52
-2 2 -1 109.26 6.55
4 -2 1 3.78 0.27
-4 -2 -1 3.69 0.26
-4 -2 -1 3.5 0.26
-4 2 -1 4.04 0.28
-4 2 -1 4.29 0.27
4 2 1 3.95 0.27
-6 -2 -1 33.17 2.03
-6 -2 -1 36.29 2.03
6 -2 1 33.76 2.06
-6 2 -1 33.36 2.04
-6 2 -1 35.76 2.05
6 2 1 31.69 2.05
8 -2 1 3.97 0.39
8 2 1 3.75 0.37
-8 2 -1 3.71 0.31
10 -2 1 4.75 0.49
10 2 1 4.73 0.49
9 -3 -1 7.3 0.56
-9 3 1 6.13 0.51
-7 -3 1 7.01 0.48
7 -3 -1 7.2 0.5
-7 3 1 6.82 0.51
5 -3 -1 29.33 1.83
5 -3 -1 31.5 1.84
-5 -3 1 31.1 1.84
-5 -3 1 30.92 1.83
-5 3 1 29.18 1.85
-3 -3 1 19.46 1.19
3 -3 -1 19.54 1.17
3 -3 -1 19.9 1.19
-3 -3 1 19.18 1.19
-3 3 1 19.29 1.2
3 3 -1 19.17 1.18
1 -3 -1 36.73 2.14
-1 -3 1 32.99 2.13
1 -3 -1 36.41 2.1
-1 3 1 37.04 2.15
1 3 -1 34.73 2.14
-1 -3 -1 38.4 2.26
1 -3 1 39.07 2.26
1 3 1 35.84 2.26
-1 3 -1 37.5 2.27
3 -3 1 20.11 1.17
-3 -3 -1 18.95 1.17
-3 -3 -1 19.44 1.17
3 -3 1 19.07 1.15
3 3 1 18.42 1.16
3 3 1 19.52 1.16
-3 3 -1 18.76 1.18
5 -3 1 33.11 1.85
-5 -3 -1 31.74 1.86
5 -3 1 31.08 1.86
-5 -3 -1 28.74 1.85
-5 3 -1 31.54 1.88
5 3 1 28.44 1.86
-7 -3 -1 6.71 0.46
7 -3 1 6.54 0.49
-7 3 -1 7.06 0.5
7 3 1 6.69 0.5
9 -3 1 6.81 0.56
-9 3 -1 6.89 0.66
10 -4 -1 1.37 0.3
-8 -4 1 10.73 0.72
8 -4 -1 10.76 0.75
-8 4 1 10.82 0.76
6 -4 -1 3.32 0.29
-6 -4 1 3.14 0.29
-6 4 1 3.27 0.33
4 -4 -1 43.45 2.77
-4 -4 1 44.28 2.78
4 -4 -1 47.63 2.75
-4 4 1 48.09 2.8
4 4 -1 47.53 2.77
2 -4 -1 4.13 0.24
2 -4 -1 3.64 0.3
-2 -4 1 3.75 0.3
2 4 -1 3.64 0.3
-2 4 1 3.71 0.32
0 -4 1 88.53 5.34
0 -4 -1 90.12 5.29
0 -4 -1 89.77 5.34
0 4 -1 87.18 5.35
0 4 1 93.17 5.35
-2 -4 -1 3.91 0.31
2 -4 1 3.95 0.31
-2 4 -1 4.04 0.33
2 4 1 3.86 0.3
4 -4 1 46.9 2.82
4 -4 1 47.25 2.84
-4 -4 -1 46.32 2.85
4 4 1 48.16 2.83
-4 4 -1 48.27 2.87
6 -4 1 2.96 0.29
-6 -4 -1 3.19 0.28
-6 4 -1 2.97 0.32
8 -4 1 10.5 0.73
-8 -4 -1 9.79 0.68
-8 4 -1 10.79 0.73
10 -4 1 1.43 0.3
9 -5 -1 1.67 0.28
-9 5 1 1.4 0.28
7 -5 -1 12.56 0.78
-7 -5 1 10.98 0.79
-7 5 1 11.69 0.83
5 -5 -1 6.56 0.49
-5 -5 1 6.74 0.5
5 -5 -1 6.42 0.45
5 5 -1 6.67 0.46
-5 5 1 6.84 0.54
-3 -5 1 30.07 1.9
3 -5 -1 31.64 1.85
3 -5 -1 30.67 1.9
3 5 -1 31.83 1.9
-3 5 1 30.61 1.92
1 -5 -1 21.23 1.37
-1 -5 1 22.18 1.37
1 5 -1 21.25 1.38
-1 5 1 23.46 1.39
1 -5 1 20.07 1.33
-1 -5 -1 23.67 1.34
1 5 1 20.52 1.34
-1 5 -1 21.08 1.34
3 -5 1 29.53 1.86
3 -5 1 30.56 1.81
-3 -5 -1 30.37 1.86
3 5 1 29.04 1.85
-3 5 -1 31.94 1.88
5 -5 1 6.9 0.44
5 -5 1 6.2 0.47
-5 -5 -1 6.31 0.48
5 5 1 5.99 0.44
-5 5 -1 6.28 0.51
-7 -5 -1 11.82 0.81
7 -5 1 12.75 0.8
-7 5 -1 11.5 0.85
9 -5 1 1.62 0.27
-9 5 -1 1.4 0.28
-8 -6 1 1.14 0.25
8 -6 -1 1.46 0.25
-8 6 1 1.36 0.29
6 -6 -1 14.98 0.94
-6 -6 1 15 1
-6 6 1 14.74 1.04
4 -6 -1 3.25 0.25
4 -6 -1 3.51 0.35
-4 -6 1 3.07 0.35
4 6 -1 3.02 0.32
-4 6 1 3.33 0.39
-2 -6 1 33.32 2.18
2 -6 -1 36.79 2.1
2 -6 -1 35.34 2.19
2 6 -1 34.83 2.19
-2 6 1 37.13 2.21
0 -6 1 5.44 0.46
0 6 1 5.9 0.47
0 6 -1 5.03 0.46
-2 -6 -1 37.92 2.24
2 6 1 34.6 2.23
-2 6 -1 36.7 2.26
-4 -6 -1 3.33 0.36
4 -6 1 3.08 0.34
4 -6 1 3.27 0.25
-4 6 -1 2.81 0.38
4 6 1 3.36 0.32
6 -6 1 14.87 0.9
-6 -6 -1 13.31 0.95
-6 6 -1 14.18 0.99
8 -6 1 1.29 0.23
-8 6 -1 1.23 0.28
-7 -7 1 1.27 0.27
-7 7 1 1.34 0.32
5 -7 -1 12.36 0.85
-5 -7 1 11.95 0.87
-5 7 1 11.58 0.89
-3 -7 1 7.67 0.58
3 -7 -1 6.97 0.57
3 7 -1 6.34 0.56
-3 7 1 7.38 0.61
-1 -7 1 16.83 1.12
1 -7 -1 17.08 1.12
-1 7 1 17.08 1.14
1 7 -1 16.39 1.13
1 7 1 17.33 1.16
-3 -7 -1 7.62 0.59
3 -7 1 6.58 0.44
3 -7 1 6.71 0.57
3 7 1 6.5 0.55
-3 7 -1 7.17 0.6
-5 -7 -1 12.55 0.85
5 -7 1 11.19 0.82
5 -7 1 11.52 0.74
-5 7 -1 10.99 0.88
-7 7 -1 1.29 0.31
-6 -8 1 1.28 0.3
-6 8 1 1.41 0.35
4 -8 -1 9.89 0.79
-4 -8 1 10.11 0.81
-4 8 1 11.24 0.85
4 8 -1 10.24 0.78
-2 -8 1 3.69 0.45
2 -8 -1 3.64 0.47
2 8 -1 3.68 0.45
-2 8 1 3.73 0.5
0 -8 -1 14.37 1.05
0 -8 1 14.59 1.05
0 8 -1 15.03 1.07
0 8 1 16.62 1.08
2 -8 1 3.58 0.46
-2 8 -1 3.58 0.48
2 8 1 3.86 0.45
4 -8 1 11.27 0.84
-4 8 -1 10.83 0.89
-6 8 -1 1.48 0.37
-5 -9 1 1.48 0.35
-5 9 1 1.43 0.38
-3 -9 1 6.78 0.66
3 -9 -1 6.86 0.66
-3 9 1 6.78 0.72
3 9 -1 6.76 0.64
1 -9 -1 5.35 0.56
-1 9 1 4.86 0.58
1 9 -1 4.76 0.56
-1 -9 -1 4.69 0.57
1 -9 1 5.31 0.57
1 9 1 4.74 0.55
-1 9 -1 5.04 0.62
3 -9 1 6.44 0.65
-3 9 -1 7.48 0.71
3 9 1 6.58 0.63
-5 9 -1 2.01 0.41
4 -10 -1 1.48 0.37
-4 10 1 1.42 0.42
2 -10 -1 4.71 0.64
-2 10 1 4.92 0.66
2 10 -1 5.52 0.62
0 -10 -1 2.38 0.42
0 -10 1 2.33 0.41
0 10 1 2.51 0.41
0 10 -1 2.46 0.42
2 -10 1 4.42 0.63
-2 -10 -1 5.61 0.65
2 10 1 5.27 0.62
-2 10 -1 5.1 0.66
-4 -10 -1 0.97 0.36
4 -10 1 1.41 0.38
-4 10 -1 1.36 0.41
-1 -11 1 1.7 0.42
1 -11 -1 2.45 0.45
1 11 -1 2.14 0.43
-1 11 1 2.04 0.44
1 -11 1 2.16 0.44
-1 -11 -1 2.04 0.44
-1 11 -1 2.42 0.46
1 11 1 2.39 0.44
-8 0 2 26.84 1.65
6 0 -2 9.66 0.63
-6 0 2 10.82 0.62
-6 0 2 8.34 0.62
4 0 -2 247.76 15.63
-4 0 2 278.66 15.66
-2 0 2 4.47 0.31
2 0 -2 5.08 0.3
-2 0 2 4.86 0.31
2 0 -2 4.66 0.3
0 0 -2 167.7 10.63
0 0 2 182.81 10.67
0 0 -2 185.81 10.69
2 0 2 4.02 0.28
-2 0 -2 4.67 0.28
-2 0 -2 4.41 0.27
4 0 2 229.42 13.6
6 0 2 9.66 0.63
8 0 2 40.74 2.47
10 0 2 7.22 0.61
7 -1 -2 41.4 2.44
-7 -1 2 38.08 2.42
-7 1 2 41.65 2.42
5 -1 -2 45.06 2.86
-5 -1 2 51.76 2.86
-5 1 2 42.68 2.86
-5 1 2 52.37 2.86
3 -1 -2 100.93 5.86
-3 -1 2 89.75 5.82
-3 -1 2 100.17 5.87
3 -1 -2 103.49 5.81
-3 1 2 105.65 5.87
-3 1 2 96.62 5.84
3 1 -2 102.89 5.83
3 1 -2 87.56 5.83
-1 -1 2 145.91 8.89
1 -1 -2 153.16 8.89
-1 -1 2 159.01 8.94
1 -1 -2 157.91 8.94
1 1 -2 134.17 8.88
1 1 -2 153.37 8.9
-1 1 2 143.81 8.91
-1 1 2 148.59 8.91
1 -1 2 147.37 9.54
-1 -1 -2 144.83 9.51
1 -1 2 159.71 9.52
-1 -1 -2 174.55 9.57
1 1 2 157.84 9.48
1 1 2 159.59 9.52
-1 1 -2 162.33 9.55
-1 1 -2 159.21 9.53
1 1 2 178.45 9.58
-3 -1 -2 110.17 5.81
3 -1 2 95.09 5.76
-3 1 -2 100.53 5.8
-3 1 -2 91.82 5.81
3 1 2 90.04 5.76
5 -1 2 46.04 2.65
-5 1 -2 48.21 2.64
-5 1 -2 39.43 2.63
5 1 2 43.92 2.65
7 -1 2 39.97 2.41
7 1 2 39.09 2.41
-7 1 -2 40.36 2.38
9 -1 2 13.76 0.9
9 1 2 12.61 0.89
11 -1 2 7.04 0.67
11 1 2 7.57 0.66
-8 -2 2 8.23 0.55
8 -2 -2 8.7 0.61
-8 2 2 8.54 0.58
-6 -2 2 101.27 5.87
-6 -2 2 93.07 5.86
6 -2 -2 97.75 5.87
-6 2 2 99.49 5.88
-6 2 2 103.19 5.87
4 -2 -2 4.98 0.35
-4 -2 2 4.81 0.33
-4 -2 2 5.36 0.34
4 -2 -2 5.06 0.34
-4 2 2 4.83 0.34
-4 2 2 5.2 0.35
-2 -2 2 295.75 18.98
-2 -2 2 317.32 19.03
2 -2 -2 329.4 19.03
2 -2 -2 349.76 18.92
-2 2 2 343.94 19.06
2 2 -2 290.93 18.98
-2 2 2 313.86 19.02
0 -2 2 4.16 0.28
0 -2 -2 3.97 0.27
0 -2 2 3.97 0.27
0 -2 -2 4.24 0.27
0 2 -2 3.78 0.28
2 -2 2 339.16 18.53
-2 -2 -2 296.65 18.48
-2 2 -2 303.21 18.49
2 2 2 302.33 18.49
2 2 2 323.3 18.45
-2 2 -2 305.7 18.54
-4 -2 -2 5.19 0.34
4 -2 2 4.68 0.35
-4 -2 -2 5.23 0.34
-4 2 -2 5.8 0.35
-4 2 -2 5.17 0.35
4 2 2 5.16 0.35
-6 -2 -2 92.08 5.58
-6 -2 -2 95.07 5.58
6 -2 2 92.67 5.6
-6 2 -2 93.76 5.59
6 2 2 93.36 5.6
-6 2 -2 98.61 5.6
8 -2 2 8.5 0.61
-8 2 -2 8.68 0.56
8 2 2 7.64 0.6
10 -2 2 14.68 1
10 2 2 14.31 1
9 -3 -2 20.61 1.34
-9 3 2 21.33 1.34
7 -3 -2 16.51 1.01
-7 -3 2 16.31 1
-7 3 2 14.97 1.01
-5 -3 2 72.87 4.43
5 -3 -2 78.11 4.45
5 -3 -2 75.72 4.43
-5 -3 2 73.28 4.44
-5 3 2 72.8 4.45
3 -3 -2 44.6 2.73
3 -3 -2 47.63 2.71
-3 -3 2 42.54 2.73
-3 3 2 48.09 2.75
3 3 -2 45.43 2.73
-1 -3 2 88.8 5.81
1 -3 -2 98.66 5.81
1 3 -2 100.98 5.82
-1 3 2 103.71 5.82
-1 -3 -2 103.84 5.78
1 -3 2 89.72 5.8
-1 3 -2 100.22 5.81
1 3 2 94.85 5.79
1 3 2 100.71 5.81
-3 -3 -2 45.37 2.66
-3 -3 -2 44.34 2.66
3 -3 2 44.34 2.64
3 3 2 41.95 2.64
3 3 2 46.51 2.66
-3 3 -2 44.46 2.67
-5 -3 -2 78.03 4.53
-5 -3 -2 79.1 4.53
5 -3 2 76.87 4.52
5 -3 2 78.02 4.53
5 3 2 70.54 4.53
-5 3 -2 74.57 4.54
7 -3 2 17.24 1.04
7 3 2 15.8 1.04
-7 3 -2 16.15 1.04
9 -3 2 19.09 1.22
9 3 2 18.45 1.22
-8 -4 2 31.57 2.04
8 -4 -2 33.83 2.05
-8 4 2 35.26 2.08
-6 -4 2 6.62 0.49
6 -4 -2 7.33 0.48
-6 4 2 6.81 0.52
-4 -4 2 123.55 8.3
4 -4 -2 143.81 8.27
4 -4 -2 144.11 8.3
4 4 -2 144.98 8.3
-4 4 2 143.57 8.32
2 -4 -2 4.78 0.38
2 -4 -2 5.46 0.33
-2 -4 2 5.58 0.39
-2 4 2 5.3 0.41
2 4 -2 5.51 0.39
0 -4 2 261.33 14.59
0 -4 -2 226.09 14.58
0 4 -2 245.94 14.59
0 4 2 241.89 14.58
-2 -4 -2 4.84 0.36
2 -4 2 4.88 0.37
2 4 2 5.17 0.36
-2 4 -2 4.99 0.38
4 -4 2 138.74 7.95
4 -4 2 127.52 7.92
-4 -4 -2 129.11 7.95
4 4 2 139.82 7.94
-4 4 -2 132.98 7.97
4 4 2 135.99 7.93
-6 -4 -2 7.11 0.48
6 -4 2 6.72 0.48
-6 4 -2 6.86 0.51
6 4 2 6.3 0.48
8 -4 2 32.04 1.99
-8 -4 -2 33.3 1.97
8 4 2 31.6 1.99
-8 4 -2 32.23 2
10 -4 2 4.12 0.42
-9 5 2 4.56 0.5
-7 -5 2 34.2 2.19
7 -5 -2 39.25 2.17
-7 5 2 33.69 2.21
-5 -5 2 15.58 1.06
5 -5 -2 17.32 1.01
5 -5 -2 17.2 1.05
-5 5 2 16.67 1.09
5 5 -2 15.65 1.03
3 -5 -2 81.97 4.5
3 -5 -2 78.72 4.56
-3 -5 2 71.1 4.56
-3 5 2 73.5 4.57
3 5 -2 75.29 4.56
-1 -5 2 43.61 2.77
1 -5 -2 48.9 2.77
1 5 -2 44.19 2.77
-1 5 2 46.37 2.78
1 -5 2 46.59 2.74
-1 5 -2 45.18 2.75
1 5 2 43.99 2.74
-3 -5 -2 82.55 4.64
3 -5 2 72.7 4.59
-3 5 -2 71.23 4.64
3 5 2 83.36 4.63
-5 -5 -2 17.71 1.05
5 -5 2 16.6 1.04
5 -5 2 15.38 1.01
-5 5 -2 15.61 1.07
5 5 2 16.08 1.03
7 -5 2 34.79 2.11
-7 5 -2 34.57 2.16
9 -5 2 4.78 0.46
-9 5 -2 4.3 0.47
-8 -6 2 3.89 0.43
-8 6 2 4.06 0.5
6 -6 -2 47.98 2.7
-6 -6 2 45.07 2.75
-6 6 2 41.74 2.77
4 -6 -2 7.87 0.47
4 -6 -2 7.02 0.56
-4 -6 2 7.69 0.57
4 6 -2 7.21 0.55
-4 6 2 6.96 0.6
2 -6 -2 108.26 5.96
-2 -6 2 97.7 5.95
-2 6 2 103.75 5.98
2 6 -2 88.78 5.95
0 -6 2 9.98 0.69
0 -6 -2 9.89 0.69
0 6 -2 9.4 0.69
2 -6 2 102.82 5.94
2 6 2 94.91 5.94
-2 6 -2 100.31 5.96
4 -6 2 6.9 0.53
-4 -6 -2 6.8 0.54
4 -6 2 6.99 0.46
-4 6 -2 6.95 0.57
4 6 2 7.04 0.52
6 -6 2 42.91 2.48
-6 6 -2 39.38 2.55
8 -6 2 3.7 0.4
-8 -6 -2 4.03 0.42
-8 6 -2 3.85 0.48
-7 -7 2 3.64 0.45
-7 7 2 4.16 0.52
-5 -7 2 36.48 2.26
5 -7 -2 36.18 2.25
-5 7 2 36.17 2.3
-3 -7 2 17.24 1.14
3 -7 -2 16.25 1.13
-3 7 2 17.19 1.17
3 7 -2 17.71 1.14
-1 -7 2 41.73 2.51
1 -7 -2 38.99 2.5
-1 7 2 41.6 2.52
1 7 -2 40.22 2.51
1 -7 2 39.03 2.54
-1 -7 -2 40.63 2.54
1 7 2 41.48 2.55
-1 7 -2 44.08 2.57
3 -7 2 16.29 1.11
3 -7 2 16.35 1.02
-3 7 -2 18.24 1.15
3 7 2 16.12 1.1
5 -7 2 34.06 2.03
5 -7 2 34.04 2.1
-5 7 -2 33.08 2.14
-7 -7 -2 4.02 0.47
-7 7 -2 4.57 0.53
-6 -8 2 3.79 0.51
-6 8 2 4 0.57
-4 -8 2 34.63 2.14
4 -8 -2 31.91 2.13
4 8 -2 34.19 2.13
-4 8 2 34.69 2.18
-2 -8 2 8.35 0.7
2 -8 -2 8.44 0.69
-2 8 2 8.95 0.73
2 8 -2 9.16 0.72
0 -8 2 41.03 2.62
0 -8 -2 43.44 2.62
0 8 2 42.56 2.63
0 8 -2 41.51 2.63
-2 -8 -2 8.95 0.73
-2 8 -2 8.71 0.74
2 8 2 9.16 0.71
4 -8 2 32.53 2.06
-4 -8 -2 32.58 2.07
-4 8 -2 32.45 2.1
-6 -8 -2 3.69 0.5
-6 8 -2 3.57 0.47
-5 -9 2 4.62 0.58
-5 9 2 4.57 0.65
-3 -9 2 18.9 1.31
3 -9 -2 18.13 1.29
3 9 -2 20.15 1.3
-3 9 2 18.25 1.34
-1 -9 2 15.34 1.09
1 -9 -2 13.91 1.06
1 9 -2 15.15 1.1
-1 9 2 15.16 1.1
-1 -9 -2 12.98 1.01
-1 9 -2 13.82 1.04
1 9 2 14.43 1.03
3 -9 2 18.51 1.32
-3 -9 -2 19.21 1.33
3 9 2 21.4 1.33
-3 9 -2 17.88 1.36
-5 -9 -2 4.48 0.59
-5 9 -2 4.76 0.64
-4 -10 2 4.5 0.63
4 -10 -2 3.9 0.49
-4 10 2 3.88 0.54
2 -10 -2 14.5 1.13
-2 -10 2 14.58 1.14
2 10 -2 16.16 1.14
-2 10 2 14.85 1.16
0 -10 -2 6.69 0.72
0 10 -2 7.6 0.74
0 10 2 6.69 0.7
2 -10 2 15.56 1.15
-2 -10 -2 15.3 1.15
2 10 2 15.22 1.14
-2 10 -2 15.78 1.19
-4 -10 -2 4.75 0.63
-4 10 -2 3.84 0.55
1 -11 -2 8.54 0.82
1 11 -2 7 0.8
-1 11 2 7.19 0.81
-1 -11 -2 6.93 0.78
1 -11 2 7.42 0.79
1 11 2 7.39 0.77
-1 11 -2 6.75 0.8
-8 0 3 40.28 2.46
-6 0 3 13.34 0.76
-6 0 3 9.95 0.75
-4 0 3 273.18 16.12
4 0 -3 272.56 16.03
4 0 -3 267.69 16.03
2 0 -3 44.63 2.69
2 0 -3 48.7 2.69
-2 0 3 41.93 2.69
0 0 -3 222.91 13.65
0 0 3 226.98 13.66
0 0 3 236.02 13.65
-2 0 -3 42.67 2.45
2 0 3 45.34 2.46
2 0 3 39.79 2.44
-2 0 -3 37.4 2.46
4 0 3 224.74 13.27
6 0 3 12.25 0.78
8 0 3 65.33 3.92
10 0 3 10.62 0.78
-7 -1 3 51.3 3.31
-7 1 3 59.13 3.31
-5 -1 3 61.91 3.66
-5 1 3 67.34 3.67
-5 1 3 55.19 3.66
-3 -1 3 122.21 6.57
3 1 -3 99.51 6.53
-3 1 3 117.21 6.51
-3 1 3 100.48 6.56
-1 -1 3 93.07 5.6
1 -1 -3 92.81 5.61
1 -1 -3 95.01 5.55
-1 -1 3 102.67 5.6
1 1 -3 82.62 5.59
-1 1 3 95.03 5.58
1 1 -3 92.01 5.58
-1 1 3 96.81 5.61
-1 -1 -3 97.19 5.41
1 -1 3 92.38 5.39
1 -1 3 80.62 5.39
-1 -1 -3 84.83 5.36
-1 1 -3 93.74 5.41
-1 1 -3 92.14 5.38
1 1 3 91.52 5.35
1 1 3 89.01 5.4
-3 -1 -3 110.28 5.96
-3 -1 -3 90.99 5.97
3 -1 3 105.77 5.95
-3 1 -3 100.82 6
3 1 3 95.3 5.95
-5 -1 -3 56.29 3.4
5 -1 3 56.09 3.43
-5 -1 -3 62.88 3.42
5 1 3 54 3.43
-5 1 -3 57.93 3.41
-5 1 -3 57.69 3.41
7 -1 3 53.99 3.34
7 1 3 55.07 3.34
-7 1 -3 57.49 3.3
9 -1 3 20.36 1.35
9 1 3 21.96 1.35
11 -1 3 10.7 0.84
11 1 3 11.24 0.84
-8 -2 3 15.75 0.98
-8 2 3 15.45 1
-6 -2 3 153.01 8.42
6 -2 -3 147.76 8.42
-6 -2 3 136.85 8.42
-6 2 3 130.95 8.42
4 -2 -3 1.57 0.2
-4 -2 3 2 0.17
-4 -2 3 2.53 0.2
4 2 -3 1.98 0.16
-4 2 3 1.94 0.19
2 -2 -3 319.31 19.26
-2 -2 3 302.58 19.22
-2 -2 3 362.85 19.33
-2 2 3 322.33 19.29
2 2 -3 313.55 19.21
0 -2 3 37.15 2.25
0 -2 -3 39.09 2.25
0 2 3 36.56 2.25
-2 -2 -3 320.17 18.91
2 -2 3 309.67 18.93
-2 -2 -3 317.48 18.9
-2 2 -3 310.35 18.91
-2 2 -3 305.24 18.91
2 2 3 316.61 18.84
2 2 3 349.38 18.93
-4 -2 -3 2.27 0.17
4 -2 3 2.17 0.19
-4 -2 -3 1.83 0.16
4 -2 3 2.08 0.15
-4 2 -3 2 0.17
-4 2 -3 1.8 0.18
-6 -2 -3 142.79 8.18
-6 -2 -3 139.04 8.17
6 -2 3 140.21 8.19
6 2 3 134.51 8.19
-6 2 -3 138.59 8.18
-6 2 -3 133.94 8.18
8 -2 3 14.88 0.98
8 2 3 15.54 0.98
-8 2 -3 14.86 0.95
10 -2 3 21.8 1.4
10 2 3 21.57 1.41
-9 3 3 30.27 1.88
-7 -3 3 22.44 1.42
-7 3 3 23.77 1.44
5 -3 -3 105.96 6.1
-5 -3 3 107.2 6.12
5 -3 -3 94.44 6.12
-5 3 3 104.29 6.13
3 -3 -3 47.15 2.86
-3 -3 3 46.62 2.86
3 3 -3 49.41 2.86
-3 3 3 47.68 2.87
-1 -3 3 102.74 6.09
1 -3 -3 106.04 6.09
1 3 -3 103.15 6.09
-1 3 3 98.56 6.09
1 -3 3 107.84 6.14
-1 -3 -3 102.41 6.18
1 3 3 98.22 6.11
-1 3 -3 109.25 6.2
1 3 3 99.5 6.13
-3 -3 -3 49.52 2.9
3 -3 3 46.85 2.9
3 3 3 47.49 2.88
3 3 3 49.7 2.9
-3 3 -3 48.92 2.91
-5 -3 -3 108.16 6.04
5 -3 3 96.43 6.03
5 -3 3 104.04 6.02
-5 -3 -3 105.77 6.03
5 3 3 97.32 6.03
-5 3 -3 98.28 6.05
-7 -3 -3 22.19 1.39
7 -3 3 22.8 1.42
-7 3 -3 24.5 1.43
7 3 3 21.98 1.42
9 -3 3 30.18 1.79
9 3 3 27.08 1.78
-8 -4 3 48.01 2.95
-8 4 3 49.78 2.98
-6 -4 3 9.98 0.69
6 -4 -3 10.88 0.67
-6 4 3 10.04 0.71
4 -4 -3 172.18 10.34
-4 -4 3 171.09 10.35
-4 4 3 175.38 10.36
4 4 -3 179.86 10.34
-2 -4 3 2.17 0.22
2 -4 -3 2.08 0.22
-2 4 3 2.14 0.24
2 4 -3 1.97 0.22
0 -4 3 264.38 15.97
0 -4 -3 269.25 15.88
0 4 -3 258.83 15.94
0 4 3 277.6 16.03
2 -4 3 1.8 0.21
-2 -4 -3 1.97 0.21
2 4 3 2.1 0.15
-2 4 -3 1.79 0.22
2 4 3 2.03 0.21
4 -4 3 177.79 10.31
4 -4 3 172.15 10.29
4 4 3 162.46 10.29
-4 4 -3 163.57 10.32
4 4 3 194.49 10.3
-6 -4 -3 10.39 0.67
6 -4 3 9.88 0.66
-6 4 -3 10.12 0.7
6 4 3 10.01 0.67
8 -4 3 48.52 2.98
-8 -4 -3 47.56 2.96
-8 4 -3 52.57 3
8 4 3 48.39 2.98
10 -4 3 6.24 0.58
-9 -5 3 7.59 0.66
-9 5 3 6.79 0.62
-7 -5 3 56.35 3.2
-7 5 3 48.97 3.21
-5 -5 3 19.92 1.33
5 -5 -3 22.28 1.33
5 5 -3 21.16 1.31
-5 5 3 20.99 1.36
-3 -5 3 108.71 6.24
3 -5 -3 102.21 6.23
3 5 -3 103.89 6.24
-3 5 3 103.79 6.26
-1 -5 3 57.86 3.61
1 -5 -3 60.65 3.61
1 5 -3 59.66 3.62
-1 5 3 62.24 3.63
-1 -5 -3 59.91 3.57
1 -5 3 61.66 3.57
-1 5 -3 56.11 3.57
1 5 3 59.38 3.57
3 -5 3 114.75 6.28
-3 -5 -3 104.08 6.27
-3 5 -3 96.66 6.28
3 5 3 105.56 6.27
5 -5 3 22.44 1.34
5 -5 3 20.16 1.31
-5 5 -3 22.76 1.38
5 5 3 20.34 1.31
-7 -5 -3 56.19 3.2
7 -5 3 51.41 3.18
-7 5 -3 50.99 3.22
9 -5 3 6.76 0.58
-9 5 -3 7.02 0.6
-8 -6 3 6.25 0.54
-8 6 3 5.62 0.58
-6 -6 3 62.2 3.99
-6 6 3 69.95 4.02
4 -6 -3 11.52 0.74
-4 -6 3 9.98 0.74
4 6 -3 9.69 0.72
-4 6 3 10.97 0.78
2 -6 -3 138.87 8.39
-2 -6 3 137.71 8.39
2 6 -3 144.87 8.4
-2 6 3 142.3 8.41
0 -6 -3 13.27 0.9
0 -6 3 13.5 0.9
0 6 3 14.28 0.92
0 6 -3 13.06 0.91
-2 -6 -3 138.4 8.23
2 -6 3 141.06 8.23
-2 6 -3 144.48 8.25
2 6 3 129.01 8.22
-4 -6 -3 10.26 0.72
4 -6 3 9.95 0.65
4 -6 3 10.66 0.71
4 6 3 10.29 0.7
-4 6 -3 9.39 0.74
-6 -6 -3 65.2 3.79
6 -6 3 61.14 3.75
-6 6 -3 61.76 3.82
-8 -6 -3 5.19 0.49
8 -6 3 6.2 0.49
-8 6 -3 6.06 0.57
-7 -7 3 7.01 0.62
-7 7 3 6.73 0.66
-5 -7 3 50.95 3.17
5 -7 -3 54.07 3.16
-5 7 3 50.2 3.2
3 -7 -3 23.17 1.5
-3 -7 3 22.42 1.5
-3 7 3 24.22 1.54
3 7 -3 23.66 1.51
-1 -7 3 58.55 3.76
1 -7 -3 62.28 3.77
-1 7 3 64.02 3.79
1 7 -3 63.52 3.78
-1 -7 -3 61.62 3.59
1 -7 3 59.45 3.59
1 7 3 56.32 3.59
-1 7 -3 58.61 3.6
3 -7 3 23.43 1.44
-3 -7 -3 23.48 1.53
3 7 3 26.42 1.53
-3 7 -3 22.18 1.54
-5 -7 -3 52.27 3.27
5 -7 3 53.15 3.2
5 -7 3 52.63 3.26
-5 7 -3 56.19 3.3
7 -7 3 6.94 0.5
-7 -7 -3 6.24 0.58
-7 7 -3 6.41 0.64
-6 -8 3 5.11 0.57
-6 8 3 5.61 0.64
4 -8 -3 51.32 3.02
-4 -8 3 47.76 3.02
4 8 -3 48.05 3.01
-4 8 3 48.31 3.05
-2 -8 3 14.87 1.04
2 -8 -3 14.5 1.03
2 8 -3 15.02 1.04
-2 8 3 14.49 1.06
0 -8 3 66.13 4.13
0 -8 -3 69.7 4.14
0 8 -3 66.29 4.15
0 8 3 69.82 4.15
-2 -8 -3 14.27 1.05
-2 8 -3 16.66 1.09
2 8 3 14.15 1.03
-4 -8 -3 51.26 3
4 -8 3 47.64 2.98
-4 8 -3 46.4 3.02
-6 -8 -3 5.79 0.59
-6 8 -3 5.37 0.62
-5 -9 3 7.19 0.69
-5 9 3 7.04 0.76
-3 -9 3 28.2 1.93
3 -9 -3 29.1 1.93
3 9 -3 31.93 1.94
-3 9 3 30.04 1.96
-1 -9 3 20.91 1.47
1 -9 -3 21.78 1.47
-1 9 3 23.32 1.5
1 9 -3 21.04 1.48
-1 -9 -3 22.39 1.52
1 -9 3 21.95 1.52
1 9 3 23.47 1.53
-1 9 -3 23.22 1.56
3 -9 3 28.76 1.94
-3 -9 -3 31 1.96
-3 9 -3 30.61 1.99
3 9 3 29.94 1.93
-5 -9 -3 6.77 0.69
-5 9 -3 7.21 0.74
4 -10 -3 6.95 0.7
-4 -10 3 6.35 0.69
-4 10 3 6.55 0.77
2 -10 -3 22.06 1.57
-2 -10 3 23.59 1.58
2 10 -3 24.61 1.6
-2 10 3 21.9 1.59
0 -10 -3 11.8 0.97
0 10 -3 12.43 1
0 10 3 11.87 0.98
2 -10 3 23.54 1.61
-2 -10 -3 24.87 1.62
2 10 3 22.1 1.59
-2 10 -3 24.2 1.66
-4 -10 -3 6.07 0.7
-4 10 -3 6.99 0.79
1 -11 -3 11.42 0.96
1 11 -3 10.89 0.99
-1 11 3 11.65 1
1 -11 3 12 1
-1 -11 -3 12.23 1.02
1 11 3 11.98 1.01
-1 11 -3 11.93 1.08
-8 0 4 0.71 0.18
-6 0 4 0.26 0.14
-6 0 4 0.41 0.13
2 0 -4 3.56 0.26
-2 0 4 3.6 0.28
-2 0 4 3.23 0.27
0 0 4 4.53 0.33
0 0 -4 4.55 0.32
-2 0 -4 3.82 0.26
2 0 4 3.72 0.25
2 0 4 3.62 0.25
4 0 4 0.14 0.09
-4 0 -4 0.31 0.07
-4 0 -4 0.1 0.08
-6 0 -4 0.48 0.09
6 0 4 0.5 0.14
-6 0 -4 0.37 0.08
8 0 4 0.61 0.2
10 0 4 0.26 0.24
-9 1 4 0.4 0.18
-7 -1 4 0.44 0.15
-7 1 4 0.53 0.15
-5 -1 4 0.35 0.1
-5 -1 4 -0.02 0.1
-5 1 4 0.54 0.12
-5 1 4 0.35 0.1
-3 -1 4 1.18 0.13
3 -1 -4 0.71 0.12
-3 1 4 1.12 0.14
-3 1 4 1.16 0.14
3 1 -4 1.02 0.12
1 -1 -4 7.05 0.48
-1 -1 4 7.13 0.48
-1 -1 4 7.6 0.47
-1 1 4 7.02 0.47
1 1 -4 7.33 0.47
-1 -1 -4 6.34 0.44
-1 -1 -4 7.62 0.46
1 -1 4 6.69 0.44
-1 1 -4 7.95 0.46
-1 1 -4 7.07 0.44
1 1 4 6.16 0.45
-3 -1 -4 0.87 0.11
3 -1 4 1 0.1
-3 -1 -4 1.03 0.14
3 1 4 1.01 0.11
3 1 4 0.99 0.09
-3 1 -4 1.46 0.14
-3 1 -4 1.17 0.11
-5 -1 -4 0.25 0.09
-5 -1 -4 0.4 0.08
5 -1 4 0.31 0.11
5 1 4 0.58 0.12
-5 1 -4 0.57 0.09
-5 1 -4 0.32 0.07
7 -1 4 0.49 0.17
-7 -1 -4 0.64 0.11
-7 1 -4 0.41 0.1
7 1 4 0.53 0.17
9 -1 4 0.13 0.21
9 1 4 0.26 0.22
-8 -2 4 0.29 0.14
-8 2 4 0.23 0.16
-6 -2 4 1.14 0.17
-6 2 4 0.82 0.15
4 -2 -4 0.21 0.11
-4 -2 4 0.18 0.1
-4 2 4 0.18 0.09
4 2 -4 0.16 0.07
-2 -2 4 1.31 0.16
2 -2 -4 1.01 0.15
-2 2 4 0.99 0.14
2 2 -4 0.89 0.13
0 -2 -4 3.77 0.26
0 -2 4 3.6 0.26
0 2 -4 3.53 0.26
0 2 4 3.58 0.26
-2 -2 -4 1.16 0.14
-2 -2 -4 0.89 0.12
2 -2 4 1.03 0.13
2 2 4 1.08 0.13
-2 2 -4 1.17 0.14
2 2 4 1.03 0.1
4 -2 4 0.09 0.09
-4 -2 -4 0.26 0.08
-4 -2 -4 0.11 0.06
-4 2 -4 0.2 0.07
4 2 4 0.16 0.08
-4 2 -4 0.11 0.08
6 -2 4 0.67 0.16
-6 -2 -4 0.8 0.12
-6 -2 -4 0.76 0.11
-6 2 -4 0.8 0.13
6 2 4 0.88 0.17
8 -2 4 0.06 0.18
-8 2 -4 0.15 0.12
8 2 4 0.23 0.19
10 -2 4 0.05 0.25
10 2 4 0.16 0.25
-9 3 4 0.16 0.19
-7 -3 4 0.41 0.15
-7 3 4 0.56 0.17
-5 -3 4 0.17 0.12
5 -3 -4 0.28 0.13
5 3 -4 0.23 0.09
-5 3 4 0.31 0.13
-3 -3 4 0.18 0.1
3 -3 -4 0.03 0.09
-3 3 4 0 0.08
3 3 -4 0 0.08
1 -3 -4 1.04 0.13
-1 -3 4 1.09 0.14
1 3 -4 0.83 0.12
-1 3 4 0.89 0.13
1 -3 4 0.93 0.13
-1 -3 -4 0.99 0.13
-1 3 -4 0.64 0.11
1 3 4 1.23 0.15
1 3 4 0.93 0.08
3 -3 4 0.04 0.08
-3 -3 -4 0.08 0.08
3 3 4 0.1 0.08
3 3 4 0.03 0.07
-3 3 -4 0 0.09
5 -3 4 0.1 0.12
-5 -3 -4 0.12 0.09
5 -3 4 0.22 0.08
-5 -3 -4 0.23 0.1
-5 3 -4 0.15 0.1
5 3 4 0.27 0.11
7 -3 4 0.28 0.16
-7 -3 -4 0.35 0.11
-7 3 -4 0.35 0.14
7 3 4 0.4 0.17
9 -3 4 0.14 0.22
9 3 4 0.07 0.22
-8 -4 4 0.32 0.18
-8 4 4 0.47 0.21
-6 -4 4 0.12 0.14
-6 4 4 0.28 0.16
-4 -4 4 0.55 0.15
4 -4 -4 0.33 0.14
4 4 -4 0.41 0.13
-4 4 4 0.56 0.15
2 -4 -4 0.12 0.1
-2 -4 4 0.21 0.1
-2 4 4 0.23 0.04
2 4 -4 0.12 0.11
-2 4 4 0.14 0.11
0 -4 4 0.24 0.11
0 -4 -4 0.2 0.11
0 4 4 0.15 0.1
0 4 -4 0.17 0.11
2 -4 4 0.14 0.1
-2 -4 -4 0.09 0.1
-2 4 -4 0.14 0.1
2 4 4 0.14 0.1
2 4 4 0.23 0.06
4 -4 4 0.53 0.11
-4 -4 -4 0.45 0.13
4 4 4 0.47 0.12
4 4 4 0.33 0.11
-4 4 -4 0.37 0.14
6 -4 4 0.12 0.13
-6 -4 -4 0.15 0.12
-6 4 -4 0.16 0.15
6 4 4 0.3 0.15
-8 -4 -4 0.29 0.14
8 -4 4 0.4 0.21
-8 4 -4 0.31 0.18
8 4 4 0.45 0.21
10 -4 4 0.01 0.24
10 4 4 0.14 0.25
-9 -5 4 0.09 0.19
-9 5 4 0.11 0.24
-7 -5 4 0.35 0.19
-7 5 4 0.21 0.21
5 -5 -4 0.38 0.16
-5 -5 4 0.28 0.16
-5 5 4 0.31 0.18
5 5 -4 0.28 0.14
-3 -5 4 0.13 0.14
3 -5 -4 0.32 0.14
-3 5 4 0.2 0.16
3 5 -4 0.23 0.14
-1 -5 4 0.25 0.13
1 -5 -4 0.42 0.15
1 5 -4 0.24 0.14
-1 5 4 0.32 0.14
1 -5 4 0.44 0.14
-1 -5 -4 0.28 0.14
-1 5 -4 0.27 0.15
1 5 4 0.43 0.14
-3 -5 -4 0.21 0.14
3 -5 4 0.24 0.13
3 5 4 0.25 0.09
-3 5 -4 0.12 0.15
3 5 4 0.22 0.13
-5 -5 -4 0.32 0.15
5 -5 4 0.38 0.14
5 -5 4 0.22 0.14
-5 5 -4 0.27 0.17
5 5 4 0.2 0.12
7 -5 4 0.26 0.18
-7 -5 -4 0.2 0.17
7 5 4 0.31 0.18
-7 5 -4 0.04 0.18
9 -5 4 0.12 0.22
-9 5 -4 -0.09 0.21
-8 -6 4 0.17 0.21
-8 6 4 0.17 0.25
-6 -6 4 0.42 0.21
-6 6 4 0.16 0.23
4 -6 -4 0.32 0.17
-4 -6 4 0.15 0.18
4 6 -4 0.13 0.15
-4 6 4 0.06 0.19
2 -6 -4 0.77 0.2
-2 -6 4 0.5 0.18
2 6 -4 0.54 0.19
-2 6 4 1 0.23
0 -6 -4 0.18 0.16
0 -6 4 0.13 0.15
0 6 4 0.22 0.16
0 6 -4 0.32 0.18
-2 -6 -4 0.83 0.21
2 -6 4 0.77 0.19
2 6 4 0.66 0.19
-2 6 -4 0.56 0.2
4 -6 4 0.3 0.12
-4 -6 -4 0.13 0.17
-4 6 -4 0.23 0.18
4 6 4 0.24 0.15
6 -6 4 0.22 0.16
-6 -6 -4 0.29 0.2
-6 6 -4 0.31 0.22
-8 -6 -4 0.11 0.2
8 -6 4 0.26 0.2
-8 6 -4 0.1 0.22
-7 -7 4 0.21 0.25
-7 7 4 -0.04 0.25
5 -7 -4 0.19 0.21
-5 -7 4 0.1 0.22
-5 7 4 0.18 0.25
3 -7 -4 0.51 0.22
-3 -7 4 0.35 0.21
-3 7 4 0.5 0.23
3 7 -4 0.27 0.2
-1 -7 4 0.51 0.21
1 -7 -4 0.66 0.23
-1 7 4 0.52 0.23
1 7 -4 0.6 0.23
1 -7 4 0.67 0.22
-1 -7 -4 0.52 0.22
-1 7 -4 0.44 0.22
1 7 4 0.78 0.22
3 -7 4 0.47 0.2
-3 -7 -4 0.41 0.21
-3 7 -4 0.2 0.21
3 7 4 0.47 0.18
5 -7 4 0.22 0.14
-5 -7 -4 0.13 0.21
-5 7 -4 0.45 0.24
7 -7 4 0.1 0.19
-7 -7 -4 -0.05 0.22
-7 7 -4 0.11 0.25
-6 -8 4 0.08 0.26
-6 8 4 0.05 0.29
-4 -8 4 0.5 0.26
4 -8 -4 0.29 0.25
4 8 -4 0.41 0.25
-4 8 4 0.19 0.28
2 -8 -4 0.16 0.23
-2 -8 4 0.24 0.23
2 8 -4 0.16 0.23
-2 8 4 0.13 0.25
0 -8 4 0.36 0.24
0 -8 -4 0.9 0.27
0 8 -4 0.75 0.27
0 8 4 0.8 0.27
2 -8 4 0.33 0.23
-2 -8 -4 0.16 0.23
2 8 4 0.22 0.22
-2 8 -4 0.3 0.25
4 -8 4 0.52 0.24
-4 -8 -4 0.08 0.24
-4 8 -4 0.31 0.27
-6 -8 -4 0.22 0.25
-6 8 -4 0.04 0.28
-5 -9 4 0.17 0.29
-5 9 4 0.15 0.31
-3 -9 4 0.26 0.28
3 -9 -4 0.14 0.27
-3 9 4 0.09 0.3
3 9 -4 0.21 0.28
1 -9 -4 0.3 0.27
-1 -9 4 0.28 0.26
-1 9 4 0.21 0.28
1 9 -4 0.17 0.29
1 -9 4 0.45 0.28
-1 -9 -4 0.22 0.27
1 9 4 0.22 0.26
-1 9 -4 0.24 0.29
-3 -9 -4 0.21 0.28
-3 9 -4 0.2 0.31
3 9 4 0.2 0.23
-5 -9 -4 0.33 0.28
-5 9 -4 0.13 0.3
-4 -10 4 0.23 0.32
4 -10 -4 -0.12 0.3
-4 10 4 -0.1 0.33
-2 -10 4 0.17 0.3
2 -10 -4 0.14 0.31
2 10 -4 0.35 0.33
-2 10 4 0.46 0.34
0 -10 4 -0.13 0.31
0 -10 -4 -0.01 0.3
0 10 -4 0.31 0.34
0 10 4 -0.08 0.31
-2 -10 -4 0.29 0.31
2 10 4 0.21 0.3
-2 10 -4 0.08 0.34
-4 -10 -4 -0.02 0.31
-4 10 -4 0.41 0.36
-8 0 5 58.91 3.58
-6 0 5 33.65 2.08
-4 0 5 451.11 29.17
4 0 -5 530.78 29.13
2 0 -5 95.92 6.2
-2 0 5 112.94 6.22
0 0 -5 926.34 57.09
0 0 5 1000 57.13
-2 0 -5 123.12 6.81
-2 0 -5 106.18 6.81
-4 0 -5 426.46 28.57
-4 0 -5 524.84 28.54
4 0 5 491.77 28.52
6 0 5 41.84 2.31
-6 0 -5 35.05 2.29
-6 0 -5 38.11 2.29
8 0 5 66.96 4.02
10 0 5 11.68 0.86
-9 -1 5 23.89 1.41
-9 1 5 19.97 1.42
-7 -1 5 46.09 2.81
5 -1 -5 159.17 9.1
-5 1 5 156.59 9.12
5 1 -5 145.44 9.11
3 1 -5 346.08 20.56
1 -1 -5 457.5 30.27
-1 1 5 535.8 30.35
1 1 -5 536.15 30.28
-1 -1 -5 517.36 31.33
1 -1 5 538.21 31.32
-1 1 -5 527.33 31.41
-3 -1 -5 384.88 22.45
3 -1 5 389.86 22.41
3 1 5 334.66 22.38
-3 1 -5 422.05 22.59
-3 1 -5 376.81 22.43
3 1 5 361.42 22.37
5 -1 5 141.36 9.09
-5 -1 -5 156.67 9.14
-5 1 -5 166.98 9.1
-5 1 -5 147.44 9.08
5 1 5 155.63 9.09
7 -1 5 73 4.29
-7 1 -5 70.47 4.26
9 -1 5 23.19 1.49
9 1 5 23.5 1.49
-8 -2 5 20.08 1.3
-8 2 5 21.02 1.31
-6 -2 5 187.15 10.7
6 -2 -5 177.88 10.66
-6 2 5 175.87 10.68
-4 -2 5 70.56 3.89
4 2 -5 63.08 3.84
-4 2 5 60.45 3.86
-2 -2 5 804.43 45.99
2 -2 -5 781.83 45.94
2 2 -5 745.7 45.89
-2 2 5 766.12 45.92
0 -2 -5 128.07 8.05
0 -2 5 134.39 8.12
0 2 5 144.17 8.16
0 2 -5 138.06 8.11
2 2 5 733.67 46.3
2 2 5 775.58 46.14
-2 2 -5 834.51 46.36
4 -2 5 69 3.9
-4 -2 -5 63.79 3.9
4 -2 5 66.93 3.9
-4 -2 -5 73.88 3.93
-4 2 -5 60.8 3.91
4 2 5 60.23 3.89
4 2 5 65.23 3.9
6 -2 5 159.73 9.79
-6 -2 -5 156.77 9.79
6 2 5 174.12 9.8
-6 2 -5 171.07 9.79
8 -2 5 18.93 1.27
8 2 5 19.76 1.28
-8 2 -5 20.76 1.24
10 -2 5 22.6 1.44
10 2 5 21.58 1.43
-9 -3 5 30.05 1.85
-9 3 5 29.41 1.87
-7 -3 5 34.23 2.05
-7 3 5 32.48 2.06
-5 -3 5 188.01 10.31
5 3 -5 180.21 10.28
-5 3 5 153.05 10.3
3 -3 -5 191.29 11.04
-3 -3 5 187.92 11.05
-3 3 5 200.32 11.18
3 3 -5 166.73 11.02
1 -3 -5 389.66 21.85
-1 -3 5 355.38 21.9
1 3 -5 368.42 21.85
-1 3 5 352.68 21.81
-1 -3 -5 362.15 21.81
1 -3 5 351.01 21.86
1 3 5 371.12 21.67
-1 3 -5 369.95 21.82
1 3 5 378.9 21.85
3 -3 5 196.46 11.33
-3 -3 -5 183.96 11.2
-3 3 -5 186.91 11.24
3 3 5 178.8 11.18
3 3 5 198.63 11.18
5 -3 5 164.78 9.28
-5 -3 -5 167.61 9.31
-5 -3 -5 147.93 9.29
5 -3 5 148.03 9.29
-5 3 -5 160.26 9.3
5 3 5 152.99 9.29
-7 -3 -5 33.82 2.11
7 -3 5 35.82 2.14
7 3 5 33.89 2.13
-7 3 -5 36.64 2.14
9 -3 5 29.69 1.84
9 3 5 28.78 1.83
-10 4 5 7.05 0.66
-8 -4 5 49.05 2.98
-8 4 5 48.72 2.99
-6 -4 5 24.88 1.58
-6 4 5 25.37 1.59
4 -4 -5 260.64 15.12
-4 -4 5 249.75 15.06
-4 4 5 257.64 15.06
4 4 -5 249.41 15.14
-2 -4 5 65.58 3.86
2 -4 -5 64.83 3.85
2 4 -5 60.93 3.85
-2 4 5 65.58 3.86
0 -4 -5 482.39 29.35
0 -4 5 504.67 29.45
0 4 -5 499.67 29.45
0 4 5 490.06 29.45
-2 -4 -5 66.95 3.97
2 -4 5 70.88 3.98
2 4 5 65.04 3.93
2 4 5 62.49 3.97
-2 4 -5 66.72 3.98
4 -4 5 250.02 15.23
-4 -4 -5 257.11 15.38
4 4 5 252.43 15.18
-4 4 -5 250.93 15.32
4 4 5 274.56 15.2
-6 -4 -5 25.01 1.51
6 -4 5 25.03 1.51
-6 4 -5 23.86 1.54
6 4 5 24.45 1.51
-8 -4 -5 47.31 2.93
8 -4 5 49.27 2.95
-8 4 -5 49.28 2.97
8 4 5 49.14 2.95
10 -4 5 6.69 0.6
10 4 5 6.63 0.61
-9 -5 5 8.34 0.67
-9 5 5 8.62 0.71
-7 -5 5 54.12 3.29
-7 5 5 53.96 3.31
-5 -5 5 39.9 2.59
5 -5 -5 42.39 2.58
-5 5 5 44.46 2.6
5 5 -5 42.35 2.57
-3 -5 5 156.83 9.39
3 -5 -5 147.99 9.37
-3 5 5 169 9.4
3 5 -5 157.65 9.38
-1 -5 5 147.03 8.85
1 -5 -5 156.43 8.84
1 5 -5 149.88 8.85
-1 5 5 141.79 8.84
1 -5 5 142.49 8.52
-1 -5 -5 144.93 8.52
1 5 5 132.28 8.52
-1 5 -5 153.66 8.54
-3 -5 -5 174.33 9.94
3 -5 5 164.11 9.94
3 5 5 178.01 9.94
3 5 5 168.07 9.89
-3 5 -5 152.95 9.95
5 -5 5 40.43 2.35
5 -5 5 37.48 2.33
-5 -5 -5 41.95 2.36
-5 5 -5 37.31 2.38
5 5 5 36.06 2.32
-7 -5 -5 54.57 3.29
7 -5 5 56 3.28
7 5 5 51.7 3.28
-7 5 -5 55.91 3.33
9 -5 5 8.84 0.69
-9 5 -5 8.7 0.7
9 5 5 8.6 0.69
-8 -6 5 7.08 0.63
-8 6 5 7.27 0.68
-6 -6 5 65.66 4.13
-6 6 5 70.76 4.15
-4 -6 5 23.96 1.66
4 -6 -5 26.64 1.65
4 6 -5 25.84 1.64
-4 6 5 28.25 1.68
2 -6 -5 188.31 11.17
-2 -6 5 179.61 11.18
2 6 -5 179.82 11.18
-2 6 5 205 11.2
0 -6 -5 40.82 2.55
0 -6 5 41.56 2.56
0 6 -5 40.71 2.56
0 6 5 43.45 2.56
2 -6 5 179.53 11.03
-2 -6 -5 195.39 11.03
2 6 5 185.29 11.03
-2 6 -5 182.68 11.05
4 -6 5 24.51 1.63
-4 -6 -5 27.26 1.64
-4 6 -5 24.47 1.66
4 6 5 27.82 1.63
-6 -6 -5 70.18 4.24
6 -6 5 71 4.2
6 6 5 67.15 4.2
-6 6 -5 72.89 4.27
8 -6 5 7.14 0.58
-8 -6 -5 7.45 0.59
-8 6 -5 7.37 0.66
-7 -7 5 9.31 0.77
-7 7 5 9.95 0.82
5 -7 -5 56.45 3.41
-5 -7 5 53.43 3.43
-5 7 5 57.98 3.45
-3 -7 5 34.88 2.36
3 -7 -5 41.84 2.36
3 7 -5 37.51 2.36
-3 7 5 37.42 2.38
1 -7 -5 82.06 4.83
-1 -7 5 82.16 4.84
1 7 -5 70.27 4.83
-1 7 5 85.63 4.84
-1 -7 -5 75.07 4.67
1 -7 5 78.1 4.68
1 7 5 81.93 4.69
-1 7 -5 74.91 4.69
3 -7 5 34.03 2.26
-3 -7 -5 37.71 2.27
3 7 5 38.87 2.27
-3 7 -5 35.12 2.29
5 -7 5 56.64 3.43
-5 -7 -5 57.38 3.49
-5 7 -5 57.68 3.52
7 -7 5 8.31 0.64
-7 -7 -5 9.47 0.71
-7 7 -5 8.91 0.77
-6 -8 5 6.47 0.69
-6 8 5 8.77 0.76
4 -8 -5 51.73 3.14
-4 -8 5 47.79 3.15
-4 8 5 56.14 3.19
4 8 -5 48.43 3.14
2 -8 -5 21.32 1.45
-2 -8 5 21.75 1.46
-2 8 5 22.82 1.48
2 8 -5 21.88 1.46
0 -8 -5 69.61 4.29
0 -8 5 70.79 4.3
0 8 -5 72.07 4.32
0 8 5 70.12 4.3
2 -8 5 19.74 1.34
-2 -8 -5 20.61 1.35
-2 8 -5 20.6 1.37
2 8 5 19.24 1.33
4 -8 5 49.65 2.96
-4 -8 -5 49.94 3.04
-4 8 -5 47.62 3.06
-6 -8 -5 7.45 0.68
-6 8 -5 7.84 0.75
-5 -9 5 9.39 0.82
-5 9 5 8.53 0.82
3 -9 -5 31.55 2.03
-3 -9 5 30.84 2.05
3 9 -5 29.7 2.04
-3 9 5 34.61 2.09
1 -9 -5 23.68 1.6
-1 -9 5 24.82 1.61
-1 9 5 23.15 1.61
1 9 -5 24.57 1.63
-1 -9 -5 24.69 1.64
1 -9 5 24.23 1.65
-1 9 -5 25.42 1.68
1 9 5 24.89 1.66
-3 -9 -5 31.65 2.08
-3 9 -5 31.94 2.11
3 9 5 33.45 2.18
-5 -9 -5 8.91 0.78
-5 9 -5 8.18 0.82
4 -10 -5 7.28 0.73
-4 -10 5 7.51 0.75
-4 10 5 6.84 0.81
2 -10 -5 22.95 1.53
-2 -10 5 22.43 1.55
2 10 -5 21.17 1.55
-2 10 5 22.04 1.55
0 -10 5 12.21 1
0 -10 -5 13.15 1
0 10 -5 13.08 1.06
0 10 5 11.9 1.01
-2 -10 -5 22.37 1.52
2 10 5 22.77 1.51
-2 10 -5 20.32 1.55
-4 -10 -5 7.14 0.73
-4 10 -5 6.77 0.78
-8 0 6 25.86 1.66
-6 0 6 14.66 1.08
6 0 -6 17.7 0.99
-4 0 6 166.47 10.77
4 0 -6 196.37 10.78
-2 0 6 43.8 2.34
2 0 -6 32.62 2.3
0 0 6 437.08 26.03
-2 0 -6 47.94 2.96
2 0 6 50.25 2.94
4 0 6 211.36 11.36
-4 0 -6 170.15 11.33
-4 0 -6 193.56 11.33
-6 0 -6 14.37 0.99
6 0 6 17.71 1.01
8 0 6 27.87 1.74
10 0 6 5.76 0.59
-9 -1 6 8.61 0.66
-9 1 6 8.28 0.68
-7 -1 6 19.22 1.25
5 -1 -6 52.4 3.14
-5 1 6 56.12 3.16
5 1 -6 48.66 3.12
3 -1 -6 101.77 6.65
-3 1 6 122.01 6.66
-1 -1 6 98.28 6.38
1 -1 -6 116.2 6.39
-1 -1 -6 146.25 8.01
1 -1 6 153.64 8.08
-1 1 -6 125.66 8.01
1 1 6 114.99 8.01
3 -1 6 120.56 6.98
-3 1 -6 120.64 6.98
3 1 6 129.93 6.95
3 1 6 98.77 6.95
5 -1 6 53.82 3.22
-5 -1 -6 51.66 3.22
-5 1 -6 56.69 3.22
5 1 6 52.87 3.22
7 -1 6 32.64 1.92
-7 -1 -6 27.95 1.9
7 1 6 31.88 1.91
-7 1 -6 32.68 1.89
9 -1 6 10.94 0.78
9 1 6 10.33 0.78
-8 -2 6 11.02 0.74
-8 2 6 9.7 0.74
6 -2 -6 63.39 3.98
-6 -2 6 68.11 4.02
-6 2 6 68.36 4
-4 -2 6 26.98 1.6
4 -2 -6 23.01 1.59
4 2 -6 26.18 1.55
-4 2 6 25.51 1.57
2 -2 -6 318.85 19.42
-2 -2 6 340.93 19.43
-2 2 6 305.2 19.44
2 2 -6 337.97 19.48
0 -2 -6 57.81 3.48
0 -2 6 57.13 3.49
0 2 6 61 3.49
0 2 -6 56.9 3.49
2 -2 6 313.61 18.09
-2 -2 -6 319.8 18.14
-2 2 -6 301.33 18.12
2 2 6 282.44 18.02
-4 -2 -6 31.36 1.72
-4 -2 -6 27.06 1.68
4 -2 6 25.16 1.67
4 2 6 27.65 1.68
-4 2 -6 28.26 1.7
-6 -2 -6 76.06 4.38
6 -2 6 71.69 4.38
-6 2 -6 71.29 4.39
6 2 6 74.86 4.39
8 -2 6 10.12 0.71
8 2 6 9.85 0.71
-8 2 -6 9.83 0.66
10 -2 6 9.14 0.75
10 2 6 9.3 0.74
-9 -3 6 13.14 0.92
-9 3 6 13.71 0.94
-7 -3 6 16.34 1.04
-7 3 6 14.86 1.03
-5 -3 6 71.16 3.94
-5 3 6 61.13 3.92
5 3 -6 63.79 3.9
3 -3 -6 61.45 3.85
-3 -3 6 71.52 3.87
-3 3 6 63.62 3.85
3 3 -6 60.14 3.83
1 -3 -6 123.86 7.26
-1 -3 6 134.35 7.28
1 3 -6 116.73 7.26
-1 3 6 114.08 7.26
1 -3 6 122.79 7.42
-1 -3 -6 123.89 7.41
-1 3 -6 120.47 7.43
1 3 6 132.9 7.43
3 -3 6 60.79 3.71
-3 -3 -6 67.99 3.71
3 3 6 60.73 3.71
3 3 6 61.21 3.68
-3 3 -6 59.28 3.72
5 -3 6 68.35 3.85
-5 -3 -6 61.21 3.85
5 3 6 67.9 3.85
-5 3 -6 60.96 3.87
7 -3 6 13.15 0.91
-7 -3 -6 14.1 0.88
-7 3 -6 13.5 0.9
7 3 6 14.69 0.91
9 -3 6 13.23 0.94
9 3 6 13.84 0.94
-10 4 6 3.34 0.42
-8 -4 6 23.19 1.51
-8 4 6 23.88 1.52
-6 -4 6 11.3 0.79
-6 4 6 11.21 0.8
-4 -4 6 101.92 6.29
4 -4 -6 108.88 6.29
-4 4 6 107.46 6.3
4 4 -6 103.21 6.28
-2 -4 6 27.89 1.73
2 -4 -6 29.29 1.71
2 4 -6 27.28 1.71
-2 4 6 26.8 1.72
0 -4 -6 202.27 11.72
0 -4 6 197.67 11.67
0 4 6 192.13 11.67
0 4 -6 195.47 11.67
2 -4 6 26.85 1.72
-2 -4 -6 28.74 1.72
-2 4 -6 28.21 1.73
2 4 6 27.28 1.68
2 4 6 29.33 1.73
-4 -4 -6 100.47 6.18
4 -4 6 108.21 6.19
4 4 6 103.16 6.19
4 4 6 103.72 6.16
-4 4 -6 104.13 6.2
6 -4 6 11.04 0.75
-6 -4 -6 11.12 0.74
6 4 6 11.92 0.75
-6 4 -6 11.28 0.78
-8 -4 -6 21.74 1.32
8 -4 6 18.34 1.34
8 4 6 22.15 1.35
-8 4 -6 21.83 1.36
10 -4 6 3.65 0.43
10 4 6 3.57 0.42
-9 -5 6 3.77 0.47
-9 5 6 3.86 0.52
-7 -5 6 27.12 1.64
-7 5 6 23.92 1.64
5 -5 -6 15.09 1.02
-5 -5 6 16.23 1.03
-5 5 6 13.79 1.03
5 5 -6 15.97 1
3 -5 -6 69.75 4.13
-3 -5 6 71.63 4.15
-3 5 6 63.89 4.14
3 5 -6 69.62 4.14
-1 -5 6 52.89 3.26
1 -5 -6 60.86 3.26
-1 5 6 49.69 3.26
1 5 -6 51.63 3.26
1 -5 6 53.61 3.19
-1 -5 -6 50.78 3.18
1 5 6 54.28 3.19
-1 5 -6 50.42 3.19
1 5 6 53.89 3.11
3 -5 6 70.78 4.09
-3 -5 -6 69.15 4.09
-3 5 -6 64.91 4.1
3 5 6 66.67 4.03
3 5 6 68.49 4.08
-5 -5 -6 16.01 0.98
5 -5 6 14.52 0.94
5 5 6 15.02 0.94
-5 5 -6 13.95 1
7 -5 6 23.09 1.5
-7 -5 -6 24.16 1.51
-7 5 -6 23.68 1.55
7 5 6 25.56 1.51
9 -5 6 3.42 0.39
-9 5 -6 3.89 0.47
9 5 6 3.76 0.41
-8 -6 6 3.81 0.49
-8 6 6 3.9 0.47
-6 -6 6 28.81 1.84
-6 6 6 28.79 1.86
4 -6 -6 12.09 0.83
-4 -6 6 11.27 0.85
-4 6 6 12.44 0.87
4 6 -6 11.56 0.83
-2 -6 6 74.22 4.48
2 -6 -6 70.49 4.46
2 6 -6 74.18 4.48
-2 6 6 77.6 4.48
0 -6 -6 18.92 1.23
0 -6 6 18.8 1.23
0 6 6 18.23 1.23
0 6 -6 19.55 1.25
2 -6 6 78.99 4.51
-2 -6 -6 75.28 4.5
2 6 6 72.66 4.5
-2 6 -6 72.07 4.52
-4 -6 -6 11.87 0.79
4 -6 6 11.1 0.78
-4 6 -6 10.17 0.82
4 6 6 11.34 0.71
4 6 6 11.28 0.77
-6 -6 -6 31.66 1.91
6 -6 6 28.74 1.87
-6 6 -6 29.55 1.95
6 6 6 32.1 1.87
8 -6 6 3.48 0.37
-8 -6 -6 3.71 0.41
8 6 6 4.19 0.4
-8 6 -6 3.47 0.49
-7 -7 6 4.1 0.54
-7 7 6 3.86 0.49
-5 -7 6 25.67 1.68
5 -7 -6 25.43 1.65
-5 7 6 25.6 1.69
-3 -7 6 15.86 1.07
3 -7 -6 15.91 1.04
-3 7 6 14.23 1.06
3 7 -6 14.49 1.05
1 -7 -6 33.39 2.14
-1 -7 6 34.67 2.16
-1 7 6 34.79 2.16
1 7 -6 34.11 2.16
1 -7 6 35.55 2.16
-1 -7 -6 35.89 2.15
-1 7 -6 31.35 2.16
1 7 6 34.54 2.16
-3 -7 -6 15.06 1.02
3 -7 6 14.84 1
-3 7 -6 14.59 1.05
3 7 6 13.93 1
-5 -7 -6 26.2 1.66
5 -7 6 25.92 1.59
-5 7 -6 25.28 1.7
7 -7 6 3.34 0.35
-7 -7 -6 4.09 0.46
-7 7 -6 3.26 0.45
-6 -8 6 3.71 0.49
-6 8 6 3.98 0.52
-4 -8 6 23.23 1.56
4 -8 -6 24.01 1.52
-4 8 6 23.36 1.56
4 8 -6 21.49 1.53
2 -8 -6 9.89 0.81
-2 -8 6 11.11 0.83
2 8 -6 9.59 0.81
-2 8 6 10.52 0.85
0 -8 -6 28.72 1.88
0 -8 6 28.93 1.89
0 8 -6 30.05 1.91
0 8 6 29.35 1.89
2 -8 6 9.74 0.8
-2 -8 -6 9.6 0.8
-2 8 -6 10.69 0.87
2 8 6 11.54 0.82
-4 -8 -6 22.83 1.48
4 -8 6 20.52 1.36
-4 8 -6 23.13 1.51
-6 -8 -6 3.79 0.5
-6 8 -6 3.35 0.47
-5 -9 6 3.86 0.51
-5 9 6 3.36 0.5
3 -9 -6 13.87 1.04
-3 -9 6 14.5 1.06
-3 9 6 13.09 1.07
3 9 -6 13.94 1.06
1 -9 -6 11.79 0.91
-1 -9 6 10.72 0.91
1 9 -6 10.85 0.92
-1 9 6 11.73 0.93
1 -9 6 10.57 0.9
-1 -9 -6 12.56 0.91
1 9 6 11.21 0.89
-1 9 -6 10.69 0.94
-3 -9 -6 13.21 1.04
3 -9 6 14.35 1.04
-3 9 -6 14.1 1.09
-5 -9 -6 4.14 0.56
-5 9 -6 3.92 0.53
-4 -10 6 3.38 0.5
4 -10 -6 3.78 0.5
-4 10 6 3.26 0.52
2 -10 -6 10 0.9
-2 -10 6 10.38 0.9
-2 10 6 9.76 0.94
2 10 -6 10.25 0.94
0 -10 -6 6.28 0.7
0 -10 6 6.07 0.72
0 10 6 6.4 0.71
0 10 -6 5.9 0.74
2 -10 6 9.62 0.9
-2 -10 -6 10.08 0.89
2 10 6 11.06 0.91
-2 10 -6 10.47 0.95
-4 -10 -6 3.75 0.5
-4 10 -6 3.17 0.51
-8 0 7 8.71 0.69
6 0 -7 4.19 0.3
-6 0 7 3.14 0.4
-4 0 7 50.53 3.44
4 0 -7 62.77 3.41
2 0 -7 11.25 0.83
-2 0 7 14.74 0.88
0 0 7 154.62 9.63
0 0 -7 169.96 9.71
2 0 7 15.5 1.04
-2 0 -7 17.92 1.07
4 0 7 62.62 3.63
4 0 7 61.07 3.61
-4 0 -7 58.91 3.66
-6 0 -7 3.1 0.3
-8 0 -7 11.49 0.74
8 0 7 10.82 0.79
10 0 7 1.68 0.33
-9 -1 7 2.34 0.35
-9 1 7 2.69 0.36
-7 -1 7 6.31 0.57
-7 1 7 7.71 0.58
5 -1 -7 13.41 0.92
-5 -1 7 13.06 0.95
-5 1 7 15.63 0.95
5 1 -7 14.63 0.89
3 -1 -7 33.22 2.21
-3 -1 7 36.56 2.24
3 1 -7 39.28 2.21
-3 1 7 36.37 2.22
1 -1 -7 37.46 2.64
1 1 -7 49.35 2.64
-1 -1 -7 48.72 2.78
1 -1 7 50.31 2.77
-1 1 -7 41.95 2.77
1 1 7 42.27 2.78
3 -1 7 37.36 2.17
-3 -1 -7 39.46 2.19
-3 1 -7 31.06 2.19
-5 -1 -7 13.29 0.98
-5 -1 -7 15.41 0.98
5 -1 7 15.72 0.96
-5 1 -7 16.15 0.98
5 1 7 15.82 0.96
-7 -1 -7 8.13 0.61
7 -1 7 9 0.64
7 1 7 8.78 0.63
-7 1 -7 9.46 0.61
9 -1 7 3.31 0.38
9 1 7 3.39 0.39
-8 -2 7 3.03 0.38
-8 2 7 2.91 0.39
-6 -2 7 20.54 1.38
-6 2 7 22.19 1.36
-4 -2 7 6.77 0.55
4 -2 -7 6.15 0.52
-4 2 7 7.48 0.51
4 2 -7 7.38 0.49
2 -2 -7 86.65 5.51
-2 -2 7 92.92 5.52
-2 2 7 89.35 5.49
2 2 -7 99.74 5.5
0 -2 7 19.84 1.25
0 -2 -7 19.89 1.24
0 2 7 20.56 1.25
0 2 -7 19.6 1.25
2 -2 7 92.66 5.57
-2 -2 -7 96.2 5.57
-2 2 -7 104.04 5.59
2 2 7 81.36 5.58
-4 -2 -7 7.77 0.52
4 -2 7 7.33 0.5
4 2 7 7.09 0.5
-4 2 -7 8.24 0.55
6 -2 7 21.86 1.39
-6 -2 -7 22.89 1.39
-6 2 -7 23.06 1.4
6 2 7 21.59 1.39
-8 -2 -7 2.6 0.32
8 -2 7 2.3 0.29
-8 2 -7 2.42 0.28
8 2 7 2.52 0.31
10 -2 7 3.8 0.45
10 2 7 4.29 0.46
-9 -3 7 4.65 0.48
-9 3 7 4.85 0.52
-7 -3 7 5.68 0.48
-7 3 7 4.67 0.46
-5 -3 7 21.12 1.2
5 -3 -7 14.8 1.17
5 3 -7 17.92 1.13
-5 3 7 18.37 1.16
3 -3 -7 22.3 1.42
-3 -3 7 23.08 1.43
-3 3 7 23.77 1.42
3 3 -7 21.09 1.4
1 -3 -7 41.8 2.33
-1 -3 7 37.43 2.34
-1 3 7 35.78 2.32
1 3 -7 38.1 2.33
1 -3 7 36.29 2.31
-1 -3 -7 39.01 2.3
1 3 7 37.13 2.31
-1 3 -7 39.77 2.32
-3 -3 -7 22.43 1.37
3 -3 7 22.67 1.38
3 3 7 20.8 1.39
3 3 7 22.11 1.35
-3 3 -7 23.4 1.4
5 -3 7 18.34 1.05
-5 -3 -7 16.79 1.06
5 -3 7 16.53 1.06
5 3 7 14.27 1.05
-5 3 -7 18.35 1.09
-7 -3 -7 5.35 0.4
7 -3 7 4.93 0.44
7 3 7 4.53 0.43
-7 3 -7 4.92 0.42
9 -3 7 4.85 0.47
9 3 7 4.75 0.47
-8 -4 7 8.79 0.68
-8 4 7 8.17 0.68
-6 -4 7 3.58 0.41
-6 4 7 3.84 0.42
-4 -4 7 32.86 2.06
4 -4 -7 32.9 2.06
4 4 -7 34.46 2.04
-4 4 7 32.44 2.05
2 -4 -7 7.35 0.56
-2 -4 7 8.36 0.58
2 4 -7 7.64 0.56
-2 4 7 7.86 0.57
0 -4 -7 64.55 3.71
0 -4 7 60.25 3.72
0 4 -7 58.63 3.72
0 4 7 63.41 3.72
-2 -4 -7 7.26 0.51
2 -4 7 7.76 0.53
-2 4 -7 7 0.54
2 4 7 7.23 0.46
2 4 7 7.26 0.53
4 -4 7 34.68 2
-4 -4 -7 35.05 2
4 4 7 30.86 2.01
-4 4 -7 29.75 2.01
4 4 7 33.15 1.97
-6 -4 -7 3.35 0.32
6 -4 7 3.18 0.34
6 4 7 3.51 0.33
-6 4 -7 3.47 0.37
-8 -4 -7 7.75 0.57
8 -4 7 7.75 0.62
8 4 7 7.6 0.61
-8 4 -7 7.95 0.62
-9 -5 7 1.41 0.31
-9 5 7 1.89 0.35
-7 -5 7 7.5 0.64
-7 5 7 7.18 0.64
-5 -5 7 6.43 0.56
5 -5 -7 6.65 0.54
5 5 -7 5.94 0.5
-5 5 7 5.88 0.54
-3 -5 7 17.38 1.16
3 -5 -7 17.68 1.15
-3 5 7 18.62 1.17
3 5 -7 17.09 1.15
1 -5 -7 15.28 1.02
-1 -5 7 16.61 1.05
1 5 -7 15.82 1.04
-1 5 7 15.06 1.04
1 -5 7 17.64 1.09
-1 -5 -7 15.04 1.06
-1 5 -7 16.41 1.09
1 5 7 16.38 0.99
1 5 7 17.6 1.08
-3 -5 -7 18.04 1.14
3 -5 7 16.77 1.14
-3 5 -7 18.11 1.17
3 5 7 17.67 1.14
3 5 7 18.21 1.08
-5 -5 -7 6.05 0.49
5 -5 7 5.89 0.46
5 -5 7 6.16 0.48
-5 5 -7 6.45 0.53
5 5 7 6 0.45
7 -5 7 7.63 0.57
-7 -5 -7 7.46 0.56
7 5 7 8.11 0.58
-7 5 -7 7 0.62
9 -5 7 1.2 0.3
-9 5 -7 1.47 0.31
9 5 7 1.78 0.31
-8 -6 7 1.53 0.33
-8 6 7 1.52 0.35
-6 -6 7 10.54 0.85
-6 6 7 11.62 0.87
4 -6 -7 3.65 0.41
-4 -6 7 3.13 0.43
-4 6 7 3.62 0.45
4 6 -7 3.64 0.41
2 -6 -7 23.65 1.48
-2 -6 7 22.48 1.5
2 6 -7 22.89 1.5
-2 6 7 23.51 1.5
0 -6 -7 4.45 0.44
0 -6 7 4.86 0.45
0 6 -7 4.07 0.46
0 6 7 4.98 0.46
-2 -6 -7 24.52 1.57
2 -6 7 24.74 1.58
-2 6 -7 24.73 1.6
2 6 7 25.06 1.57
2 6 7 24.48 1.48
-4 -6 -7 3.27 0.38
4 -6 7 3.58 0.38
4 6 7 3.42 0.29
4 6 7 3.67 0.37
-4 6 -7 3.39 0.44
-6 -6 -7 10.4 0.76
6 -6 7 9.4 0.72
6 6 7 10.61 0.71
-6 6 -7 11.42 0.82
8 -6 7 1.32 0.27
-8 -6 -7 1.4 0.26
-8 6 -7 1.43 0.34
8 6 7 1.57 0.28
-7 -7 7 1.96 0.36
-7 7 7 1.57 0.38
5 -7 -7 8.44 0.7
-5 -7 7 8.08 0.74
-5 7 7 8.57 0.74
3 -7 -7 6.07 0.54
-3 -7 7 5.78 0.58
3 7 -7 5.15 0.54
-3 7 7 4.97 0.57
-1 -7 7 8.59 0.75
1 -7 -7 10.86 0.76
-1 7 7 9.8 0.76
1 7 -7 10 0.78
1 -7 7 8.7 0.74
-1 -7 -7 10.04 0.74
1 7 7 9.25 0.73
-1 7 -7 9.73 0.77
3 -7 7 5.23 0.51
-3 -7 -7 5.22 0.51
3 7 7 5.56 0.51
-3 7 -7 5.29 0.57
5 -7 7 7.83 0.56
-5 -7 -7 7.4 0.65
-5 7 -7 7.96 0.72
-7 -7 -7 2.22 0.33
7 -7 7 1.72 0.28
-7 7 -7 2.14 0.39
-6 -8 7 1.57 0.37
-6 8 7 1.7 0.4
-4 -8 7 8.42 0.75
4 -8 -7 7.97 0.7
-4 8 7 7.32 0.75
4 8 -7 7.99 0.85
2 -8 -7 2.59 0.37
-2 -8 7 2.48 0.39
-2 8 7 2.76 0.42
2 8 -7 2.67 0.39
0 -8 7 9.86 0.86
0 -8 -7 10.86 0.85
0 8 7 11.15 0.86
0 8 -7 11.61 0.88
-2 -8 -7 3.04 0.41
2 -8 7 3.18 0.41
2 8 7 3.07 0.4
-2 8 -7 2.86 0.44
-4 -8 -7 8.35 0.72
4 -8 7 7.25 0.68
-4 8 -7 9.2 0.79
-6 -8 -7 1.64 0.33
6 -8 7 1.39 0.29
-6 8 -7 1.38 0.38
-5 -9 7 1.72 0.39
-5 9 7 1.67 0.42
-3 -9 7 4.34 0.63
3 -9 -7 4.4 0.6
3 9 -7 4.93 0.63
-3 9 7 4.68 0.64
-1 -9 7 4.52 0.62
1 -9 -7 3.84 0.56
1 9 -7 4.41 0.61
-1 9 7 4.34 0.58
1 -9 7 4.02 0.49
-1 -9 -7 3.95 0.54
-1 9 -7 2.84 0.47
1 9 7 4.19 0.56
3 -9 7 4.39 0.59
-3 -9 -7 4.4 0.59
-3 9 -7 4.63 0.64
-5 -9 -7 1.66 0.37
-5 9 -7 1.94 0.43
-2 -10 7 3.34 0.51
2 -10 -7 3.75 0.5
2 10 -7 3.95 0.54
-2 10 7 3.61 0.52
0 -10 -7 1.91 0.4
0 -10 7 1.3 0.38
0 10 -7 1.7 0.44
0 10 7 2.18 0.43
-2 -10 -7 3.92 0.52
2 -10 7 3.74 0.53
2 10 7 5.14 0.66
-2 10 -7 3.74 0.56
-8 0 8 40.39 2.53
6 0 -8 16.68 1.02
-6 0 8 12.6 1
-4 0 8 103.46 6.43
4 0 -8 110.79 6.39
2 0 -8 1.42 0.21
-2 0 8 2.42 0.28
0 0 -8 119.05 7.35
0 0 8 128.16 7.37
2 0 8 1.96 0.24
-2 0 -8 2.62 0.27
4 0 8 127.5 7.74
-4 0 -8 134.04 7.78
-6 0 -8 13.17 0.94
6 0 8 15.9 0.93
-8 0 -8 38.36 2.34
8 0 8 38.58 2.36
10 0 8 9.84 0.79
-9 -1 8 8.98 0.75
-7 -1 8 33.12 2.14
-7 1 8 34.87 2.15
-5 -1 8 36.84 2.3
-5 1 8 36.04 2.29
5 1 -8 38.08 2.25
3 -1 -8 42.24 2.82
-3 -1 8 48.52 2.86
-3 1 8 47.17 2.84
3 1 -8 48.42 2.82
-1 -1 8 26.29 1.89
1 -1 -8 30.98 1.91
1 1 -8 29.46 1.89
-1 1 8 35.56 1.91
-1 -1 -8 31.44 2.11
1 -1 8 35.65 2.1
1 1 8 35.76 2.12
-3 -1 -8 46.05 2.57
3 -1 8 44.59 2.53
-3 1 -8 35.28 2.56
5 -1 8 36.54 2.13
-5 -1 -8 29.39 2.16
5 1 8 39.05 2.14
-5 1 -8 36.19 2.17
7 -1 8 37.12 2.35
-7 -1 -8 39.72 2.36
-7 1 -8 38.57 2.35
7 1 8 38.71 2.35
9 -1 8 17.03 1.16
9 1 8 17.56 1.16
-10 2 8 12.77 0.98
-8 -2 8 10.57 0.85
-8 2 8 12.95 0.87
-4 -2 8 5.94 0.55
4 -2 -8 6.45 0.51
-4 2 8 6.76 0.51
4 2 -8 7.01 0.49
-2 -2 8 137.31 8.82
2 -2 -8 139.49 8.82
-2 2 8 151.97 8.81
2 2 -8 163.65 8.81
0 -2 -8 2.36 0.27
0 -2 8 2.69 0.28
0 2 -8 2.74 0.28
0 2 8 2.62 0.27
-2 -2 -8 145.13 9.07
2 -2 8 152.23 9.07
-2 2 -8 161.29 9.09
-4 -2 -8 6.82 0.52
4 -2 8 7.81 0.5
-4 2 -8 7.59 0.55
4 2 8 7.38 0.5
6 -2 8 72.55 4.65
-6 -2 -8 80.96 4.67
-6 2 -8 79.65 4.67
6 2 8 78.21 4.65
-8 -2 -8 11.4 0.88
8 -2 8 13.14 0.89
-8 2 -8 13.39 0.86
8 2 8 14.89 0.91
10 -2 8 14.64 1.07
10 2 8 15.42 1.08
-9 -3 8 21.1 1.35
-9 3 8 19.43 1.36
-7 -3 8 20.73 1.36
-7 3 8 20.77 1.35
-5 -3 8 58.14 3.57
5 -3 -8 52.11 3.55
-5 3 8 60.81 3.54
5 3 -8 62.6 3.52
-3 -3 8 32.4 1.95
3 -3 -8 30.87 1.93
3 3 -8 31.44 1.92
-3 3 8 29.68 1.91
1 -3 -8 47.41 2.87
-1 3 8 46.02 2.87
1 3 -8 48.77 2.88
1 -3 8 48.21 2.94
-1 -3 -8 45.3 2.93
-1 3 -8 49.83 2.95
1 3 8 51.15 2.95
-3 -3 -8 29.43 1.76
3 -3 8 29.06 1.76
3 3 8 24.89 1.77
-3 3 -8 30.1 1.79
3 3 8 29.8 1.73
5 -3 8 64.94 3.7
-5 -3 -8 59.87 3.71
5 3 8 59.96 3.7
-5 3 -8 62.45 3.73
-7 -3 -8 20.42 1.23
7 -3 8 19.89 1.24
7 3 8 18.4 1.23
-7 3 -8 18.49 1.24
9 -3 8 19.17 1.3
9 3 8 20.79 1.33
-8 -4 8 33.06 1.98
-8 4 8 28.8 1.96
-6 -4 8 13.26 0.9
-6 4 8 11.67 0.88
4 -4 -8 100.05 5.96
-4 -4 8 104.47 5.97
4 4 -8 92.03 5.93
-4 4 8 100.66 5.95
-2 -4 8 8.98 0.61
2 -4 -8 7.77 0.57
-2 4 8 7.77 0.58
2 4 -8 6.76 0.57
0 -4 8 138.72 8.16
0 -4 -8 131.98 8.13
0 4 8 133.79 8.14
0 4 -8 143.1 8.16
2 -4 8 7.85 0.56
-2 -4 -8 7.49 0.54
2 4 8 7.4 0.55
-2 4 -8 7.76 0.58
2 4 8 7.51 0.49
-4 -4 -8 100.5 5.56
4 -4 8 94.77 5.57
-4 4 -8 94.21 5.59
4 4 8 96.2 5.53
4 4 8 80.28 5.57
6 -4 8 13.04 0.83
-6 -4 -8 12.51 0.82
-6 4 -8 12.07 0.85
6 4 8 11.54 0.81
-8 -4 -8 32.59 1.94
8 -4 8 30.26 1.94
-8 4 -8 31.68 1.96
8 4 8 30.02 1.95
-9 -5 8 6.98 0.69
-9 5 8 7.27 0.69
-7 -5 8 36.34 2.22
-7 5 8 33.55 2.2
-5 -5 8 19.08 1.24
5 -5 -8 19.32 1.23
-5 5 8 16.41 1.22
5 5 -8 18.24 1.19
3 -5 -8 63.8 3.8
-3 -5 8 65.28 3.83
3 5 -8 61.52 3.81
-3 5 8 60.69 3.81
-1 -5 8 39.82 2.44
1 -5 -8 40.68 2.42
1 5 -8 40.14 2.43
-1 5 8 36.99 2.42
-1 -5 -8 38.79 2.35
1 -5 8 39.02 2.37
-1 5 -8 38.52 2.37
1 5 8 37.99 2.36
1 5 8 37.74 2.28
-3 -5 -8 57.31 3.68
3 -5 8 63.43 3.7
3 5 8 62.95 3.64
3 5 8 60.12 3.69
-3 5 -8 61.97 3.71
-5 -5 -8 17.19 1.12
5 5 8 17.54 1.09
-5 5 -8 17.45 1.16
-7 -5 -8 33.96 2.04
7 -5 8 32.34 2.03
7 5 8 33.9 2.03
-7 5 -8 31.46 2.08
9 -5 8 6.23 0.6
-9 5 -8 6.93 0.63
9 5 8 6.55 0.61
-8 -6 8 6.61 0.66
-8 6 8 6.27 0.67
-6 -6 8 41.04 2.53
-6 6 8 38.97 2.52
4 -6 -8 13.76 0.92
-4 -6 8 12.83 0.96
4 6 -8 12.94 0.92
-4 6 8 12.08 0.94
2 -6 -8 81.43 4.64
-2 -6 8 77.64 4.66
2 6 -8 73.77 4.65
-2 6 8 74.59 4.65
0 -6 8 16.06 1.1
0 -6 -8 16.48 1.08
0 6 8 15.35 1.09
0 6 -8 16.65 1.11
2 -6 8 78.22 4.9
-2 -6 -8 86.01 4.89
-2 6 -8 76.45 4.91
2 6 8 84.48 4.9
4 -6 8 12.85 0.87
-4 -6 -8 12.3 0.86
4 6 8 12.53 0.79
-4 6 -8 11.48 0.9
-6 -6 -8 37.78 2.35
6 -6 8 36.05 2.32
-6 6 -8 39.78 2.41
6 6 8 38.39 2.31
-8 -6 -8 6.8 0.57
8 -6 8 6.24 0.57
-8 6 -8 6.18 0.65
8 6 8 6.24 0.56
-7 -7 8 6.53 0.7
-7 7 8 6.45 0.7
5 -7 -8 36.86 2.26
-5 -7 8 35.7 2.28
-5 7 8 34.42 2.29
-3 -7 8 20.3 1.44
3 -7 -8 21.19 1.41
-3 7 8 22.32 1.45
3 7 -8 21.7 1.43
1 -7 -8 41 2.57
-1 -7 8 41.39 2.6
1 7 -8 41.92 2.61
-1 7 8 41.71 2.59
1 -7 8 39.78 2.57
-1 -7 -8 43.36 2.56
-1 7 -8 42.21 2.59
1 7 8 39.02 2.56
3 -7 8 20.41 1.37
-3 -7 -8 20.54 1.36
-3 7 -8 20.04 1.41
3 7 8 21.21 1.36
-5 -7 -8 33.09 2.11
5 -7 8 31.74 2.05
-5 7 -8 36.06 2.18
-7 -7 -8 6.4 0.6
7 -7 8 6.42 0.55
-7 7 -8 6.6 0.69
-6 -8 8 7.09 0.74
-6 8 8 6.21 0.74
-4 -8 8 35.24 2.21
4 -8 -8 32.13 2.15
-4 8 8 33.75 2.2
2 -8 -8 14.44 1.09
-2 -8 8 14.95 1.14
2 8 -8 16.71 1.14
-2 8 8 15.81 1.15
0 -8 -8 45.12 2.74
0 -8 8 44.85 2.77
0 8 8 41.46 2.75
0 8 -8 44.23 2.78
-2 -8 -8 14.25 1.07
2 -8 8 15.01 1.09
2 8 8 15.16 1.07
-2 8 -8 14.99 1.12
4 -8 8 32.22 2.03
-4 -8 -8 31.6 2.03
-4 8 -8 30.86 2.08
6 -8 8 6.27 0.55
-6 -8 -8 6.66 0.66
-6 8 -8 7.43 0.78
-5 -9 8 7.15 0.84
-5 9 8 7.84 0.81
3 -9 -8 19.25 1.46
-3 -9 8 24.26 1.56
-3 9 8 21.74 1.52
3 9 -8 20.69 1.49
-1 -9 8 18.69 1.34
1 -9 -8 17.94 1.29
1 9 -8 16.54 1.32
-1 9 8 20.02 1.34
-1 -9 -8 17.89 1.28
1 -9 8 17.82 1.29
1 9 8 18.49 1.3
-1 9 -8 18.08 1.33
-3 -9 -8 21.32 1.46
3 -9 8 21.44 1.46
-3 9 -8 20.74 1.53
-5 -9 -8 7.09 0.71
-5 9 -8 6.78 0.78
2 -10 -8 14.77 1.24
-2 -10 8 17.68 1.32
-2 10 8 18.48 1.34
2 10 -8 17.93 1.34
0 -10 8 10.67 0.95
0 -10 -8 10.65 0.9
0 10 -8 10.1 0.97
0 10 8 9.83 0.94
-2 -10 -8 15.49 1.23
2 -10 8 16.72 1.24
-2 10 -8 16.94 1.31
-10 0 9 0.6 0.46
-8 0 9 2.62 0.38
-6 0 9 2.07 0.32
4 0 -9 8.46 0.69
-4 0 9 11.9 0.77
2 0 -9 1.46 0.22
-2 0 9 2.51 0.32
0 0 -9 38.76 2.38
0 0 9 39.16 2.4
2 0 9 1.4 0.2
-4 0 -9 13.82 0.89
4 0 9 12.82 0.84
-6 0 -9 1.19 0.22
6 0 9 1.71 0.23
-8 0 -9 2.2 0.31
8 0 9 2.73 0.33
10 0 9 1.54 0.35
-9 -1 9 -0.06 0.28
-9 1 9 1.15 0.32
-7 -1 9 2.9 0.38
-7 1 9 2.2 0.35
-5 -1 9 4.39 0.46
-5 1 9 3.54 0.42
5 1 -9 4.72 0.38
3 -1 -9 10.51 0.74
-3 -1 9 12.09 0.8
3 1 -9 10.52 0.74
-3 1 9 10.42 0.77
1 -1 -9 9.12 0.6
-1 1 9 7.98 0.59
1 1 -9 6.3 0.56
-1 -1 -9 7.73 0.61
1 -1 9 7.59 0.58
-1 1 -9 7.76 0.61
1 1 9 9.67 0.61
-3 -1 -9 10.09 0.65
-3 1 -9 8.42 0.64
3 1 9 7.68 0.6
-5 -1 -9 3.76 0.39
5 -1 9 4.27 0.35
5 -1 9 4.56 0.3
-5 1 -9 3.12 0.38
5 1 9 3.89 0.35
-7 -1 -9 2.83 0.34
7 -1 9 2.6 0.32
-7 1 -9 3.33 0.34
7 1 9 3.18 0.34
9 -1 9 1.41 0.3
9 1 9 1.24 0.3
-8 -2 9 0.64 0.27
-8 2 9 1.15 0.28
-6 -2 9 3.88 0.48
-6 2 9 5.66 0.48
-4 -2 9 0.86 0.26
4 -2 -9 1.1 0.21
4 2 -9 1.78 0.24
-4 2 9 1.15 0.21
-2 -2 9 15.33 1.18
2 -2 -9 17.18 1.19
-2 2 9 18.59 1.17
2 2 -9 21.27 1.18
0 -2 -9 2.64 0.29
0 -2 9 2.21 0.29
0 2 -9 2.59 0.29
0 2 9 2.04 0.29
2 -2 9 21.12 1.24
-2 -2 -9 19.86 1.24
-2 2 -9 20.4 1.26
2 2 9 16.52 1.24
-4 -2 -9 1.48 0.22
4 -2 9 1.51 0.19
4 2 9 1.5 0.19
-4 2 -9 1.6 0.24
6 -2 9 5.25 0.45
-6 -2 -9 5.01 0.45
6 2 9 5.5 0.44
-6 2 -9 5.45 0.45
8 -2 9 1.09 0.26
-8 -2 -9 1.19 0.24
-8 2 -9 1.2 0.22
8 2 9 1.21 0.27
-9 -3 9 1.8 0.33
-9 3 9 1.79 0.34
-7 -3 9 1.15 0.27
-7 3 9 1.26 0.27
5 -3 -9 6.35 0.54
-5 -3 9 6.04 0.56
5 3 -9 6.12 0.49
-5 3 9 6.78 0.53
3 -3 -9 4.7 0.45
-3 -3 9 4.6 0.46
3 3 -9 4.81 0.41
-3 3 9 4.61 0.42
-1 3 9 10.33 0.74
1 3 -9 11.33 0.76
1 -3 9 10.97 0.78
-1 -3 -9 11.29 0.76
1 3 9 10.93 0.77
-1 3 -9 12.4 0.79
-3 -3 -9 5.05 0.4
3 -3 9 4.56 0.4
3 3 9 5.47 0.36
3 3 9 3.71 0.41
-3 3 -9 5.56 0.45
-5 -3 -9 6.28 0.5
5 -3 9 7.02 0.52
5 3 9 6.31 0.48
-5 3 -9 6.5 0.53
-7 -3 -9 1.44 0.23
7 -3 9 0.89 0.23
-7 3 -9 1.5 0.25
7 3 9 1.4 0.25
9 -3 9 1.66 0.32
9 3 9 1.64 0.33
-8 -4 9 2.6 0.37
-8 4 9 1.94 0.34
-6 -4 9 1.13 0.28
-6 4 9 0.91 0.25
4 -4 -9 7.19 0.62
-4 -4 9 8.37 0.65
4 4 -9 8.35 0.6
-4 4 9 7.5 0.6
-2 -4 9 1.64 0.26
2 -4 -9 1.28 0.23
2 4 -9 1.44 0.24
-2 4 9 1.76 0.25
0 -4 -9 12.65 0.85
0 -4 9 12.82 0.88
0 4 -9 13.07 0.88
0 4 9 12.07 0.85
-2 -4 -9 1.21 0.21
2 -4 9 1.73 0.24
-2 4 -9 1.55 0.25
2 4 9 1.69 0.16
2 4 9 1.74 0.24
4 -4 9 8.21 0.57
-4 -4 -9 8.12 0.57
-4 4 -9 8.09 0.62
4 4 9 6.06 0.56
4 4 9 8 0.53
-6 -4 -9 1.3 0.22
6 -4 9 1.21 0.23
-6 4 -9 0.99 0.24
6 4 9 1.22 0.22
8 -4 9 1.83 0.32
-8 -4 -9 2.46 0.34
-8 4 -9 2.07 0.31
8 4 9 2.44 0.33
-7 -5 9 4.62 0.56
-7 5 9 3.62 0.53
-5 -5 9 1.55 0.3
5 -5 -9 1.02 0.25
5 5 -9 0.94 0.23
-5 5 9 0.91 0.26
3 -5 -9 7.22 0.58
-3 -5 9 6.61 0.61
3 5 -9 6.82 0.58
-3 5 9 7.23 0.59
1 -5 -9 4.37 0.42
-1 -5 9 4.24 0.44
-1 5 9 4.08 0.44
1 5 -9 4.5 0.44
1 -5 9 4.46 0.45
-1 -5 -9 3.86 0.4
1 5 9 4.61 0.41
1 5 9 4.43 0.3
-1 5 -9 4.19 0.44
-3 -5 -9 6.62 0.53
3 -5 9 6.43 0.54
-3 5 -9 7.47 0.59
3 5 9 6.54 0.54
3 5 9 6.47 0.45
-5 -5 -9 1.16 0.22
5 5 9 1.24 0.2
-5 5 -9 1.34 0.28
-7 -5 -9 3.11 0.39
7 -5 9 2.6 0.34
-7 5 -9 3.19 0.39
7 5 9 3.31 0.34
-8 -6 9 0.47 0.31
-8 6 9 0.47 0.32
-6 -6 9 3.41 0.46
-6 6 9 3.58 0.45
4 -6 -9 1.22 0.28
-4 -6 9 1.19 0.3
4 6 -9 1.33 0.29
-4 6 9 1.13 0.29
2 -6 -9 5.89 0.54
-2 -6 9 6.72 0.59
-2 6 9 5.25 0.55
2 6 -9 5.29 0.56
0 -6 9 1.71 0.3
0 -6 -9 2.06 0.29
0 6 -9 1.76 0.3
0 6 9 1.55 0.28
-2 -6 -9 5.33 0.51
2 -6 9 6.13 0.55
-2 6 -9 5.67 0.55
2 6 9 5.78 0.52
4 -6 9 1.09 0.25
-4 -6 -9 1.09 0.24
4 6 9 1.18 0.18
-4 6 -9 0.9 0.28
6 -6 9 2.95 0.33
-6 -6 -9 3.64 0.42
6 6 9 3.29 0.33
-6 6 -9 2.63 0.4
8 -6 9 0.41 0.25
-8 -6 -9 0.75 0.26
-8 6 -9 0.57 0.3
8 6 9 0.65 0.26
-7 -7 9 0.5 0.32
-7 7 9 0.64 0.36
5 -7 -9 3.1 0.42
-5 -7 9 3.82 0.49
-5 7 9 2.85 0.44
3 -7 -9 1.58 0.31
-3 -7 9 1.3 0.33
-3 7 9 1.43 0.33
3 7 -9 1.45 0.34
1 -7 -9 3.58 0.44
-1 -7 9 2.22 0.38
1 7 -9 3.15 0.42
-1 7 9 2.68 0.38
-1 -7 -9 3.44 0.45
1 -7 9 3.09 0.41
-1 7 -9 2.69 0.41
1 7 9 2.84 0.37
3 -7 9 1.63 0.32
-3 -7 -9 1.32 0.29
3 7 9 1.25 0.27
-3 7 -9 1.74 0.36
-5 -7 -9 3.2 0.46
-5 7 -9 3.31 0.46
-7 -7 -9 0.64 0.27
7 -7 9 0.26 0.24
-7 7 -9 0.56 0.33
-6 -8 9 -0.01 0.33
-6 8 9 0.81 0.37
4 -8 -9 2.11 0.39
-4 -8 9 2.63 0.45
-4 8 9 2 0.42
2 -8 -9 1.53 0.32
-2 -8 9 1.65 0.39
-2 8 9 1.42 0.36
2 8 -9 1.4 0.35
0 -8 9 2.38 0.41
0 -8 -9 2.44 0.37
0 8 9 2.47 0.39
0 8 -9 2.41 0.43
-2 -8 -9 1.38 0.31
2 -8 9 1.5 0.35
-2 8 -9 1.29 0.38
2 8 9 1.27 0.32
-4 -8 -9 2.67 0.39
-4 8 -9 2.15 0.45
6 -8 9 0.46 0.23
-6 -8 -9 0.52 0.28
-6 8 -9 0.83 0.37
-3 -9 9 2.16 0.46
3 -9 -9 2.02 0.4
-3 9 9 1.75 0.43
3 9 -9 1.87 0.42
1 -9 -9 1.35 0.36
-1 -9 9 1.12 0.37
1 9 -9 1.26 0.38
-1 9 9 1.27 0.38
1 -9 9 1.1 0.38
-1 -9 -9 0.97 0.33
-1 9 -9 1.18 0.38
1 9 9 1.31 0.37
-3 -9 -9 1.87 0.39
3 -9 9 1.61 0.38
-3 9 -9 1.79 0.44
0 -10 -9 0.87 0.37
0 -10 9 1.45 0.42
0 10 9 1.22 0.39
0 10 -9 1.24 0.42
-8 0 10 23.33 1.56
-6 0 10 17.59 1.21
4 0 -10 59.13 3.6
-2 0 10 40.08 2.42
2 0 -10 37.48 2.39
0 0 -10 214.46 13.27
0 0 10 233.27 13.29
2 0 10 26.92 1.69
-4 0 -10 102.88 5.77
4 0 10 89.73 5.72
-6 0 -10 19.1 1.23
6 0 10 18.29 1.19
-8 0 -10 18.01 1.27
8 0 10 22.2 1.3
-9 -1 10 5.94 0.7
-9 1 10 9.11 0.74
-7 -1 10 23.95 1.45
-7 1 10 18.74 1.43
5 1 -10 44.21 2.48
-5 1 10 36.29 2.51
3 -1 -10 79.68 4.71
-3 -1 10 85.42 4.75
-3 1 10 69.86 4.73
-1 -1 10 76.25 4.32
-1 1 10 66.08 4.31
-1 -1 -10 74.41 4.76
1 1 10 85.35 4.76
-1 1 -10 76.95 4.76
-3 -1 -10 63.76 4.13
3 -1 10 70.27 4.09
-3 1 -10 72.13 4.14
3 1 10 66.24 4.1
-5 -1 -10 40.91 2.46
5 1 10 45.61 2.41
-5 1 -10 33.04 2.44
-7 -1 -10 25.95 1.54
7 -1 10 23.66 1.53
7 1 10 24.8 1.54
-7 1 -10 22.75 1.54
9 1 10 8.8 0.72
-8 -2 10 4.66 0.56
-6 -2 10 32.95 2.49
-6 2 10 46.69 2.5
4 -2 -10 24.9 1.5
-4 -2 10 21.02 1.54
4 2 -10 24.76 1.49
-4 2 10 22.89 1.51
2 -2 -10 102.64 7.04
-2 -2 10 104.93 7.05
2 2 -10 128.81 7.04
-2 2 10 134.27 7.05
0 -2 10 28.91 2.12
0 -2 -10 37.96 2.14
0 2 10 35.01 2.14
0 2 -10 35.23 2.14
2 -2 10 134.42 8.46
-2 -2 -10 149.71 8.48
2 2 10 142.39 8.48
4 -2 10 26.38 1.57
-4 -2 -10 23.56 1.59
4 2 10 26.85 1.55
-4 2 -10 24.32 1.61
-6 -2 -10 44.77 2.87
6 -2 10 46.34 2.83
6 2 10 47.56 2.83
-6 2 -10 48.08 2.86
-8 -2 -10 8.93 0.7
8 -2 10 9.25 0.72
8 2 10 10.32 0.73
-8 2 -10 9.57 0.7
-9 -3 10 9.31 0.79
-9 3 10 9.42 0.81
-7 -3 10 11.74 0.94
-7 3 10 13.53 0.94
5 -3 -10 41.51 2.69
5 3 -10 46.76 2.67
-5 3 10 42.61 2.69
3 -3 -10 47.75 3
-3 -3 10 44.45 3
3 3 -10 52.33 2.98
-3 3 10 50.1 2.98
-1 -3 10 84.97 5.08
1 -3 -10 83.81 5.07
-1 3 10 85.28 5.06
1 3 -10 82.93 5.07
1 -3 10 78.36 4.89
-1 -3 -10 81.18 4.88
-1 3 -10 86.68 4.91
1 3 10 79.11 4.89
-3 -3 -10 51.44 3.2
3 -3 10 52.3 3.21
3 3 10 56.65 3.17
-3 3 -10 51.33 3.23
-5 -3 -10 44.9 2.79
-5 3 -10 43.5 2.81
5 3 10 49.31 2.77
-7 -3 -10 14.41 0.99
7 -3 10 13.88 0.98
-7 3 -10 14.55 1
7 3 10 15.78 0.99
9 -3 10 10.03 0.79
9 3 10 10.46 0.8
-8 -4 10 16.67 1.17
-8 4 10 15.39 1.15
-6 -4 10 12.34 0.95
-6 4 10 12.65 0.92
4 -4 -10 56.92 3.8
-4 -4 10 66.84 3.83
-4 4 10 60.65 3.78
4 4 -10 64.7 3.78
-2 -4 10 26.66 1.66
2 -4 -10 26.38 1.63
-2 4 10 22.69 1.61
2 4 -10 26.8 1.64
0 -4 -10 104.77 6.09
0 -4 10 106.29 6.12
0 4 -10 98.58 6.11
0 4 10 97.44 6.09
2 -4 10 25.27 1.61
-2 -4 -10 25.49 1.6
2 4 10 25.92 1.54
2 4 10 24.1 1.61
-2 4 -10 26.4 1.64
4 -4 10 62.23 3.72
-4 -4 -10 62.15 3.72
4 4 10 63.67 3.68
-4 4 -10 65.85 3.76
4 4 10 53.73 3.72
6 -4 10 11.39 0.83
-6 -4 -10 12.7 0.85
-6 4 -10 11.83 0.89
6 4 10 12.93 0.83
8 -4 10 15.7 1.07
-8 -4 -10 16.16 1.08
8 4 10 16.12 1.09
-8 4 -10 15.14 1.09
-7 -5 10 18.06 1.23
-7 5 10 15.79 1.19
5 -5 -10 15.47 1.16
-5 -5 10 17.78 1.19
-5 5 10 16.7 1.15
3 -5 -10 47.14 2.86
-3 -5 10 45.36 2.88
-3 5 10 44.66 2.85
3 5 -10 47.73 2.85
1 -5 -10 46.96 2.92
-1 -5 10 47.19 2.95
1 5 -10 49.26 2.94
-1 5 10 47.25 2.92
1 -5 10 46.61 2.82
-1 -5 -10 44.03 2.79
-1 5 -10 46.99 2.82
1 5 10 47.61 2.71
1 5 10 42.47 2.79
3 -5 10 48.18 2.8
-3 -5 -10 43.37 2.78
3 5 10 46.95 2.72
-3 5 -10 44.41 2.82
3 5 10 44.33 2.79
-5 -5 -10 16.33 1.1
5 5 10 16.34 1.05
-5 5 -10 16.71 1.14
7 -5 10 14.79 1.09
-7 -5 -10 16.24 1.11
7 5 10 17.72 1.1
-7 5 -10 16.85 1.16
-6 -6 10 22.29 1.51
-6 6 10 21.2 1.48
-4 -6 10 13.61 1.01
4 -6 -10 12.65 0.96
-4 6 10 12.25 0.97
4 6 -10 13.65 0.98
-2 -6 10 51.12 3.19
2 -6 -10 50.67 3.15
-2 6 10 52.86 3.17
2 6 -10 50.59 3.17
0 -6 -10 20.06 1.34
0 -6 10 21.61 1.39
0 6 -10 20.66 1.38
0 6 10 19.76 1.35
2 -6 10 52.36 3.01
-2 -6 -10 45.84 2.96
-2 6 -10 51.54 3.02
2 6 10 44.4 2.97
-4 -6 -10 12.8 0.89
4 -6 10 12.41 0.9
-4 6 -10 12.91 0.95
4 6 10 12.08 0.81
6 -6 10 18.43 1.25
-6 -6 -10 19.2 1.28
-6 6 -10 19.02 1.35
6 6 10 20.79 1.24
-7 -7 10 4.76 0.67
-7 7 10 4.41 0.56
-5 -7 10 17.8 1.32
5 -7 -10 18.03 1.36
-5 7 10 17.89 1.29
-3 -7 10 17.56 1.22
3 -7 -10 15 1.16
3 7 -10 17.1 1.2
-3 7 10 16.37 1.18
1 -7 -10 27.29 1.76
-1 -7 10 28.79 1.81
1 7 -10 25.76 1.79
-1 7 10 27.1 1.78
1 -7 10 26.82 1.78
-1 -7 -10 29.43 1.75
-1 7 -10 25.18 1.79
1 7 10 26.81 1.75
3 -7 10 16.38 1.12
-3 -7 -10 15.37 1.09
3 7 10 15.15 1.09
-3 7 -10 15.77 1.17
-5 -7 -10 17.31 1.18
-5 7 -10 16.94 1.27
-7 -7 -10 4.01 0.53
7 -7 10 4.32 0.43
-7 7 -10 4.57 0.57
4 -8 -10 16.92 1.26
-4 -8 10 18.19 1.34
-4 8 10 17.51 1.31
2 -8 -10 9.94 0.87
-2 -8 10 10.72 0.93
-2 8 10 11.44 0.91
2 8 -10 10.4 0.91
0 -8 10 26.28 1.74
0 -8 -10 25.62 1.69
0 8 10 24.79 1.7
0 8 -10 25.27 1.75
2 -8 10 11.17 0.88
-2 -8 -10 9.18 0.82
-2 8 -10 10.14 0.92
2 8 10 9.3 0.8
-4 -8 -10 15.9 1.17
-4 8 -10 17.22 1.29
3 -9 -10 11.6 0.98
-3 -9 10 13.02 1.09
3 9 -10 10.78 1
-3 9 10 11.55 1.01
-1 -9 10 12.42 1.04
1 -9 -10 9.93 0.91
1 9 -10 10.22 0.94
-1 9 10 10.22 0.95
-1 -9 -10 9.24 0.86
1 -9 10 9.87 0.91
-1 9 -10 10.05 0.95
1 9 10 9.57 0.84
-3 -9 -10 10.66 0.93
3 -9 10 10.84 0.92
-3 9 -10 11.23 1.06
-8 0 11 18.79 1.32
-6 0 11 25.06 1.66
4 0 -11 77.21 4.67
-2 0 11 85.65 5.02
2 0 -11 80.1 4.99
0 0 -11 310.46 18.92
0 0 11 325.22 18.96
2 0 11 70.11 4.66
-2 0 -11 84.92 4.68
-4 0 -11 144.21 7.82
4 0 11 117.85 7.77
-6 0 -11 26.37 1.59
6 0 11 22.67 1.54
-8 0 -11 13.23 0.93
-9 -1 11 7.39 0.78
-9 1 11 8.97 0.78
-7 -1 11 23.58 1.48
-7 1 11 19.55 1.46
5 -1 -11 35.33 2.58
-5 -1 11 49.12 2.64
-5 1 11 38.93 2.62
5 1 -11 44.48 2.58
-3 -1 11 128.99 7.46
3 -1 -11 119.57 7.42
1 -1 -11 159.68 9.31
-1 -1 11 170.75 9.35
-1 1 11 138.32 9.32
-1 -1 -11 143.05 9.15
-1 1 -11 151.84 9.17
1 1 11 165.62 9.16
-3 -1 -11 98.3 6.15
3 -1 11 103.22 6.12
3 1 11 97.79 6.12
-3 1 -11 110.21 6.17
-5 -1 -11 47.38 2.76
-5 1 -11 39.29 2.76
5 1 11 47.81 2.71
7 -1 11 22.64 1.52
-7 -1 -11 27.28 1.55
7 1 11 24.25 1.53
-7 1 -11 21.95 1.54
9 -1 11 8.82 0.74
9 1 11 9.82 0.76
-8 -2 11 5.93 0.68
-8 2 11 7.94 0.69
-6 -2 11 40.88 2.67
-6 2 11 43.64 2.66
4 -2 -11 41.7 2.45
-4 -2 11 37.73 2.49
-4 2 11 37.09 2.46
4 2 -11 41.17 2.44
-2 -2 11 152.53 9.73
2 -2 -11 174.02 9.74
2 2 -11 144.84 9.7
-2 2 11 180.63 9.73
0 -2 11 57.37 3.62
0 2 -11 58.95 3.62
0 2 11 61.74 3.63
2 -2 11 152.69 10.2
-2 -2 -11 178.79 10.23
2 2 11 183.63 10.23
-4 -2 -11 36.71 2.36
4 -2 11 42.13 2.33
-4 2 -11 36.98 2.37
4 2 11 35.87 2.33
6 -2 11 44.11 2.83
6 2 11 51.63 2.85
-6 2 -11 44.9 2.88
-8 -2 -11 11.23 0.79
8 -2 11 10.77 0.8
-8 2 -11 10.29 0.79
8 2 11 10.65 0.8
-9 -3 11 8.69 0.8
-9 3 11 10.09 0.85
-7 -3 11 10 0.91
-7 3 11 13.92 0.94
5 -3 -11 52.61 3.14
-5 3 11 47.43 3.14
5 3 -11 53.51 3.14
3 -3 -11 48.03 3.31
-3 -3 11 48.06 3.31
3 3 -11 59.23 3.3
-3 3 11 59.84 3.3
1 -3 -11 104.72 6.37
-1 -3 11 99.98 6.38
1 3 -11 110.28 6.37
-1 3 11 109.52 6.37
1 -3 11 112.88 6.6
-1 -3 -11 111.12 6.59
-1 3 -11 113.64 6.61
1 3 11 102.57 6.6
-3 -3 -11 62.71 3.9
3 -3 11 67.5 3.9
-3 3 -11 61.64 3.92
3 3 11 65.79 3.91
-5 -3 -11 51.29 3.22
5 3 11 55.04 3.19
-5 3 -11 52.25 3.24
-7 -3 -11 13.76 1
7 -3 11 13.8 0.98
-7 3 -11 14.07 1
7 3 11 15.94 0.98
9 -3 11 10.83 0.83
9 3 11 10.78 0.85
-8 -4 11 15 1.09
-8 4 11 13.36 1.06
-6 -4 11 13.84 1.06
-6 4 11 14.34 1.02
-4 -4 11 62.92 3.62
4 -4 -11 55.99 3.59
-4 4 11 56.23 3.56
-2 -4 11 38.92 2.53
2 -4 -11 41.09 2.51
2 4 -11 42.72 2.52
-2 4 11 38.65 2.5
0 -4 11 128.56 7.56
0 -4 -11 118.97 7.53
0 4 -11 123.74 7.55
0 4 11 132.96 7.54
2 -4 11 41.1 2.46
-2 -4 -11 38.27 2.44
-2 4 -11 39.56 2.48
2 4 11 39.54 2.46
4 -4 11 71.84 4.18
-4 -4 -11 66.33 4.17
-4 4 -11 67.07 4.21
4 4 11 73.62 4.13
4 4 11 66.8 4.2
6 -4 11 13.52 0.98
-6 -4 -11 13.83 1
6 4 11 15.61 0.98
-6 4 -11 15.73 1.05
8 -4 11 15.65 1.05
-8 -4 -11 13.71 1.05
-8 4 -11 15.78 1.08
8 4 11 15.68 1.05
-7 -5 11 19.76 1.34
-7 5 11 17.05 1.28
5 -5 -11 15.09 1.17
-5 -5 11 18.11 1.21
-5 5 11 16.41 1.16
3 -5 -11 55.42 3.36
-3 -5 11 54.45 3.39
-3 5 11 50.29 3.34
3 5 -11 58.34 3.36
1 -5 -11 48.85 3
-1 -5 11 48.68 3.03
-1 5 11 49.35 3
1 5 -11 48.1 3.02
-1 -5 -11 48.64 3.05
1 -5 11 51.21 3.08
-1 5 -11 48.62 3.08
1 5 11 49.24 2.97
1 5 11 51.47 3.06
3 -5 11 57.9 3.22
-3 -5 -11 52.55 3.2
-3 5 -11 49.16 3.23
3 5 11 49.03 3.21
3 5 11 53.01 3.13
-5 -5 -11 18.32 1.21
-5 5 -11 16.94 1.25
5 5 11 18.96 1.15
7 -5 11 16.79 1.21
-7 -5 -11 18.71 1.23
7 5 11 18.63 1.21
-7 5 -11 18.77 1.28
-6 -6 11 21.59 1.47
-6 6 11 19.54 1.42
-4 -6 11 16.59 1.17
4 -6 -11 15.39 1.14
-4 6 11 15.04 1.13
4 6 -11 16.27 1.14
2 -6 -11 48.59 3.09
-2 -6 11 49.77 3.13
-2 6 11 47.99 3.09
2 6 -11 53.82 3.12
0 -6 -11 25.2 1.64
0 -6 11 25.13 1.68
0 6 11 24.21 1.64
0 6 -11 27.26 1.69
-2 -6 -11 49.17 3.13
2 -6 11 51.13 3.16
2 6 11 51.77 3.14
-2 6 -11 51.95 3.17
-4 -6 -11 14.77 1.06
4 -6 11 15.13 1.07
-4 6 -11 16.09 1.13
-6 -6 -11 19.02 1.33
6 -6 11 18.56 1.28
-6 6 -11 20.57 1.4
6 6 11 21.63 1.29
-5 -7 11 19.79 1.43
-5 7 11 19.7 1.41
3 -7 -11 16.22 1.15
-3 -7 11 15.35 1.18
-3 7 11 14.98 1.15
3 7 -11 16.07 1.18
-1 -7 11 26.94 1.8
1 -7 -11 25.64 1.74
-1 7 11 26.61 1.76
1 7 -11 28.01 1.81
-1 -7 -11 26.5 1.75
1 -7 11 27.84 1.8
1 7 11 26 1.75
-1 7 -11 27.5 1.81
3 -7 11 15.02 1.12
-3 -7 -11 15.34 1.11
-3 7 -11 16.57 1.18
-5 -7 -11 18.38 1.29
-5 7 -11 19.28 1.38
4 -8 -11 16.37 1.2
-4 -8 11 15.33 1.26
-4 8 11 16.03 1.22
-2 -8 11 12.75 1.06
2 -8 -11 11.76 0.99
2 8 -11 12.82 1.05
-2 8 11 12.56 1.02
0 -8 11 22.78 1.58
0 -8 -11 22.26 1.53
0 8 -11 22.39 1.59
0 8 11 22.22 1.53
2 -8 11 11.58 0.95
-2 -8 -11 10.4 0.91
-2 8 -11 12.11 1.02
2 8 11 12.22 0.92
-4 -8 -11 15.03 1.12
-4 8 -11 16.34 1.24
-3 -9 11 12.19 1.1
3 -9 -11 11.45 1
3 9 -11 11 1
-3 9 11 11.17 1.03
1 -9 -11 10.58 0.94
-1 -9 11 11.1 1.05
-1 9 11 10.44 0.95
1 9 -11 11.15 1.02
-1 -9 -11 8.57 0.86
1 -9 11 11.24 0.97
-1 9 -11 11.37 1.04
1 9 11 10.59 0.91
-3 -9 -11 11.04 0.94
3 -9 11 10.51 1.08
-3 9 -11 10.95 1.05
-8 0 12 0.46 0.31
-6 0 12 0.37 0.27
4 0 -12 2.27 0.33
-4 0 12 3.26 0.45
2 0 -12 3.77 0.45
-2 0 12 4.42 0.46
0 0 12 11.4 0.79
0 0 -12 9.61 0.75
2 0 12 3.24 0.4
-2 0 -12 4.99 0.43
-4 0 -12 3.53 0.4
4 0 12 2.35 0.3
-6 0 -12 0.13 0.23
6 0 12 0.25 0.2
-8 0 -12 -0.23 0.23
8 0 12 0.51 0.26
-9 -1 12 -0.45 0.31
-9 1 12 0.14 0.31
-7 -1 12 0.43 0.3
-7 1 12 0.61 0.29
-5 -1 12 1 0.31
5 -1 -12 0.54 0.24
5 1 -12 0.81 0.22
-5 1 12 0.59 0.26
3 -1 -12 2.91 0.38
-3 -1 12 3.8 0.46
-3 1 12 2.08 0.34
-1 -1 12 7.63 0.63
1 -1 -12 8.19 0.58
1 1 -12 5.24 0.56
-1 1 12 6.56 0.6
-1 -1 -12 6.12 0.51
1 -1 12 4.46 0.5
1 1 12 6.4 0.52
-1 1 -12 6.09 0.55
3 -1 12 2.16 0.32
-3 -1 -12 2.68 0.36
-3 1 -12 3.53 0.44
3 1 12 2.87 0.35
-5 -1 -12 0.95 0.23
5 1 12 0.78 0.2
-5 1 -12 0.46 0.24
-7 -1 -12 0.26 0.22
7 -1 12 0.14 0.23
-7 1 -12 -0.22 0.21
7 1 12 0.3 0.23
9 -1 12 0.34 0.29
9 1 12 0.3 0.29
-8 -2 12 -0.69 0.26
-8 2 12 0.33 0.29
-6 -2 12 0.72 0.31
-6 2 12 0.8 0.28
-4 -2 12 0.61 0.29
4 -2 -12 0.74 0.22
4 2 -12 0.9 0.22
-4 2 12 0.56 0.25
2 -2 -12 5.14 0.47
-2 -2 12 4.67 0.51
-2 2 12 4.52 0.47
2 2 -12 3.39 0.43
0 -2 -12 2.58 0.34
0 -2 12 2.06 0.32
0 2 -12 2.41 0.35
0 2 12 2.93 0.38
2 -2 12 4.39 0.44
-2 -2 -12 4.2 0.46
2 2 12 5.24 0.46
4 -2 12 0.93 0.2
-4 -2 -12 0.32 0.22
-4 2 -12 0.32 0.24
4 2 12 0.73 0.2
-6 -2 -12 0.89 0.25
6 -2 12 0.7 0.23
6 2 12 1.33 0.25
-6 2 -12 0.81 0.25
8 -2 12 0.06 0.27
-8 -2 -12 -0.17 0.2
-8 2 -12 0.29 0.22
8 2 12 -0.02 0.24
-7 -3 12 -0.21 0.26
-7 3 12 0.19 0.26
5 -3 -12 0.87 0.24
-5 -3 12 -0.12 0.26
5 3 -12 0.83 0.24
-5 3 12 0.81 0.26
-3 -3 12 0.87 0.3
3 -3 -12 1.66 0.32
-3 3 12 1.58 0.28
3 3 -12 1.93 0.28
-1 -3 12 2.78 0.39
1 -3 -12 2.94 0.38
1 3 -12 3.03 0.4
-1 3 12 2.8 0.4
1 -3 12 2.97 0.38
-1 -3 -12 2.7 0.38
1 3 12 1.79 0.32
-1 3 -12 3.05 0.4
-3 -3 -12 1.8 0.29
3 -3 12 2.69 0.34
3 3 12 2.59 0.36
-3 3 -12 2.12 0.33
-5 -3 -12 0.56 0.23
-5 3 -12 0.7 0.24
5 3 12 0.86 0.22
7 -3 12 0.18 0.24
-7 -3 -12 0.5 0.23
-7 3 -12 0.46 0.24
7 3 12 0.49 0.24
-8 -4 12 0.44 0.32
-8 4 12 0.65 0.31
-6 -4 12 0.02 0.27
-6 4 12 0.16 0.26
4 -4 -12 1.05 0.29
-4 -4 12 1.09 0.31
4 4 -12 1.65 0.29
-4 4 12 1.23 0.29
2 -4 -12 0.84 0.26
-2 -4 12 0.94 0.28
-2 4 12 1.01 0.25
2 4 -12 0.92 0.26
0 -4 12 3.31 0.45
0 -4 -12 3.39 0.41
0 4 12 3.08 0.39
0 4 -12 3.53 0.44
2 -4 12 1.36 0.26
-2 -4 -12 0.89 0.24
2 4 12 1.01 0.26
-2 4 -12 0.94 0.27
-4 -4 -12 1.24 0.26
4 -4 12 1.41 0.26
-4 4 -12 1.49 0.31
4 4 12 1.35 0.22
-6 -4 -12 0.02 0.21
6 -4 12 0.07 0.21
-6 4 -12 0.2 0.25
6 4 12 0.4 0.21
8 -4 12 0.56 0.29
-8 -4 -12 0.72 0.26
-8 4 -12 0.24 0.27
8 4 12 0.67 0.28
-7 -5 12 0.67 0.33
-7 5 12 0.39 0.31
5 -5 -12 0.56 0.26
-5 -5 12 0.67 0.33
-5 5 12 0.23 0.27
3 -5 -12 0.91 0.28
-3 -5 12 0.67 0.29
-3 5 12 0.57 0.25
3 5 -12 0.69 0.27
1 -5 -12 0.76 0.25
-1 -5 12 1.08 0.31
-1 5 12 0.7 0.25
1 5 -12 0.95 0.28
-1 -5 -12 1.12 0.26
1 -5 12 1.19 0.29
-1 5 -12 1.05 0.3
1 5 12 0.82 0.26
3 -5 12 0.98 0.26
-3 -5 -12 0.58 0.24
3 5 12 0.76 0.17
-3 5 -12 1.07 0.31
3 5 12 0.65 0.25
-5 -5 -12 0.65 0.25
-5 5 -12 0.49 0.28
5 5 12 0.53 0.19
7 -5 12 0.2 0.28
-7 -5 -12 0.39 0.25
7 5 12 0.41 0.24
-7 5 -12 0.04 0.29
-6 -6 12 0.78 0.35
-6 6 12 0.37 0.32
4 -6 -12 0.3 0.28
-4 -6 12 0.39 0.31
-4 6 12 0.03 0.27
4 6 -12 0.32 0.3
2 -6 -12 1.02 0.3
-2 -6 12 1.3 0.34
2 6 -12 1.13 0.32
-2 6 12 0.95 0.29
0 -6 -12 0.2 0.24
0 -6 12 0.35 0.27
0 6 -12 0.22 0.27
0 6 12 0.15 0.24
-2 -6 -12 1.01 0.28
2 -6 12 0.98 0.31
2 6 12 1.11 0.29
-2 6 -12 1.31 0.35
-4 -6 -12 -0.05 0.24
-4 6 -12 0.4 0.31
-6 -6 -12 0.53 0.28
6 -6 12 0.15 0.25
-6 6 -12 0.24 0.32
-5 -7 12 0.3 0.38
-5 7 12 0.17 0.33
-3 -7 12 0.45 0.35
3 -7 -12 0.27 0.29
3 7 -12 0.6 0.32
-3 7 12 0.21 0.3
-1 -7 12 0.71 0.32
1 -7 -12 0.25 0.28
1 7 -12 0.56 0.34
-1 7 12 0.29 0.29
1 -7 12 0.37 0.3
-1 -7 -12 0.16 0.27
1 7 12 0.18 0.25
-1 7 -12 0.43 0.33
-3 -7 -12 0.24 0.27
3 -7 12 0.14 0.32
-3 7 -12 0.87 0.36
-5 -7 -12 0.39 0.27
-5 7 -12 0.53 0.36
4 -8 -12 0.56 0.35
-4 -8 12 0.66 0.4
-4 8 12 0.33 0.36
2 -8 -12 0.07 0.31
-2 -8 12 0.52 0.38
2 8 -12 0.31 0.36
-2 8 12 -0.07 0.32
0 -8 12 0.73 0.39
0 -8 -12 0.43 0.32
0 8 12 0.47 0.32
0 8 -12 0.9 0.41
2 -8 12 -0.06 0.33
-2 -8 -12 0.18 0.3
2 8 12 0.11 0.29
-2 8 -12 0.55 0.4
-4 -8 -12 0.43 0.31
-4 8 -12 0.6 0.4
1 -9 -12 0.17 0.34
-1 -9 12 0.55 0.42
1 9 -12 0.52 0.41
-1 9 12 0.28 0.34
-1 -9 -12 0.26 0.35
1 -9 12 0.51 0.38
1 9 12 0.36 0.34
-1 9 -12 0.22 0.45
-8 0 13 14.05 1.09
-6 0 13 9.34 0.8
-4 0 13 38.36 2.13
4 0 -13 27.75 2.06
-2 0 13 4.93 0.51
2 0 -13 4.14 0.5
0 0 -13 46.47 2.85
0 0 13 45.6 2.86
2 0 13 3.81 0.44
-2 0 -13 4.8 0.46
4 0 13 22.76 1.45
6 0 13 8.16 0.68
-6 0 -13 10.1 0.77
8 0 13 11.21 0.81
-8 0 -13 9.95 0.82
-7 -1 13 13.45 1.06
-7 1 13 13.5 1.05
5 -1 -13 14.6 1.06
-5 -1 13 16.04 1.13
-5 1 13 14.39 1.1
-3 -1 13 23.19 1.5
3 -1 -13 23.66 1.45
-3 1 13 18.69 1.45
1 -1 -13 20.88 1.34
-1 -1 13 22.71 1.4
-1 1 13 20.65 1.36
1 1 -13 17.41 1.34
1 -1 13 17.38 1.31
-1 -1 -13 19.37 1.31
-1 1 -13 20.23 1.35
1 1 13 22.56 1.33
-3 -1 -13 21.4 1.42
-3 1 -13 23.12 1.46
3 1 13 20.5 1.4
-5 -1 -13 16.96 1.09
5 1 13 14.14 1.03
-5 1 -13 16.03 1.12
-7 -1 -13 16.15 1.04
7 -1 13 12.7 0.98
7 1 13 13.73 1
-8 -2 13 4.6 0.65
-8 2 13 5.58 0.65
-6 -2 13 20.03 1.34
-6 2 13 16.88 1.31
-4 -2 13 8.72 0.74
4 -2 -13 8.82 0.64
4 2 -13 6.43 0.61
-4 2 13 6.32 0.66
2 -2 -13 34.67 2.17
-2 -2 13 38.51 2.23
-2 2 13 30.36 2.18
0 -2 13 2.84 0.4
0 -2 -13 3.15 0.42
0 2 -13 2.92 0.41
0 2 13 3.74 0.45
-2 -2 -13 27.31 1.78
2 -2 13 29.7 1.76
-2 2 -13 24.76 1.76
4 -2 13 8 0.58
-4 -2 -13 6.29 0.63
-4 2 -13 5.77 0.64
4 2 13 8.22 0.64
6 -2 13 19.36 1.25
-6 -2 -13 20.58 1.3
-6 2 -13 15.65 1.28
6 2 13 21.29 1.25
-8 -2 -13 6.88 0.61
8 -2 13 6.64 0.61
-8 2 -13 6.03 0.61
8 2 13 7.01 0.64
-7 -3 13 5.17 0.63
-7 3 13 7.73 0.71
5 -3 -13 20.21 1.27
-5 3 13 16.7 1.29
5 3 -13 19.12 1.28
3 -3 -13 12.53 0.9
-3 -3 13 9.21 0.91
-3 3 13 12.66 0.91
3 3 -13 12.91 0.89
-1 -3 13 13 1.13
1 -3 -13 16.43 1.14
1 3 -13 16.94 1.13
-1 3 13 18.13 1.15
1 -3 13 17.39 1.15
-1 -3 -13 18.97 1.16
-1 3 -13 14.69 1.14
1 3 13 14.78 1.14
3 -3 13 14.18 0.97
-3 -3 -13 14.44 0.99
3 3 13 14.71 0.98
-3 3 -13 11.68 1
-5 -3 -13 15.3 1.2
5 3 13 20.72 1.17
-5 3 -13 17.4 1.23
7 -3 13 8.34 0.69
-7 -3 -13 7.47 0.71
7 3 13 9.84 0.69
-7 3 -13 8.64 0.73
-6 -4 13 4.37 0.65
-6 4 13 6.64 0.65
-4 -4 13 18.54 1.54
4 -4 -13 22.11 1.52
4 4 -13 25.49 1.52
-4 4 13 23.75 1.51
-2 -4 13 6.25 0.68
2 -4 -13 7.32 0.66
-2 4 13 8.07 0.65
2 4 -13 7.25 0.65
0 -4 13 33.96 2.07
0 -4 -13 32.6 2.04
0 4 -13 31.33 2.06
0 4 13 30.2 2.04
2 -4 13 8.44 0.67
-2 -4 -13 8.18 0.65
-2 4 -13 7.5 0.69
2 4 13 6.44 0.65
-4 -4 -13 25.87 1.71
4 -4 13 29.23 1.71
4 4 13 27.09 1.65
-4 4 -13 23.69 1.74
-6 -4 -13 6.92 0.66
-6 4 -13 7.77 0.71
6 4 13 8.34 0.61
-7 -5 13 9.24 0.9
-7 5 13 9.38 0.86
5 -5 -13 7.79 0.78
-5 -5 13 9.09 0.86
-5 5 13 10.14 0.81
3 -5 -13 19.68 1.39
-3 -5 13 18.28 1.41
3 5 -13 21.14 1.38
-3 5 13 20.73 1.38
-1 -5 13 15.24 1.17
1 -5 -13 16.42 1.13
1 5 -13 16.21 1.15
-1 5 13 16.13 1.14
-1 -5 -13 15.82 1.1
1 -5 13 15.68 1.13
-1 5 -13 15.97 1.16
1 5 13 15.48 1.12
-3 -5 -13 18.84 1.3
3 -5 13 20.52 1.32
3 5 13 20 1.21
-3 5 -13 20.24 1.37
3 5 13 16.49 1.3
-5 -5 -13 9.46 0.77
5 5 13 9.72 0.69
-5 5 -13 9.47 0.84
-7 -5 -13 10.72 0.86
7 -5 13 9.71 0.82
-7 5 -13 11.2 0.92
7 5 13 11.55 0.82
-6 -6 13 12.17 1.06
-6 6 13 12.18 1.01
4 -6 -13 7.48 0.75
-4 -6 13 8.23 0.8
-4 6 13 6.45 0.71
4 6 -13 9 0.78
2 -6 -13 22.14 1.52
-2 -6 13 22.25 1.57
-2 6 13 20.76 1.51
2 6 -13 24.45 1.55
0 -6 13 10.56 0.87
0 -6 -13 8.91 0.8
0 6 -13 9.91 0.85
0 6 13 10.24 0.82
-2 -6 -13 22.18 1.56
2 -6 13 24.55 1.6
2 6 13 22.44 1.57
-2 6 -13 25.14 1.63
-4 -6 -13 7.78 0.72
-4 6 -13 8.23 0.81
-6 -6 -13 11.94 0.91
6 -6 13 10 0.83
-6 6 -13 12.79 1
-5 -7 13 11.51 1.07
-5 7 13 11.78 0.99
-3 -7 13 10.85 0.98
3 -7 -13 9.76 0.88
3 7 -13 10.56 0.92
-3 7 13 8.42 0.85
1 -7 -13 14.96 1.12
-1 -7 13 15.57 1.17
1 7 -13 14.96 1.17
-1 7 13 13.64 1.1
1 -7 13 15.49 1.18
-1 -7 -13 14.98 1.12
-1 7 -13 16.26 1.21
1 7 13 14.59 1.13
-3 -7 -13 9.33 0.82
3 -7 13 9.18 0.85
-3 7 -13 10.21 0.93
-5 -7 -13 11.21 0.94
-5 7 -13 12.51 1.06
2 -8 -13 7.83 0.81
-2 -8 13 8.27 0.89
-2 8 13 6.69 0.78
2 8 -13 9.24 0.91
0 -8 13 14.17 1.17
0 -8 -13 14.17 1.1
0 8 -13 14.46 1.18
0 8 13 12.62 1.07
-2 -8 -13 8.37 0.79
2 -8 13 7.84 0.88
-2 8 -13 8.42 0.94
-8 0 14 3.48 0.5
-6 0 14 4.59 0.61
-4 0 14 8.57 0.73
4 0 -14 7.24 0.67
-2 0 14 2.04 0.34
2 0 -14 1.79 0.33
0 0 14 13.54 0.98
0 0 -14 12.71 0.95
-2 0 -14 2.27 0.33
2 0 14 1.76 0.31
4 0 14 4.74 0.54
-6 0 -14 4.16 0.53
6 0 14 3.12 0.37
8 0 14 3.31 0.41
-8 0 -14 2.79 0.41
-7 -1 14 5.73 0.72
-7 1 14 4.74 0.64
5 -1 -14 4.03 0.53
-5 -1 14 5.51 0.65
-5 1 14 5.16 0.58
3 -1 -14 5.14 0.52
-3 -1 14 5.29 0.6
-3 1 14 4.62 0.55
-1 -1 14 3.62 0.45
1 -1 -14 2.98 0.41
1 1 -14 2.52 0.36
-1 1 14 2.73 0.38
1 -1 14 3.15 0.41
-1 -1 -14 3.16 0.42
1 1 14 3.58 0.46
-1 1 -14 3.04 0.41
-3 -1 -14 5.47 0.52
3 1 14 4.91 0.52
-3 1 -14 6.31 0.6
-5 -1 -14 5.34 0.51
-5 1 -14 4.72 0.55
5 1 14 3.62 0.4
-7 -1 -14 4.44 0.54
7 -1 14 3.97 0.44
-7 1 -14 3.71 0.49
7 1 14 4.91 0.51
-8 -2 14 2.05 0.45
-8 2 14 1.98 0.43
-6 -2 14 5.17 0.66
-6 2 14 4.55 0.61
4 -2 -14 2.99 0.42
-4 -2 14 2.65 0.44
-4 2 14 2.43 0.4
-2 -2 14 9.93 0.8
2 -2 -14 10.09 0.72
-2 2 14 7.08 0.74
0 -2 14 0.72 0.28
0 -2 -14 1.32 0.28
0 2 -14 1.62 0.32
0 2 14 1.8 0.31
2 -2 14 6.25 0.62
-2 -2 -14 8.63 0.67
-2 2 -14 7.06 0.68
-4 -2 -14 2.82 0.38
4 -2 14 2.9 0.39
-4 2 -14 2.16 0.4
-6 -2 -14 5.67 0.56
6 -2 14 4.77 0.49
6 2 14 5.99 0.52
-8 -2 -14 2.53 0.39
8 -2 14 2.25 0.38
-8 2 -14 2.23 0.38
8 2 14 3.79 0.41
-7 -3 14 1.44 0.41
-7 3 14 2.32 0.42
-5 -3 14 4.03 0.55
-5 3 14 4.67 0.58
5 3 -14 5.59 0.66
3 -3 -14 3.18 0.43
-3 -3 14 2.42 0.43
3 3 -14 2.41 0.37
-3 3 14 3.79 0.46
1 -3 -14 3.13 0.42
-1 -3 14 2.88 0.43
-1 3 14 3.82 0.47
1 3 -14 2.38 0.38
1 -3 14 3.46 0.47
-1 -3 -14 4.24 0.51
1 3 14 4.38 0.49
-1 3 -14 2.83 0.45
-3 -3 -14 3.58 0.49
3 -3 14 3.79 0.44
3 3 14 3.81 0.44
-3 3 -14 2.24 0.42
-5 -3 -14 4.51 0.53
-5 3 -14 4.05 0.53
-7 -3 -14 2.8 0.39
7 -3 14 2.39 0.37
-7 3 -14 2.18 0.39
7 3 14 3.03 0.39
-6 4 14 2.48 0.43
4 -4 -14 6.9 0.68
-4 4 14 7.01 0.69
4 4 -14 7.31 0.67
-2 -4 14 1.8 0.41
2 -4 -14 2.48 0.39
-2 4 14 2.55 0.39
2 4 -14 2.75 0.38
0 -4 14 6.5 0.66
0 -4 -14 7.48 0.66
0 4 14 7.18 0.66
0 4 -14 6.79 0.66
-2 -4 -14 2.97 0.39
2 -4 14 3.22 0.41
2 4 14 2.79 0.4
-2 4 -14 2.41 0.41
-4 -4 -14 6.08 0.63
-4 4 -14 6.24 0.67
4 4 14 7.01 0.53
-6 -4 -14 2.7 0.41
6 4 14 3.25 0.37
-6 4 -14 2.88 0.44
5 -5 -14 2.51 0.47
-5 -5 14 2.13 0.46
-5 5 14 1.92 0.4
-3 -5 14 5.22 0.68
3 -5 -14 6.08 0.64
-3 5 14 4.78 0.6
3 5 -14 6.3 0.62
1 -5 -14 4.74 0.57
-1 -5 14 4.22 0.58
-1 5 14 4.29 0.55
1 5 -14 4.95 0.58
-1 -5 -14 5.17 0.58
1 -5 14 5.57 0.61
1 5 14 4.4 0.57
-1 5 -14 4.75 0.61
-3 -5 -14 6.56 0.63
3 -5 14 6.74 0.63
-3 5 -14 6.55 0.68
3 5 14 5.82 0.48
3 5 14 5.38 0.77
-5 -5 -14 2.77 0.4
5 5 14 2.81 0.32
-5 5 -14 2.16 0.42
4 -6 -14 3.04 0.49
-4 -6 14 3 0.51
-4 6 14 3.08 0.47
4 6 -14 3.12 0.48
2 -6 -14 5.11 0.65
-2 -6 14 6.53 0.73
-2 6 14 6.27 0.67
2 6 -14 6.74 0.69
0 -6 14 3.86 0.52
0 -6 -14 3.97 0.57
0 6 -14 4.33 0.6
0 6 14 3.59 0.48
2 -6 14 5.92 0.68
-2 -6 -14 5.94 0.62
-2 6 -14 6.04 0.72
2 6 14 6.43 0.67
-4 -6 -14 2.92 0.43
-4 6 -14 2.92 0.5
3 -7 -14 2.84 0.46
-3 -7 14 2.83 0.54
-3 7 14 2.56 0.46
3 7 -14 3.14 0.52
1 -7 -14 5.08 0.64
-1 -7 14 4.28 0.59
1 7 -14 5.1 0.72
-1 7 14 5.01 0.64
1 -7 14 4.33 0.59
-1 -7 -14 5.31 0.65
-1 7 -14 5.84 0.76
1 7 14 5.36 0.65
-3 -7 -14 2.6 0.43
3 -7 14 3.04 0.5
-3 7 -14 3.67 0.55
2 -8 -14 3.33 0.52
-2 -8 14 2.86 0.55
-2 8 14 2.89 0.49
2 8 -14 3.72 0.59
0 -8 14 3.72 0.58
0 -8 -14 3.73 0.53
0 8 14 3.6 0.53
0 8 -14 4.45 0.64
2 -8 14 3.46 0.55
-2 -8 -14 3.15 0.49
-2 8 -14 3.97 0.63
-6 0 15 4.64 0.66
-4 0 15 11.5 0.88
4 0 -15 9.52 0.83
2 0 -15 4.22 0.54
-2 0 15 4.59 0.55
0 0 -15 15.76 1.12
0 0 15 15.81 1.15
2 0 15 4.58 0.51
-2 0 -15 4.73 0.54
-4 0 -15 11.18 0.89
6 0 15 2.29 0.35
-6 0 -15 4.04 0.56
-7 -1 15 4.55 0.57
-7 1 15 2.84 0.48
-5 -1 15 6.81 0.72
5 -1 -15 6.22 0.64
-5 1 15 5.92 0.67
-3 -1 15 8.55 0.76
3 -1 -15 7.17 0.64
3 1 -15 5.12 0.63
-3 1 15 6.29 0.64
1 -1 -15 5.73 0.55
-1 -1 15 7.04 0.66
-1 1 15 5.04 0.59
1 1 -15 5.46 0.59
1 -1 15 4.82 0.59
-1 -1 -15 5.7 0.55
-1 1 -15 5.69 0.59
1 1 15 6.05 0.59
-3 -1 -15 7.19 0.61
-3 1 -15 7.2 0.69
3 1 15 6.27 0.61
-5 -1 -15 6.57 0.61
-5 1 -15 6.09 0.66
-7 -1 -15 4.49 0.56
7 -1 15 2.88 0.41
-7 1 -15 2.92 0.45
7 1 15 4.45 0.44
-6 -2 15 6.1 0.72
-6 2 15 4.97 0.66
4 -2 -15 4.72 0.53
-4 -2 15 4.65 0.56
-4 2 15 2.87 0.47
-2 -2 15 12.53 0.96
2 -2 -15 11.24 0.84
-2 2 15 9.62 0.88
0 -2 -15 3.67 0.47
0 -2 15 3.05 0.44
0 2 15 4.22 0.49
0 2 -15 3.19 0.45
-2 -2 -15 9.72 0.82
2 2 15 11.97 0.84
-2 2 -15 9.9 0.87
-4 -2 -15 3.7 0.47
-4 2 -15 3.07 0.46
-6 -2 -15 6.2 0.61
6 2 15 6.09 0.58
-7 -3 15 2.39 0.47
-7 3 15 1.83 0.42
-5 -3 15 4.27 0.57
5 -3 -15 4.97 0.54
-5 3 15 3.18 0.5
-3 -3 15 4.49 0.61
-3 3 15 3.94 0.55
3 3 -15 2.92 0.43
1 -3 -15 5.8 0.58
-1 -3 15 5.16 0.6
-1 3 15 4.42 0.56
1 -3 15 3.45 0.45
-1 -3 -15 3.88 0.5
-1 3 -15 2.8 0.46
3 -3 15 4.39 0.48
-3 -3 -15 3.59 0.46
-3 3 -15 2.67 0.46
-5 -3 -15 3.95 0.53
5 3 15 4.25 0.41
-5 3 -15 2.56 0.44
7 -3 15 1.85 0.36
-7 -3 -15 2.39 0.38
-7 3 -15 1.75 0.39
7 3 15 2.76 0.38
-6 -4 15 0.52 0.4
-6 4 15 2.05 0.41
4 -4 -15 7.15 0.68
4 4 -15 7.07 0.7
-4 4 15 7.07 0.72
2 -4 -15 3.29 0.47
-2 -4 15 2.6 0.49
2 4 -15 2.65 0.42
-2 4 15 3.67 0.47
0 -4 15 6.38 0.71
0 -4 -15 8.84 0.73
0 4 -15 6.71 0.69
0 4 15 6.91 0.69
2 -4 15 3.08 0.43
-2 -4 -15 3.49 0.44
-2 4 -15 2.38 0.43
2 4 15 3.64 0.5
-4 -4 -15 6.52 0.66
4 4 15 7.28 0.55
-4 4 -15 5.15 0.67
-6 -4 -15 1.92 0.38
6 4 15 2.95 0.35
-6 4 -15 1.86 0.4
-5 5 15 2.88 0.47
3 -5 -15 3.63 0.51
-3 -5 15 2.92 0.53
3 5 -15 5.3 0.6
-3 5 15 4.5 0.54
1 -5 -15 5.35 0.61
-1 -5 15 3.52 0.53
-1 5 15 5.51 0.63
1 5 -15 5.09 0.63
1 -5 15 5.15 0.62
-1 -5 -15 5.6 0.63
-1 5 -15 5.07 0.66
1 5 15 5.75 0.62
3 -5 15 4.76 0.57
-3 -5 -15 3.81 0.55
-3 5 -15 5.26 0.67
-5 -5 -15 2.62 0.42
5 5 15 3.13 0.35
-5 5 -15 2.64 0.48
4 -6 -15 1.88 0.4
-4 -6 15 1.95 0.47
-4 6 15 1.79 0.41
-2 -6 15 5.81 0.77
2 -6 -15 6.42 0.72
2 6 -15 6.21 0.72
-2 6 15 6.41 0.72
0 -6 -15 3.31 0.48
0 -6 15 4.08 0.55
0 6 -15 3.25 0.51
0 6 15 3.7 0.49
-2 -6 -15 5.84 0.68
2 -6 15 6.44 0.72
2 6 15 7.11 0.7
-2 6 -15 6.26 0.74
-4 -6 -15 2.62 0.43
-4 6 -15 2.57 0.49
-3 -7 15 2.3 0.54
3 -7 -15 2.37 0.46
-3 7 15 2.72 0.49
3 7 -15 3.32 0.54
1 -7 -15 3.95 0.53
-1 -7 15 3.9 0.6
-1 7 15 3.73 0.53
1 7 -15 5.05 0.7
-1 -7 -15 4.75 0.62
1 -7 15 3.73 0.55
1 7 15 3.63 0.53
-1 7 -15 4.25 0.6
-3 -7 -15 3.18 0.48
-3 7 -15 3.3 0.57
-6 0 16 14.16 1.13
-4 0 16 41.15 2.7
4 0 -16 43.56 2.68
-2 0 16 45.47 2.88
2 0 -16 45.66 2.87
0 0 -16 93.32 5.93
0 0 16 102.64 5.96
-2 0 -16 46.68 2.83
2 0 16 43.06 2.8
-4 0 -16 43.87 2.77
6 0 16 7.43 0.62
-7 -1 16 11.7 1.03
-7 1 16 10.93 0.97
5 -1 -16 21.8 1.51
-5 -1 16 26.47 1.63
-5 1 16 19.15 1.53
3 -1 -16 47.23 2.89
-3 -1 16 53.51 2.96
-3 1 16 42.5 2.89
3 1 -16 41.07 2.87
1 -1 -16 64.67 4.11
-1 -1 16 69.85 4.17
1 1 -16 62.94 4.12
-1 1 16 71.75 4.14
1 -1 16 66.94 4.04
-1 -1 -16 62.66 4.01
1 1 16 66.42 4.04
-1 1 -16 66.88 4.05
-3 -1 -16 46.61 2.95
3 1 16 46.13 2.95
-3 1 -16 50.21 3.01
-5 -1 -16 22.54 1.54
-5 1 -16 23.26 1.57
-7 -1 -16 11.79 0.88
7 -1 16 8.33 0.76
-7 1 -16 8.94 0.84
7 1 16 9.27 0.77
-6 -2 16 17.7 1.25
-6 2 16 13.71 1.18
4 -2 -16 23.37 1.54
-4 -2 16 24.99 1.62
-4 2 16 19.83 1.55
2 -2 -16 55.12 3.31
-2 2 16 52.03 3.34
0 -2 16 37.59 2.48
0 -2 -16 39.84 2.44
0 2 -16 40.01 2.49
0 2 16 37.19 2.45
2 -2 16 44.15 3.26
-2 -2 -16 51.05 3.27
2 2 16 59.77 3.29
-2 2 -16 56.8 3.33
-4 -2 -16 20.39 1.37
-4 2 -16 19.63 1.43
-6 -2 -16 15.46 1.01
-6 2 -16 11.31 1.03
6 2 16 13.05 0.94
-5 -3 16 17.6 1.25
-5 3 16 13.67 1.18
-3 -3 16 26.4 1.86
3 -3 -16 27.99 1.79
-1 -3 16 39.14 2.41
1 -3 -16 39.67 2.37
-1 3 16 32.22 2.36
1 -3 16 26.35 1.83
-1 3 -16 28.86 1.86
3 -3 16 19.31 1.4
-3 -3 -16 22.16 1.45
-3 3 -16 20.37 1.46
-5 -3 -16 15.52 1.16
5 3 16 16.42 1.08
-6 -4 16 5.49 0.7
-6 4 16 6.61 0.75
-4 -4 16 15.41 1.26
4 4 -16 16.22 1.19
-4 4 16 16.07 1.22
-2 -4 16 13.51 1.24
2 -4 -16 18.79 1.24
-2 4 16 17.31 1.24
0 -4 -16 26.99 1.71
0 -4 16 25.06 1.72
0 4 16 26.83 1.71
0 4 -16 20.91 1.68
2 -4 16 16.07 1.23
-2 -4 -16 16.85 1.25
2 4 16 18.35 1.23
-4 -4 -16 17.39 1.31
4 4 16 19.29 1.22
-6 -4 -16 6.03 0.68
6 4 16 8.54 0.63
-6 4 -16 5.79 0.73
-5 -5 16 3.94 0.61
3 -5 -16 16.8 1.23
-3 -5 16 12.31 1.25
3 5 -16 17.13 1.21
-3 5 16 16.97 1.22
1 -5 -16 20.39 1.31
-1 -5 16 13.59 1.27
1 5 -16 15.35 1.27
-1 5 16 19.22 1.29
1 -5 16 16.26 1.29
-1 -5 -16 18.94 1.3
-1 5 -16 15.48 1.29
1 5 16 19.16 1.3
3 -5 16 17.56 1.32
-3 -5 -16 17.92 1.26
-3 5 -16 15.3 1.28
-5 -5 -16 8.88 0.81
-5 5 -16 7.78 0.86
4 -6 -16 6.79 0.75
-4 -6 16 4.56 0.7
-4 6 16 7.91 0.8
-2 -6 16 12.15 1.18
2 -6 -16 13.73 1.12
-2 6 16 16.32 1.16
2 6 -16 13.79 1.14
0 -6 -16 11.98 0.98
0 -6 16 10.93 1
0 6 -16 10.69 0.98
0 6 16 11.64 0.97
2 -6 16 13.85 1.13
-2 -6 -16 13.56 1.09
2 6 16 14.59 1.31
-2 6 -16 14.11 1.17
-4 -6 -16 7.45 0.79
-4 6 -16 7.71 0.87
1 -7 -16 10.87 1
-1 -7 16 10.15 1.04
-1 7 16 12.11 1.01
1 7 -16 11.28 1.07
1 -7 16 11.25 1.04
-1 -7 -16 11.29 0.98
1 7 16 11.99 1.02
-1 7 -16 10.48 1.06
-6 0 17 0.7 0.38
-4 0 17 0.82 0.37
4 0 -17 0.66 0.33
-2 0 17 0.84 0.34
2 0 -17 0.74 0.33
0 0 17 2.4 0.44
0 0 -17 2.59 0.42
-2 0 -17 1.09 0.33
2 0 17 0.68 0.32
-4 0 -17 1.25 0.37
-6 0 -17 0.66 0.34
6 0 17 -0.31 0.25
-5 -1 17 0.87 0.39
-5 1 17 0.33 0.33
3 -1 -17 0.96 0.34
-3 -1 17 1.1 0.39
-3 1 17 0.83 0.33
3 1 -17 0.51 0.33
1 -1 -17 1.18 0.33
-1 -1 17 0.88 0.37
-1 1 17 1.05 0.35
1 1 -17 0.95 0.33
1 -1 17 1.26 0.35
-1 -1 -17 1.32 0.31
-1 1 -17 1.02 0.35
1 1 17 1.11 0.34
-3 -1 -17 1.33 0.32
3 -1 17 0.34 0.28
3 1 17 0.84 0.37
-3 1 -17 1.06 0.34
-5 -1 -17 0.74 0.31
-5 1 -17 0.19 0.33
-6 -2 17 0.26 0.38
-6 2 17 0.48 0.34
4 -2 -17 0.87 0.33
-4 -2 17 0.58 0.38
4 2 -17 0.1 0.28
-4 2 17 0.68 0.31
-2 -2 17 1.19 0.41
2 -2 -17 0.8 0.29
-2 2 17 1.26 0.34
2 2 -17 0.48 0.31
0 -2 -17 0.88 0.28
0 -2 17 0.82 0.35
0 2 -17 0.67 0.34
0 2 17 0.89 0.31
2 -2 17 0.62 0.32
-2 -2 -17 0.94 0.29
-2 2 -17 0.89 0.36
2 2 17 1 0.33
-4 -2 -17 0.8 0.3
-4 2 -17 0.29 0.33
-6 -2 -17 0.37 0.28
6 2 17 0.53 0.25
-6 2 -17 0.29 0.33
-5 -3 17 0.53 0.4
-5 3 17 0.24 0.31
3 -3 -17 0.38 0.27
-3 -3 17 0.29 0.37
-3 3 17 0.32 0.3
3 3 -17 -0.56 0.27
-1 -3 17 0.42 0.36
1 -3 -17 0.64 0.29
1 3 -17 0.06 0.3
-1 3 17 0.6 0.31
1 -3 17 0.17 0.31
-1 -3 -17 0.68 0.31
-1 3 -17 0.2 0.33
1 3 17 0.92 0.3
3 -3 17 -0.05 0.27
-3 -3 -17 0.56 0.29
-3 3 -17 -0.25 0.33
-5 -3 -17 0.56 0.29
5 3 17 0.41 0.26
-5 3 -17 -0.09 0.31
-4 -4 17 0.02 0.38
4 -4 -17 0.71 0.3
4 4 -17 -0.13 0.31
-4 4 17 0.87 0.36
-2 -4 17 0.02 0.36
2 -4 -17 0.79 0.32
2 4 -17 -0.44 0.28
-2 4 17 0.68 0.34
0 -4 17 -0.03 0.33
0 -4 -17 0.29 0.31
0 4 17 0.66 0.31
0 4 -17 -0.44 0.3
2 -4 17 -0.03 0.29
-2 -4 -17 0.33 0.3
-2 4 -17 -0.36 0.32
2 4 17 0.91 0.32
-4 -4 -17 0.43 0.31
-4 4 -17 -0.52 0.31
4 4 17 -0.1 0.25
-3 -5 17 -0.33 0.38
3 -5 -17 0.81 0.34
-3 5 17 0.57 0.35
3 5 -17 0.31 0.33
-1 -5 17 -0.11 0.35
1 -5 -17 0.36 0.31
-1 5 17 0.42 0.33
1 5 -17 -0.18 0.31
-1 -5 -17 0.52 0.34
1 -5 17 -0.01 0.32
1 5 17 0.69 0.32
-1 5 -17 -0.43 0.31
-3 -5 -17 0.43 0.33
-3 5 -17 -0.24 0.34
2 -6 -17 0.48 0.36
-2 -6 17 -0.44 0.37
-2 6 17 0.27 0.37
2 6 -17 0.13 0.37
0 -6 -17 0.33 0.35
0 -6 17 0.1 0.38
0 6 17 1.07 0.38
0 6 -17 0.52 0.38
-2 -6 -17 0.67 0.35
2 -6 17 -0.04 0.34
-2 6 -17 0.18 0.37
-6 0 18 2.93 0.53
4 0 -18 6.88 0.74
-4 0 18 8.13 0.84
2 0 -18 5.07 0.64
-2 0 18 6.01 0.71
0 0 -18 14.44 1.11
0 0 18 13.87 1.13
-2 0 -18 5.07 0.66
2 0 18 4.85 0.62
-4 0 -18 8.35 0.81
6 0 18 0.03 0.26
-5 -1 18 5.21 0.65
-5 1 18 4.22 0.58
3 -1 -18 7.19 0.74
-3 -1 18 7.02 0.83
-3 1 18 7.52 0.77
3 1 -18 5.38 0.71
1 -1 -18 8.95 0.83
-1 -1 18 9.19 0.9
-1 1 18 9.21 0.83
1 1 -18 8.98 0.82
-1 -1 -18 8.78 0.78
1 -1 18 8.01 0.8
-1 1 -18 8.99 0.83
1 1 18 9.29 0.84
-3 -1 -18 7.42 0.72
-3 1 -18 6.63 0.73
-5 -1 -18 4.55 0.64
-5 1 -18 4.24 0.57
-4 -2 18 4.91 0.61
4 -2 -18 3.99 0.51
-4 2 18 3.27 0.49
4 2 -18 2.35 0.46
2 -2 -18 9.18 0.78
-2 -2 18 9.58 0.88
2 2 -18 7.57 0.8
-2 2 18 7.92 0.8
0 -2 18 5.6 0.7
0 -2 -18 4.75 0.59
0 2 18 5.43 0.65
0 2 -18 4.45 0.66
-2 -2 -18 7.94 0.73
2 -2 18 7.14 0.78
-2 2 -18 9.12 0.86
2 2 18 10.23 0.81
-4 -2 -18 4.24 0.55
-4 2 -18 3.18 0.52
-5 -3 18 4.3 0.62
-5 3 18 3.35 0.53
-3 -3 18 4.73 0.63
3 -3 -18 4.49 0.59
-3 3 18 4.76 0.65
-1 -3 18 5.79 0.74
1 -3 -18 6.16 0.63
1 3 -18 3.86 0.58
-1 3 18 5.61 0.64
1 -3 18 4.85 0.66
-1 -3 -18 5.36 0.62
1 3 18 5.53 0.64
-1 3 -18 4.44 0.59
-3 -3 -18 4.12 0.55
-3 3 -18 3.59 0.55
-5 -3 -18 3.54 0.44
-5 3 -18 2.1 0.47
5 3 18 1.09 0.35
4 -4 -18 4.51 0.6
-4 -4 18 4.17 0.63
-4 4 18 3.55 0.55
-2 -4 18 2.88 0.54
2 -4 -18 2.77 0.44
-2 4 18 3.02 0.48
0 -4 18 5.92 0.68
0 -4 -18 5.29 0.67
0 4 18 7.06 0.69
0 4 -18 3.63 0.59
-2 -4 -18 3.25 0.48
2 -4 18 1.71 0.43
-2 4 -18 1.59 0.46
2 4 18 3.28 0.47
4 4 18 1.82 0.35
-4 4 -18 2.62 0.52
-3 -5 18 3.15 0.61
3 -5 -18 3.11 0.47
3 5 -18 1.47 0.45
-3 5 18 2.7 0.49
1 -5 -18 3.3 0.52
-1 -5 18 1.9 0.51
-1 5 18 2.41 0.46
1 -5 18 2.41 0.49
-1 -5 -18 3.02 0.49
-1 5 -18 1.28 0.46
1 5 18 3.29 0.48
-3 -5 -18 2.75 0.47
-3 5 -18 1.8 0.5
0 -6 18 0.91 0.46
0 6 18 2.05 0.45
4 0 -19 2.45 0.44
-4 0 19 2.53 0.49
-2 0 19 0.74 0.4
2 0 -19 0.63 0.36
0 0 19 2.14 0.45
0 0 -19 2.41 0.44
2 0 19 0.46 0.34
-2 0 -19 0.62 0.36
-4 0 -19 2.71 0.48
-3 -1 19 2.18 0.48
3 -1 -19 2.15 0.43
-3 1 19 1.52 0.42
3 1 -19 1.61 0.41
-1 -1 19 1.49 0.44
1 -1 -19 0.96 0.35
-1 1 19 1.25 0.39
1 1 -19 1.08 0.38
-1 -1 -19 1.09 0.36
1 -1 19 1.18 0.38
1 1 19 1.1 0.39
-1 1 -19 0.93 0.38
-3 -1 -19 2.11 0.41
-3 1 -19 1.8 0.43
-4 -2 19 2.07 0.49
4 -2 -19 1.95 0.43
4 2 -19 1.32 0.4
-4 2 19 1.42 0.4
-2 -2 19 2.23 0.49
2 -2 -19 2.37 0.41
-2 2 19 1.94 0.4
2 2 -19 1.47 0.4
0 -2 -19 0.75 0.31
0 -2 19 0.73 0.4
0 2 -19 0.34 0.36
0 2 19 0.33 0.34
-2 -2 -19 2.22 0.38
2 -2 19 1.7 0.41
-2 2 -19 1.56 0.45
2 2 19 2.09 0.43
-4 -2 -19 1.88 0.38
-4 2 -19 1.79 0.44
-3 -3 19 1.5 0.47
3 -3 -19 1.52 0.37
3 3 -19 0.65 0.38
-3 3 19 1.97 0.42
1 -3 -19 1.91 0.37
-1 -3 19 1.14 0.46
1 3 -19 1.11 0.4
-1 3 19 1.84 0.4
1 -3 19 1.45 0.43
-1 -3 -19 1.83 0.37
-1 3 -19 1.76 0.44
1 3 19 1.91 0.41
-3 -3 -19 1.52 0.37
-3 3 -19 1.33 0.44
-2 -4 19 1.13 0.47
2 -4 -19 1.62 0.38
-2 4 19 1.81 0.44
2 4 -19 0.77 0.37
0 -4 19 1.41 0.46
0 -4 -19 1.95 0.41
0 4 -19 1.4 0.45
0 4 19 2.66 0.46
2 -4 19 1.13 0.42
-2 -4 -19 1.57 0.39
-2 4 -19 0.52 0.42
-2 0 20 0.07 0.39
2 0 -20 -0.05 0.34
0 0 20 0.51 0.39
0 0 -20 0.86 0.37
2 0 20 -0.01 0.33
-2 0 -20 0.04 0.35
-3 -1 20 0.02 0.41
3 -1 -20 0.03 0.36
3 1 -20 0.04 0.33
-3 1 20 0.11 0.37
-1 -1 20 -0.1 0.37
1 -1 -20 0.32 0.35
1 1 -20 -0.03 0.33
-1 1 20 0.28 0.35
1 -1 20 -0.3 0.34
-1 -1 -20 0.16 0.32
-1 1 -20 0.09 0.35
1 1 20 0.07 0.35
-3 -1 -20 0.18 0.32
-3 1 -20 0 0.36
-2 -2 20 0.34 0.39
2 -2 -20 0.08 0.33
-2 2 20 0.45 0.36
2 2 -20 0.09 0.34
0 -2 -20 -0.03 0.31
0 -2 20 -0.19 0.38
0 2 -20 -0.39 0.34
0 2 20 0.16 0.34
-2 -2 -20 0.38 0.31
2 -2 20 0.24 0.39
-2 2 -20 0.1 0.36
1 -3 -20 0.2 0.3
-1 -3 20 -0.55 0.39
1 3 -20 -0.24 0.35
-1 3 20 0.28 0.34
1 -3 20 -0.33 0.38
-1 -3 -20 0.1 0.29
-1 3 -20 -0.53 0.35
1 3 20 0.02 0.35
0 0 -21 16.1 1.23
0 0 21 14.48 1.24
-1 -1 21 10.46 1.01
1 -1 -21 9.67 0.96
-1 1 21 10.69 1
1 1 -21 8.99 0.95
-1 -1 -21 9.92 0.93
1 -1 21 9.81 0.96
1 1 21 10.59 0.96
-1 1 -21 8.75 0.91
