#------------------------------------------------------------------------------
#$Date: 2020-02-27 01:45:39 +0200 (Thu, 27 Feb 2020) $
#$Revision: 248462 $
#$URL: file:///home/coder/svn-repositories/cod/cif/4/13/42/4134256.cif $
#------------------------------------------------------------------------------
#
# This file is available in the Crystallography Open Database (COD),
# http://www.crystallography.net/
#
# All data on this site have been placed in the public domain by the
# contributors.
#
data_4134256
loop_
_publ_author_name
'Zhang, Han-Yue'
'Song, Xian-Jiang'
'Cheng, Hao'
'Zeng, Yu-Ling'
'Zhang, Yi'
'Li, Peng-Fei'
'Liao, Wei-Qiang'
'Xiong, Ren-Gen'
_publ_section_title
;
 A Three-Dimensional Lead Halide Perovskite-Related Ferroelectric.
;
_journal_name_full               'Journal of the American Chemical Society'
_journal_paper_doi               10.1021/jacs.0c00375
_journal_year                    2020
_chemical_formula_moiety         'C5 H16 N2, 2(Cl)'
_chemical_formula_sum            'C5 H16 Cl2 N2'
_chemical_formula_weight         175.10
_space_group_crystal_system      triclinic
_space_group_IT_number           2
_space_group_name_Hall           '-P 1'
_space_group_name_H-M_alt        'P -1'
_atom_sites_solution_hydrogens   geom
_audit_creation_method           SHELXL-2014/7
_cell_angle_alpha                76.351(2)
_cell_angle_beta                 82.677(2)
_cell_angle_gamma                84.635(2)
_cell_formula_units_Z            2
_cell_length_a                   5.68920(10)
_cell_length_b                   7.09760(10)
_cell_length_c                   11.5466(3)
_cell_measurement_reflns_used    6135
_cell_measurement_temperature    293(2)
_cell_measurement_theta_max      31.8520
_cell_measurement_theta_min      2.9480
_cell_volume                     448.411(16)
_computing_cell_refinement       'CrysAlisPro 1.171.39.46 (Rigaku OD, 2018)'
_computing_data_collection       'CrysAlisPro 1.171.39.46 (Rigaku OD, 2018)'
_computing_data_reduction        'CrysAlisPro 1.171.39.46 (Rigaku OD, 2018)'
_computing_molecular_graphics    'DIAMOND (Brandenburg & Putz, 2005)'
_computing_publication_material  'SHELXL-2014/7 (Sheldrick, 2014)'
_computing_structure_refinement  'SHELXL-2014/7 (Sheldrick, 2014)'
_computing_structure_solution    'SHELXL-2014/7 (Sheldrick, 2014)'
_diffrn_ambient_temperature      293(2)
_diffrn_measured_fraction_theta_full 0.999
_diffrn_measured_fraction_theta_max 1.000
_diffrn_measurement_device_type  'XtaLAB Synergy R, DW system, HyPix'
_diffrn_measurement_method       'four-circle diffractometer'
_diffrn_radiation_type           MoK\a
_diffrn_radiation_wavelength     0.71073
_diffrn_reflns_av_R_equivalents  0.0353
_diffrn_reflns_av_unetI/netI     0.0255
_diffrn_reflns_Laue_measured_fraction_full 0.999
_diffrn_reflns_Laue_measured_fraction_max 1.000
_diffrn_reflns_limit_h_max       6
_diffrn_reflns_limit_h_min       -7
_diffrn_reflns_limit_k_max       8
_diffrn_reflns_limit_k_min       -9
_diffrn_reflns_limit_l_max       14
_diffrn_reflns_limit_l_min       -14
_diffrn_reflns_number            6652
_diffrn_reflns_point_group_measured_fraction_full 0.999
_diffrn_reflns_point_group_measured_fraction_max 1.000
_diffrn_reflns_theta_full        25.242
_diffrn_reflns_theta_max         27.243
_diffrn_reflns_theta_min         2.960
_diffrn_source                   'Rotating-anode X-ray tube'
_exptl_absorpt_coefficient_mu    0.652
_exptl_absorpt_correction_T_max  0.889
_exptl_absorpt_correction_T_min  0.883
_exptl_absorpt_correction_type   multi-scan
_exptl_absorpt_process_details   'CrysAlisPro 1.171.39.46 (Rigaku OD, 2018)'
_exptl_crystal_colour            Colourless
_exptl_crystal_density_diffrn    1.297
_exptl_crystal_description       Block
_exptl_crystal_F_000             188
_exptl_crystal_size_max          0.190
_exptl_crystal_size_mid          0.190
_exptl_crystal_size_min          0.180
_refine_diff_density_max         0.283
_refine_diff_density_min         -0.304
_refine_diff_density_rms         0.056
_refine_ls_extinction_coef       0.65(2)
_refine_ls_extinction_expression Fc^*^=kFc[1+0.001xFc^2^\l^3^/sin(2\q)]^-1/4^
_refine_ls_extinction_method     'SHELXL-2014/7 (Sheldrick 2014'
_refine_ls_goodness_of_fit_ref   1.007
_refine_ls_hydrogen_treatment    constr
_refine_ls_matrix_type           full
_refine_ls_number_parameters     87
_refine_ls_number_reflns         2006
_refine_ls_number_restraints     0
_refine_ls_restrained_S_all      1.007
_refine_ls_R_factor_all          0.0320
_refine_ls_R_factor_gt           0.0302
_refine_ls_shift/su_max          0.000
_refine_ls_shift/su_mean         0.000
_refine_ls_structure_factor_coef Fsqd
_refine_ls_weighting_details
'w=1/[\s^2^(Fo^2^)+(0.0551P)^2^+0.0957P] where P=(Fo^2^+2Fc^2^)/3'
_refine_ls_weighting_scheme      calc
_refine_ls_wR_factor_gt          0.0857
_refine_ls_wR_factor_ref         0.0869
_reflns_Friedel_coverage         0.000
_reflns_number_gt                1858
_reflns_number_total             2006
_reflns_threshold_expression     'I > 2\s(I)'
_cod_data_source_file            ja0c00375_si_005.cif
_cod_data_source_block           P-1
_cod_database_code               4134256
_shelx_shelxl_version_number     2014/7
_shelx_space_group_comment
;
The symmetry employed for this shelxl refinement is uniquely defined
by the following loop, which should always be used as a source of
symmetry information in preference to the above space-group names.
They are only intended as comments.
;
_shelx_estimated_absorpt_t_min   0.886
_shelx_estimated_absorpt_t_max   0.892
_shelx_res_file
;

    P-1.res created by SHELXL-2014/7


TITL P-1 in P-1
CELL 0.71073   5.6892   7.0976  11.5466  76.351  82.677  84.635
ZERR    2.00   0.0001   0.0001   0.0003   0.002   0.002   0.002
LATT 1
SFAC C  H  Cl N
UNIT 10 32 4 4
OMIT 0 54.5
L.S. 25
ACTA
BOND
FMAP 2
PLAN 5
TEMP 20
SIZE 0.18 0.19 0.19
WGHT    0.055100    0.095700
EXTI    0.648383
FVAR       0.96132
CL1   3    0.261601    0.289998    0.505195    11.00000    0.03161    0.03268 =
         0.03570   -0.00300   -0.00729   -0.00222
CL2   3    0.405888    0.285037    0.877697    11.00000    0.04834    0.04211 =
         0.03469   -0.00981    0.00424    0.00774
N2    4   -0.033044    0.195369    0.202412    11.00000    0.02329    0.02494 =
         0.02238   -0.00289   -0.00302    0.00133
N1    4    0.290160   -0.268297    0.359141    11.00000    0.03118    0.02655 =
         0.02680   -0.00154   -0.00484    0.00305
AFIX 137
H1A   2    0.353144   -0.305766    0.292919    11.00000   -1.50000
H1B   2    0.160252   -0.331461    0.389575    11.00000   -1.50000
H1C   2    0.395144   -0.294925    0.412654    11.00000   -1.50000
AFIX   0
C2    1    0.079267   -0.008735    0.225303    11.00000    0.02999    0.02484 =
         0.02979   -0.00733   -0.00834    0.00398
AFIX  23
H2B   2    0.179324   -0.026592    0.153630    11.00000   -1.20000
H2A   2   -0.045000   -0.098992    0.240576    11.00000   -1.20000
AFIX   0
C3    1   -0.198726    0.229930    0.308727    11.00000    0.02722    0.04017 =
         0.02983   -0.00572    0.00368    0.00440
AFIX 137
H3A   2   -0.296907    0.122149    0.338198    11.00000   -1.50000
H3B   2   -0.297131    0.346859    0.285161    11.00000   -1.50000
H3C   2   -0.107952    0.242855    0.370721    11.00000   -1.50000
AFIX   0
C1    1    0.227199   -0.057774    0.329819    11.00000    0.03456    0.02450 =
         0.03672   -0.00623   -0.01388    0.00258
AFIX  23
H1E   2    0.370460    0.012581    0.309081    11.00000   -1.20000
H1D   2    0.137974   -0.019384    0.398859    11.00000   -1.20000
AFIX   0
C4    1   -0.170460    0.220728    0.095999    11.00000    0.03824    0.03841 =
         0.03038   -0.00492   -0.01505    0.00448
AFIX 137
H4A   2   -0.062412    0.212447    0.026116    11.00000   -1.50000
H4B   2   -0.256660    0.345456    0.083070    11.00000   -1.50000
H4C   2   -0.279912    0.120447    0.110970    11.00000   -1.50000
AFIX   0
C5    1    0.149291    0.343561    0.174084    11.00000    0.03376    0.03149 =
         0.03329   -0.00079   -0.00014   -0.00803
AFIX 137
H5A   2    0.236019    0.330128    0.241975    11.00000   -1.50000
H5B   2    0.071788    0.471484    0.155930    11.00000   -1.50000
H5C   2    0.256902    0.324030    0.106193    11.00000   -1.50000
AFIX   0
HKLF 4

REM  P-1 in P-1
REM R1 =  0.0302 for    1858 Fo > 4sig(Fo)  and  0.0320 for all    2006 data
REM     87 parameters refined using      0 restraints

END

WGHT      0.0522      0.0681

REM Highest difference peak  0.283,  deepest hole -0.304,  1-sigma level  0.056
Q1    1   0.0181  0.1011  0.2168  11.00000  0.05    0.28
Q2    1   0.3229  0.4342  0.4988  11.00000  0.05    0.21
Q3    1   0.4738  0.4057  0.8738  11.00000  0.05    0.20
Q4    1   0.1954  0.1628  0.5270  11.00000  0.05    0.19
Q5    1   0.0377  0.2534  0.1991  11.00000  0.05    0.18
;
_shelx_res_checksum              6486
_shelx_hkl_file
;
   0   0  -2  101.24    2.49
   0   0  -3  942.41   19.08
   0   0   3  866.23   18.92
   0   0   4  181.34    4.29
   0   0  -4  173.49    4.46
   0   0   5  824.08   17.74
   0   0   5  842.14   18.00
   0   0   6  475.33   11.08
   0   0   6  487.67   10.70
   0   0   7  295.72    6.73
   0   0   7  274.32    7.29
   0   0   8  329.48    8.53
   0   0   8  332.50    7.57
   0   0   9   25.22    1.71
   0   0   9   24.75    1.06
   0   0  10  196.44    6.12
   0   0  10  194.34    4.68
   0   0  11   96.79    4.00
   0   0  11   95.47    2.57
   0   0  12    0.56    0.58
   0   0  13   82.36    3.95
   0   0  14    7.50    1.24
   0   0  15    8.18    1.36
   0  -1  15    1.56    0.79
   0  -1  14   40.14    2.81
   0  -1  13   26.99    2.22
   0  -1  12    0.45    0.22
   0  -1  12    0.93    0.59
   0  -1  11   23.21    1.85
   0  -1  11   24.85    0.99
   0  -1  10   41.76    1.49
   0  -1  10   43.32    2.42
   0  -1   9  123.83    4.42
   0  -1   9  129.94    3.46
   0  -1   9  121.46    3.69
   0  -1   8    5.10    0.75
   0  -1   8    5.27    0.57
   0  -1   8    4.70    0.53
   0  -1   7   52.45    2.30
   0  -1   7   52.91    1.85
   0  -1   7   49.64    1.88
   0  -1   6  102.82    2.83
   0  -1   6   95.03    2.98
   0  -1   6  105.25    3.34
   0  -1   5  357.14    8.60
   0  -1   5  374.59    7.93
   0   1  -5  358.64    7.81
   0   1  -5  354.18    7.78
   0  -1   5  330.81    8.32
   0  -1   5  383.71    7.93
   0  -1   4    2.36    0.35
   0  -1   3   85.25    2.35
   0   1  -3   81.28    2.16
   0  -1   2  198.23    4.61
   0  -1   2  202.62    4.47
   0   1  -2  206.03    4.57
   0  -1   1    1.49    0.14
   0  -1   1    1.29    0.14
   0   1   0   59.03    1.32
   0  -1   0   57.83    1.33
   0  -1  -1    7.68    0.29
   0   1   1    7.93    0.32
   0   1   1    7.86    0.32
   0  -1  -2  583.12   12.10
   0  -1  -2  574.95   12.16
   0   1   3 1068.48   23.27
   0  -1  -3 1161.00   23.22
   0   1   4   38.43    1.19
   0  -1  -4   39.13    1.32
   0   1   5   40.63    1.30
   0  -1  -5   40.73    1.51
   0   1   6  366.05    7.90
   0  -1  -6  379.50    7.93
   0   1   6  352.96    7.86
   0  -1  -6  337.23    8.46
   0  -1  -6  376.32    7.94
   0   1   6  356.94    8.05
   0  -1  -7  259.46    6.87
   0   1   7  276.91    6.25
   0   1   8  110.09    3.53
   0  -1  -8   99.97    3.46
   0   1   8  108.38    2.87
   0   1   9  706.04   15.05
   0  -1  -9  683.98   16.08
   0   1   9  695.83   16.18
   0   1  10   23.88    1.64
   0  -1 -10   25.15    1.58
   0   1  11    8.79    1.11
   0   1  12    0.94    0.57
   0   1  13    0.07    0.54
   0   1  14   51.82    3.10
   0   1  15    0.09    0.64
   0  -2  15    7.96    1.40
   0  -2  14   22.86    2.14
   0  -2  13   32.58    2.46
   0  -2  12    3.85    0.93
   0  -2  12    3.06    0.33
   0  -2  11   91.98    4.05
   0  -2  11   96.41    2.68
   0  -2  10   78.85    3.45
   0  -2  10   72.78    2.35
   0  -2   9   23.05    1.22
   0  -2   9   22.87    1.66
   0  -2   8  367.38    9.13
   0   2  -8  337.85    7.60
   0   2  -8  340.14    7.64
   0  -2   8  332.47    8.26
   0  -2   8  331.98    7.59
   0  -2   8  376.73    8.45
   0  -2   7    2.59    0.40
   0  -2   7    2.15    0.39
   0   2  -7    2.75    0.33
   0  -2   7    1.64    0.40
   0   2  -7    2.27    0.32
   0  -2   7    2.53    0.51
   0  -2   7    2.52    0.43
   0  -2   6  271.41    7.20
   0   2  -6  270.70    6.49
   0  -2   6  289.76    6.72
   0  -2   6  287.35    6.72
   0  -2   6  290.02    6.80
   0  -2   5  506.02   12.00
   0  -2   5  538.77   11.65
   0   2  -4   88.60    2.47
   0  -2   4   92.75    2.56
   0  -2   4   90.16    2.72
   0   2  -3  867.00   18.49
   0  -2   3  842.60   18.61
   0  -2   3  907.95   18.52
   0  -2   2  150.84    3.77
   0   2  -2  155.80    3.78
   0   2  -1   81.37    1.86
   0  -2   1   70.26    1.87
   0   2  -1   75.09    1.98
   0  -2   1   80.46    1.97
   0   2  -1   74.13    1.93
   0   2   0 1487.50   31.79
   0   2   0 1545.74   31.83
   0  -2  -1    3.30    0.24
   0   2   2  654.83   13.48
   0   2   2  652.28   13.48
   0  -2  -2  611.61   13.39
   0  -2  -3  259.17    5.58
   0  -2  -3  262.49    5.60
   0   2   3  236.96    5.58
   0   2   3  243.28    5.48
   0  -2  -3  249.90    5.62
   0  -2  -4  138.07    3.36
   0   2   4  136.36    3.29
   0  -2  -4  143.26    3.53
   0  -2  -4  135.07    3.37
   0  -2  -5  773.98   16.48
   0   2   5  769.53   16.44
   0  -2  -6   89.65    2.67
   0   2   6   82.95    2.47
   0  -2  -7  179.66    4.85
   0  -2  -7  182.92    4.64
   0   2   7  187.04    4.76
   0  -2  -7  186.94    4.65
   0  -2  -8  176.38    4.42
   0   2   8  165.52    4.28
   0   2   8  174.91    4.66
   0  -2  -8  167.36    4.82
   0  -2  -8  175.57    4.44
   0   2   9    0.14    0.18
   0   2   9    0.14    0.19
   0  -2  -9   -0.04    0.39
   0   2   9    0.03    0.34
   0  -2 -10  228.43    5.30
   0   2  10  238.38    5.35
   0  -2 -10  237.29    6.65
   0   2  10  261.34    6.84
   0   2  10  259.93    6.41
   0  -2 -11   13.69    1.24
   0   2  11   15.04    1.32
   0   2  11   15.85    1.15
   0  -2 -12    6.52    0.94
   0   2  12    5.68    0.76
   0   2  12    7.57    1.03
   0   2  13  166.14    5.01
   0   2  13  167.93    5.90
   0   2  14    0.47    0.56
   0   2  15    5.05    1.08
   0  -3  14    4.25    0.66
   0  -3  14    5.08    1.09
   0  -3  13   26.40    2.18
   0  -3  12   14.03    1.53
   0  -3  11    8.96    0.67
   0  -3  11    9.91    1.26
   0  -3  10    0.78    0.52
   0  -3  10    0.11    0.33
   0  -3   9   57.21    2.35
   0  -3   9   67.14    2.99
   0  -3   9   61.58    2.10
   0   3  -9   67.30    2.20
   0   3  -9   62.81    2.11
   0  -3   8  136.93    3.97
   0  -3   8  150.13    4.33
   0   3  -8  136.08    3.82
   0  -3   8  132.97    4.50
   0  -3   8  138.28    3.95
   0  -3   8  125.97    4.12
   0   3  -8  140.29    3.94
   0  -3   7  103.46    3.27
   0   3  -7   92.79    2.97
   0  -3   7   92.32    3.40
   0  -3   7  102.30    3.24
   0  -3   7  102.71    3.27
   0  -3   6    8.32    0.81
   0  -3   6    6.57    0.67
   0  -3   6    8.32    0.81
   0  -3   6    6.11    0.70
   0  -3   5  320.65    8.08
   0  -3   5  351.68    8.02
   0  -3   4   19.48    1.00
   0   3  -4   19.43    0.92
   0  -3   3    3.12    0.38
   0   3  -3    3.46    0.36
   0   3  -3    3.11    0.35
   0   3  -2  194.63    4.63
   0  -3   2  203.80    4.70
   0   3  -2  187.60    4.63
   0  -3   1   72.75    1.98
   0   3  -1   68.48    1.98
   0   3  -1   71.66    2.02
   0   3   0  806.74   17.06
   0  -3   0  841.00   17.30
   0  -3  -1   99.45    2.56
   0  -3  -2    4.91    0.37
   0   3   2    4.83    0.39
   0   3   3  878.52   19.05
   0   3   3  887.68   18.95
   0  -3  -3  905.24   19.06
   0   3   4   30.22    1.05
   0  -3  -4   31.18    1.15
   0  -3  -4   30.54    1.18
   0   3   4   29.07    1.13
   0  -3  -5   24.99    1.03
   0   3   5   24.38    0.95
   0  -3  -5   23.62    1.04
   0  -3  -5   24.68    1.15
   0   3   6  310.20    7.06
   0  -3  -6  320.86    7.25
   0  -3  -6  301.06    7.22
   0  -3  -7   30.05    1.33
   0   3   7   33.61    1.29
   0  -3  -7   33.23    1.46
   0  -3  -8  234.80    6.01
   0  -3  -8  219.41    5.79
   0  -3  -8  232.79    6.03
   0   3   8  235.71    5.67
   0  -3  -9  249.29    6.40
   0   3   9  247.40    6.21
   0  -3  -9  239.00    6.50
   0  -3  -9  234.78    6.48
   0  -3  -9  265.07    6.45
   0   3   9  255.28    6.20
   0  -3 -10    0.82    0.49
   0  -3 -10    0.87    0.41
   0  -3 -10    0.80    0.42
   0   3  10    0.98    0.35
   0  -3 -10    0.82    0.39
   0   3  10    0.97    0.34
   0   3  10    1.28    0.35
   0  -3 -11  128.06    4.31
   0  -3 -11  129.66    4.47
   0   3  11  145.31    3.95
   0  -3 -11  132.23    3.87
   0   3  11  149.86    4.07
   0   3  11  147.99    4.15
   0   3  12    0.17    0.43
   0   3  12    0.43    0.36
   0  -3 -12    0.31    0.34
   0  -3 -12   -0.21    0.51
   0  -3 -12    0.29    0.21
   0   3  12    0.19    0.19
   0   3  13    0.70    0.40
   0   3  13    1.25    0.58
   0  -3 -13    0.63    0.43
   0   3  14   44.13    2.67
   0  -3 -14   38.21    2.20
   0  -3 -15    2.59    0.73
   0   3  15    4.62    1.04
   0  -4  13    2.49    0.54
   0  -4  12    0.54    0.57
   0  -4  12    0.89    0.44
   0  -4  11  106.56    4.25
   0  -4  11  105.72    3.45
   0  -4  10    0.03    0.31
   0  -4  10    0.14    0.26
   0  -4  10   -0.17    0.53
   0  -4  10    0.07    0.28
   0  -4   9    1.37    0.47
   0  -4   9    1.63    0.45
   0   4  -9    0.90    0.41
   0  -4   9    1.42    0.54
   0  -4   9    0.99    0.46
   0  -4   9    0.79    0.49
   0  -4   8  267.24    7.24
   0   4  -8  280.74    7.07
   0  -4   8  268.87    6.75
   0  -4   8  270.47    7.17
   0  -4   8  256.43    7.28
   0   4  -8  278.55    7.22
   0  -4   7   17.56    1.05
   0  -4   7   19.21    1.33
   0  -4   7   17.70    1.26
   0   4  -7   18.01    1.17
   0  -4   7   18.91    1.36
   0  -4   7   16.82    1.18
   0  -4   6   89.21    2.75
   0   4  -6   87.81    2.78
   0  -4   6   82.06    2.96
   0  -4   6   90.88    3.26
   0  -4   6   90.17    3.21
   0  -4   6   94.06    3.13
   0   4  -5   45.25    1.73
   0   4  -5   40.38    1.53
   0  -4   5   46.09    1.90
   0  -4   5   41.34    1.59
   0   4  -4   21.25    1.08
   0   4  -4   21.70    1.04
   0  -4   4   21.42    1.16
   0  -4   3  156.31    4.14
   0   4  -3  153.16    3.99
   0   4  -3  165.01    4.13
   0   4  -2    4.59    0.43
   0   4  -2    3.83    0.42
   0  -4   1  524.91   11.73
   0   4  -1  548.63   11.78
   0   4  -1  536.61   11.79
   0   4   0  711.07   14.93
   0  -4   0  715.36   15.27
   0  -4  -1  271.41    6.33
   0   4   1  275.25    5.97
   0  -4  -2   56.68    1.80
   0   4   2   57.72    1.69
   0   4   3    3.37    0.39
   0   4   3    2.81    0.37
   0   4   3    2.48    0.29
   0  -4  -3    2.93    0.35
   0   4   4    0.37    0.18
   0   4   4    0.40    0.20
   0  -4  -4    0.60    0.23
   0   4   4    0.34    0.17
   0  -4  -5  424.65    9.39
   0  -4  -5  401.96    9.22
   0   4   5  414.55    9.06
   0   4   5  393.29    9.21
   0  -4  -6    7.64    0.64
   0   4   6    8.94    0.59
   0  -4  -6    9.67    0.78
   0  -4  -6    9.23    0.71
   0  -4  -7   86.18    2.85
   0  -4  -7   87.16    2.74
   0   4   7   86.21    2.49
   0   4   8    9.06    0.66
   0  -4  -8    9.26    0.69
   0  -4  -8    8.97    0.82
   0  -4  -8    8.98    0.85
   0  -4  -9   66.98    2.63
   0  -4  -9   59.69    2.10
   0  -4  -9   65.60    2.64
   0   4   9   65.74    2.13
   0  -4  -9   62.08    2.47
   0   4  10  179.55    4.61
   0  -4 -10  165.03    5.02
   0  -4 -10  168.86    4.62
   0  -4 -10  163.93    5.03
   0  -4 -10  178.72    5.14
   0  -4 -10  173.48    5.14
   0   4  10  171.32    4.89
   0  -4 -11    2.61    0.60
   0   4  11    1.87    0.44
   0   4  11    2.24    0.50
   0   4  11    2.72    0.57
   0  -4 -11    2.27    0.63
   0  -4 -11    2.40    0.65
   0  -4 -11    1.87    0.41
   0  -4 -11    2.06    0.61
   0   4  12    8.97    0.91
   0  -4 -12    8.49    0.99
   0   4  12    9.84    0.82
   0  -4 -12    8.21    0.78
   0  -4 -12    8.00    0.86
   0   4  12    9.10    0.88
   0   4  13   24.29    1.40
   0  -4 -13   20.44    1.27
   0   4  13   22.62    1.29
   0  -4 -13   21.82    1.62
   0  -4 -14    5.46    0.67
   0  -4 -14    6.46    0.98
   0  -4 -15    8.10    1.11
   0  -5  11   19.28    1.33
   0  -5  10    2.51    0.52
   0  -5   9    0.97    0.40
   0  -5   9    0.52    0.57
   0  -5   8  104.81    3.95
   0  -5   8  100.28    3.81
   0  -5   8  101.86    3.35
   0   5  -8  111.84    3.96
   0  -5   7    0.47    0.56
   0  -5   7    0.93    0.67
   0  -5   7   -0.09    0.31
   0   5  -7    0.13    0.35
   0  -5   6   94.86    3.09
   0  -5   6   99.52    3.81
   0  -5   6  100.94    3.74
   0  -5   6  100.56    3.41
   0  -5   5  382.95    9.29
   0   5  -5  378.15    8.70
   0  -5   5  389.90    9.06
   0   5  -4   16.32    0.91
   0   5  -4   17.93    1.07
   0   5  -3   70.26    2.33
   0   5  -3   66.30    2.13
   0  -5   2  263.81    6.42
   0   5  -2  264.06    6.29
   0   5  -2  266.27    6.43
   0  -5   1    1.68    0.33
   0   5  -1    1.50    0.31
   0  -5   0  198.29    4.88
   0  -5   0  187.68    4.79
   0  -5  -1  333.68    7.88
   0   5   1  345.62    7.34
   0  -5  -1  339.85    7.93
   0  -5  -2  184.13    4.63
   0  -5  -2  176.82    4.60
   0   5   2  168.97    4.32
   0   5   2  191.60    4.10
   0   5   3  223.62    5.25
   0   5   3  217.17    5.50
   0  -5  -3  221.93    5.47
   0   5   3  225.25    5.62
   0   5   4    2.20    0.32
   0   5   4    1.95    0.37
   0  -5  -4    1.95    0.36
   0   5   4    2.55    0.39
   0   5   5  111.71    3.26
   0  -5  -5  114.56    3.32
   0  -5  -5  113.86    3.24
   0   5   5  115.75    3.04
   0   5   6  121.94    3.24
   0  -5  -6  121.13    3.61
   0  -5  -6  115.70    3.45
   0  -5  -7    0.53    0.42
   0   5   7    0.43    0.27
   0  -5  -7    0.10    0.30
   0  -5  -8  376.18    9.30
   0   5   8  401.58    8.99
   0  -5  -9   87.26    3.13
   0   5   9   96.44    2.84
   0  -5  -9   91.99    3.21
   0  -5 -10    1.03    0.70
   0   5  10    0.22    0.30
   0  -5 -10    1.41    0.72
   0  -5 -10    0.21    0.34
   0   5  11   39.09    2.04
   0  -5 -11   41.74    2.28
   0   5  11   40.22    1.69
   0  -5 -11   41.57    2.22
   0  -5 -11   39.93    2.10
   0   5  12    0.21    0.37
   0  -5 -12   -0.46    0.60
   0  -5 -12   -0.05    0.41
   0   5  12    0.27    0.36
   0  -5 -13   54.03    2.68
   0   5  13   52.96    2.57
   0  -5 -14   23.70    1.76
   0   5  14   22.75    1.85
   0  -6   9    0.12    0.40
   0   6  -8   23.66    1.83
   0  -6   8   24.53    1.49
   0  -6   8   22.52    1.84
   0  -6   7    5.03    1.06
   0  -6   7    5.52    0.72
   0  -6   6   36.81    2.34
   0  -6   6   33.65    1.71
   0  -6   5   10.89    1.36
   0  -6   5    9.62    0.87
   0  -6   5   10.10    1.31
   0   6  -4    8.88    0.65
   0   6  -3    0.83    0.27
   0   6  -2   28.18    1.24
   0  -6   2   26.02    1.33
   0   6  -1  130.98    3.64
   0  -6   1  136.41    3.85
   0  -6   0    2.24    0.40
   0   6   0    2.21    0.41
   0  -6   0    2.95    0.45
   0  -6  -1   54.25    2.01
   0  -6  -1   56.65    2.06
   0   6   2  165.14    4.13
   0  -6  -2  160.62    4.38
   0  -6  -2  159.33    4.38
   0   6   3  202.72    4.24
   0   6   3  177.11    4.65
   0   6   3  187.82    5.03
   0  -6  -3  180.13    4.97
   0   6   3  200.00    5.23
   0  -6  -3  193.73    5.06
   0  -6  -4   54.57    2.07
   0   6   4   53.17    2.12
   0   6   4   55.73    2.07
   0   6   4   53.87    1.82
   0   6   5  143.56    4.10
   0   6   5  153.45    3.86
   0  -6  -5  150.81    4.20
   0   6   6   23.21    1.28
   0   6   6   26.80    1.19
   0  -6  -6   25.51    1.42
   0  -6  -7   10.15    0.94
   0   6   7    9.67    0.71
   0  -6  -8    0.70    0.44
   0   6   8    0.88    0.32
   0   6   9   21.17    1.13
   0  -6 -10    3.35    0.89
   0  -6 -11   63.80    3.18
   0  -6 -12    2.22    0.60
   0  -6 -12    3.47    0.93
   0  -6 -13   10.05    1.12
   0   6  13   10.01    1.20
   0  -6 -14   12.82    1.32
   0  -7   8   95.18    4.26
   0  -7   7    8.54    1.42
   0  -7   7    7.57    0.91
   0  -7   6   30.65    1.71
   0  -7   6   30.17    2.33
   0  -7   5   64.70    2.61
   0  -7   5   65.78    3.54
   0  -7   4    1.75    0.94
   0   7  -4    0.15    0.19
   0   7  -3   68.55    2.15
   0   7  -2   82.61    2.55
   0  -7   2   90.28    3.03
   0   7  -1   16.11    0.96
   0  -7   1   17.96    1.18
   0   7   0   89.24    2.86
   0  -7   0   89.73    3.02
   0  -7  -1   28.94    1.43
   0  -7  -1   28.68    1.48
   0  -7  -2   41.88    1.81
   0  -7  -2   42.34    1.83
   0  -7  -3  109.55    3.42
   0   7   3  104.27    3.50
   0  -7  -3  109.71    3.44
   0  -7  -4   25.58    1.38
   0   7   4   25.48    1.47
   0  -7  -4   25.39    1.41
   0   7   5   52.71    1.24
   0  -7  -5   48.50    2.07
   0  -7  -5   50.96    2.15
   0   7   5   48.84    2.17
   0   7   6    0.44    0.29
   0  -7  -6    0.19    0.36
   0  -7  -7    9.83    0.99
   0  -7  -8  218.52    6.38
   0  -7  -9    4.02    1.10
   0  -7  -9    2.10    0.65
   0  -7 -10   13.30    1.67
   0  -7 -11   48.18    2.98
   0  -7 -12   20.29    2.00
   0   7  13    9.05    1.28
   0  -8   7    1.44    0.95
   0  -8   6    0.85    1.02
   0  -8   5   25.25    2.38
   0  -8   4    1.76    1.16
   0  -8   3    2.48    1.21
   0  -8   2   34.48    1.84
   0  -8   2   41.99    2.98
   0  -8   1   47.14    2.15
   0   8   0   12.00    0.87
   0  -8   0   11.23    1.01
   0  -8  -1  104.30    3.47
   0   8   1  103.08    3.24
   0  -8  -2    6.37    0.72
   0  -8  -2    5.77    0.72
   0  -8  -3   55.78    2.25
   0  -8  -3   53.47    2.29
   0  -8  -4    0.91    0.44
   0  -8  -4    1.56    0.49
   0  -8  -5    2.31    0.54
   0  -8  -5    1.45    0.48
   0  -8  -6   59.29    2.56
   0  -8  -6   56.65    2.38
   0  -8  -7   -0.05    0.41
   0  -8  -8   11.98    1.21
   0  -8  -8   16.10    1.93
   0  -8  -9    8.65    1.61
   0  -8  -9    5.95    0.96
   0  -8 -10    0.09    0.89
   0  -8 -11   27.32    2.46
   0  -8 -12    0.09    0.89
   0   8  13    4.63    1.07
   0  -9   3   10.96    1.92
   0  -9   2   11.27    1.96
   0  -9   1    9.90    1.87
   0  -9   0   21.83    1.48
   0  -9   0   26.68    2.63
   0  -9  -1   20.83    2.38
   0  -9  -1   14.50    1.19
   0  -9  -2   26.76    1.65
   0  -9  -3    0.04    0.42
   0  -9  -3    0.04    0.39
   0  -9  -4    0.85    0.42
   0  -9  -4    0.65    0.42
   0  -9  -5   47.37    2.30
   0  -9  -5   44.23    2.12
   0  -9  -6    0.67    0.44
   0  -9  -6    0.34    0.44
   0  -9  -7    1.31    0.53
   0  -9  -7    2.16    0.69
   0  -9  -8   48.92    2.35
   0  -9  -8   50.82    2.66
   0  -9  -9    1.93    1.22
   0  -9  -9    1.30    0.65
   0  -9 -10    0.26    0.59
   1  -9  -9   20.37    1.47
   1  -9  -8    1.05    0.60
   1  -9  -8    0.75    0.47
   1  -9  -7    0.06    0.48
   1  -9  -7   -0.16    0.47
   1  -9  -7   -0.13    1.13
   1  -9  -6   11.94    1.10
   1  -9  -6   13.07    1.33
   1  -9  -5   10.91    0.98
   1  -9  -5   11.06    1.99
   1  -9  -5   10.25    1.18
   1  -9  -4   73.19    2.77
   1  -9  -4   73.25    3.14
   1  -9  -3    1.26    0.52
   1  -9  -3    1.12    1.16
   1  -9  -3    1.35    0.45
   1  -9  -2    6.58    0.87
   1  -9  -1   39.17    2.13
   1  -9  -1   44.19    3.62
   1  -9   0    1.40    1.24
   1  -9   1   10.98    2.01
   1  -8 -12   -1.15    1.18
   1  -8 -11   37.65    3.02
   1  -8 -10    0.42    1.02
   1  -8  -9    1.50    0.66
   1  -8  -9    1.18    1.06
   1  -8  -8   33.65    2.96
   1  -8  -8   33.26    2.16
   1  -8  -7    2.82    1.18
   1  -8  -7    2.10    0.65
   1  -8  -7    2.27    0.57
   1  -8  -6   41.28    2.25
   1  -8  -6   45.12    3.32
   1  -8  -6   42.28    1.94
   1  -8  -5   46.43    2.05
   1  -8  -5   45.34    2.31
   1  -8  -5   47.17    3.41
  -1   8   5   45.89    1.54
   1  -8  -4    1.15    0.47
  -1   8   4    1.39    0.28
   1  -8  -4    1.12    0.42
   1  -8  -3   96.26    3.55
  -1   8   3  108.37    2.72
   1  -8  -3  108.56    5.32
   1  -8  -3   96.87    3.26
   1  -8  -2   29.56    1.72
   1  -8  -2   28.27    1.46
   1  -8  -1    2.85    0.62
   1  -8  -1    4.10    1.31
  -1   8   1    2.65    0.63
  -1   8   0   42.69    2.10
   1  -8   0   42.82    3.28
   1  -8   0   40.27    2.00
   1  -8   1    2.99    1.25
   1  -8   2   41.38    3.24
   1  -8   3   10.63    1.05
   1  -8   3   12.34    1.86
   1  -8   4   38.25    2.05
   1  -8   4   42.38    3.28
   1  -8   5  114.47    5.48
   1  -8   6    6.30    1.42
   1  -8   7    0.48    0.97
   1  -7 -12    8.19    1.41
   1  -7 -11   -0.34    1.02
   1  -7 -10    7.13    1.42
   1  -7  -9   39.17    2.90
   1  -7  -8    7.10    1.44
   1  -7  -8    7.49    1.03
   1  -7  -7   31.91    1.95
   1  -7  -7   36.88    2.79
   1  -7  -6   16.47    1.29
  -1   7   6   13.05    0.97
  -1   7   5   28.14    1.47
   1  -7  -5   29.90    1.50
   1  -7  -5   29.35    1.72
  -1   7   4  103.27    3.29
   1  -7  -4  105.59    3.30
   1  -7  -4  103.26    3.55
   1  -7  -3    2.97    0.53
  -1   7   3    2.67    0.38
   1  -7  -3    3.99    0.55
   1  -7  -3    4.23    1.23
  -1   7   2   14.68    0.79
   1  -7  -2   16.11    1.14
   1  -7  -2   13.65    0.95
   1  -7  -1   38.74    1.84
   1  -7  -1   35.64    1.56
   1  -7   0   33.70    2.66
  -1   7   0   30.65    1.72
  -1   7   0   30.88    1.19
   1  -7   0   27.29    1.51
   1  -7   1   18.21    2.02
  -1   7  -1   15.96    1.21
  -1   7  -2   30.52    1.65
   1  -7   2   32.70    2.62
   1  -7   3   16.28    1.91
  -1   7  -3   13.88    1.07
   1  -7   3   15.81    1.17
  -1   7  -4    1.11    0.39
   1  -7   4    1.14    0.46
   1  -7   4    0.55    0.92
   1  -7   5    0.21    0.36
   1  -7   5   -0.64    1.01
   1  -7   6    5.68    1.26
   1  -7   6    6.72    0.85
   1  -7   7    0.48    0.43
   1  -7   7   -0.25    0.97
   1  -7   8   -0.41    0.95
   1  -6 -14    1.49    0.60
   1  -6 -13    6.28    0.92
   1  -6 -12   21.72    1.91
   1  -6 -11   96.91    4.25
   1  -6 -10    1.25    0.78
   1  -6  -9   34.61    2.54
   1  -6  -8   20.40    1.55
   1  -6  -8   23.04    2.11
   1  -6  -7   21.83    1.99
   1  -6  -7   16.10    1.32
   1  -6  -6  248.21    6.92
   1  -6  -6  274.93    8.39
  -1   6   5  196.82    5.16
  -1   6   5  195.01    5.00
   1  -6  -5  196.12    5.54
  -1   6   5  192.67    5.09
   1  -6  -5  212.47    7.04
  -1   6   4   18.91    1.05
   1  -6  -4   21.07    1.28
  -1   6   4   20.75    1.07
  -1   6   4   20.73    1.10
   1  -6  -4   19.15    1.10
   1  -6  -3  120.50    3.48
   1  -6  -3  117.56    3.65
  -1   6   3  124.01    3.57
  -1   6   3  118.78    3.34
   1  -6  -3  129.49    3.75
   1  -6  -3  126.07    5.08
   1  -6  -2    3.53    1.09
  -1   6   2    0.88    0.27
   1  -6  -2    1.12    0.32
   1  -6  -2    4.27    1.09
   1  -6  -2    1.48    0.49
   1  -6  -2    0.73    0.35
   1  -6  -1  129.93    3.71
   1  -6  -1  125.03    3.52
   1  -6  -1  127.76    3.75
  -1   6   1  127.70    3.42
   1  -6   0  128.32    3.66
  -1   6   0  129.78    3.41
   1  -6   0  134.37    5.25
   1  -6   0  121.80    3.70
   1  -6   1    3.40    1.06
   1  -6   1    3.65    0.55
  -1   6  -1    2.99    0.39
  -1   6  -1    2.81    0.55
   1  -6   2  299.44    9.04
   1  -6   2  286.39    7.03
  -1   6  -2  296.87    7.55
  -1   6  -3    3.95    0.62
   1  -6   3    5.40    0.65
   1  -6   3    6.28    1.21
   1  -6   4   20.40    1.24
   1  -6   4   23.20    2.08
   1  -6   5  261.70    8.26
  -1   6  -5  247.17    6.53
   1  -6   5  250.64    6.55
   1  -6   6    2.50    0.42
  -1   6  -6    2.00    0.47
   1  -6   6    1.76    0.50
   1  -6   6    1.16    0.82
   1  -6   7   35.82    2.48
  -1   6  -7   38.83    1.72
   1  -6   7   39.39    1.88
   1  -6   8   34.57    1.79
   1  -6   8   32.42    2.35
   1  -6   9   -0.13    0.45
   1  -6   9    0.16    0.39
   1  -6  10   64.60    2.69
   1  -5 -14   -0.06    0.44
   1  -5 -13   21.36    1.59
   1  -5 -12   83.17    3.55
   1  -5 -12   86.78    3.38
   1  -5 -11   28.73    2.01
   1  -5 -11   29.06    1.99
   1  -5 -11   29.86    1.75
   1  -5 -10   35.24    2.26
   1  -5 -10   37.34    1.91
   1  -5 -10   36.45    2.23
   1  -5  -9   72.85    3.33
   1  -5  -9   64.08    2.53
   1  -5  -9   74.94    3.48
  -1   5   9   66.36    2.36
   1  -5  -8  145.93    5.11
   1  -5  -8  154.23    5.39
   1  -5  -7    2.30    0.87
  -1   5   7    2.54    0.43
   1  -5  -7    1.78    0.50
   1  -5  -7    3.68    0.96
   1  -5  -7    2.40    0.67
   1  -5  -6   24.23    1.88
   1  -5  -6   23.41    1.88
   1  -5  -6   19.06    1.29
   1  -5  -6   19.96    1.34
  -1   5   6   20.60    1.08
   1  -5  -5    4.78    0.61
  -1   5   5    4.96    0.52
  -1   5   5    4.65    0.51
   1  -5  -5    7.41    1.18
  -1   5   5    4.13    0.44
   1  -5  -5    4.53    0.68
   1  -5  -5    6.97    1.11
  -1   5   4   56.45    1.99
   1  -5  -4   69.69    3.17
   1  -5  -4   59.32    2.23
  -1   5   4   59.43    1.95
   1  -5  -4   68.94    3.29
  -1   5   4   56.71    1.91
   1  -5  -3  387.55   10.67
   1  -5  -3  388.77    9.23
   1  -5  -3  390.53   10.50
  -1   5   3  381.07    8.91
   1  -5  -2   65.08    2.16
   1  -5  -2   76.56    3.44
   1  -5  -2   67.19    2.34
   1  -5  -2   74.77    2.41
   1  -5  -2   80.74    3.41
   1  -5  -1   25.54    1.22
   1  -5  -1   25.03    1.12
  -1   5   1   24.04    1.05
   1  -5  -1   27.53    1.27
  -1   5   0  111.41    3.04
   1  -5   0  118.63    3.37
   1  -5   0  110.71    3.09
  -1   5   0  122.19    3.25
   1  -5   0  126.74    3.35
   1  -5   0  124.73    4.49
  -1   5  -1   72.33    2.66
   1  -5   1   71.41    3.39
  -1   5  -1   68.97    2.17
   1  -5   1   75.82    3.35
   1  -5   2    1.14    0.78
  -1   5  -2    0.23    0.27
   1  -5   2    1.06    0.72
  -1   5  -2    0.30    0.22
   1  -5   3  167.34    4.53
  -1   5  -3  164.86    4.43
  -1   5  -3  176.37    4.33
   1  -5   3  175.46    5.91
   1  -5   3  181.45    5.84
  -1   5  -3  164.29    4.78
   1  -5   4   51.41    1.98
  -1   5  -4   57.44    2.06
  -1   5  -4   53.13    2.19
   1  -5   4   64.15    3.21
   1  -5   4   65.28    3.10
   1  -5   5   63.58    3.05
   1  -5   5   54.89    2.13
   1  -5   5   60.39    3.13
  -1   5  -5   57.49    2.28
   1  -5   6    3.36    0.84
   1  -5   6    3.63    0.90
   1  -5   6    3.87    0.57
  -1   5  -6    3.79    0.58
   1  -5   7    3.85    0.58
   1  -5   7    3.20    0.86
  -1   5  -7    3.87    0.57
   1  -5   7    2.66    0.78
   1  -5   8   56.36    1.72
   1  -5   8   59.04    2.98
   1  -5   8   62.25    2.99
   1  -5   8   60.43    2.34
   1  -5   9   -0.03    0.33
   1  -5   9    0.06    0.42
   1  -5  10   23.43    1.43
   1  -5  11   28.49    1.62
   1  -5  12    1.17    0.50
   1  -4 -15    0.34    0.48
   1  -4 -14   28.46    1.87
  -1   4  13    3.56    0.54
   1  -4 -13    4.28    0.77
   1  -4 -12   11.04    1.10
   1  -4 -12   11.50    1.04
   1  -4 -11  100.22    3.55
   1  -4 -11   97.80    3.62
   1  -4 -10   20.98    1.36
   1  -4 -10   21.80    1.62
   1  -4 -10   22.85    1.63
  -1   4  10   22.55    1.29
   1  -4  -9   81.93    3.31
   1  -4  -9   74.19    3.11
  -1   4   9   80.67    2.65
   1  -4  -9   79.92    3.23
  -1   4   8    1.22    0.36
   1  -4  -8    1.59    0.56
   1  -4  -8    1.80    0.43
   1  -4  -8    1.54    0.68
   1  -4  -8    1.34    0.67
   1  -4  -7    9.98    1.15
   1  -4  -7   13.21    1.34
   1  -4  -7   11.04    0.84
  -1   4   7   10.14    0.77
   1  -4  -7   10.35    0.97
   1  -4  -6  553.27   12.37
   1  -4  -6  496.34   11.69
   1  -4  -6  531.32   12.32
  -1   4   6  511.10   11.67
   1  -4  -6  551.10   13.12
   1  -4  -6  541.61   13.20
   1  -4  -5    0.55    0.44
   1  -4  -5    0.72    0.33
   1  -4  -5    1.37    0.71
  -1   4   5    0.75    0.25
   1  -4  -5    1.27    0.70
   1  -4  -4  162.25    4.39
   1  -4  -4  181.80    5.43
   1  -4  -4  169.38    4.42
   1  -4  -4  177.60    5.48
  -1   4   4  150.16    3.90
  -1   4   4  155.71    4.04
  -1   4   4  161.09    4.07
  -1   4   3  815.88   16.64
   1  -4  -3  716.25   17.90
   1  -4  -3  693.41   17.99
   1  -4  -3  792.19   16.89
   1  -4  -2   61.32    2.80
  -1   4   2   54.78    1.74
   1  -4  -2   61.42    2.73
   1  -4  -2   52.38    1.71
   1  -4  -2   53.98    1.86
   1  -4  -1   42.17    1.53
  -1   4   1   40.03    1.37
   1  -4  -1   38.58    1.37
   1  -4  -1   39.08    1.47
   1  -4  -1   42.93    2.31
   1  -4  -1   44.16    2.29
   1  -4   0  195.30    4.63
  -1   4   0  183.01    4.42
   1  -4   0  181.94    4.43
  -1   4  -1    4.34    0.55
  -1   4  -1    3.44    0.34
   1  -4   1    4.33    0.88
  -1   4  -1    3.31    0.39
  -1   4  -2  441.89    9.90
  -1   4  -2  459.28    9.87
   1  -4   2  404.10   11.15
  -1   4  -2  453.51   10.44
   1  -4   2  421.42   11.12
  -1   4  -3   31.55    1.54
  -1   4  -3   32.28    1.29
   1  -4   3   34.86    2.05
  -1   4  -3   33.07    1.31
   1  -4   3   31.62    1.31
   1  -4   3   35.83    2.15
  -1   4  -4  227.69    6.14
  -1   4  -4  242.49    5.83
   1  -4   4  260.23    7.32
   1  -4   4  253.30    7.15
   1  -4   4  234.83    5.82
   1  -4   5  176.82    5.48
   1  -4   5  156.46    4.24
  -1   4  -5  155.36    4.53
  -1   4  -5  159.76    4.25
   1  -4   5  182.46    5.64
  -1   4  -6  140.77    3.91
   1  -4   6  152.98    4.96
   1  -4   6  154.75    5.07
   1  -4   6  144.42    3.96
  -1   4  -6  143.12    4.25
   1  -4   7  104.23    3.15
  -1   4  -7  100.91    3.27
   1  -4   7  107.66    3.97
   1  -4   7  107.76    4.05
   1  -4   8   46.89    2.44
   1  -4   8   50.34    2.51
   1  -4   8   47.96    1.91
   1  -4   9    4.37    0.71
   1  -4   9    5.11    0.87
   1  -4   9    3.52    0.46
   1  -4   9    4.69    0.58
   1  -4   9    4.15    0.31
   1  -4  10   85.59    3.16
   1  -4  10   91.74    2.99
   1  -4  10   93.19    3.90
   1  -4  11    0.48    0.36
   1  -4  11    0.41    0.57
   1  -4  12    2.82    0.56
   1  -4  12    3.31    0.87
   1  -4  13    1.41    0.70
   1  -4  13    3.16    0.59
   1  -3 -15   24.18    1.75
   1  -3 -14    0.59    0.44
  -1   3  14    0.82    0.55
   1  -3 -13   58.51    2.61
   1  -3 -13   60.39    1.97
   1  -3 -12   19.63    1.08
   1  -3 -12   19.03    0.96
  -1   3  12   23.71    1.05
   1  -3 -12   19.89    1.40
  -1   3  12   22.33    1.05
   1  -3 -11  119.42    3.80
   1  -3 -11  125.20    3.29
   1  -3 -11  131.13    4.78
   1  -3 -11  119.51    3.97
   1  -3 -10    6.22    0.71
   1  -3 -10    4.31    0.86
   1  -3 -10    5.80    0.71
   1  -3 -10    5.89    0.47
  -1   3  10    7.22    0.81
  -1   3   9   25.69    1.42
   1  -3  -9   25.24    0.96
   1  -3  -9   26.75    1.58
   1  -3  -9   24.43    1.39
   1  -3  -9   23.35    1.65
   1  -3  -8  361.39    8.99
   1  -3  -8  346.73    7.56
   1  -3  -8  338.82    9.07
   1  -3  -8  337.05    8.39
   1  -3  -8  362.35    9.02
  -1   3   8  355.20    8.47
   1  -3  -7    6.43    0.63
   1  -3  -7    7.25    0.85
   1  -3  -7    7.08    0.89
   1  -3  -7    6.29    0.86
  -1   3   7    7.44    0.66
   1  -3  -6   60.37    2.57
   1  -3  -6   60.94    2.63
   1  -3  -6   45.59    1.76
   1  -3  -6   53.63    2.22
  -1   3   6   50.88    1.86
   1  -3  -5  138.10    4.05
  -1   3   5  132.72    3.65
   1  -3  -5  132.71    3.64
   1  -3  -5  159.90    4.81
   1  -3  -5  155.33    4.68
   1  -3  -5  150.20    4.19
  -1   3   4    2.69    0.34
   1  -3  -4    4.69    0.78
   1  -3  -4    3.20    0.53
   1  -3  -4    2.87    0.32
  -1   3   4    3.18    0.27
   1  -3  -4    4.94    0.78
   1  -3  -4    4.40    0.51
   1  -3  -3  606.76   13.71
   1  -3  -3  593.63   14.57
  -1   3   3  648.91   13.39
   1  -3  -3  628.53   13.71
   1  -3  -3  606.72   14.59
   1  -3  -2  114.15    3.77
   1  -3  -2   98.31    2.79
  -1   3   2  102.03    2.65
   1  -3  -2  114.96    3.73
   1  -3  -1  652.23   14.90
   1  -3  -1  606.93   15.82
   1  -3  -1  608.44   15.87
  -1   3   1  705.98   14.79
   1  -3  -1  724.01   14.93
   1  -3  -1  755.71   14.75
   1  -3   0  426.44    9.27
  -1   3   0  418.26    9.16
   1  -3   0  422.36    9.12
  -1   3  -1  616.61   13.85
  -1   3  -1  640.05   13.61
   1  -3   1  652.59   13.68
  -1   3  -2  373.64    8.17
  -1   3  -2  369.84    8.09
   1  -3   2  368.72    9.38
  -1   3  -2  366.67    8.37
   1  -3   2  357.92    9.36
  -1   3  -2  376.48    8.76
   1  -3   3  378.41    8.61
   1  -3   3  401.43    9.89
  -1   3  -3  376.06    9.09
   1  -3   3  413.22   10.02
  -1   3  -3  388.44    8.59
  -1   3  -3  392.00    8.76
  -1   3  -4   14.64    0.80
   1  -3   4   16.23    1.33
  -1   3  -4   14.65    0.96
   1  -3   4   14.89    1.25
   1  -3   4   13.83    0.75
   1  -3   5  575.61   13.49
   1  -3   5  568.12   13.39
   1  -3   5  536.39   12.91
   1  -3   5  558.67   12.17
   1  -3   5  570.01   12.80
  -1   3  -5  538.87   12.69
   1  -3   6  100.38    3.59
   1  -3   6  105.69    2.99
  -1   3  -6  111.39    3.44
   1  -3   6  118.49    3.97
   1  -3   6  108.50    3.52
   1  -3   6  115.90    3.93
  -1   3  -7    8.87    0.77
   1  -3   7   10.80    1.03
   1  -3   7    7.90    0.92
   1  -3   7    8.36    0.64
   1  -3   7    8.57    0.87
   1  -3   8   55.92    1.84
   1  -3   8   58.20    2.75
   1  -3   8   58.16    2.42
   1  -3   8   56.46    1.93
   1  -3   9    8.08    0.42
   1  -3   9    6.90    0.29
   1  -3   9    7.61    0.63
   1  -3   9    8.77    1.10
   1  -3   9    7.15    0.77
   1  -3  10  101.32    3.09
   1  -3  10  108.05    4.35
  -1   3 -10  113.43    3.01
   1  -3  10  101.66    3.07
   1  -3  11   54.44    3.00
   1  -3  11   44.32    1.78
   1  -3  12    3.52    0.93
   1  -3  12    3.76    0.55
   1  -3  13   68.14    3.71
   1  -3  13   63.94    2.36
   1  -3  14    5.73    1.17
   1  -3  14    6.26    0.71
  -1   2  15    2.67    0.80
  -1   2  14    9.43    1.23
  -1   2  13    8.33    1.10
   1  -2 -12   99.43    4.18
  -1   2  11   31.98    1.54
   1  -2 -11   27.56    2.05
  -1   2  11   30.92    1.83
  -1   2  10    3.12    0.41
   1  -2 -10    2.68    0.69
  -1   2  10    3.97    0.60
   1  -2 -10    2.91    0.40
  -1   2  10    2.87    0.62
   1  -2  -9   94.30    3.85
  -1   2   9  118.71    3.38
  -1   2   9  109.61    3.65
   1  -2  -9   95.05    3.13
   1  -2  -8   33.42    1.59
  -1   2   8   34.52    1.74
  -1   2   8   39.37    1.70
   1  -2  -8   34.09    2.00
  -1   2   7   30.12    1.52
  -1   2   7   31.32    1.47
   1  -2  -7   29.55    1.54
   1  -2  -7   27.82    1.72
   1  -2  -6 1092.24   24.54
  -1   2   6 1082.44   23.99
   1  -2  -6 1145.65   23.14
  -1   2   6 1096.31   23.88
   1  -2  -6 1095.77   24.38
   1  -2  -6 1093.96   24.36
   1  -2  -5   13.20    1.00
  -1   2   5   12.28    0.81
  -1   2   5   13.40    0.88
   1  -2  -5   14.42    1.09
   1  -2  -5   14.38    1.10
   1  -2  -4   38.88    1.64
   1  -2  -4   39.57    1.85
   1  -2  -4   40.61    1.87
   1  -2  -3  343.93    7.93
   1  -2  -3  305.47    7.09
   1  -2  -3  267.60    6.61
   1  -2  -3  344.50    7.32
   1  -2  -3  332.57    7.86
  -1   2   3  299.94    6.37
   1  -2  -2  315.34    7.51
  -1   2   2  277.83    6.24
   1  -2  -2  299.94    7.40
  -1   2   2  291.98    6.53
   1  -2  -2  296.74    6.75
   1  -2  -2  272.26    6.52
  -1   2   1  719.08   14.59
   1  -2  -1  658.77   15.66
   1  -2  -1  726.37   14.72
  -1   2   1  645.08   14.66
   1  -2  -1  681.12   15.77
   1  -2   0  209.43    4.68
  -1   2   0  215.59    4.80
   1  -2   0  222.42    4.95
  -1   2  -1  267.15    5.79
   1  -2   1  277.67    5.91
  -1   2  -2  403.83    8.66
  -1   2  -2  400.00    9.27
   1  -2   2  417.44    8.66
  -1   2  -2  405.21    9.02
   1  -2   2  426.00   10.02
   1  -2   2  418.38    9.94
   1  -2   2  387.40    8.72
  -1   2  -3   11.68    0.67
   1  -2   3   10.52    0.77
   1  -2   3   13.30    1.08
  -1   2  -3   11.41    0.78
   1  -2   3   14.29    1.10
   1  -2   3   10.59    0.55
   1  -2   4  307.48    7.30
   1  -2   4  263.10    6.77
   1  -2   4  267.60    6.09
   1  -2   4  273.73    6.60
  -1   2  -4  264.30    6.29
  -1   2  -4  259.64    6.58
   1  -2   4  301.02    7.29
   1  -2   5   49.36    1.54
   1  -2   5   50.73    2.14
  -1   2  -5   51.32    1.99
   1  -2   6   64.07    1.93
   1  -2   6   67.91    2.47
  -1   2  -6   65.89    2.36
   1  -2   6   65.87    2.71
   1  -2   7  122.99    3.76
  -1   2  -7  112.84    3.47
   1  -2   7  121.69    3.67
   1  -2   7  119.21    4.08
   1  -2   7  113.10    3.06
   1  -2   7  116.77    2.84
   1  -2   8  134.66    4.18
   1  -2   8  131.49    4.58
   1  -2   8  126.02    3.74
   1  -2   9   18.31    1.54
  -1   2  -9   15.91    0.84
   1  -2  10  195.37    6.50
   1  -2  11   46.08    2.82
   1  -2  12    2.67    0.86
   1  -2  12    3.03    0.47
   1  -2  13    4.52    1.09
   1  -2  13    4.30    0.55
   1  -2  14    7.99    0.71
   1  -2  14    8.72    1.48
  -1   1  15    5.91    1.12
  -1   1  14   33.94    2.45
  -1   1  13   20.33    1.71
  -1   1  13   21.83    1.17
  -1   1  12   17.70    1.10
  -1   1  12   18.54    1.51
  -1   1  11  363.13    8.66
  -1   1  10   27.09    1.41
  -1   1   9    7.22    0.77
   1  -1  -9    5.85    0.92
  -1   1   8  378.74    8.71
   1  -1  -8  394.99   10.33
   1  -1  -7    0.25    0.36
  -1   1   7    0.69    0.43
   1  -1  -7    0.04    0.16
   1  -1  -6  164.56    5.19
   1  -1  -6  167.56    4.55
   1  -1  -5    1.28    0.44
  -1   1   5    2.24    0.49
   1  -1  -5    1.47    0.32
  -1   1   4  678.05   14.96
   1  -1  -4  687.69   15.54
  -1   1   4  702.82   15.05
  -1   1   4  669.17   15.18
   1  -1  -4  685.88   15.20
  -1   1   3 1737.73   38.66
   1  -1  -3 1933.17   38.95
   1  -1  -3 1942.58   38.92
  -1   1   3 1780.68   38.74
   1  -1  -2  149.34    4.02
  -1   1   2  140.82    3.63
   1  -1  -2  138.91    3.78
  -1   1   1  671.59   14.48
  -1   1   1  659.99   14.75
  -1   1   1  693.60   14.19
   1  -1  -1  704.38   14.19
   1  -1  -1  677.77   14.57
  -1   1   0  441.97   11.77
   1  -1   0  465.72   11.93
  -1   1   0  531.88   11.07
  -1   1   0  442.75   11.81
  -1   1   0  498.22   11.21
   1  -1   0  456.92   11.94
   1  -1   0  569.29   10.89
  -1   1  -1  473.31    9.59
  -1   1  -1  452.20    9.55
  -1   1  -1  423.73   10.42
   1  -1   1  462.91    9.81
  -1   1  -1  418.80   10.36
  -1   1  -2 1164.73   27.62
   1  -1   2 1347.14   26.78
   1  -1   2 1428.54   27.38
   1  -1   2 1170.12   27.78
  -1   1  -2 1155.91   27.57
   1  -1   2 1235.91   26.86
  -1   1  -2 1350.60   26.73
  -1   1  -3 1035.06   22.10
  -1   1  -3 1008.68   22.02
   1  -1   3 1070.47   21.78
   1  -1   3 1051.15   21.26
   1  -1   3  966.64   22.25
   1  -1   3 1002.66   21.17
   1  -1   3 1063.19   21.98
  -1   1  -4  183.30    5.01
   1  -1   4  207.84    5.34
   1  -1   4  207.70    5.06
  -1   1  -4  225.53    5.13
  -1   1  -4  215.69    5.03
   1  -1   4  194.08    4.46
   1  -1   4  194.52    5.24
   1  -1   5  492.16   10.99
  -1   1  -5  486.90   11.06
   1  -1   5  483.52   11.39
   1  -1   5  475.29   11.09
   1  -1   6   21.48    1.40
   1  -1   6   21.46    1.16
  -1   1  -6   21.64    1.13
   1  -1   6   22.06    1.11
  -1   1  -7  119.82    3.25
   1  -1   7  122.31    3.65
   1  -1   7  125.26    4.21
   1  -1   8  300.38    7.16
  -1   1  -8  272.71    6.12
   1  -1   8  319.10    8.09
  -1   1  -8  268.72    6.13
   1  -1   9   31.48    1.65
   1  -1   9   32.89    2.09
   1  -1  10   88.15    3.85
   1  -1  11   33.86    2.37
   1  -1  12   44.34    2.84
   1  -1  13   95.05    4.53
   1  -1  14    2.16    0.94
   1  -1  15    7.49    1.42
  -1   0  15    0.17    0.62
  -1   0  14   10.35    1.41
  -1   0  14   12.41    0.82
  -1   0  13   13.29    0.89
  -1   0  13   12.73    1.45
  -1   0  12   43.89    2.54
  -1   0  12   41.90    1.75
  -1   0  11   49.50    2.50
  -1   0  11   45.07    1.93
  -1   0  10    1.44    0.50
  -1   0  10    1.00    0.52
  -1   0   9   12.87    1.03
  -1   0   8  140.77    4.30
  -1   0   7   34.85    1.78
  -1   0   6  433.20    9.78
  -1   0   6  437.09    9.80
  -1   0   6  470.61    9.80
  -1   0   6  442.46   10.85
  -1   0   6  455.36    9.76
  -1   0   5  217.59    6.01
  -1   0   5  220.19    5.38
  -1   0   5  223.74    5.41
  -1   0   4  178.03    4.99
  -1   0   4  180.44    4.45
  -1   0   4  178.27    4.49
  -1   0   3  194.18    4.85
  -1   0   3  197.05    4.86
  -1   0   2 1042.07   22.69
  -1   0   2 1046.39   22.74
   1   0  -2 1115.13   22.82
   1   0  -1    0.11    0.18
  -1   0   1    0.17    0.06
  -1   0   0   79.27    2.35
  -1   0   0   79.89    2.44
  -1   0   0   80.51    2.47
   1   0   0   83.45    2.51
  -1   0  -1   21.49    0.59
  -1   0  -1   24.30    1.10
  -1   0  -1   24.60    1.10
  -1   0  -1   20.35    0.82
   1   0   2   36.26    0.85
  -1   0  -2   36.77    1.26
   1   0   2   36.77    1.29
  -1   0  -2   44.27    1.55
  -1   0  -2   37.20    1.16
  -1   0  -2   35.58    0.82
  -1   0  -2   42.79    1.51
  -1   0  -3  192.52    4.40
  -1   0  -3  180.84    4.61
   1   0   3  186.16    3.99
   1   0   3  193.37    4.75
  -1   0  -3  200.36    4.74
  -1   0  -3  201.51    4.79
  -1   0  -4  633.45   14.22
   1   0   4  691.58   14.58
  -1   0  -4  652.75   13.95
  -1   0  -4  654.90   14.23
  -1   0  -5  731.84   16.15
  -1   0  -5  735.75   16.13
  -1   0  -5  777.87   16.26
  -1   0  -6  454.48    9.76
  -1   0  -6  432.68    9.69
  -1   0  -6  435.72    9.73
   1   0   6  442.52   10.73
  -1   0  -6  461.93    9.80
  -1   0  -7  343.94    7.45
  -1   0  -7  346.52    7.47
  -1   0  -7  342.57    7.47
  -1   0  -7  351.09    7.50
   1   0   7  344.14    8.92
   1   0   8  301.41    8.22
   1   0   9    8.20    1.04
   1   0  10   22.27    1.75
   1   0  11  185.11    6.30
   1   0  12    0.23    0.54
   1   0  13   34.16    2.54
   1   0  14    5.62    1.16
   1   0  15    3.51    1.04
  -1  -1  15    0.67    0.64
  -1  -1  14   28.12    2.26
  -1  -1  13   16.60    1.00
  -1  -1  13   18.82    1.75
  -1  -1  12   20.78    1.77
  -1  -1  12   18.10    1.15
  -1  -1  11  172.57    5.65
  -1  -1  11  163.46    4.75
  -1  -1  10   16.45    1.41
  -1  -1  10   15.71    1.17
  -1  -1   9  222.62    6.39
  -1  -1   9  242.03    6.65
  -1  -1   8  321.95    8.85
  -1  -1   8  381.99    8.90
  -1  -1   7   18.30    0.77
  -1  -1   7   21.41    1.21
  -1  -1   7   18.74    1.36
  -1  -1   6  446.96    9.92
  -1  -1   6  444.09   10.91
   1   1  -5   15.28    0.86
  -1  -1   5   15.74    1.19
   1   1  -4  217.36    5.45
  -1  -1   4  221.31    5.21
   1   1  -3 1408.32   27.31
  -1  -1   3 1204.72   27.01
   1   1  -3 1354.47   27.20
  -1  -1   3 1204.23   27.02
  -1  -1   2  194.62    5.02
  -1  -1   2  192.53    4.99
   1   1  -2  206.16    5.14
   1   1  -1 1075.69   23.05
   1   1  -1 1079.38   23.13
  -1  -1   0   37.69    1.04
   1   1   0   45.63    1.67
   1   1   0   47.58    1.76
  -1  -1   0   38.29    1.02
  -1  -1   0   41.46    1.21
  -1  -1  -1  659.06   13.50
   1   1   1  568.91   14.18
   1   1   1  598.73   14.14
  -1  -1  -1  628.83   14.11
  -1  -1  -1  638.84   14.10
  -1  -1  -1  700.73   13.75
  -1  -1  -2 1529.11   33.00
  -1  -1  -2 1540.20   33.01
  -1  -1  -2 1491.56   32.57
  -1  -1  -2 1525.77   32.38
   1   1   3  853.06   19.82
  -1  -1  -3  926.13   19.62
  -1  -1  -3  899.09   19.31
  -1  -1  -3  932.38   19.60
   1   1   3  930.40   19.20
   1   1   3  845.81   19.73
  -1  -1  -3  918.48   19.06
  -1  -1  -3  953.78   19.16
  -1  -1  -4  345.10    7.54
   1   1   4  315.08    7.66
  -1  -1  -4  346.67    7.54
   1   1   4  318.95    7.23
   1   1   4  320.03    7.73
   1   1   4  321.06    6.86
   1   1   5  725.11   16.03
  -1  -1  -5  732.04   15.20
   1   1   5  726.77   16.20
  -1  -1  -5  737.93   15.63
   1   1   5  723.62   15.65
   1   1   6   70.14    2.27
   1   1   6   69.68    2.58
  -1  -1  -6   66.53    1.81
   1   1   6   67.57    2.12
  -1  -1  -7    6.55    0.49
   1   1   7    5.79    0.73
   1   1   7    6.42    0.58
  -1  -1  -7    6.58    0.55
  -1  -1  -8   37.06    1.46
  -1  -1  -8   36.60    1.29
   1   1   8   36.00    1.56
   1   1   8   39.63    2.06
   1   1   9  164.14    5.25
  -1  -1  -9  153.59    4.25
   1   1   9  157.39    4.38
  -1  -1 -10  201.68    5.45
   1   1  10  210.80    5.64
   1   1  11    0.34    0.46
   1   1  12   43.54    2.69
   1   1  13   88.32    4.18
   1   1  14   13.43    1.62
   1   1  15    6.88    1.32
  -1  -2  14    2.21    0.81
  -1  -2  13    5.77    1.05
  -1  -2  12   15.59    1.08
  -1  -2  12   14.82    1.53
  -1  -2  11    2.68    0.71
  -1  -2  11    2.26    0.58
  -1  -2  10   33.29    1.85
  -1  -2  10   40.40    2.25
  -1  -2   9    0.09    0.41
  -1  -2   9    0.49    0.38
  -1  -2   8   61.77    1.98
   1   2  -8   62.04    2.00
  -1  -2   8   57.34    2.66
   1   2  -7    4.99    0.55
  -1  -2   7    4.75    0.77
  -1  -2   7    5.58    0.69
   1   2  -6    0.06    0.19
  -1  -2   6   -0.03    0.23
   1   2  -6    0.18    0.20
   1   2  -5  156.74    4.44
   1   2  -5  160.12    4.58
  -1  -2   5  161.77    4.27
   1   2  -4   13.25    0.96
  -1  -2   4   13.59    0.75
   1   2  -4   12.63    0.91
   1   2  -3  467.56   10.78
   1   2  -3  448.80   10.63
  -1  -2   3  458.39    9.93
   1   2  -2  157.37    4.39
  -1  -2   2  162.25    3.63
   1   2  -2  163.81    4.51
   1   2  -1  207.43    5.40
   1   2  -1  208.78    5.50
   1   2   0 1039.76   27.03
   1   2   0 1043.79   26.94
   1   2   1  142.59    3.99
   1   2   1  145.53    3.22
   1   2   1  146.19    4.09
   1   2   1  142.41    3.58
  -1  -2  -1  138.05    3.17
   1   2   2   11.51    0.54
  -1  -2  -2   11.00    0.35
   1   2   2   10.25    0.65
  -1  -2  -2   10.72    0.41
   1   2   3  541.44   11.72
  -1  -2  -3  546.16   11.65
   1   2   3  543.31   11.24
  -1  -2  -3  553.02   11.28
   1   2   3  547.16   11.40
   1   2   4  243.42    5.18
   1   2   4  246.45    6.26
   1   2   4  250.43    5.82
  -1  -2  -4  244.47    5.31
  -1  -2  -4  224.29    5.59
   1   2   4  239.78    6.12
   1   2   4  245.39    5.44
   1   2   5  691.82   15.97
   1   2   5  707.28   14.77
   1   2   5  686.25   15.09
   1   2   5  717.02   15.88
   1   2   6  322.92    6.94
  -1  -2  -6  311.99    7.49
   1   2   6  332.00    7.96
   1   2   6  318.39    7.26
  -1  -2  -6  309.82    7.02
  -1  -2  -7    4.74    0.43
   1   2   7    5.77    0.41
   1   2   7    6.09    0.67
   1   2   7    4.74    0.47
   1   2   7    6.51    0.71
   1   2   8  594.82   13.54
   1   2   8  623.97   13.31
   1   2   8  618.19   13.98
  -1  -2  -8  615.80   13.43
   1   2   8  623.95   14.10
  -1  -2  -9  111.91    3.32
   1   2   9  122.37    3.26
   1   2   9  116.34    3.44
   1   2   9  125.90    4.29
   1   2   9  120.11    3.56
  -1  -2 -10    4.17    0.58
   1   2  10    4.63    0.59
   1   2  10    3.57    0.43
   1   2  10    4.00    0.49
  -1  -2 -10    3.55    0.44
   1   2  10    4.54    0.83
   1   2  11  321.64    8.92
   1   2  11  309.09    7.41
  -1  -2 -11  295.67    7.73
   1   2  12   19.74    1.14
   1   2  12   18.63    1.69
  -1  -2 -12   17.10    1.28
   1   2  13   70.01    3.59
   1   2  13   70.42    2.50
   1   2  14    4.38    1.07
   1   2  15    2.33    0.83
  -1  -3  13    0.43    0.56
  -1  -3  12   37.24    2.37
  -1  -3  12   32.56    1.67
  -1  -3  11  143.50    4.66
  -1  -3  11  171.22    5.55
  -1  -3  10   20.87    1.60
  -1  -3  10   16.68    1.36
  -1  -3   9  111.34    3.07
  -1  -3   9  111.74    3.06
   1   3  -9  101.40    3.17
  -1  -3   9  121.46    4.08
  -1  -3   9   99.35    3.92
   1   3  -8   69.21    2.56
  -1  -3   8   67.01    3.08
   1   3  -7    8.30    0.86
  -1  -3   7    8.05    0.81
   1   3  -7    8.80    0.84
  -1  -3   7    9.05    0.74
   1   3  -6  317.13    8.09
   1   3  -6  322.14    8.28
  -1  -3   6  321.31    7.85
  -1  -3   5   12.47    0.82
   1   3  -5   13.16    1.03
   1   3  -5   13.02    1.08
   1   3  -4  190.27    5.18
  -1  -3   4  173.89    4.43
   1   3  -4  188.29    5.33
  -1  -3   3  497.61   10.94
   1   3  -3  533.90   12.02
   1   3  -3  531.39   12.20
   1   3  -2    1.79    0.41
  -1  -3   1  243.75    5.72
   1   3  -1  275.37    6.63
  -1  -3   0    0.94    0.17
  -1  -3   0    0.86    0.19
  -1  -3   0    1.09    0.12
  -1  -3  -1   84.76    2.15
  -1  -3  -1   80.94    2.29
   1   3   1   88.89    2.53
  -1  -3  -2  640.35   13.79
   1   3   2  687.34   14.36
  -1  -3  -3    4.12    0.31
   1   3   3    4.15    0.39
   1   3   3    4.35    0.28
   1   3   3    4.41    0.49
  -1  -3  -3    4.18    0.44
   1   3   4  307.92    8.02
   1   3   4  328.85    7.04
   1   3   4  319.99    7.42
  -1  -3  -4  340.39    7.76
   1   3   4  322.09    7.04
  -1  -3  -4  334.81    7.16
  -1  -3  -5   99.56    2.57
   1   3   5   92.79    2.34
   1   3   5   98.77    3.26
  -1  -3  -5   93.94    2.81
   1   3   5  102.11    2.49
  -1  -3  -5  101.15    3.05
  -1  -3  -6   28.39    1.15
   1   3   6   29.99    1.57
   1   3   6   27.10    0.91
   1   3   6   29.23    1.64
  -1  -3  -6   25.55    1.35
   1   3   6   28.36    1.05
  -1  -3  -7  185.70    4.57
   1   3   7  193.40    5.56
  -1  -3  -7  191.52    5.08
   1   3   7  191.33    5.41
   1   3   7  192.88    4.41
   1   3   7  187.29    4.64
   1   3   8   14.10    1.10
   1   3   8   12.56    1.10
  -1  -3  -8   10.34    0.70
   1   3   8   12.07    0.76
   1   3   8   12.00    1.01
  -1  -3  -8   11.87    0.93
   1   3   8   12.19    0.63
  -1  -3  -9    0.54    0.34
  -1  -3  -9    0.26    0.34
   1   3   9    0.90    0.41
   1   3   9    0.42    0.34
   1   3   9    0.84    0.31
   1   3   9    0.65    0.23
   1   3  10   45.81    1.56
   1   3  10   47.90    2.15
   1   3  10   48.17    2.23
  -1  -3 -10   44.13    2.11
   1   3  10   44.82    1.82
  -1  -3 -10   42.81    1.80
  -1  -3 -11    0.03    0.33
  -1  -3 -11    0.13    0.37
   1   3  11   -0.03    0.30
   1   3  11    0.14    0.31
   1   3  11    0.16    0.22
  -1  -3 -12   51.16    2.30
   1   3  12   57.76    1.95
   1   3  12   52.47    1.98
  -1  -3 -12   57.41    1.87
  -1  -3 -12   57.79    1.90
   1   3  13   18.81    1.04
   1   3  13   18.73    1.75
   1   3  14   26.02    2.17
   1   3  15    6.35    1.20
  -1  -4  11    0.09    0.52
  -1  -4  11    0.16    0.40
  -1  -4  10   22.63    1.57
  -1  -4  10   22.25    1.65
  -1  -4  10   20.90    1.13
  -1  -4   9  111.61    3.78
   1   4  -9  101.85    3.56
  -1  -4   9  101.59    4.10
  -1  -4   9  109.08    3.42
  -1  -4   9  111.52    3.41
  -1  -4   8   84.15    3.05
   1   4  -8   86.95    3.23
   1   4  -8   85.66    3.36
  -1  -4   7   19.64    1.21
   1   4  -7   20.99    1.45
  -1  -4   7   23.49    1.33
   1   4  -7   19.84    1.49
   1   4  -6   55.58    2.53
  -1  -4   6   54.90    2.06
  -1  -4   6   63.43    2.22
   1   4  -6   55.65    2.65
   1   4  -5  111.70    3.81
  -1  -4   5  116.77    3.24
   1   4  -5  116.67    4.04
   1   4  -4    5.40    0.73
   1   4  -4    4.24    0.69
   1   4  -4    4.29    0.50
  -1  -4   4    6.36    0.56
  -1  -4   3  690.66   14.80
   1   4  -3  666.07   15.80
   1   4  -3  687.53   15.01
  -1  -4   2  334.09    7.37
  -1  -4   2  328.31    7.50
   1   4  -2  317.97    7.57
   1   4  -2  331.90    8.43
  -1  -4   1    9.00    0.49
  -1  -4   1    8.40    0.55
   1   4   0  380.51    8.11
  -1  -4   0  389.31    8.54
  -1  -4   0  389.37    8.68
  -1  -4  -1    3.52    0.40
  -1  -4  -1    3.65    0.35
  -1  -4  -2  117.84    3.01
   1   4   2  123.13    3.44
  -1  -4  -3  470.61   10.24
   1   4   3  463.92   10.48
   1   4   3  470.18   10.11
   1   4   3  475.18   10.84
   1   4   4    4.04    0.22
   1   4   4    3.88    0.33
   1   4   4    2.70    0.36
   1   4   4    3.23    0.48
  -1  -4  -4    4.28    0.37
   1   4   5  586.45   12.97
   1   4   5  565.12   12.40
   1   4   5  606.15   12.53
  -1  -4  -5  604.75   12.75
   1   4   6   85.88    3.17
  -1  -4  -6   87.61    2.55
   1   4   6   84.79    2.27
   1   4   6   87.35    2.29
  -1  -4  -6   86.93    2.84
   1   4   7   27.11    1.63
   1   4   7   27.18    1.01
  -1  -4  -7   29.85    1.34
  -1  -4  -7   27.02    1.17
   1   4   7   27.51    1.08
  -1  -4  -7   28.43    1.47
   1   4   8  280.99    7.84
  -1  -4  -8  265.72    6.62
   1   4   8  296.78    7.70
   1   4   8  295.67    6.43
   1   4   8  268.08    6.53
  -1  -4  -8  289.10    7.27
   1   4   9    5.93    0.78
   1   4   9    5.50    0.74
   1   4   9    6.21    0.49
   1   4   9    6.09    0.85
   1   4   9    6.48    0.58
  -1  -4  -9    5.17    0.61
  -1  -4  -9    6.53    0.77
   1   4  10  121.65    4.22
   1   4  10  113.99    3.95
   1   4  10  115.26    2.99
  -1  -4 -10  102.50    3.25
  -1  -4 -10   96.69    3.52
   1   4  10  110.17    3.98
   1   4  10  108.63    3.26
   1   4  11   71.63    2.91
  -1  -4 -11   64.63    2.49
   1   4  11   70.30    2.13
   1   4  11   73.44    3.09
   1   4  11   69.59    2.48
   1   4  11   68.72    3.09
  -1  -4 -12    1.57    0.51
   1   4  12    1.56    0.65
   1   4  12    1.49    0.31
  -1  -4 -12    2.38    0.59
  -1  -4 -12    1.65    0.51
   1   4  12    1.23    0.48
   1   4  12    1.63    0.50
   1   4  13  132.81    5.17
   1   4  13  125.28    4.06
   1   4  13  133.40    3.50
  -1  -4 -14    0.10    0.40
  -1  -4 -15    3.84    0.74
  -1  -5  10   13.35    1.09
  -1  -5  10    8.88    1.19
  -1  -5   9  107.73    3.81
  -1  -5   9  121.40    3.79
  -1  -5   8    8.76    0.85
   1   5  -8    7.72    1.07
   1   5  -7   37.06    2.14
   1   5  -7   35.23    2.21
  -1  -5   7   35.88    1.71
   1   5  -6   43.04    2.32
   1   5  -6   41.40    2.41
  -1  -5   6   45.12    1.96
  -1  -5   6   41.42    1.81
   1   5  -5    0.67    0.46
   1   5  -5    0.53    0.45
  -1  -5   5    0.12    0.31
   1   5  -4   80.17    3.32
  -1  -5   4   80.50    2.63
  -1  -5   3   41.30    1.62
   1   5  -3   41.65    1.72
  -1  -5   3   47.34    1.70
   1   5  -3   48.16    2.38
  -1  -5   2   17.95    0.97
   1   5  -2   17.99    1.04
  -1  -5   2   19.21    0.91
  -1  -5   1   44.43    1.63
  -1  -5   0  410.86    9.26
   1   5   0  409.10    8.76
  -1  -5  -1   23.55    1.06
  -1  -5  -2  364.21    8.30
   1   5   2  367.10    8.78
   1   5   3   37.47    1.53
  -1  -5  -3   41.28    1.47
   1   5   3   38.30    1.76
   1   5   4   81.12    2.58
   1   5   4   86.79    2.27
  -1  -5  -4   81.61    2.39
   1   5   5    3.29    0.34
   1   5   5    2.75    0.43
  -1  -5  -5    2.83    0.39
   1   5   6  122.05    3.66
  -1  -5  -6  131.78    3.62
   1   5   6  133.04    3.13
   1   5   6  133.47    3.33
  -1  -5  -7   16.01    0.99
   1   5   7   15.87    0.79
   1   5   7   16.17    0.77
   1   5   7   15.70    1.32
  -1  -5  -8    0.19    0.27
   1   5   8    0.27    0.21
   1   5   8    0.39    0.22
  -1  -5  -8    0.28    0.33
   1   5   8    0.50    0.38
  -1  -5  -9    3.69    0.56
   1   5   9    4.25    0.47
   1   5   9    4.45    0.84
  -1  -5  -9    4.68    0.64
   1   5   9    4.23    0.43
   1   5   9    5.12    0.84
  -1  -5 -10    8.96    0.86
   1   5  10    8.72    0.63
   1   5  10    9.26    0.73
   1   5  10    8.08    1.08
   1   5  10    9.26    1.09
  -1  -5 -10    9.11    0.84
   1   5  10    8.31    0.95
   1   5  11   39.65    1.47
   1   5  11   36.62    2.13
   1   5  11   34.77    2.13
   1   5  11   37.78    2.33
   1   5  11   35.89    1.64
  -1  -5 -11   31.83    1.72
   1   5  12    2.86    0.70
   1   5  12    2.50    0.42
   1   5  12    3.65    0.79
   1   5  12    2.92    0.57
  -1  -5 -12    2.78    0.56
   1   5  12    2.94    0.75
   1   5  13    0.96    0.58
  -1  -5 -13    1.01    0.42
   1   5  13    0.78    0.49
   1   5  14   11.28    1.46
  -1  -5 -14    9.53    1.19
  -1  -5 -14    8.46    0.90
  -1  -6   9   28.30    1.64
  -1  -6   8   38.36    2.26
   1   6  -8   39.73    2.51
  -1  -6   8   39.46    1.93
   1   6  -7    3.33    0.84
  -1  -6   7    2.17    0.52
   1   6  -6   73.44    3.57
  -1  -6   6   75.22    2.84
   1   6  -5   34.55    2.36
   1   6  -5   30.96    2.08
  -1  -6   5   29.98    1.57
  -1  -6   4    1.68    0.41
  -1  -6   4    1.59    0.40
   1   6  -4    1.91    0.67
   1   6  -3  331.20    9.06
  -1  -6   3  314.31    7.78
  -1  -6   2   40.40    1.72
   1   6  -2   48.69    2.56
  -1  -6   1    7.53    0.69
  -1  -6   0  422.82    9.62
   1   6   0  414.08    8.91
  -1  -6  -1   13.36    0.85
   1   6   1   13.86    1.05
  -1  -6  -2    7.75    0.66
   1   6   2    7.24    0.78
  -1  -6  -3   81.42    2.54
   1   6   3   77.85    2.61
   1   6   3   83.00    2.96
  -1  -6  -4   77.97    2.46
   1   6   4   76.53    2.88
   1   6   4   77.21    2.63
   1   6   5  257.30    7.17
   1   6   5  262.30    6.82
  -1  -6  -5  285.17    6.82
   1   6   5  298.99    6.53
  -1  -6  -6   11.11    0.82
   1   6   6    9.80    0.62
  -1  -6  -7  130.64    3.85
   1   6   7  121.45    4.61
   1   6   7  129.24    3.09
   1   6   7  128.38    3.39
   1   6   8   58.16    2.91
   1   6   8   58.64    1.80
  -1  -6  -8   58.82    2.36
   1   6   8   59.08    1.92
   1   6   9   71.62    2.22
   1   6   9   68.47    3.25
   1   6   9   70.27    2.19
   1   6   9   68.52    3.47
  -1  -6  -9   72.85    2.82
   1   6  10  151.71    5.62
   1   6  10  156.03    3.98
   1   6  10  143.47    4.02
   1   6  11   81.95    3.47
   1   6  11   82.16    3.86
   1   6  11   85.47    2.57
   1   6  11   82.45    2.74
  -1  -6 -12    3.56    0.75
   1   6  12    4.70    0.88
   1   6  12    3.26    0.85
   1   6  13   47.79    2.75
  -1  -6 -13   41.64    2.33
   1   6  13   44.78    2.74
  -1  -6 -14    1.07    0.55
   1   6  14    1.23    0.66
  -1  -7   8    4.60    1.08
   1   7  -7    0.17    0.49
  -1  -7   7    0.39    0.39
  -1  -7   7    1.41    0.89
   1   7  -6    0.67    0.64
   1   7  -5   25.83    2.23
   1   7  -4   23.03    2.08
  -1  -7   4   21.90    1.38
  -1  -7   3    3.63    0.58
  -1  -7   2    6.36    0.70
  -1  -7   1    2.91    0.51
  -1  -7   0  108.28    3.27
   1   7   0  101.42    2.38
  -1  -7  -1    2.99    0.50
   1   7   1    2.73    0.33
  -1  -7  -2   -0.09    0.27
  -1  -7  -3   67.35    2.39
  -1  -7  -4   42.20    1.77
  -1  -7  -5   10.91    0.87
  -1  -7  -5   10.83    0.93
  -1  -7  -6   90.69    3.02
   1   7   7    0.68    0.29
  -1  -7  -7    0.21    0.35
   1   7   8   14.54    0.84
  -1  -7  -8   15.39    1.17
  -1  -7  -9   18.85    1.38
   1   7   9   17.84    0.80
   1   7  10    1.03    0.71
   1   7  11    0.06    0.40
   1   7  11    0.34    0.60
   1   7  12   -0.08    0.58
   1   7  12   -0.06    0.44
   1   7  13   30.12    2.17
   1   7  13   30.21    2.43
  -1  -8   7    1.36    1.06
  -1  -8   6   15.07    1.81
   1   8  -6   13.97    1.80
   1   8  -5   23.37    2.25
   1   8  -4   19.80    2.12
  -1  -8   4   16.20    1.26
  -1  -8   3   66.39    2.68
   1   8  -3   78.57    4.21
  -1  -8   2    8.32    0.87
  -1  -8   1    6.87    0.79
  -1  -8   0   31.58    1.67
  -1  -8  -1    6.20    0.74
   1   8   1    5.67    0.38
  -1  -8  -2   75.03    2.74
  -1  -8  -2   74.61    2.74
   1   8   2   75.06    2.26
  -1  -8  -3    5.00    0.65
  -1  -8  -3    5.51    0.70
  -1  -8  -4    2.56    0.51
  -1  -8  -4    3.20    0.60
  -1  -8  -5   79.23    2.85
  -1  -8  -5   75.24    2.86
  -1  -8  -6    0.65    0.37
  -1  -8  -6    0.80    0.42
  -1  -8  -7   53.80    2.36
  -1  -8  -8    9.13    1.00
  -1  -8  -9    8.81    1.06
  -1  -8 -10   55.16    2.71
   1   8  10   59.27    2.76
   1   8  10   55.18    3.60
   1   8  11   -0.10    0.68
   1   8  11   -0.06    0.48
   1   8  12    1.86    0.72
   1   8  12    1.95    0.88
   1   8  13   43.60    3.16
   1   9  -3   14.27    1.99
   1   9  -2   15.09    2.04
  -1  -9   1   13.97    1.19
  -1  -9   0   67.76    2.75
  -1  -9  -1    2.27    0.58
  -1  -9  -2   -0.12    0.38
  -1  -9  -2    0.24    0.37
  -1  -9  -3   25.44    1.52
  -1  -9  -3   27.16    1.57
  -1  -9  -4    5.44    0.75
  -1  -9  -4    6.20    0.79
  -1  -9  -5   33.48    1.79
  -1  -9  -5   30.95    1.76
  -1  -9  -6   11.53    1.06
  -1  -9  -6   10.71    1.04
  -1  -9  -7    2.19    0.60
  -1  -9  -7    2.12    0.57
  -1  -9  -8   10.68    1.13
  -1  -9  -8   10.01    1.05
   1   9   9    0.94    0.84
   1   9   9    0.85    0.50
  -1  -9  -9    1.12    0.62
   1   9  10   14.34    1.37
  -1  -9 -10   15.34    1.50
   1   9  10   14.67    2.05
   1   9  11    9.58    1.22
   2  -9  -9    8.74    0.95
   2  -9  -8    4.01    0.71
   2  -9  -7    0.54    0.49
   2  -9  -6   91.02    3.18
   2  -9  -5    2.67    0.58
   2  -9  -4    3.09    0.58
   2  -8 -11    1.25    0.84
   2  -8 -10    3.82    1.37
   2  -8  -9    8.18    1.71
   2  -8  -8    4.59    0.70
   2  -8  -8    4.80    0.99
   2  -8  -8    2.82    1.20
   2  -8  -7   34.72    2.33
   2  -8  -7   36.85    1.78
   2  -8  -7   41.16    3.33
   2  -8  -6    6.71    1.03
   2  -8  -6    7.29    0.79
   2  -8  -6    7.43    1.68
   2  -8  -5    0.87    1.04
   2  -8  -5    1.40    0.59
   2  -8  -5    1.96    0.48
   2  -8  -4    1.92    0.47
   2  -8  -4    1.68    0.58
   2  -8  -4    2.01    1.17
   2  -8  -3    2.38    1.21
   2  -8  -3    2.89    0.52
   2  -8  -3    3.51    0.70
  -2   8   3    2.84    0.50
   2  -8  -2   40.49    2.15
  -2   8   2   39.90    1.70
   2  -8  -1   30.59    1.83
   2  -8  -1   33.87    3.09
  -2   8   1   33.58    1.48
   2  -8   0    4.06    1.40
  -2   8   0    7.06    0.64
   2  -8   1   19.02    1.41
   2  -8   1   18.87    2.29
  -2   8  -1   18.17    1.04
   2  -8   2    1.28    1.08
   2  -8   2    2.49    0.61
   2  -8   3   34.53    1.98
   2  -8   3   37.66    3.16
   2  -8   4   39.62    3.25
   2  -8   5   11.94    1.98
   2  -8   6    1.57    0.93
   2  -8   7    0.32    0.66
   2  -7 -11   13.59    1.80
   2  -7 -10    5.75    1.39
   2  -7  -9   87.11    4.66
   2  -7  -8   38.91    3.04
   2  -7  -7    0.63    0.95
   2  -7  -7    1.59    0.60
   2  -7  -6   90.42    3.71
   2  -7  -6   89.47    3.00
   2  -7  -5    4.77    0.78
   2  -7  -5    4.18    1.27
   2  -7  -5    3.08    0.53
   2  -7  -4   61.47    2.24
   2  -7  -4   59.11    2.70
  -2   7   4   60.62    2.18
   2  -7  -3   82.26    3.20
   2  -7  -3   82.25    2.67
  -2   7   2    0.03    0.36
   2  -7  -2    0.11    0.94
   2  -7  -2    0.56    0.30
   2  -7  -2    0.17    0.33
  -2   7   1  153.64    4.34
   2  -7   0   10.74    1.73
  -2   7   0   10.10    0.81
  -2   7   0    9.28    1.11
  -2   7  -1   29.07    1.87
  -2   7  -1   26.94    1.36
   2  -7   1   31.71    2.80
   2  -7   1   27.19    1.60
   2  -7   2  136.42    4.33
  -2   7  -2  139.83    3.91
   2  -7   2  140.29    6.16
   2  -7   3    2.68    1.12
   2  -7   3    2.49    0.55
  -2   7  -3    2.70    0.45
   2  -7   4   50.81    2.29
   2  -7   4   55.24    3.61
   2  -7   5    0.04    0.36
   2  -7   6    3.17    1.05
   2  -7   6    3.93    0.74
   2  -7   7  143.55    4.62
   2  -7   7  143.22    6.09
   2  -7   8    9.78    1.48
   2  -6 -12   22.32    1.98
   2  -6 -11   25.25    2.17
   2  -6 -10   21.73    2.07
   2  -6  -9   11.66    1.69
   2  -6  -8   26.42    2.37
   2  -6  -7   14.11    1.79
   2  -6  -7   13.13    1.29
   2  -6  -6   28.23    1.82
   2  -6  -6   32.51    2.62
   2  -6  -5    3.78    1.18
   2  -6  -5    3.94    0.71
  -2   6   5    4.21    0.46
   2  -6  -4   24.80    2.35
   2  -6  -4   20.75    1.41
  -2   6   4   22.36    1.16
   2  -6  -4   20.40    1.07
   2  -6  -3   37.43    1.88
   2  -6  -3   37.75    1.52
  -2   6   3   33.81    1.45
  -2   6   2   20.24    1.10
   2  -6  -2   23.40    2.29
   2  -6  -2   20.09    1.29
   2  -6  -2   19.71    1.02
   2  -6  -1    5.61    0.78
  -2   6   0   56.61    2.21
   2  -6   0   63.10    2.44
   2  -6   0   63.70    3.78
   2  -6   1   -0.07    0.29
   2  -6   1   -0.07    0.43
  -2   6  -1    0.05    0.36
   2  -6   1   -0.48    0.92
  -2   6  -1    0.27    0.32
   2  -6   2   18.68    2.04
   2  -6   2   19.48    1.21
  -2   6  -2   20.01    1.16
   2  -6   2   21.20    1.28
  -2   6  -2   18.45    1.46
  -2   6  -3    7.97    0.96
   2  -6   3    7.83    0.78
   2  -6   3    7.68    1.34
   2  -6   3    7.55    0.82
  -2   6  -3    8.71    0.74
  -2   6  -4    7.52    0.93
   2  -6   4    8.64    0.84
   2  -6   4    6.99    1.36
  -2   6  -4    9.23    0.77
   2  -6   4    8.86    0.82
  -2   6  -5   31.98    1.88
   2  -6   5   33.70    1.71
   2  -6   5   35.44    2.75
   2  -6   5   33.09    1.52
   2  -6   6    0.61    0.39
   2  -6   6    0.89    0.43
   2  -6   6    2.03    0.91
   2  -6   7    0.45    0.55
   2  -6   7    0.34    0.38
   2  -6   8   21.28    1.40
   2  -6   8   22.67    2.03
   2  -6   9   -0.15    0.52
   2  -6   9   -0.08    0.35
   2  -6  10   18.22    1.34
   2  -5 -14   85.67    3.50
   2  -5 -13    2.19    0.62
   2  -5 -12    2.66    0.63
   2  -5 -12    1.69    0.63
   2  -5 -11   10.80    1.03
   2  -5 -11   10.83    1.31
   2  -5 -10    0.22    0.49
   2  -5 -10    0.04    0.33
   2  -5  -9  109.35    3.59
   2  -5  -9  127.72    5.07
   2  -5  -8   15.36    1.76
   2  -5  -8   15.69    1.74
   2  -5  -7  214.10    7.36
   2  -5  -7  210.43    7.13
   2  -5  -6  212.85    6.93
   2  -5  -6  206.02    7.09
   2  -5  -5  172.97    6.24
  -2   5   5  161.32    4.29
  -2   5   5  145.39    3.81
   2  -5  -5  180.37    6.14
   2  -5  -5  157.89    4.87
   2  -5  -4  198.01    7.00
   2  -5  -4  175.23    5.25
  -2   5   4  182.00    4.65
   2  -5  -4  208.04    6.86
   2  -5  -3  158.66    4.62
   2  -5  -3  155.32    5.93
   2  -5  -3  139.84    4.21
   2  -5  -3  126.81    3.54
  -2   5   3  135.65    3.64
   2  -5  -3  154.94    5.70
   2  -5  -2    4.32    0.75
   2  -5  -2    4.26    1.06
  -2   5   2    4.19    0.46
   2  -5  -2    3.95    0.58
  -2   5   2    3.73    0.45
   2  -5  -2    3.79    0.42
   2  -5  -2    5.30    1.18
  -2   5   1  506.62   11.43
   2  -5  -1  507.86   11.25
   2  -5   0    2.24    0.92
   2  -5   0    3.24    0.64
  -2   5   0    2.52    0.38
   2  -5   1   69.80    2.48
   2  -5   1   72.64    3.84
  -2   5  -1   78.47    3.05
   2  -5   1   70.53    2.45
  -2   5  -1   68.02    2.46
  -2   5  -1   63.97    2.10
   2  -5   1   83.12    3.90
  -2   5  -2  122.44    3.71
  -2   5  -2  124.80    3.34
   2  -5   2  118.59    3.57
   2  -5   2  123.00    3.65
   2  -5   2  133.32    5.35
   2  -5   2  131.83    5.15
  -2   5  -2  135.56    4.38
   2  -5   3    9.49    0.79
  -2   5  -3   10.56    0.83
  -2   5  -3    9.75    0.71
  -2   5  -3   10.51    1.05
   2  -5   3    9.48    1.41
   2  -5   3   10.75    0.83
   2  -5   3    9.69    1.37
  -2   5  -4  259.84    7.14
   2  -5   4  258.04    6.50
  -2   5  -4  266.79    6.34
   2  -5   4  274.30    8.57
   2  -5   4  272.50    8.34
  -2   5  -4  257.69    6.45
   2  -5   5   20.48    1.09
   2  -5   5   21.51    2.03
  -2   5  -5   19.06    1.13
   2  -5   5   20.68    1.21
  -2   5  -5   21.13    1.48
   2  -5   5   23.19    2.04
  -2   5  -5   22.20    1.18
   2  -5   6    6.92    1.19
  -2   5  -6    7.77    0.91
   2  -5   6    8.34    0.79
   2  -5   6    8.23    0.69
   2  -5   7  141.67    5.53
   2  -5   7  143.45    4.25
   2  -5   7  146.69    3.87
   2  -5   8    2.76    0.74
   2  -5   8    2.98    0.54
   2  -5   9   14.72    1.52
   2  -5   9   14.37    1.08
   2  -5  10    5.47    0.94
   2  -5  10    5.05    0.70
   2  -5  11    0.94    0.42
   2  -5  12   13.06    1.08
   2  -4 -14   28.68    1.86
   2  -4 -13    3.96    0.75
   2  -4 -12    1.10    0.46
   2  -4 -11  103.88    4.04
   2  -4 -11  103.76    3.59
   2  -4 -10   44.21    2.45
   2  -4 -10   39.73    1.86
   2  -4  -9   12.90    0.97
   2  -4  -9   12.10    1.33
   2  -4  -8  109.29    4.44
  -2   4   8  101.14    3.32
   2  -4  -8  102.89    3.27
   2  -4  -7   84.16    3.56
  -2   4   7   78.95    2.71
   2  -4  -7   76.00    2.58
   2  -4  -6   95.75    3.72
   2  -4  -6  100.52    4.33
  -2   4   6   88.57    2.92
   2  -4  -6   96.97    4.19
   2  -4  -5  236.99    6.62
   2  -4  -5  216.53    6.23
  -2   4   5  214.64    5.62
   2  -4  -5  246.14    7.61
   2  -4  -5  242.97    7.42
   2  -4  -4   73.26    3.63
   2  -4  -4   74.72    3.55
   2  -4  -4   66.01    2.61
   2  -4  -3    8.17    0.77
  -2   4   3    8.44    0.56
  -2   4   3    7.69    0.62
   2  -4  -3    9.18    1.29
   2  -4  -3    9.12    1.26
   2  -4  -2   78.81    2.28
   2  -4  -2   83.25    2.78
  -2   4   2   82.87    2.49
   2  -4  -2   98.01    4.09
  -2   4   2   85.44    2.38
   2  -4  -2  105.34    3.35
   2  -4  -2   95.81    4.15
   2  -4  -1  166.04    5.76
   2  -4  -1  184.15    4.75
  -2   4   1  147.23    3.90
   2  -4  -1  147.09    3.70
   2  -4  -1  165.54    5.92
  -2   4   0   98.33    2.79
   2  -4   0  113.49    3.36
  -2   4  -1   37.18    1.37
   2  -4   1   41.61    1.72
   2  -4   1   41.27    2.65
   2  -4   1   42.46    2.60
   2  -4   1   36.93    1.52
  -2   4  -2  683.64   14.07
   2  -4   2  638.34   16.45
   2  -4   2  615.01   14.39
   2  -4   2  644.57   14.29
  -2   4  -2  637.23   14.00
  -2   4  -2  707.37   15.29
  -2   4  -2  646.74   14.60
   2  -4   2  634.12   16.23
  -2   4  -3   16.52    1.22
  -2   4  -3   15.37    1.02
   2  -4   3   15.15    0.94
   2  -4   3   14.90    0.91
  -2   4  -3   16.36    0.86
   2  -4   3   17.22    1.73
   2  -4   3   17.19    1.71
   2  -4   4   82.42    2.62
  -2   4  -4   83.38    3.18
   2  -4   4  101.52    4.32
  -2   4  -4   85.82    2.52
   2  -4   4   80.52    2.54
  -2   4  -4   82.44    2.77
   2  -4   4   96.90    4.13
   2  -4   5  127.73    3.63
  -2   4  -5  131.38    3.54
  -2   4  -5  123.90    3.70
   2  -4   5  127.44    3.49
  -2   4  -5  130.15    4.24
  -2   4  -6   33.04    1.52
   2  -4   6   38.60    2.46
   2  -4   6   37.28    1.41
  -2   4  -6   32.39    1.41
   2  -4   6   33.71    1.50
  -2   4  -6   32.54    1.82
   2  -4   7  115.82    4.57
   2  -4   7  116.87    2.99
  -2   4  -7  109.54    3.83
   2  -4   8   93.67    2.34
   2  -4   8   95.36    2.97
   2  -4   9    0.03    0.29
   2  -4   9    0.06    0.39
   2  -4  10   62.89    2.86
   2  -4  10   61.16    2.27
   2  -4  11    1.34    0.40
   2  -4  12    1.61    0.82
   2  -4  12    1.09    0.43
   2  -4  13   47.52    2.00
   2  -4  13   51.62    3.28
   2  -3 -14   34.05    2.01
   2  -3 -13    0.84    0.50
   2  -3 -12   36.70    1.96
  -2   3  12   47.33    2.11
  -2   3  11    1.93    0.60
   2  -3 -11    1.74    0.50
   2  -3 -11    1.39    0.46
   2  -3 -10    0.36    0.40
  -2   3  10    1.11    0.53
   2  -3 -10    0.36    0.34
   2  -3  -9  230.79    6.95
  -2   3   9  240.42    6.59
   2  -3  -9  234.82    6.25
   2  -3  -9  230.44    7.50
  -2   3   8    0.26    0.47
   2  -3  -8    0.11    0.24
  -2   3   8   -0.11    0.34
   2  -3  -8   -0.06    0.59
   2  -3  -8    0.22    0.37
   2  -3  -7  165.14    5.70
  -2   3   7  177.69    4.97
  -2   3   7  186.06    5.12
   2  -3  -7  168.68    4.61
   2  -3  -7  180.77    5.85
   2  -3  -6   43.54    2.36
  -2   3   6   41.22    1.78
   2  -3  -6   36.96    1.45
   2  -3  -6   45.47    2.54
   2  -3  -5  109.49    3.98
   2  -3  -5  115.64    4.47
   2  -3  -4  806.88   18.71
   2  -3  -4  815.44   18.87
   2  -3  -4  791.52   17.85
  -2   3   4  811.94   17.11
  -2   3   4  755.58   15.89
  -2   3   3    5.58    0.63
   2  -3  -3    4.58    0.91
  -2   3   3    4.19    0.45
   2  -3  -3    4.54    0.95
   2  -3  -3    3.57    0.52
   2  -3  -2   32.85    1.69
  -2   3   2   32.14    1.37
   2  -3  -2   36.17    2.34
  -2   3   2   26.33    0.96
  -2   3   2   26.25    1.12
   2  -3  -2   35.36    2.27
   2  -3  -1 1030.39   22.41
   2  -3  -1 1038.65   21.24
  -2   3   1  947.37   21.68
   2  -3  -1  912.50   23.57
  -2   3   1 1005.08   21.55
  -2   3   1 1089.90   21.32
   2  -3  -1  895.38   23.42
  -2   3   0    3.67    0.37
   2  -3   0    4.93    0.62
  -2   3  -1   77.79    2.25
   2  -3   1   78.90    2.41
   2  -3   2  236.56    7.05
   2  -3   2  233.66    5.39
   2  -3   2  184.56    4.80
  -2   3  -2  192.26    4.69
  -2   3  -2  203.02    4.68
  -2   3  -2  199.51    5.58
  -2   3  -2  193.69    5.23
   2  -3   2  240.40    6.98
   2  -3   3    8.76    1.16
  -2   3  -3    6.32    0.73
  -2   3  -3    5.92    0.42
  -2   3  -3    5.62    0.62
   2  -3   3    8.22    0.72
   2  -3   3    6.02    0.51
  -2   3  -3    6.15    0.45
   2  -3   4   19.77    0.96
  -2   3  -4   18.99    1.11
   2  -3   4   23.32    1.89
   2  -3   4   21.51    1.06
  -2   3  -4   20.70    1.34
   2  -3   5   58.96    1.83
   2  -3   5   49.58    1.76
   2  -3   5   57.10    2.95
  -2   3  -5   51.12    1.99
  -2   3  -5   50.68    2.27
   2  -3   6  293.29    6.25
  -2   3  -6  250.06    7.05
   2  -3   6  252.13    6.30
   2  -3   6  281.22    8.03
  -2   3  -6  261.22    6.62
  -2   3  -7  170.29    5.08
   2  -3   7  171.22    5.53
   2  -3   7  163.60    4.32
  -2   3  -8   38.35    1.97
   2  -3   8   37.15    1.50
   2  -3   8   36.67    2.24
   2  -3   8   39.35    2.25
   2  -3   9   32.20    2.13
   2  -3   9   31.19    1.37
   2  -3   9   32.72    1.92
   2  -3  10    6.12    0.60
   2  -3  10    6.24    1.05
   2  -3  10    5.58    0.78
   2  -3  11   12.99    0.89
   2  -3  11   15.77    1.65
   2  -3  12   29.87    2.36
   2  -3  12   28.29    1.38
   2  -3  13   10.00    1.51
   2  -3  13    7.68    0.72
  -2   2  14   98.73    3.30
  -2   2  13    1.59    0.56
  -2   2  12   -0.04    0.45
  -2   2  12    0.18    0.13
  -2   2  12    0.39    0.14
  -2   2  11   96.36    3.28
  -2   2  11   86.45    2.84
  -2   2  10    7.76    0.82
  -2   2  10    8.88    0.96
   2  -2 -10    8.36    1.26
   2  -2  -9   96.17    4.31
   2  -2  -9   93.66    3.48
  -2   2   9  101.70    3.69
  -2   2   8  117.86    3.84
  -2   2   8  109.51    3.80
   2  -2  -8  108.41    3.88
   2  -2  -8  109.56    4.51
  -2   2   7   14.19    1.17
   2  -2  -7   12.92    1.19
   2  -2  -7   13.88    1.42
  -2   2   7   13.45    1.09
   2  -2  -6  326.06    8.84
  -2   2   6  334.81    8.38
  -2   2   6  327.58    8.21
   2  -2  -6  316.65    9.09
   2  -2  -5   88.49    3.55
  -2   2   5   96.42    3.40
   2  -2  -5   92.50    3.56
  -2   2   5   93.84    3.25
   2  -2  -4  225.34    6.51
  -2   2   4  242.52    6.37
   2  -2  -4  228.62    6.72
  -2   2   4  244.14    6.60
   2  -2  -3  217.85    6.16
  -2   2   3  209.89    5.26
  -2   2   3  237.07    6.33
   2  -2  -3  194.98    4.74
   2  -2  -3  237.20    6.80
  -2   2   3  220.80    5.66
  -2   2   3  234.06    6.51
  -2   2   2    5.91    0.65
   2  -2  -2    6.83    0.95
  -2   2   2    5.72    0.48
   2  -2  -1  473.41   10.87
   2  -2  -1  441.07    9.31
  -2   2   1  441.82    9.76
  -2   2   1  426.14   10.04
   2  -2  -1  450.01   11.58
  -2   2   1  450.27    9.35
   2  -2   0  222.34    5.59
  -2   2   0  218.10    6.06
   2  -2   0  208.43    6.34
  -2   2   0  213.25    6.14
   2  -2   1  340.54    7.83
   2  -2   1  286.27    6.95
  -2   2  -1  317.36    6.97
  -2   2  -1  297.81    6.84
  -2   2  -1  345.54    8.53
  -2   2  -1  338.72    8.63
  -2   2  -1  311.55    6.64
   2  -2   2  973.34   23.48
  -2   2  -2 1138.97   22.80
  -2   2  -2 1015.71   24.30
   2  -2   2 1066.72   22.91
  -2   2  -2 1129.62   22.80
  -2   2  -2 1129.08   22.65
   2  -2   2  977.35   24.83
  -2   2  -2 1003.37   24.45
   2  -2   3    1.71    0.37
  -2   2  -3    2.61    0.68
   2  -2   3    2.13    0.62
  -2   2  -3    1.97    0.65
  -2   2  -3    1.55    0.21
   2  -2   3    1.30    0.22
  -2   2  -3    1.16    0.34
   2  -2   4   61.03    1.94
   2  -2   4   60.26    2.89
  -2   2  -4   50.06    2.19
  -2   2  -4   64.71    2.67
  -2   2  -4   66.10    2.59
   2  -2   4   51.69    1.66
   2  -2   5  654.23   15.73
  -2   2  -5  641.18   14.77
   2  -2   5  634.85   13.77
   2  -2   5  612.24   14.93
  -2   2  -5  662.21   14.80
   2  -2   5  652.40   13.81
   2  -2   6   15.64    1.35
   2  -2   6   12.06    1.11
  -2   2  -6   13.89    1.07
   2  -2   6   12.43    0.67
   2  -2   7  151.86    5.11
  -2   2  -7  153.82    4.63
   2  -2   7  149.34    3.80
  -2   2  -8  324.04    8.22
   2  -2   8  311.77    7.32
   2  -2   8  341.21    9.15
   2  -2   8  329.62    8.51
   2  -2   9   16.80    0.87
   2  -2   9   17.57    1.24
  -2   2  -9   16.88    1.21
  -2   2 -10   93.87    3.05
   2  -2  10   95.04    2.74
   2  -2  11   12.80    0.79
   2  -2  11   13.65    1.57
   2  -2  12   30.50    2.42
   2  -2  12   27.56    1.24
   2  -2  13   13.95    1.78
   2  -2  13   11.18    0.79
   2  -2  14    0.10    0.68
  -2   1  14   36.59    2.31
  -2   1  14   33.78    1.69
  -2   1  13    7.36    0.85
  -2   1  12   13.20    1.14
  -2   1  11   16.77    1.29
  -2   1  10    9.56    1.04
  -2   1  10    9.84    0.69
  -2   1  10    7.92    0.64
  -2   1   9  189.99    5.34
  -2   1   9  231.58    6.24
  -2   1   8   14.73    1.29
  -2   1   8   13.25    1.02
  -2   1   7  321.30    7.70
  -2   1   7  290.73    7.94
   2  -1  -7  296.91    8.04
  -2   1   7  325.71    8.39
   2  -1  -7  293.90    8.91
  -2   1   7  323.03    7.85
  -2   1   6   43.96    2.24
   2  -1  -6   39.31    1.12
  -2   1   6   48.12    2.08
   2  -1  -6   44.99    2.15
  -2   1   6   46.06    2.11
   2  -1  -6   45.73    2.59
  -2   1   5  502.01   12.30
  -2   1   5  510.72   12.10
  -2   1   5  509.86   12.26
   2  -1  -5  491.09   12.30
   2  -1  -5  529.57   13.04
  -2   1   4  764.17   18.12
  -2   1   4  763.07   18.30
   2  -1  -3    0.91    0.45
  -2   1   3    0.75    0.40
  -2   1   3    1.17    0.48
   2  -1  -3    1.09    0.43
  -2   1   3    1.07    0.32
  -2   1   3    0.30    0.45
  -2   1   2   19.19    1.28
  -2   1   2   17.72    0.97
  -2   1   2   19.55    1.37
   2  -1  -2   18.82    1.46
   2  -1  -1  263.39    7.36
  -2   1   1  262.71    6.66
  -2   1   1  250.84    5.96
   2  -1   0  362.91    9.63
  -2   1   0  358.63    8.64
   2  -1   0  362.25    8.26
  -2   1   0  370.94    8.04
  -2   1   0  349.95    9.30
   2  -1   0  379.03    9.14
  -2   1  -1  269.62    6.27
  -2   1  -1  263.38    7.15
  -2   1  -1  253.00    5.71
   2  -1   1  251.72    5.88
   2  -1   1  281.08    6.80
   2  -1   2  101.98    2.64
  -2   1  -2  120.72    3.90
  -2   1  -2  102.11    2.54
  -2   1  -2  116.73    2.90
  -2   1  -2  105.09    3.24
   2  -1   2  123.88    3.43
   2  -1   3    0.37    0.21
   2  -1   3    0.49    0.26
  -2   1  -3   -0.32    0.53
  -2   1  -3    0.21    0.20
   2  -1   3    0.30    0.11
  -2   1  -3    0.37    0.10
  -2   1  -3    0.32    0.15
  -2   1  -3   -0.13    0.42
   2  -1   3    0.16    0.34
   2  -1   4  143.74    4.41
  -2   1  -4  172.14    4.84
   2  -1   4  149.68    3.55
  -2   1  -4  145.99    4.10
  -2   1  -4  171.29    4.99
   2  -1   4  174.44    5.22
   2  -1   5  294.14    7.72
   2  -1   5  283.85    6.45
  -2   1  -5  321.16    7.68
  -2   1  -5  284.22    7.05
   2  -1   5  314.54    8.09
  -2   1  -5  319.11    7.82
  -2   1  -6  108.69    3.56
   2  -1   6  103.96    3.80
   2  -1   6  106.08    2.71
  -2   1  -6  129.45    3.76
  -2   1  -6  106.93    3.19
  -2   1  -6  124.78    3.83
   2  -1   6  122.43    3.99
   2  -1   7    0.01    0.13
  -2   1  -7   -0.04    0.28
  -2   1  -7    0.25    0.44
  -2   1  -7   -0.04    0.31
   2  -1   7   -0.05    0.34
  -2   1  -7    0.41    0.43
   2  -1   7   -0.14    0.34
  -2   1  -8   63.79    2.44
   2  -1   8   66.33    3.08
   2  -1   8   61.76    1.79
   2  -1   8   64.29    2.58
  -2   1  -8   62.18    2.45
  -2   1  -9   54.78    2.07
   2  -1   9   56.29    1.69
   2  -1  10  102.46    2.76
  -2   1 -10  107.08    2.96
  -2   1 -10  105.07    2.92
   2  -1  10  112.44    4.58
   2  -1  11   31.24    1.20
   2  -1  11   34.72    2.46
   2  -1  12   28.63    2.34
   2  -1  12   24.40    1.05
   2  -1  13    7.45    1.32
   2  -1  13    7.78    0.58
   2  -1  14    1.11    0.79
   2  -1  14    0.91    0.28
  -2   0  14   29.33    1.54
  -2   0  14   31.33    2.30
  -2   0  13    0.04    0.46
  -2   0  13    0.49    0.49
  -2   0  12   89.76    3.30
  -2   0  12   91.73    3.65
  -2   0  11   35.07    2.02
  -2   0  10    7.78    0.98
  -2   0   9  269.16    7.75
  -2   0   9  284.75    6.51
  -2   0   8   17.63    1.46
  -2   0   8   17.45    1.06
  -2   0   8   16.67    1.03
  -2   0   8   18.06    1.07
  -2   0   8   17.87    1.03
  -2   0   7   30.96    1.97
  -2   0   7   31.91    1.59
  -2   0   7   31.31    1.53
  -2   0   7   30.32    1.55
  -2   0   7   31.99    1.60
  -2   0   6  632.20   15.50
  -2   0   6  651.11   14.84
  -2   0   6  634.48   14.79
  -2   0   6  671.94   14.84
  -2   0   5  209.74    6.31
  -2   0   5  209.99    5.77
  -2   0   5  214.08    5.92
  -2   0   4  299.01    7.53
  -2   0   4  296.03    7.62
   2   0  -4  285.89    6.45
  -2   0   3    1.87    0.46
  -2   0   3    1.87    0.47
   2   0  -3    1.64    0.23
  -2   0   2   29.83    1.69
  -2   0   2   27.27    1.65
  -2   0   2   27.60    1.60
   2   0  -1 1330.56   27.33
   2   0  -1 1291.95   29.17
  -2   0   0  677.74   17.55
  -2   0   0  645.22   17.67
  -2   0  -1  456.98   10.03
  -2   0  -1  448.36    9.53
  -2   0  -1  413.09   10.80
  -2   0  -1  434.72   10.41
  -2   0  -1  430.44   10.79
  -2   0  -2 1324.76   26.59
  -2   0  -2 1334.56   27.37
  -2   0  -2 1193.37   28.17
  -2   0  -2 1223.97   27.51
  -2   0  -2 1183.10   28.07
  -2   0  -3  119.38    3.48
  -2   0  -3  117.33    2.66
   2   0   3  124.56    2.82
  -2   0  -3  132.38    4.12
  -2   0  -3  132.80    3.46
  -2   0  -3  132.88    4.09
  -2   0  -4   20.33    1.34
   2   0   4   18.68    1.15
  -2   0  -4   20.70    1.35
  -2   0  -4   18.45    0.97
  -2   0  -4   18.04    1.07
   2   0   4   19.07    0.59
  -2   0  -4   22.23    0.94
  -2   0  -5 1016.50   22.85
  -2   0  -5 1040.71   22.57
  -2   0  -5 1020.24   22.93
   2   0   5 1038.32   21.40
   2   0   5 1075.22   22.97
  -2   0  -5 1041.80   22.15
  -2   0  -5 1034.30   21.57
  -2   0  -6  112.65    3.65
  -2   0  -6  116.07    3.55
   2   0   6  110.05    2.56
  -2   0  -6  113.68    3.17
   2   0   6  119.65    3.97
  -2   0  -6  120.23    3.68
   2   0   7  365.81    9.27
   2   0   7  338.28    7.35
  -2   0  -7  372.10    8.54
  -2   0  -7  341.90    8.46
  -2   0  -7  340.48    8.48
  -2   0  -8   84.04    2.65
   2   0   8   77.17    2.82
  -2   0  -8   76.95    2.63
  -2   0  -8   78.33    2.65
  -2   0  -8   80.15    2.71
   2   0   8   79.63    3.39
  -2   0  -9   16.18    0.96
  -2   0  -9   17.04    0.96
   2   0   9   13.99    0.60
  -2   0  -9   17.19    0.95
   2   0   9   17.86    1.26
   2   0   9   17.28    1.55
  -2   0  -9   18.45    1.03
   2   0  10  125.14    3.06
   2   0  10  152.00    5.36
   2   0  11    1.42    0.23
   2   0  11    1.80    0.72
   2   0  12   96.26    4.37
   2   0  12   75.13    2.09
   2   0  13   15.87    1.81
   2   0  13   12.54    0.65
   2   0  14    0.69    0.71
   2   0  14    0.81    0.24
  -2  -1  14   -0.37    0.65
  -2  -1  13   12.25    1.15
  -2  -1  13   12.08    1.39
  -2  -1  12   42.82    2.50
  -2  -1  12   39.39    2.06
  -2  -1  11   42.77    2.28
  -2  -1  11   48.45    2.41
  -2  -1  10   12.60    1.30
  -2  -1  10   14.90    1.21
  -2  -1   9   63.23    3.00
  -2  -1   9   68.75    2.05
  -2  -1   9   67.27    2.01
  -2  -1   8   11.38    1.23
  -2  -1   8   11.95    0.82
  -2  -1   7   27.19    1.41
  -2  -1   7   27.98    1.32
  -2  -1   7   24.05    1.80
  -2  -1   6  147.55    4.20
  -2  -1   6  148.58    4.22
  -2  -1   6  141.71    4.31
  -2  -1   5   55.16    2.28
  -2  -1   5   58.30    2.33
  -2  -1   5   50.24    2.22
  -2  -1   5   51.60    2.67
   2   1  -4   61.46    2.56
  -2  -1   4   64.61    2.55
  -2  -1   4   67.65    2.61
  -2  -1   4   62.82    2.56
  -2  -1   4   57.03    2.80
  -2  -1   3  686.39   16.29
  -2  -1   3  704.36   16.37
   2   1  -3  750.44   16.47
  -2  -1   3  661.18   16.23
   2   1  -3  726.61   15.23
   2   1  -2  229.15    6.23
  -2  -1   2  236.59    6.30
  -2  -1   2  239.88    6.32
   2   1  -2  227.33    5.26
   2   1  -1   66.34    2.69
   2   1  -1   61.03    1.59
   2   1  -1   61.35    1.93
  -2  -1   0  706.64   14.68
  -2  -1   0  722.92   15.18
  -2  -1  -1  190.36    4.57
   2   1   1  183.59    4.17
   2   1   1  193.02    5.66
  -2  -1  -1  212.75    5.64
  -2  -1  -1  175.41    4.66
  -2  -1  -1  210.67    5.66
  -2  -1  -2  767.06   16.45
   2   1   2  776.85   15.99
  -2  -1  -2  745.51   17.37
   2   1   2  765.89   16.51
  -2  -1  -2  708.93   17.31
   2   1   3  189.55    4.94
   2   1   3  195.26    5.71
  -2  -1  -3  182.94    4.74
  -2  -1  -3  182.17    4.36
  -2  -1  -3  218.53    5.71
  -2  -1  -3  212.40    5.66
  -2  -1  -4  145.09    4.31
  -2  -1  -4  128.04    3.33
   2   1   4  134.11    4.40
  -2  -1  -4  143.37    4.28
  -2  -1  -4  131.29    3.46
  -2  -1  -4  129.63    3.67
  -2  -1  -5  355.93    8.41
  -2  -1  -5  363.77    8.83
  -2  -1  -5  362.29    8.84
  -2  -1  -5  343.31    7.99
  -2  -1  -5  348.38    8.91
   2   1   5  357.95    9.17
  -2  -1  -6  570.91   12.71
  -2  -1  -6  533.69   12.29
   2   1   6  536.17   13.04
  -2  -1  -6  558.05   12.66
   2   1   6  528.85   12.25
  -2  -1  -6  536.27   11.91
  -2  -1  -6  556.59   12.92
  -2  -1  -7  130.79    3.83
  -2  -1  -7  118.83    2.85
   2   1   7  140.16    2.88
  -2  -1  -7  131.81    3.85
   2   1   7  123.27    2.71
   2   1   7  131.24    3.79
  -2  -1  -7  137.55    4.11
  -2  -1  -8  409.68    9.56
   2   1   8  425.09   10.76
  -2  -1  -8  414.91    9.58
   2   1   8  405.17    9.79
  -2  -1  -8  397.50    8.75
  -2  -1  -8  434.96   10.03
  -2  -1  -9    0.01    0.21
  -2  -1  -9    0.15    0.24
   2   1   9   -0.04    0.36
   2   1   9    0.61    0.52
  -2  -1 -10  184.96    4.74
   2   1  10  182.87    6.24
   2   1  10  177.59    5.35
   2   1  11   32.26    1.32
  -2  -1 -11   30.59    1.09
  -2  -1 -11   31.18    1.10
   2   1  11   32.70    2.32
   2   1  12    5.25    1.05
   2   1  12    5.13    0.55
   2   1  13    9.17    0.73
   2   1  13    8.87    1.35
   2   1  14   12.52    1.66
   2   1  14   13.05    0.62
   2   1  15   37.37    2.92
  -2  -2  13    0.53    0.53
  -2  -2  13    1.13    0.54
  -2  -2  12   53.42    2.80
  -2  -2  12   49.78    2.46
  -2  -2  11    3.32    0.79
  -2  -2  11    4.81    0.86
  -2  -2  10    9.50    1.19
  -2  -2  10   12.57    1.18
  -2  -2   9  250.60    6.34
  -2  -2   9  239.00    7.67
  -2  -2   8    7.41    0.77
  -2  -2   8    6.39    0.71
  -2  -2   8    6.55    1.01
   2   2  -7   56.47    2.43
  -2  -2   7   58.40    2.44
  -2  -2   7   56.24    2.96
   2   2  -6  450.45   10.88
  -2  -2   6  431.88   11.68
   2   2  -5    4.21    0.66
   2   2  -4  247.17    7.03
  -2  -2   4  257.11    6.66
   2   2  -3  205.81    6.12
   2   2  -3  203.06    4.88
  -2  -2   3  212.27    5.82
  -2  -2   3  216.98    5.85
  -2  -2   2    4.62    0.66
  -2  -2   2    4.48    0.65
   2   2  -2    3.78    0.35
   2   2  -2    3.98    0.64
   2   2  -2    3.55    0.41
   2   2  -2    3.79    0.66
   2   2  -1  117.39    4.06
  -2  -2   1  110.23    3.63
  -2  -2   1  101.02    3.54
   2   2  -1  116.13    3.87
   2   2  -1   95.26    2.55
   2   2  -1  104.05    2.96
  -2  -2   0  448.53    9.73
  -2  -2   0  454.05    9.79
   2   2   0  468.29   11.37
   2   2   0  476.31   11.59
  -2  -2  -1  968.56   20.06
   2   2   1  918.95   21.80
  -2  -2  -1  880.36   21.22
  -2  -2  -1  923.22   21.30
   2   2   1  937.79   21.65
   2   2   2  277.98    6.28
  -2  -2  -2  300.72    7.53
  -2  -2  -2  302.56    7.53
  -2  -2  -2  282.16    6.41
  -2  -2  -2  275.27    6.82
   2   2   2  268.94    6.45
  -2  -2  -3   46.65    1.57
   2   2   3   45.65    1.70
   2   2   3   43.87    1.40
  -2  -2  -3   41.63    1.06
  -2  -2  -3   48.21    2.14
  -2  -2  -3   51.29    2.19
  -2  -2  -3   44.30    1.39
   2   2   3   47.51    2.31
   2   2   4  288.32    6.92
  -2  -2  -4  305.37    7.43
  -2  -2  -4  274.78    5.81
  -2  -2  -4  310.04    7.45
  -2  -2  -4  263.16    6.40
  -2  -2  -4  274.97    6.54
  -2  -2  -4  273.85    6.27
   2   2   4  294.18    7.79
   2   2   4  297.03    8.01
   2   2   5  124.19    4.44
  -2  -2  -5  139.38    4.13
  -2  -2  -5  141.30    4.12
   2   2   5  126.36    3.91
   2   2   5  130.41    4.36
  -2  -2  -5  128.01    3.21
  -2  -2  -5  120.29    3.38
   2   2   6   12.73    1.21
  -2  -2  -6   11.78    0.80
   2   2   6   11.19    0.99
  -2  -2  -6   11.98    0.94
   2   2   7  483.33   11.84
   2   2   7  454.60   11.44
  -2  -2  -7  474.23   10.80
   2   2   7  458.04   10.70
   2   2   8   56.63    1.27
  -2  -2  -8   50.98    1.53
   2   2   8   57.82    2.63
  -2  -2  -8   51.64    2.10
   2   2   8   54.40    2.14
   2   2   9   20.50    0.63
  -2  -2  -9   17.45    0.82
   2   2   9   21.45    1.32
  -2  -2  -9   20.43    1.36
   2   2   9   21.32    1.47
  -2  -2 -10   29.08    1.22
   2   2  10   32.14    0.97
   2   2  10   31.07    1.70
  -2  -2 -10   31.34    1.65
  -2  -2 -11    9.00    0.69
   2   2  11   10.27    0.52
  -2  -2 -11    9.10    0.80
  -2  -2 -12   71.30    2.19
   2   2  12   76.06    3.72
   2   2  12   76.81    2.05
  -2  -2 -12   71.57    2.41
   2   2  13    0.64    0.22
   2   2  13    0.92    0.67
   2   2  14    0.18    0.58
   2   2  15   99.24    4.84
  -2  -3  12    0.69    0.51
  -2  -3  11   23.29    1.78
  -2  -3  11   29.56    1.92
  -2  -3  10   -0.10    0.41
  -2  -3  10   -0.13    0.65
  -2  -3   9   -0.20    0.49
  -2  -3   9    0.21    0.36
  -2  -3   9    0.24    0.31
  -2  -3   8   30.50    1.62
   2   3  -8   26.14    1.61
  -2  -3   8   26.55    2.10
  -2  -3   7    2.08    0.43
   2   3  -7    1.91    0.52
   2   3  -6  321.81    9.12
  -2  -3   6  363.72    8.31
   2   3  -5   23.71    1.17
   2   3  -5   23.43    1.60
  -2  -3   5   24.07    1.11
   2   3  -5   24.09    1.70
   2   3  -4    0.23    0.38
  -2  -3   4    0.25    0.14
   2   3  -4    0.40    0.25
   2   3  -4    0.46    0.36
  -2  -3   3  448.00    9.76
   2   3  -3  462.46   10.23
   2   3  -3  477.48   11.71
   2   3  -3  494.57   12.06
   2   3  -2   98.19    2.76
   2   3  -2  106.91    3.87
   2   3  -2  103.21    4.03
   2   3  -1  339.05    7.77
   2   3  -1  355.90    9.53
   2   3  -1  360.10    9.27
   2   3   0  779.06   18.95
  -2  -3   0  821.27   17.22
   2   3   0  792.14   18.72
  -2  -3  -1  236.61    5.79
   2   3   1  269.66    7.57
   2   3   1  269.70    7.32
   2   3   1  250.33    6.34
   2   3   1  255.57    5.57
   2   3   2  675.13   14.26
  -2  -3  -2  666.53   13.96
   2   3   2  672.28   14.93
  -2  -3  -2  671.74   14.78
   2   3   3  289.62    6.80
   2   3   3  279.58    6.61
  -2  -3  -3  279.29    6.22
  -2  -3  -3  299.14    6.27
  -2  -3  -4   50.04    1.36
   2   3   4   55.13    2.75
   2   3   4   51.61    2.52
  -2  -3  -4   52.87    1.41
   2   3   4   48.88    1.69
   2   3   4   50.50    1.91
  -2  -3  -5  440.55    8.95
   2   3   5  445.69   10.98
   2   3   5  426.85   11.19
   2   3   5  444.90   10.06
   2   3   6    0.22    0.27
  -2  -3  -6    0.10    0.22
  -2  -3  -6    0.07    0.12
   2   3   6    0.05    0.34
  -2  -3  -6    0.04    0.28
   2   3   7  148.13    4.62
  -2  -3  -7  130.77    3.95
   2   3   7  156.52    5.29
   2   3   7  143.13    3.14
   2   3   7  142.93    3.88
   2   3   7  164.30    5.15
   2   3   8   51.27    2.48
  -2  -3  -8   48.25    2.04
   2   3   8   49.25    1.23
   2   3   8   50.32    1.95
   2   3   8   56.89    2.70
   2   3   8   55.97    2.81
  -2  -3  -9   58.94    1.87
   2   3   9   65.66    3.01
   2   3   9   67.63    3.10
  -2  -3  -9   65.63    2.56
   2   3   9   63.21    1.54
   2   3   9   65.95    2.43
   2   3  10  388.49   10.91
   2   3  10  418.64   10.78
  -2  -3 -10  425.42   10.30
   2   3  10  419.83    8.72
  -2  -3 -10  387.95    9.18
   2   3  10  411.57    9.98
   2   3  11    3.18    0.26
   2   3  11    3.85    0.83
  -2  -3 -11    2.41    0.46
   2   3  11    3.00    0.64
   2   3  11    3.23    0.63
  -2  -3 -11    3.34    0.69
  -2  -3 -12    1.39    0.40
   2   3  12    1.33    0.21
  -2  -3 -12    1.42    0.56
  -2  -3 -13   31.15    1.98
   2   3  13   32.62    1.04
  -2  -3 -14    2.65    0.72
  -2  -3 -15   20.55    1.73
  -2  -4  11    3.49    0.86
  -2  -4  10    0.07    0.52
   2   4  -9  109.65    3.92
  -2  -4   9  103.50    4.63
  -2  -4   8    0.76    0.36
   2   4  -8    0.91    0.48
   2   4  -7   32.11    2.04
  -2  -4   7   33.81    1.51
  -2  -4   6  133.23    3.65
   2   4  -6  140.95    4.87
  -2  -4   5    0.88    0.21
   2   4  -5    1.16    0.37
   2   4  -5    1.10    0.49
   2   4  -5    1.06    0.54
   2   4  -4   16.73    1.02
   2   4  -4   17.07    1.47
   2   4  -4   16.16    1.53
   2   4  -3    2.88    0.69
   2   4  -3    2.60    0.40
   2   4  -3    2.68    0.66
   2   4  -2   52.72    2.81
   2   4  -2   49.31    2.55
   2   4  -1  128.27    4.97
   2   4  -1  135.40    4.76
  -2  -4   0   12.76    0.77
   2   4   0   15.09    1.46
   2   4   0   15.00    1.35
   2   4   0   13.11    0.95
  -2  -4  -1  233.00    5.39
   2   4   1  248.09    7.06
   2   4   1  233.74    7.28
  -2  -4  -1  236.36    5.68
   2   4   1  228.55    6.12
   2   4   2    1.70    0.24
   2   4   2    2.02    0.57
  -2  -4  -2    2.06    0.26
  -2  -4  -2    1.96    0.35
   2   4   2    1.53    0.48
   2   4   2    2.00    0.45
   2   4   3   77.83    2.43
   2   4   3   77.87    2.85
  -2  -4  -3   82.63    2.17
   2   4   3   81.03    2.39
   2   4   4  185.48    4.90
  -2  -4  -4  187.32    4.36
   2   4   4  183.18    6.20
   2   4   4  184.76    5.95
  -2  -4  -4  190.15    5.17
   2   4   5    0.18    0.22
   2   4   5    0.46    0.46
  -2  -4  -5    0.49    0.15
   2   4   5    0.29    0.38
  -2  -4  -5    0.50    0.29
   2   4   6    1.09    0.36
   2   4   6    1.27    0.54
   2   4   6    1.33    0.51
  -2  -4  -6    0.93    0.20
  -2  -4  -6    1.07    0.40
   2   4   7  134.58    4.35
  -2  -4  -7  149.23    3.58
   2   4   7  142.09    5.24
   2   4   7  141.94    4.98
  -2  -4  -7  137.24    4.42
   2   4   8   80.81    3.18
  -2  -4  -8   79.78    2.84
   2   4   8   75.90    1.92
   2   4   8   84.09    3.56
   2   4   8   81.08    2.54
  -2  -4  -8   77.65    3.07
   2   4   8   85.42    3.83
  -2  -4  -9    7.62    0.61
  -2  -4  -9    7.51    0.85
   2   4   9    8.22    0.42
   2   4   9    9.16    1.16
   2   4   9    8.43    0.76
   2   4   9    9.20    1.24
  -2  -4  -9    6.38    0.86
   2   4   9    8.23    0.99
   2   4  10   56.61    2.85
  -2  -4 -10   57.87    2.52
   2   4  10   55.39    1.50
   2   4  10   56.87    2.27
   2   4  10   64.60    3.05
  -2  -4 -10   50.86    2.57
  -2  -4 -10   53.64    1.88
   2   4  10   63.76    3.20
  -2  -4 -11   22.44    1.17
   2   4  11   24.70    0.83
  -2  -4 -11   19.55    1.58
  -2  -4 -11   23.30    1.53
   2   4  11   23.97    1.47
   2   4  11   25.59    1.93
   2   4  11   24.02    1.83
   2   4  12    4.52    0.96
  -2  -4 -12    3.03    0.60
   2   4  12    3.57    0.30
  -2  -4 -12    3.26    0.67
   2   4  12    3.97    0.83
  -2  -4 -12    2.67    0.70
   2   4  13    5.15    0.81
   2   4  13    4.90    1.05
  -2  -4 -13    6.42    0.94
   2   4  14   -0.76    0.70
  -2  -4 -14    0.83    0.59
  -2  -4 -15    8.89    1.17
  -2  -4 -15    9.46    1.23
  -2  -4 -16    2.06    0.69
  -2  -5  10    1.16    0.71
  -2  -5   9    1.87    0.82
   2   5  -8    5.59    0.95
   2   5  -7   17.88    1.70
   2   5  -6  285.73    8.60
   2   5  -6  291.14    9.00
  -2  -5   6  304.36    7.34
   2   5  -5    6.94    1.06
   2   5  -5    8.65    1.22
  -2  -5   5    8.97    0.73
   2   5  -4   62.61    3.36
   2   5  -4   59.77    3.09
  -2  -5   4   60.70    2.03
   2   5  -3  326.15    9.76
   2   5  -3  321.78    9.33
  -2  -5   3  331.64    7.52
   2   5  -2   76.44    3.74
  -2  -5   2   76.29    2.13
   2   5  -2   69.15    3.37
   2   5  -1  139.85    5.37
  -2  -5   1  131.33    3.64
   2   5  -1  141.85    5.06
  -2  -5   1  140.31    3.31
   2   5   0  414.82   11.50
   2   5   0  431.69   11.18
  -2  -5   0  399.23    9.49
  -2  -5   0  429.54    8.81
  -2  -5   0  385.20    9.22
   2   5   0  425.42   10.08
   2   5   1   20.06    1.79
  -2  -5  -1   20.21    1.09
  -2  -5  -1   19.67    0.94
   2   5   1   23.72    1.80
   2   5   1   21.52    1.33
   2   5   2  333.21    9.19
   2   5   2  330.64    9.58
  -2  -5  -2  329.28    7.39
  -2  -5  -2  316.81    7.66
   2   5   2  319.77    7.10
   2   5   2  321.47    8.23
   2   5   3   69.07    2.07
  -2  -5  -3   65.65    1.98
   2   5   4  124.07    3.46
   2   5   4  116.32    4.54
  -2  -5  -4  121.34    3.19
  -2  -5  -5   69.19    2.07
   2   5   5   71.80    2.51
   2   5   5   72.56    3.33
   2   5   5   70.41    3.55
   2   5   6    0.81    0.52
   2   5   6    0.50    0.32
  -2  -5  -6    0.40    0.21
   2   5   6    0.19    0.38
   2   5   7  315.82    9.26
   2   5   7  327.71    8.46
   2   5   7  308.13    9.59
  -2  -5  -7  339.42    7.63
  -2  -5  -7  321.95    8.41
   2   5   8   46.67    2.86
   2   5   8   44.65    2.27
   2   5   8   43.49    2.61
  -2  -5  -8   47.38    1.77
  -2  -5  -8   43.75    2.15
   2   5   9   46.30    2.42
   2   5   9   45.77    1.37
   2   5   9   45.64    2.84
   2   5   9   42.65    2.59
  -2  -5  -9   44.66    2.23
   2   5  10  145.00    4.95
  -2  -5 -10  135.54    3.75
  -2  -5 -10  135.63    4.37
   2   5  10  129.45    3.21
   2   5  10  137.36    3.99
   2   5  10  148.67    5.56
  -2  -5 -10  140.09    4.63
   2   5  10  154.48    5.32
   2   5  11    1.50    0.24
  -2  -5 -11    1.26    0.44
  -2  -5 -11    2.34    0.59
   2   5  11    1.47    0.64
   2   5  11    1.24    0.44
   2   5  11    1.36    0.61
  -2  -5 -11    1.36    0.53
   2   5  11    1.96    0.77
   2   5  12   33.95    2.33
  -2  -5 -12   33.76    2.05
   2   5  12   32.01    1.07
   2   5  12   31.00    1.73
   2   5  12   32.63    2.22
  -2  -5 -12   30.79    1.98
   2   5  12   32.46    2.34
   2   5  13   28.35    2.24
   2   5  13   28.43    2.09
  -2  -5 -13   30.75    2.01
  -2  -5 -13   27.36    1.91
   2   5  14    1.60    0.73
  -2  -5 -14    1.70    0.69
  -2  -5 -14    0.51    0.50
  -2  -5 -15   24.60    1.82
  -2  -6   8   12.47    1.09
   2   6  -7   27.67    2.28
   2   6  -6    6.79    1.18
  -2  -6   5    1.17    0.40
   2   6  -5    0.95    0.69
  -2  -6   5    1.18    0.40
   2   6  -4    1.66    0.76
  -2  -6   4    1.41    0.40
  -2  -6   4    2.22    0.45
  -2  -6   3   26.49    1.34
   2   6  -3   30.37    2.43
  -2  -6   3   30.65    1.31
  -2  -6   2    3.23    0.41
   2   6  -2    3.17    0.87
  -2  -6   2    2.90    0.46
   2   6  -1   -0.08    0.48
  -2  -6   1   -0.08    0.26
  -2  -6   0    4.70    0.52
  -2  -6   0    4.42    0.55
  -2  -6  -1  109.92    3.21
   2   6   1  127.16    5.24
  -2  -6  -1  109.50    3.38
   2   6   1  121.12    4.81
   2   6   2   82.96    4.09
  -2  -6  -2   72.81    2.32
   2   6   2   83.20    3.79
  -2  -6  -2   70.62    2.51
   2   6   2   72.08    1.82
   2   6   2   74.56    2.93
  -2  -6  -3  138.11    3.70
   2   6   3  140.68    5.34
  -2  -6  -3  131.77    3.92
   2   6   3  141.41    3.56
   2   6   3  131.00    4.38
   2   6   3  148.29    5.76
  -2  -6  -4   34.20    1.40
   2   6   4   36.29    1.48
   2   6   5   43.91    2.93
   2   6   5   48.64    1.95
  -2  -6  -5   44.25    1.65
  -2  -6  -6    6.63    0.60
   2   6   6    7.70    0.80
   2   6   6    8.18    1.29
   2   6   7   75.92    2.95
   2   6   7   68.44    3.75
  -2  -6  -7   71.25    2.37
   2   6   8   47.32    2.34
   2   6   8   41.41    2.86
  -2  -6  -8   43.10    1.78
   2   6   9   24.02    2.16
   2   6   9   22.68    1.66
  -2  -6  -9   22.35    1.31
   2   6  10    7.08    1.26
   2   6  10    7.37    1.06
   2   6  11    7.29    1.09
   2   6  11    7.16    0.50
   2   6  11    7.14    1.25
  -2  -6 -11    6.69    0.89
   2   6  12    1.26    0.61
   2   6  12    0.80    0.65
  -2  -6 -12    2.11    0.58
   2   6  13   17.11    1.76
  -2  -6 -13   15.64    1.44
   2   6  13   14.61    1.71
  -2  -6 -13   15.48    1.32
   2   6  14    1.17    0.75
  -2  -6 -14    0.83    0.51
  -2  -7   6   68.77    2.76
   2   7  -6   75.35    4.09
  -2  -7   5    8.77    0.90
   2   7  -5   12.54    1.69
   2   7  -4   28.07    2.48
  -2  -7   4   24.32    1.43
  -2  -7   3   50.19    2.12
   2   7  -3   56.48    3.57
   2   7  -2    3.37    0.98
  -2  -7   2    2.10    0.48
   2   7  -1  157.12    6.29
  -2  -7   1  136.55    4.06
   2   7   0    9.87    1.48
  -2  -7   0    8.35    0.76
  -2  -7  -1    3.30    0.52
  -2  -7  -1    2.83    0.51
   2   7   1    4.52    1.12
  -2  -7  -2  192.69    5.06
  -2  -7  -2  187.95    5.25
  -2  -7  -3   31.17    1.44
  -2  -7  -3   29.65    1.57
   2   7   3   29.48    1.10
   2   7   3   34.31    2.75
   2   7   4   70.91    2.27
  -2  -7  -4   67.86    2.33
  -2  -7  -4   63.15    2.50
   2   7   5   10.38    0.82
  -2  -7  -5    9.01    0.73
  -2  -7  -5    8.15    0.84
   2   7   5    9.02    1.43
   2   7   6    0.87    0.38
   2   7   6    1.09    0.68
  -2  -7  -6    0.68    0.33
   2   7   7   79.04    3.04
  -2  -7  -7   74.82    2.59
   2   7   7   75.58    4.19
   2   7   8   -0.10    0.40
   2   7   8   -0.10    0.56
  -2  -7  -8   -0.16    0.33
   2   7   9  100.60    3.92
   2   7   9   95.69    4.86
  -2  -7  -9  103.25    3.43
   2   7  10  108.81    4.23
   2   7  10  100.33    5.04
   2   7  11   23.77    2.32
   2   7  11   22.77    1.85
   2   7  12    2.49    0.86
   2   7  12    2.82    0.97
   2   7  13   12.18    1.50
   2   7  13   15.02    1.88
   2   8  -5    4.92    1.26
   2   8  -4    0.79    0.71
  -2  -8   4    0.75    0.45
  -2  -8   3   35.71    1.86
   2   8  -3   43.02    3.31
   2   8  -2    0.57    0.78
  -2  -8   2    0.11    0.33
   2   8  -1    0.57    0.86
  -2  -8   1    0.28    0.33
  -2  -8   0   23.49    1.35
   2   8   0   28.20    2.64
   2   8   1    5.65    1.31
  -2  -8  -1    3.68    0.59
   2   8   2   22.00    2.41
  -2  -8  -2   18.95    1.20
  -2  -8  -2   15.64    1.15
  -2  -8  -3   22.06    1.29
  -2  -8  -3   21.15    1.35
   2   8   4    3.79    0.45
  -2  -8  -4    3.64    0.56
  -2  -8  -4    3.36    0.61
   2   8   5   41.86    1.75
  -2  -8  -5   38.68    1.76
   2   8   6    2.86    0.54
   2   8   6    2.17    0.87
  -2  -8  -6    3.18    0.58
   2   8   7    2.61    1.00
   2   8   7    1.72    0.51
  -2  -8  -7    2.57    0.54
   2   8   8   44.22    2.29
   2   8   8   38.64    3.18
  -2  -8  -8   45.53    2.07
   2   8   9    0.06    0.42
   2   8   9    0.11    0.64
  -2  -8  -9    0.04    0.42
   2   8  10    4.82    0.90
   2   8  10    5.98    1.37
   2   8  11   26.73    2.02
   2   8  11   25.61    2.60
   2   8  12    7.65    1.21
   2   8  12    9.01    1.62
   2   8  13    7.69    1.27
   2   8  13    7.54    1.51
   2   9  -2    0.13    0.76
   2   9  -1   50.31    3.85
   2   9   0    2.61    1.06
  -2  -9   0    2.13    0.54
   2   9   1   15.18    2.17
  -2  -9  -1   14.98    1.18
   2   9   2   15.57    2.22
  -2  -9  -2   17.32    1.23
   2   9   3    4.39    1.23
  -2  -9  -3    3.02    0.58
   2   9   4   30.24    3.00
  -2  -9  -4   26.23    1.49
  -2  -9  -5    1.36    0.46
  -2  -9  -6    0.04    0.40
   2   9   6   -0.13    0.77
  -2  -9  -7   21.90    1.42
   2   9   7   24.48    2.73
   2   9   8   -0.10    0.39
  -2  -9  -8    0.04    0.41
   2   9   8    0.39    0.87
   2   9   9    6.00    0.96
   2   9   9    5.09    1.43
   2   9  10    4.26    0.87
   2   9  11    0.14    0.56
   2   9  12    5.56    1.08
  -2 -10  -6    0.25    0.38
  -2 -10  -7    6.13    0.84
   3  -8  -9   31.45    1.66
   3  -8  -8    0.30    0.39
   3  -8  -7   13.48    2.15
   3  -8  -7   11.03    0.93
   3  -8  -6    3.55    1.21
   3  -8  -6    2.84    0.52
   3  -8  -5   -0.20    0.54
   3  -8  -5    0.14    1.04
   3  -8  -5    0.27    0.30
   3  -8  -4  104.97    4.17
   3  -8  -4  112.88    6.09
   3  -8  -4   95.09    2.93
   3  -8  -3    3.78    0.83
   3  -8  -3    3.85    1.50
  -3   8   2    4.00    0.68
   3  -8  -1   60.57    2.94
  -3   8   1   65.73    2.59
   3  -8   0    0.60    0.49
   3  -8   0    0.56    1.01
  -3   8   0    0.96    0.42
   3  -8   1    3.55    0.71
   3  -8   1    4.49    1.38
  -3   8  -1    2.82    0.57
   3  -8   2    8.13    1.70
  -3   8  -2    8.15    0.82
  -3   8  -3   30.40    1.55
   3  -7 -11    8.83    1.57
   3  -7 -10   13.58    1.88
   3  -7  -9    0.92    0.73
   3  -7  -8    0.60    0.82
   3  -7  -7   35.64    3.15
   3  -7  -7   31.12    1.51
   3  -7  -6   43.14    3.47
   3  -7  -6   38.79    2.45
   3  -7  -6   39.27    1.68
   3  -7  -5    3.05    0.76
   3  -7  -5    3.11    1.16
   3  -7  -5    3.32    0.49
   3  -7  -4   47.01    3.73
   3  -7  -4   46.56    2.52
   3  -7  -4   42.33    1.67
   3  -7  -3   20.66    2.52
   3  -7  -2    5.71    1.58
   3  -7  -1   11.49    1.16
  -3   7   1   11.03    1.04
   3  -7   0    6.64    0.87
   3  -7   0    7.22    1.60
  -3   7   0    6.20    0.80
   3  -7   1   16.11    2.21
   3  -7   1   16.10    1.29
  -3   7  -1   16.89    1.23
   3  -7   2   14.24    2.05
   3  -7   2   13.03    1.17
  -3   7  -2   12.61    1.05
   3  -7   3   34.46    3.09
   3  -7   3   33.14    1.87
  -3   7  -3   31.13    1.65
   3  -7   4    0.82    0.51
   3  -7   4    0.48    0.74
  -3   7  -4    0.58    0.38
   3  -7   5   61.47    4.06
   3  -7   5   67.91    2.85
   3  -7   6    1.08    0.52
   3  -7   6    1.34    0.90
   3  -7   7    2.22    0.94
   3  -7   8    0.82    0.77
   3  -6 -11   11.94    1.64
   3  -6 -10   25.07    2.33
   3  -6  -9   28.70    2.58
   3  -6  -8   25.87    2.47
   3  -6  -7   72.03    4.30
   3  -6  -6   24.77    2.54
   3  -6  -5   32.54    2.91
   3  -6  -5   29.02    1.96
   3  -6  -5   29.66    1.30
   3  -6  -4  213.06    6.46
   3  -6  -4  209.16    5.25
  -3   6   3    4.54    0.49
   3  -6  -3    4.30    1.21
   3  -6  -3    4.79    0.48
   3  -6  -2   53.59    3.80
  -3   6   2   46.78    1.71
   3  -6  -1   82.73    3.25
  -3   6   1   90.64    2.72
   3  -6   0    0.21    0.31
   3  -6   1  163.05    4.93
  -3   6  -1  162.93    4.96
   3  -6   2   28.16    1.79
   3  -6   2   29.41    2.74
   3  -6   2   26.88    1.56
  -3   6  -2   25.74    1.56
   3  -6   3    0.88    0.53
   3  -6   3    0.31    0.36
   3  -6   3    0.70    0.78
  -3   6  -3    0.26    0.34
   3  -6   4   87.45    3.30
   3  -6   4   86.98    3.17
  -3   6  -4   88.84    3.14
   3  -6   4   93.09    4.90
   3  -6   5   42.28    2.03
   3  -6   5   42.15    3.19
  -3   6  -5   40.85    1.90
   3  -6   6   33.89    1.80
  -3   6  -6   35.85    1.74
   3  -6   6   33.83    2.78
   3  -6   7   10.61    1.62
   3  -6   7    8.67    0.88
   3  -6   8   -0.58    0.68
   3  -6   8    0.04    0.35
   3  -6   9   14.52    1.19
   3  -6   9   16.69    1.87
   3  -5 -14    1.23    0.56
   3  -5 -13   19.63    1.47
   3  -5 -12    7.44    0.89
   3  -5 -11   15.73    1.19
   3  -5 -11   15.09    1.68
   3  -5 -10   40.98    2.83
   3  -5  -9   65.31    3.69
   3  -5  -8   30.97    2.54
   3  -5  -7   47.88    3.26
   3  -5  -6   55.35    3.51
   3  -5  -5    2.90    0.97
  -3   5   5    2.24    0.23
   3  -5  -4    0.35    0.40
   3  -5  -4    0.54    0.65
   3  -5  -4    0.38    0.22
   3  -5  -3  100.82    5.02
   3  -5  -3   78.68    2.26
  -3   5   2    4.83    0.45
   3  -5  -2    5.67    0.96
   3  -5  -2    4.80    0.40
   3  -5  -1  170.64    5.45
   3  -5  -1  167.14    7.00
   3  -5  -1  155.40    4.83
  -3   5   1  164.78    4.14
   3  -5   0    0.10    0.47
   3  -5   0    0.07    0.29
   3  -5   1   24.07    1.65
   3  -5   1   26.29    2.51
   3  -5   1   22.79    1.35
  -3   5  -1   22.76    1.69
   3  -5   2  109.20    3.52
   3  -5   2  116.33    4.01
   3  -5   2  117.80    5.59
  -3   5  -2  107.58    3.73
  -3   5  -2  115.75    4.28
   3  -5   3    0.62    0.61
   3  -5   3    0.13    0.41
   3  -5   3    0.10    0.30
  -3   5  -3    0.16    0.34
   3  -5   4  111.73    3.77
   3  -5   4  116.13    5.40
   3  -5   4  107.21    3.42
  -3   5  -4  105.78    3.08
  -3   5  -4  105.25    3.58
   3  -5   5   74.60    4.16
   3  -5   5   75.46    2.85
  -3   5  -5   74.21    2.41
  -3   5  -5   66.19    2.66
   3  -5   5   69.56    2.59
   3  -5   6   14.71    1.09
   3  -5   6   15.88    1.86
   3  -5   6   12.81    0.98
  -3   5  -6   14.69    1.10
   3  -5   7   84.54    4.36
   3  -5   7   79.75    2.84
  -3   5  -7   82.21    2.92
   3  -5   8    0.81    0.66
   3  -5   8    1.04    0.39
   3  -5   9    5.50    0.71
   3  -5   9    4.34    1.02
   3  -5  10   44.74    2.02
   3  -5  11    0.49    0.39
   3  -4 -14   -0.13    0.40
   3  -4 -13    7.46    0.89
   3  -4 -12   66.27    2.60
  -3   4  11    4.06    0.80
   3  -4 -11    3.88    0.86
   3  -4 -11    3.96    0.65
  -3   4  10   54.10    2.50
   3  -4 -10   50.60    2.18
   3  -4 -10   50.45    3.02
   3  -4  -9   32.60    2.42
  -3   4   9   37.91    2.03
   3  -4  -9   33.55    1.65
  -3   4   8    3.95    0.80
   3  -4  -8    2.84    0.49
   3  -4  -8    2.26    0.76
   3  -4  -7  107.98    4.85
  -3   4   6   28.34    1.67
   3  -4  -6   25.64    2.25
   3  -4  -5  166.64    6.48
  -3   4   5  158.59    4.80
   3  -4  -4  572.34   15.24
  -3   4   4  538.74   12.64
  -3   4   4  533.49   12.28
   3  -4  -3   94.16    3.84
  -3   4   3   83.95    2.82
  -3   4   3   75.27    2.46
   3  -4  -3   71.21    2.02
   3  -4  -3   84.34    4.38
   3  -4  -2  136.26    4.72
   3  -4  -2  135.79    5.72
  -3   4   2  125.94    3.59
  -3   4   2  112.08    2.90
  -3   4   2  116.35    3.31
   3  -4  -2  110.09    2.80
   3  -4  -1  130.29    4.07
  -3   4   1  131.70    3.66
  -3   4   1  131.67    3.32
   3  -4   0   33.24    1.65
  -3   4   0   34.90    1.40
   3  -4   1  124.54    3.80
  -3   4  -1  135.91    4.57
  -3   4  -1  124.97    3.45
   3  -4   1  133.45    5.78
   3  -4   2   86.23    3.29
   3  -4   2   89.34    4.50
  -3   4  -2   73.41    2.26
  -3   4  -2   73.49    3.13
   3  -4   2   70.14    2.50
   3  -4   3  112.32    3.75
  -3   4  -3  105.75    3.92
   3  -4   3  113.76    5.16
   3  -4   3   92.48    3.02
  -3   4  -3   96.12    2.73
  -3   4  -3   97.32    2.69
  -3   4  -3   97.80    3.44
   3  -4   4   65.44    2.61
  -3   4  -4   56.61    2.75
   3  -4   4   58.64    2.17
  -3   4  -4   58.33    1.90
  -3   4  -4   58.38    1.92
  -3   4  -4   58.67    2.47
   3  -4   4   64.39    3.72
  -3   4  -5    0.98    0.50
   3  -4   5    1.04    0.45
   3  -4   5    0.54    0.28
   3  -4   5    0.64    0.62
  -3   4  -5    0.84    0.30
  -3   4  -5    1.12    0.43
   3  -4   6   29.45    1.41
  -3   4  -6   31.54    1.37
  -3   4  -6   33.19    1.71
   3  -4   6   33.93    1.60
   3  -4   7   -0.10    0.24
   3  -4   7   -0.09    0.53
   3  -4   7   -0.03    0.26
  -3   4  -7    0.18    0.33
   3  -4   8   -0.08    0.62
   3  -4   8    0.11    0.29
   3  -4   9   55.15    2.13
   3  -4   9   55.83    3.16
   3  -4  10   10.93    0.87
   3  -4  10   10.69    1.33
   3  -4  11    1.68    0.44
   3  -4  12    3.26    0.55
   3  -3 -14    9.31    1.06
  -3   3  14    9.37    1.04
  -3   3  13    2.03    0.66
   3  -3 -13    1.34    0.51
  -3   3  12   29.25    1.77
   3  -3 -12   25.25    1.59
  -3   3  11   19.58    1.46
   3  -3 -11   17.17    1.22
   3  -3 -11   16.30    1.51
  -3   3  11   17.54    1.53
   3  -3 -10    5.21    0.68
   3  -3 -10    4.64    0.88
  -3   3  10    6.08    0.91
   3  -3  -9  103.99    3.35
   3  -3  -9   97.51    4.25
  -3   3   8    3.35    0.74
   3  -3  -8    3.26    0.48
   3  -3  -8    3.43    0.86
   3  -3  -7    9.96    1.34
   3  -3  -7    9.22    0.68
   3  -3  -6  326.32    9.66
   3  -3  -6  309.40    7.28
   3  -3  -6  320.82    9.56
   3  -3  -5   27.01    2.22
  -3   3   5   25.73    1.63
  -3   3   5   23.19    1.32
  -3   3   5   29.36    2.00
   3  -3  -5   21.60    0.95
   3  -3  -5   27.50    2.16
  -3   3   4    8.93    1.33
  -3   3   4    7.16    1.18
  -3   3   4    5.31    0.59
   3  -3  -4    5.60    1.08
  -3   3   4    5.90    0.85
   3  -3  -3  211.64    6.81
  -3   3   3  223.15    7.11
  -3   3   3  207.22    5.71
  -3   3   3  224.33    6.81
   3  -3  -3  223.44    7.56
   3  -3  -2  155.83    5.16
  -3   3   2  135.78    3.67
   3  -3  -2  125.31    3.01
   3  -3  -2  158.55    6.01
  -3   3   2  143.85    4.05
   3  -3  -1  515.59   12.57
  -3   3   1  490.50   10.27
   3  -3  -1  490.34   11.42
  -3   3   1  472.79   10.78
   3  -3  -1  485.71   13.74
  -3   3   1  469.00   11.12
  -3   3   0    0.44    0.78
   3  -3   0   -0.28    0.59
  -3   3   0    0.19    0.12
   3  -3   0   -0.12    0.26
  -3   3   0    0.26    0.21
  -3   3   0    0.02    0.32
  -3   3   0    0.70    0.78
   3  -3   1   79.23    3.20
  -3   3  -1   69.76    2.19
   3  -3   1   64.50    2.34
  -3   3  -1   79.37    3.51
  -3   3  -1   68.06    2.11
  -3   3  -1   76.44    3.70
  -3   3  -2  176.65    5.91
   3  -3   2  170.56    5.11
   3  -3   2  169.73    6.40
   3  -3   2  151.79    4.14
  -3   3  -2  177.03    5.63
  -3   3  -2  151.95    3.84
  -3   3  -2  146.88    3.61
  -3   3  -2  146.87    4.78
   3  -3   3  133.18    4.19
  -3   3  -3  137.25    4.95
   3  -3   3  134.96    5.52
  -3   3  -3  119.20    4.18
   3  -3   3  112.39    3.30
  -3   3  -3  136.69    4.70
  -3   3  -3  117.04    3.08
  -3   3  -3  113.33    2.95
  -3   3  -3  115.41    3.84
   3  -3   4  713.10   18.77
  -3   3  -4  732.34   17.75
  -3   3  -4  753.17   17.23
   3  -3   4  710.84   15.96
  -3   3  -4  733.65   17.40
  -3   3  -4  720.88   15.60
  -3   3  -4  742.07   15.61
  -3   3  -4  751.88   16.74
   3  -3   4  746.52   16.78
   3  -3   5  442.36   12.28
   3  -3   5  402.93    9.51
  -3   3  -5  430.24   10.77
  -3   3  -5  416.54   10.18
   3  -3   5  427.32   10.03
   3  -3   6   17.22    0.95
  -3   3  -6   18.44    1.25
  -3   3  -6   16.86    1.40
   3  -3   6   19.48    1.01
   3  -3   6   19.83    1.93
   3  -3   7  175.92    4.61
  -3   3  -7  178.55    5.09
   3  -3   8    5.08    0.54
   3  -3   8    4.44    0.92
  -3   3  -8    5.45    0.68
   3  -3   9   16.37    0.96
   3  -3   9   18.85    1.70
   3  -3  10   56.38    2.03
   3  -3  10   58.38    2.93
   3  -3  11   16.63    1.00
   3  -3  11   17.16    1.86
   3  -3  12   73.70    2.49
   3  -3  12   88.79    4.41
  -3   2  15   21.32    1.45
  -3   2  14    5.79    0.85
  -3   2  13    1.74    0.67
  -3   2  12   65.73    2.83
  -3   2  11    4.39    0.71
  -3   2  11    5.47    0.89
  -3   2  10   95.69    3.76
  -3   2  10  106.98    3.87
  -3   2   9    0.47    0.46
  -3   2   9   -0.05    0.60
   3  -2  -9    0.12    0.42
  -3   2   8   51.46    2.58
  -3   2   8   48.70    2.68
   3  -2  -8   47.84    2.69
  -3   2   7  264.20    7.57
  -3   2   7  261.73    7.49
  -3   2   7  259.29    7.29
   3  -2  -7  241.09    7.74
   3  -2  -7  266.37    8.57
  -3   2   6    4.07    0.91
   3  -2  -6    2.87    0.86
   3  -2  -6    2.48    0.73
  -3   2   6    3.46    0.86
  -3   2   5  139.41    4.82
   3  -2  -5  114.77    3.15
  -3   2   5  121.78    3.90
  -3   2   5  133.02    4.92
   3  -2  -5  142.42    5.44
   3  -2  -5  136.47    5.22
  -3   2   4  131.20    4.66
  -3   2   4  118.35    3.56
  -3   2   4  121.69    4.21
  -3   2   4  135.59    4.91
   3  -2  -4  130.41    4.99
   3  -2  -4  131.91    5.10
   3  -2  -3  172.51    6.23
  -3   2   3  159.50    5.05
  -3   2   3  163.07    5.61
  -3   2   3  149.82    4.36
  -3   2   3  170.69    5.89
   3  -2  -2  314.28    9.47
  -3   2   2  283.87    7.13
  -3   2   2  295.66    8.64
  -3   2   2  311.59    8.00
   3  -2  -2  322.34    8.94
  -3   2   1    3.63    0.70
  -3   2   1    3.12    0.39
   3  -2  -1    2.88    0.76
   3  -2  -1    3.54    0.89
   3  -2   0   32.15    2.43
  -3   2   0   31.87    2.13
  -3   2   0   30.97    1.55
   3  -2   0   27.07    1.39
  -3   2   0   24.87    1.09
  -3   2   0   26.79    2.11
   3  -2   0   32.68    2.06
  -3   2  -1  215.98    6.56
   3  -2   1  191.69    5.04
  -3   2  -1  199.61    5.08
  -3   2  -1  185.26    4.65
  -3   2  -1  202.52    6.72
   3  -2   1  220.58    6.30
   3  -2   2   38.05    2.66
  -3   2  -2   32.89    1.32
   3  -2   2   31.65    1.36
  -3   2  -2   37.85    2.31
  -3   2  -2   31.45    1.17
  -3   2  -2   30.72    0.93
  -3   2  -2   39.53    2.50
   3  -2   2   39.93    2.11
  -3   2  -3    3.54    0.93
  -3   2  -3    3.20    0.37
   3  -2   3    3.89    0.66
   3  -2   3    2.49    0.35
  -3   2  -3    3.20    0.32
   3  -2   3    3.81    0.88
  -3   2  -3    4.02    0.90
   3  -2   4   60.28    1.97
  -3   2  -4   60.16    1.77
  -3   2  -4   74.84    3.30
  -3   2  -4   74.39    3.47
   3  -2   4   69.34    2.55
   3  -2   4   76.12    3.83
  -3   2  -5   54.45    2.74
   3  -2   5   47.36    1.64
  -3   2  -5   44.97    2.29
  -3   2  -5   55.85    2.91
   3  -2   5   57.63    3.23
  -3   2  -6    5.45    1.03
   3  -2   6    3.71    0.40
   3  -2   6    5.25    1.00
  -3   2  -6    3.53    0.68
  -3   2  -6    5.29    0.95
  -3   2  -7  160.67    5.14
  -3   2  -7  149.07    4.86
   3  -2   7  144.54    3.80
  -3   2  -7  164.00    4.96
   3  -2   7  146.65    5.26
   3  -2   7  161.37    5.69
   3  -2   8    0.66    0.52
  -3   2  -8    1.00    0.53
   3  -2   8    0.99    0.57
   3  -2   8    0.89    0.25
   3  -2   9   47.95    1.66
   3  -2   9   47.22    2.77
  -3   2  -9   49.49    2.53
   3  -2  10   10.76    1.39
   3  -2  10   10.34    0.68
   3  -2  11   13.01    0.78
   3  -2  11   12.29    1.53
   3  -2  12   12.76    0.79
   3  -2  12   14.74    1.76
   3  -2  13   64.61    3.84
  -3   1  14    1.30    0.62
  -3   1  13   -0.09    0.60
  -3   1  12   61.95    2.80
  -3   1  11   17.13    1.12
  -3   1  11   14.27    1.03
  -3   1  11   16.14    1.44
  -3   1  10   10.66    1.04
  -3   1  10   11.63    1.35
  -3   1  10   10.09    1.01
  -3   1   9  194.34    5.48
  -3   1   9  193.58    6.12
  -3   1   9  195.59    5.36
  -3   1   8    2.47    0.70
  -3   1   8    3.68    0.80
  -3   1   8    3.01    0.71
  -3   1   8    2.89    0.66
  -3   1   7   52.08    2.75
  -3   1   7   56.98    2.63
  -3   1   7   52.29    2.69
  -3   1   7   55.60    2.71
  -3   1   6  175.40    5.74
  -3   1   6  164.46    5.40
  -3   1   6  171.76    5.64
  -3   1   6  174.19    5.81
   3  -1  -6  174.13    5.89
  -3   1   5    3.15    0.77
  -3   1   5    2.02    0.73
   3  -1  -5    2.85    0.87
   3  -1  -5    2.39    0.68
  -3   1   5    1.58    0.65
  -3   1   4  445.04   11.53
  -3   1   4  426.54   10.61
  -3   1   4  436.05   11.78
   3  -1  -4  452.42   12.04
   3  -1  -4  467.12   12.29
  -3   1   3  210.19    6.32
  -3   1   3  211.76    6.43
  -3   1   3  213.53    5.52
   3  -1  -3  224.79    6.93
  -3   1   2  140.48    4.60
  -3   1   2  137.43    3.79
   3  -1  -2  127.66    2.75
   3  -1  -2  138.43    5.19
  -3   1   2  137.11    4.78
  -3   1   1  777.85   19.02
  -3   1   1  849.14   18.02
   3  -1  -1  795.52   20.17
   3  -1  -1  881.64   19.91
  -3   1   0    9.81    1.00
  -3   1   0   11.17    1.21
  -3   1   0   10.64    0.68
   3  -1   0   12.29    1.26
   3  -1   0   12.05    1.41
  -3   1  -1  170.57    4.83
  -3   1  -1  157.29    4.61
  -3   1  -1  160.20    5.42
  -3   1  -1  151.80    3.82
  -3   1  -2  478.25   11.43
   3  -1   2  504.06   11.11
  -3   1  -2  496.78   10.61
  -3   1  -2  509.02   11.75
  -3   1  -3    7.51    0.65
  -3   1  -3    6.64    0.98
  -3   1  -3    5.75    0.72
  -3   1  -3    6.91    0.42
   3  -1   3    7.09    0.55
   3  -1   3    7.95    1.16
  -3   1  -4  892.85   18.36
  -3   1  -4  867.11   19.40
  -3   1  -4  833.67   20.11
   3  -1   4  832.47   18.26
  -3   1  -4  866.11   17.96
  -3   1  -4  834.35   19.06
   3  -1   4  874.93   20.90
   3  -1   5   46.31    2.35
  -3   1  -5   55.74    2.86
  -3   1  -5   47.78    1.35
  -3   1  -5   55.88    2.73
   3  -1   5   48.57    1.54
  -3   1  -5   48.76    2.10
  -3   1  -5   55.61    2.91
   3  -1   5   56.67    3.04
  -3   1  -6   10.20    1.16
   3  -1   6    8.29    0.51
  -3   1  -6    8.50    0.80
  -3   1  -6    9.27    1.16
   3  -1   6    8.74    1.16
  -3   1  -6    9.24    1.14
   3  -1   6    7.06    0.90
   3  -1   7  425.58   11.40
   3  -1   7  439.57    9.61
  -3   1  -7  461.13   11.18
  -3   1  -7  452.58   11.50
  -3   1  -7  435.93   10.46
  -3   1  -7  449.08   11.38
  -3   1  -8    1.28    0.62
  -3   1  -8    0.90    0.43
   3  -1   8    0.52    0.42
  -3   1  -8    0.85    0.43
   3  -1   8    1.03    0.21
  -3   1  -8    1.62    0.60
  -3   1  -8    1.19    0.38
  -3   1  -9   89.16    3.44
  -3   1  -9   94.82    3.26
   3  -1   9   84.82    2.35
   3  -1   9   91.58    4.07
  -3   1  -9   92.54    3.35
   3  -1  10   61.17    3.37
   3  -1  10   55.45    1.71
  -3   1 -10   61.23    2.59
  -3   1 -10   61.52    2.58
   3  -1  11   11.26    1.49
   3  -1  11   10.90    0.62
  -3   1 -11   11.55    0.97
   3  -1  12   62.45    1.89
   3  -1  12   75.04    3.98
   3  -1  13    4.56    1.13
  -3   0  14   46.67    2.27
  -3   0  14   47.49    2.67
  -3   0  13    0.99    0.55
  -3   0  13    0.62    0.61
  -3   0  12   68.31    3.13
  -3   0  11   14.61    1.38
  -3   0  10   54.55    2.05
  -3   0  10   54.92    2.81
  -3   0  10   51.83    2.06
  -3   0  10   52.08    1.97
  -3   0  10   52.78    2.09
   3   0 -10   46.48    1.72
  -3   0   9    9.02    1.18
  -3   0   9    9.03    0.92
  -3   0   9    8.79    0.91
   3   0  -9    8.12    0.61
  -3   0   9   10.15    0.99
  -3   0   9    9.71    0.95
  -3   0   8   57.35    3.03
  -3   0   8   54.99    2.41
  -3   0   8   56.59    2.61
  -3   0   8   59.80    2.65
  -3   0   8   52.72    2.48
   3   0  -8   50.68    1.79
  -3   0   7    9.80    1.24
  -3   0   7   10.47    1.06
  -3   0   7   10.17    1.10
   3   0  -7    9.81    0.66
  -3   0   7    9.41    1.07
  -3   0   6   33.51    2.25
  -3   0   6   34.60    2.04
  -3   0   6   36.68    2.03
   3   0  -6   32.36    1.29
  -3   0   5  250.73    7.15
  -3   0   5  262.47    7.43
  -3   0   4    0.21    0.36
  -3   0   4    0.47    0.44
  -3   0   3  253.51    7.35
  -3   0   3  262.18    7.63
  -3   0   2   58.87    2.81
  -3   0   2   63.09    3.01
   3   0  -2   52.71    1.35
  -3   0   2   50.39    1.66
  -3   0   2   59.13    2.88
  -3   0   1  188.42    4.76
  -3   0   1  216.75    6.32
  -3   0   0    8.96    0.67
   3   0   0    8.00    0.27
  -3   0   0    9.09    1.03
  -3   0  -1   32.76    1.23
  -3   0  -1   28.91    0.75
  -3   0  -1   34.61    2.20
  -3   0  -1   29.31    1.47
  -3   0  -1   33.25    1.90
  -3   0  -1   34.48    2.13
  -3   0  -2  109.24    2.68
  -3   0  -2  110.12    3.42
  -3   0  -2  113.17    4.35
  -3   0  -2  115.04    3.82
  -3   0  -2  121.24    4.33
  -3   0  -3   50.22    2.59
  -3   0  -3   42.85    1.92
  -3   0  -3   43.41    1.31
  -3   0  -3   43.79    1.24
  -3   0  -3   49.51    2.62
  -3   0  -3   48.68    2.15
  -3   0  -4  117.77    4.31
  -3   0  -4  106.22    3.55
  -3   0  -4  108.37    2.52
  -3   0  -4  120.42    4.44
  -3   0  -4  115.25    3.52
  -3   0  -5  139.98    4.78
  -3   0  -5  137.22    4.84
  -3   0  -5  130.56    3.96
  -3   0  -5  137.96    3.77
  -3   0  -6    0.42    0.33
  -3   0  -6    0.51    0.21
   3   0   6    0.64    0.15
  -3   0  -6    0.84    0.47
  -3   0  -6    0.38    0.37
  -3   0  -6    0.32    0.26
   3   0   7  167.26    3.72
  -3   0  -7  173.93    5.38
   3   0   7  160.90    5.43
  -3   0  -7  161.04    5.27
  -3   0  -7  155.82    4.87
  -3   0  -7  161.06    4.56
   3   0   8   27.31    1.91
   3   0   8   23.57    0.76
  -3   0  -8   26.79    1.72
  -3   0  -8   22.68    1.60
  -3   0  -8   23.71    1.29
  -3   0  -8   25.94    1.70
  -3   0  -8   25.74    1.56
  -3   0  -9   12.29    1.14
   3   0   9   11.90    1.36
   3   0   9   11.98    0.49
  -3   0  -9   12.20    1.12
  -3   0  -9   12.19    1.20
  -3   0  -9   11.41    1.08
   3   0  10   51.47    3.01
  -3   0 -10   53.75    2.24
   3   0  10   47.89    1.32
  -3   0 -10   52.57    2.25
  -3   0 -10   49.78    2.21
  -3   0 -10   51.62    2.29
  -3   0 -11    2.20    0.55
   3   0  11    2.65    0.81
  -3   0 -11    2.18    0.47
   3   0  11    1.71    0.21
  -3   0 -11    2.18    0.53
  -3   0 -11    2.05    0.43
   3   0  12    6.32    1.23
   3   0  12    5.99    0.37
   3   0  13   64.35    3.82
   3   0  14   -0.10    0.66
  -3  -1  13    8.29    1.17
  -3  -1  13   11.45    1.29
  -3  -1  12   32.32    2.10
  -3  -1  12   34.86    2.06
  -3  -1  11    0.06    0.52
  -3  -1  10   70.27    3.47
  -3  -1  10   73.69    2.49
  -3  -1  10   75.40    2.55
  -3  -1   9  119.17    4.79
  -3  -1   9  117.47    3.86
  -3  -1   9  129.73    3.79
  -3  -1   8    4.56    0.71
  -3  -1   8    3.95    0.92
  -3  -1   8    5.08    0.72
  -3  -1   8    4.64    0.68
   3   1  -8    4.76    0.53
  -3  -1   7  272.78    7.59
  -3  -1   7  302.29    7.81
  -3  -1   7  295.48    7.84
   3   1  -7  270.88    6.75
  -3  -1   7  268.79    8.51
  -3  -1   6  132.95    4.51
  -3  -1   6  140.03    4.57
  -3  -1   6  133.67    4.55
   3   1  -6  119.64    3.52
  -3  -1   6  124.36    5.01
  -3  -1   5  140.57    4.94
  -3  -1   5  150.22    4.94
   3   1  -5  132.95    3.79
  -3  -1   5  144.59    4.89
  -3  -1   5  128.32    5.19
  -3  -1   4  402.81   10.92
  -3  -1   4  422.80   10.90
   3   1  -4  410.29    9.51
  -3  -1   4  402.71   10.67
   3   1  -3  398.94    8.68
  -3  -1   3  401.39   10.72
   3   1  -3  389.77    9.25
  -3  -1   3  416.39   10.74
  -3  -1   3  391.85   10.47
   3   1  -2  220.23    5.06
  -3  -1   2  232.87    7.05
  -3  -1   2  228.68    6.87
  -3  -1   2  222.71    7.01
  -3  -1   2  241.69    7.05
  -3  -1   1  483.66   12.80
   3   1  -1  528.45   13.25
  -3  -1   1  485.80   12.90
  -3  -1   1  521.63   11.34
  -3  -1   1  504.08   12.86
   3   1   0   12.91    1.36
  -3  -1   0   11.67    0.82
  -3  -1  -1  133.26    4.66
  -3  -1  -1  128.40    3.62
   3   1   1  121.24    2.94
  -3  -1  -1  126.28    2.92
   3   1   1  138.30    4.98
  -3  -1  -1  139.67    4.79
  -3  -1  -1  114.15    3.58
  -3  -1  -1  135.73    4.72
  -3  -1  -2   87.38    3.62
  -3  -1  -2   82.05    2.74
  -3  -1  -2   90.48    3.70
  -3  -1  -2   87.63    3.62
   3   1   3   72.84    2.69
   3   1   3   78.82    3.61
  -3  -1  -3   80.75    1.99
  -3  -1  -3   69.35    1.99
  -3  -1  -3   82.34    3.51
  -3  -1  -3   73.24    2.59
  -3  -1  -3   78.77    3.39
  -3  -1  -3   87.54    3.55
   3   1   4 1314.91   28.85
  -3  -1  -4 1294.46   28.58
  -3  -1  -4 1349.49   27.32
  -3  -1  -4 1358.60   27.83
  -3  -1  -4 1240.69   29.74
  -3  -1  -4 1257.14   29.70
  -3  -1  -4 1215.56   29.62
  -3  -1  -5    7.08    0.56
  -3  -1  -5    7.40    0.75
  -3  -1  -5    7.54    0.69
  -3  -1  -5    7.31    0.99
  -3  -1  -5    7.44    0.99
  -3  -1  -5    7.09    0.96
   3   1   5    6.20    0.78
  -3  -1  -6    3.77    0.56
  -3  -1  -6    3.44    0.45
  -3  -1  -6    4.26    0.76
  -3  -1  -6    4.21    0.73
  -3  -1  -6    4.27    0.52
  -3  -1  -6    3.03    0.65
  -3  -1  -7  114.49    3.74
  -3  -1  -7  117.65    4.21
  -3  -1  -7  116.44    4.16
  -3  -1  -7  112.46    3.36
  -3  -1  -7  123.31    4.40
  -3  -1  -8    0.68    0.32
  -3  -1  -8    0.53    0.41
  -3  -1  -8    0.78    0.39
  -3  -1  -8    0.47    0.35
  -3  -1  -8    0.66    0.29
  -3  -1  -9  226.29    6.25
  -3  -1  -9  194.92    4.29
  -3  -1  -9  212.99    5.85
  -3  -1  -9  213.56    5.87
  -3  -1  -9  200.97    4.47
  -3  -1 -10    9.90    0.91
  -3  -1 -10   10.47    0.93
  -3  -1 -10   10.58    1.02
   3   1  11   24.89    2.12
  -3  -1 -11   24.96    1.50
   3   1  12   79.02    4.10
  -3  -1 -12   78.04    2.66
   3   1  13   12.32    1.66
   3   1  14   31.03    2.68
  -3  -2  13    3.24    0.80
  -3  -2  12    2.29    0.68
  -3  -2  12    1.22    0.69
  -3  -2  11   22.42    1.91
  -3  -2  11   26.47    1.76
  -3  -2  10   13.14    1.50
  -3  -2  10   17.49    1.28
  -3  -2   9   38.83    1.96
  -3  -2   9   44.26    2.79
  -3  -2   8   38.32    2.62
  -3  -2   8   40.61    2.12
  -3  -2   7    3.68    0.73
  -3  -2   7    3.45    0.91
  -3  -2   6   35.44    1.95
   3   2  -6   33.76    1.55
  -3  -2   6   34.26    2.08
  -3  -2   6   32.74    2.47
   3   2  -5   31.65    2.10
  -3  -2   5   34.85    1.98
  -3  -2   5   32.72    1.98
   3   2  -5   32.24    1.32
  -3  -2   5   29.28    1.99
   3   2  -5   28.30    1.41
  -3  -2   5   28.98    2.26
  -3  -2   4  271.77    7.47
  -3  -2   4  249.80    7.41
   3   2  -4  266.01    6.07
   3   2  -4  253.71    7.76
  -3  -2   4  247.52    7.53
   3   2  -4  237.95    6.32
  -3  -2   3   30.95    1.97
   3   2  -3   28.10    1.13
  -3  -2   3   33.06    2.09
   3   2  -3   27.57    1.99
   3   2  -3   27.46    1.39
   3   2  -2   70.69    3.39
  -3  -2   2   74.80    3.24
   3   2  -2   63.85    1.91
  -3  -2   2   71.39    3.25
   3   2  -2   64.90    2.38
   3   2  -1  989.33   23.02
  -3  -2   1  927.96   22.42
  -3  -2   1  915.95   22.49
   3   2  -1 1025.79   21.37
  -3  -2   0   42.33    1.57
  -3  -2   0   43.93    1.35
  -3  -2   0   40.35    1.69
  -3  -2  -1    1.99    0.26
  -3  -2  -1    1.73    0.32
  -3  -2  -1    2.23    0.62
  -3  -2  -1    1.66    0.35
   3   2   1    2.57    0.68
  -3  -2  -2  574.38   12.91
   3   2   2  586.38   12.50
  -3  -2  -2  584.26   14.43
  -3  -2  -2  599.09   14.60
  -3  -2  -2  570.28   13.32
   3   2   3    0.47    0.25
  -3  -2  -3    0.31    0.21
   3   2   3    0.64    0.20
  -3  -2  -3    0.51    0.41
  -3  -2  -3    0.59    0.45
  -3  -2  -3    0.70    0.33
   3   2   4    2.97    0.50
  -3  -2  -4    3.01    0.46
  -3  -2  -4    3.33    0.68
  -3  -2  -4    3.54    0.44
   3   2   4    3.65    0.84
  -3  -2  -4    3.49    0.70
   3   2   5  176.83    5.33
  -3  -2  -5  189.97    5.10
  -3  -2  -5  181.26    4.69
  -3  -2  -5  206.80    6.08
   3   2   5  192.82    6.53
  -3  -2  -5  196.71    6.08
  -3  -2  -5  187.49    4.81
   3   2   6  259.67    7.06
  -3  -2  -6  250.87    6.43
  -3  -2  -6  237.54    6.08
  -3  -2  -6  274.43    7.37
  -3  -2  -6  227.53    7.17
   3   2   6  269.67    8.06
  -3  -2  -6  260.21    6.15
  -3  -2  -7  327.65    7.84
  -3  -2  -7  335.11    8.67
  -3  -2  -7  316.71    7.97
  -3  -2  -7  322.84    8.65
  -3  -2  -7  317.77    7.57
   3   2   7  323.09    8.80
   3   2   7  351.13    9.71
  -3  -2  -7  315.85    8.91
   3   2   8   10.55    1.28
   3   2   8    9.10    1.09
  -3  -2  -8    9.86    0.99
  -3  -2  -8   10.59    0.88
  -3  -2  -8   11.04    1.06
  -3  -2  -8   10.00    1.13
   3   2   9    0.72    0.56
  -3  -2  -9    0.61    0.45
  -3  -2  -9    0.73    0.36
  -3  -2  -9    0.60    0.34
  -3  -2 -10   56.12    1.63
   3   2  10   65.77    3.33
  -3  -2 -10   59.86    2.52
  -3  -2 -10   63.36    2.86
  -3  -2 -11    4.37    0.39
  -3  -2 -11    3.84    0.70
  -3  -2 -11    3.70    0.71
  -3  -2 -12   65.04    2.88
  -3  -2 -13  107.28    4.03
  -3  -2 -14    4.12    0.83
  -3  -2 -15    1.55    0.61
  -3  -3  12   36.81    2.43
  -3  -3  11   -0.36    0.70
  -3  -3  10   27.46    1.68
  -3  -3  10   24.62    2.17
  -3  -3   9   34.90    2.01
  -3  -3   9   36.51    2.63
  -3  -3   8    2.47    0.88
  -3  -3   8    1.60    0.46
  -3  -3   8    1.73    0.54
  -3  -3   7  113.68    4.45
  -3  -3   7  111.48    5.10
   3   3  -7  108.83    4.41
  -3  -3   6   32.68    1.35
   3   3  -6   33.55    1.54
   3   3  -6   28.66    2.05
   3   3  -5    5.42    0.95
   3   3  -5    5.26    0.60
   3   3  -5    5.48    0.65
   3   3  -4  209.15    6.97
   3   3  -4  221.91    5.36
   3   3  -4  199.56    5.62
   3   3  -3   29.15    2.17
  -3  -3   3   31.44    1.95
   3   3  -3   29.14    1.26
   3   3  -3   27.95    1.46
  -3  -3   2   52.04    1.55
  -3  -3   2   58.54    2.81
   3   3  -2   49.85    1.73
   3   3  -2   54.72    3.06
   3   3  -2   50.60    2.12
  -3  -3   1  250.30    7.18
  -3  -3   1  230.65    5.34
  -3  -3   1  250.68    7.28
   3   3  -1  234.44    6.27
   3   3  -1  235.04    7.66
   3   3   0   11.24    1.37
  -3  -3   0    8.32    0.51
  -3  -3   0   10.93    1.18
  -3  -3   0    8.36    0.57
   3   3   0   10.17    1.20
   3   3   0    8.43    0.82
   3   3   1   22.34    1.93
  -3  -3  -1   21.42    0.92
  -3  -3  -1   21.34    0.97
   3   3   1   21.74    1.77
  -3  -3  -2   11.55    0.69
  -3  -3  -2   14.46    1.32
   3   3   2    9.41    0.62
  -3  -3  -2   10.26    0.66
  -3  -3  -2   12.77    1.30
   3   3   2   12.73    1.38
  -3  -3  -2   11.30    0.90
   3   3   2   12.17    1.47
   3   3   3  127.81    3.79
  -3  -3  -3  148.02    3.70
  -3  -3  -3  163.99    5.15
   3   3   3  127.42    3.49
  -3  -3  -3  163.71    5.22
  -3  -3  -3  130.52    4.17
   3   3   4  293.52    9.06
   3   3   4  282.74    7.34
  -3  -3  -4  307.30    7.08
  -3  -3  -4  338.93    8.58
   3   3   4  291.63    6.92
  -3  -3  -4  294.32    6.38
  -3  -3  -4  331.05    8.68
  -3  -3  -4  298.87    6.88
   3   3   4  301.48    8.80
  -3  -3  -4  283.13    7.73
   3   3   5  135.39    5.38
   3   3   5  127.76    4.12
  -3  -3  -5  147.79    4.78
  -3  -3  -5  135.31    3.00
  -3  -3  -5  144.36    4.83
  -3  -3  -5  129.09    3.46
   3   3   6  226.22    6.36
   3   3   6  236.49    7.70
  -3  -3  -6  231.42    6.70
  -3  -3  -6  228.60    5.32
   3   3   7   52.51    3.15
  -3  -3  -7   52.33    2.07
  -3  -3  -7   56.85    2.59
   3   3   7   51.55    2.54
   3   3   8  136.32    4.79
   3   3   8  141.36    5.49
  -3  -3  -8  132.34    4.04
   3   3   9  104.12    4.19
  -3  -3  -9  102.81    3.42
   3   3   9  112.57    4.69
   3   3  10    1.17    0.62
   3   3  10    0.14    0.45
  -3  -3 -10    0.38    0.24
  -3  -3 -10    0.62    0.43
   3   3  11    1.27    0.60
   3   3  11    1.73    0.72
  -3  -3 -11    1.09    0.31
  -3  -3 -11    0.89    0.49
  -3  -3 -11    1.07    0.49
   3   3  12   25.53    2.16
  -3  -3 -12   25.06    1.74
   3   3  13    0.35    0.58
  -3  -3 -13    0.17    0.48
  -3  -3 -14   13.26    1.36
   3   3  14   13.31    1.73
  -3  -4  11    3.27    1.00
  -3  -4  10    1.29    0.74
  -3  -4   9   96.87    4.71
  -3  -4   8    7.33    1.36
   3   4  -8    8.88    1.17
  -3  -4   8   10.33    1.26
  -3  -4   7   32.95    1.39
   3   4  -7   29.22    2.15
  -3  -4   6   38.44    1.38
   3   4  -6   34.62    2.44
  -3  -4   5   32.38    1.08
   3   4  -5   31.66    2.33
   3   4  -4  268.83    8.57
   3   4  -4  278.49    6.84
   3   4  -4  273.02    7.23
   3   4  -3  154.68    4.25
   3   4  -3  167.57    5.87
   3   4  -3  158.25    4.72
   3   4  -3  168.24    6.19
   3   4  -2   11.68    1.43
   3   4  -2    9.40    0.89
   3   4  -2   13.15    1.59
   3   4  -1  419.94   11.35
   3   4  -1  418.77   11.80
   3   4   0    2.71    0.83
  -3  -4   0    2.80    0.39
   3   4   0    2.03    0.73
   3   4   0    2.71    0.55
   3   4   1   93.51    4.12
   3   4   1   88.26    4.30
   3   4   2  404.82   10.86
   3   4   2  383.27   11.21
   3   4   3   19.89    1.02
   3   4   3   20.26    1.05
  -3  -4  -3   17.55    0.73
  -3  -4  -3   18.93    0.79
  -3  -4  -3   20.64    1.31
   3   4   4  127.55    3.72
   3   4   4  117.62    3.44
  -3  -4  -4  127.43    3.06
  -3  -4  -4  128.06    3.09
   3   4   5  127.61    3.98
   3   4   5  122.60    3.57
  -3  -4  -5  130.99    3.11
   3   4   5  134.27    5.29
  -3  -4  -5  131.78    3.15
   3   4   5  130.54    5.58
   3   4   6   92.59    3.41
  -3  -4  -6   97.11    2.39
   3   4   6  103.42    4.47
  -3  -4  -6   93.19    3.56
   3   4   6   99.16    4.70
   3   4   7  127.91    4.42
  -3  -4  -7  136.89    3.18
   3   4   7  137.91    5.37
  -3  -4  -7  127.44    4.54
   3   4   7  132.65    5.64
   3   4   8   67.22    3.64
   3   4   8   63.86    2.93
  -3  -4  -8   60.99    2.38
   3   4   8   65.26    3.37
  -3  -4  -8   55.22    2.73
   3   4   9   91.29    4.34
   3   4   9   84.28    3.66
  -3  -4  -9   87.13    3.13
  -3  -4  -9   82.42    3.58
   3   4  10    8.59    1.18
   3   4  10    9.70    1.40
  -3  -4 -10    9.65    0.98
  -3  -4 -10    6.74    1.00
   3   4  11    1.04    0.64
  -3  -4 -11    1.98    0.38
  -3  -4 -11    1.32    0.51
   3   4  11    1.75    0.62
  -3  -4 -11    2.07    0.73
   3   4  12  117.31    5.01
  -3  -4 -12  128.26    4.46
   3   4  12  118.11    4.89
   3   4  13   31.22    2.16
   3   4  13   33.02    2.51
  -3  -4 -13   30.60    2.01
   3   4  14    1.55    0.78
  -3  -4 -14    0.59    0.50
  -3  -4 -16    2.23    0.81
  -3  -5  10   12.80    1.74
  -3  -5   9    2.60    1.01
  -3  -5   8    0.80    0.69
   3   5  -7   18.75    1.84
   3   5  -6    3.24    0.90
   3   5  -5    6.16    1.16
   3   5  -5    6.17    1.08
   3   5  -4   61.05    3.34
   3   5  -4   58.11    3.54
   3   5  -3   17.09    1.79
   3   5  -3   20.65    2.09
   3   5  -2   34.47    2.54
   3   5  -2   40.62    2.92
   3   5  -1   13.23    1.57
   3   5  -1   13.44    1.72
   3   5   0   58.36    3.26
   3   5   0   59.59    3.56
  -3  -5  -1   35.05    1.34
  -3  -5  -1   33.88    1.50
   3   5   1   38.43    2.61
   3   5   1   39.98    2.87
  -3  -5  -2   29.88    1.16
  -3  -5  -2   29.54    1.40
   3   5   2   35.13    2.47
   3   5   2   36.85    2.74
   3   5   2   28.16    1.73
   3   5   3   33.09    1.29
   3   5   3   33.37    1.50
  -3  -5  -3   33.38    1.25
  -3  -5  -3   31.96    1.47
  -3  -5  -3   35.04    0.85
   3   5   4   93.54    2.87
   3   5   4   88.59    2.87
  -3  -5  -4   93.20    2.50
   3   5   4   90.56    4.26
   3   5   5  184.32    5.13
   3   5   5  177.09    4.89
  -3  -5  -5  189.19    4.46
   3   5   5  186.91    6.70
   3   5   5  193.82    7.23
   3   5   6    4.34    0.65
  -3  -5  -6    4.08    0.38
   3   5   6    2.72    0.48
   3   5   6    4.40    1.01
   3   5   6    3.17    0.99
  -3  -5  -6    4.30    0.68
   3   5   7    1.64    0.48
  -3  -5  -7    1.84    0.28
   3   5   7    1.00    0.71
   3   5   7    2.08    0.83
  -3  -5  -7    1.42    0.51
   3   5   8   22.23    1.65
  -3  -5  -8   26.43    1.06
   3   5   8   26.93    2.23
   3   5   8   25.12    2.36
  -3  -5  -8   22.17    1.64
   3   5   9   45.20    2.53
   3   5   9   48.49    3.05
  -3  -5  -9   47.46    2.52
   3   5  10   26.22    1.97
   3   5  10   29.66    2.33
  -3  -5 -10   29.81    2.01
   3   5  10   31.15    2.53
   3   5  11    2.89    0.80
   3   5  11    3.98    1.00
  -3  -5 -11    3.97    0.71
  -3  -5 -11    5.16    0.92
   3   5  12    0.61    0.63
  -3  -5 -12    0.32    0.45
   3   5  12    0.52    0.58
  -3  -5 -12    0.33    0.52
   3   5  13    3.94    1.02
   3   5  13    5.08    1.04
  -3  -5 -13    3.12    0.76
  -3  -5 -13    4.57    0.93
   3   5  14    0.90    0.66
  -3  -5 -14    1.53    0.66
  -3  -5 -14    1.04    0.65
  -3  -5 -15    7.41    1.17
  -3  -5 -16   -0.21    0.57
  -3  -6   9   61.58    3.91
   3   6  -7   11.90    1.57
   3   6  -6   25.86    2.31
   3   6  -5    1.31    0.73
   3   6  -4   97.63    4.95
   3   6  -3   14.33    1.85
  -3  -6   3   14.65    0.82
  -3  -6   2   63.10    2.30
   3   6  -2   64.92    3.98
  -3  -6   2   67.22    1.96
  -3  -6   1  240.46    6.19
   3   6  -1  262.07    9.04
  -3  -6   1  255.39    5.67
  -3  -6   0    6.37    0.59
  -3  -6   0    6.90    0.37
   3   6   0    7.14    1.36
  -3  -6  -1   43.95    1.66
   3   6   1   45.33    3.25
  -3  -6  -1   41.71    1.80
  -3  -6  -2   56.54    1.93
   3   6   2   61.16    3.82
  -3  -6  -2   56.34    2.17
  -3  -6  -3   14.32    0.83
  -3  -6  -3   14.47    1.03
   3   6   3   14.90    1.90
   3   6   4   69.33    2.21
  -3  -6  -4   69.50    2.15
  -3  -6  -4   65.81    2.45
   3   6   5   55.08    2.13
  -3  -6  -5   56.77    1.87
   3   6   5   55.41    3.65
   3   6   6  164.18    4.76
  -3  -6  -6  156.17    4.03
   3   6   6  167.61    6.80
   3   6   7   48.80    2.34
  -3  -6  -7   52.24    1.76
   3   6   7   49.43    3.43
  -3  -6  -8    3.14    0.44
   3   6   8    1.82    0.57
   3   6   8    2.69    1.01
  -3  -6  -9   43.34    1.65
   3   6   9   38.73    2.28
   3   6   9   44.98    3.27
  -3  -6  -9   41.89    2.30
   3   6  10   28.31    2.61
  -3  -6 -10   25.82    1.81
   3   6  10   23.86    1.86
   3   6  11    4.79    1.19
   3   6  11    4.51    0.96
  -3  -6 -11    4.80    0.86
   3   6  12   63.86    3.77
   3   6  12   65.17    3.44
  -3  -6 -12   65.95    3.07
   3   6  13    9.93    1.44
   3   6  13   13.05    1.72
  -3  -6 -13   12.17    1.32
   3   6  14   -0.09    0.61
  -3  -6 -14    0.06    0.49
  -3  -6 -15    6.47    1.03
   3   7  -6   26.80    2.51
   3   7  -5    0.11    0.66
  -3  -7   5    0.22    0.36
  -3  -7   4    0.71    0.38
   3   7  -4    1.04    0.78
  -3  -7   3   27.24    1.46
   3   7  -3   32.05    2.90
  -3  -7   2   11.12    0.91
   3   7  -2   13.51    1.91
  -3  -7   1    0.78    0.35
   3   7  -1    0.82    0.79
  -3  -7   0   69.87    2.49
   3   7   0   82.09    4.69
  -3  -7  -1    9.73    0.79
   3   7   1   11.23    1.80
  -3  -7  -1    9.05    0.82
  -3  -7  -2   30.52    1.42
   3   7   2   33.87    2.98
  -3  -7  -2   30.69    1.59
  -3  -7  -3    3.94    0.49
   3   7   3    4.17    1.19
  -3  -7  -3    3.12    0.58
   3   7   4    0.16    0.17
  -3  -7  -4    0.35    0.26
  -3  -7  -4    0.14    0.37
   3   7   5   58.16    2.10
  -3  -7  -5   62.02    2.10
   3   7   5   59.09    4.01
  -3  -7  -5   55.76    2.33
   3   7   6    4.19    0.60
  -3  -7  -6    3.79    0.49
   3   7   6    3.42    1.06
   3   7   7   53.84    2.42
  -3  -7  -7   55.97    2.00
   3   7   7   56.89    3.88
   3   7   8   59.07    2.76
  -3  -7  -8   64.38    2.23
   3   7   8   57.45    3.93
   3   7   9    1.52    0.59
  -3  -7  -9    1.84    0.43
   3   7   9    1.99    0.97
   3   7  10    6.46    1.01
   3   7  10    5.05    1.29
   3   7  11    0.07    0.56
   3   7  11    0.46    0.84
   3   7  12    9.66    1.35
   3   7  12   10.10    1.71
   3   7  13    4.17    1.01
   3   7  13    3.26    1.14
   3   8  -5    5.06    1.32
   3   8  -4   23.26    2.59
  -3  -8   3    8.15    0.89
   3   8  -3    8.95    1.68
  -3  -8   2   31.71    1.69
   3   8  -2   31.82    3.06
  -3  -8   1    4.81    0.68
   3   8  -1    3.78    1.24
  -3  -8   0    0.47    0.37
   3   8   0    1.19    1.00
  -3  -8  -1   88.39    3.02
   3   8   1  104.62    5.65
  -3  -8  -2    3.06    0.52
   3   8   2    4.57    1.36
  -3  -8  -2    3.24    0.60
  -3  -8  -3    0.21    0.31
   3   8   3    0.13    0.72
  -3  -8  -3    0.23    0.37
  -3  -8  -4   39.59    1.72
   3   8   4   41.10    3.50
  -3  -8  -4   35.67    1.85
   3   8   5    4.18    0.44
  -3  -8  -5    5.74    0.64
  -3  -8  -5    5.47    0.75
   3   8   6   13.61    0.96
  -3  -8  -6   14.05    0.97
   3   8   6   14.02    2.07
  -3  -8  -6   12.29    1.07
   3   8   7   28.68    1.63
  -3  -8  -7   29.06    1.44
  -3  -8  -7   26.47    1.64
   3   8   8    5.82    0.85
  -3  -8  -8    5.74    0.69
   3   8   8    6.13    1.50
   3   8   9    1.33    0.57
   3   8   9    2.06    1.07
   3   8  10    1.37    0.57
   3   8  10    1.16    0.96
   3   8  11    1.73    0.69
   3   8  11    2.72    1.18
   3   8  12   33.77    2.43
   3   8  12   31.61    3.03
   3   8  13    0.96    0.96
  -3  -9  -1    0.37    0.38
  -3  -9  -2    7.48    0.83
  -3  -9  -3    4.55    0.67
   3   9   3    6.52    1.59
  -3  -9  -3    4.40    0.70
  -3  -9  -4   13.71    1.04
  -3  -9  -4   13.64    1.17
  -3  -9  -5   15.79    1.09
  -3  -9  -5   15.35    1.25
  -3  -9  -6    3.93    0.61
  -3  -9  -7   30.39    1.59
  -4   8   2   14.54    1.35
  -4   8   1    1.18    0.60
  -4   8   0   29.33    1.84
  -4   8  -1    4.12    0.76
  -4   8  -2   27.17    1.70
  -4   8  -3    7.80    0.92
   4  -7  -8    2.50    1.12
   4  -7  -7   35.83    3.27
   4  -7  -6    6.80    1.58
   4  -7  -5   21.24    2.62
   4  -7  -5   19.18    0.93
   4  -7  -4    9.72    1.89
   4  -7  -3   -0.20    0.60
   4  -7  -3    0.59    0.93
   4  -7  -2   88.44    5.43
   4  -7  -2   84.28    3.74
   4  -7  -1    8.68    1.15
   4  -7   0    0.35    0.50
   4  -7   0    0.15    0.85
  -4   7   0    0.05    0.49
   4  -7   1  117.58    4.36
  -4   7  -1  113.54    4.15
   4  -7   1  113.79    6.20
   4  -7   2   30.01    1.96
  -4   7  -2   28.03    1.84
   4  -7   2   27.74    2.94
   4  -7   3    2.43    0.66
   4  -7   3    1.64    0.98
  -4   7  -3    1.46    0.55
   4  -7   4   18.73    2.40
   4  -7   4   18.64    1.52
  -4   7  -4   20.58    1.46
   4  -7   5    0.20    0.47
   4  -7   5   -0.13    0.81
  -4   7  -5    0.54    0.44
   4  -6 -10   20.06    2.29
   4  -6  -9   33.20    3.01
   4  -6  -8   11.95    1.86
   4  -6  -7    0.63    0.87
   4  -6  -7    0.37    0.27
   4  -6  -6   43.53    3.45
   4  -6  -6   31.28    1.28
   4  -6  -5   43.45    3.52
   4  -6  -5   39.76    1.40
   4  -6  -4   50.93    3.90
   4  -6  -3    6.77    1.05
   4  -6  -3    6.82    1.60
   4  -6  -2   18.80    2.45
   4  -6  -2   18.71    1.57
   4  -6  -1   23.50    1.71
   4  -6   0    2.72    0.66
   4  -6   1   25.14    2.75
   4  -6   1   22.88    1.63
  -4   6  -1   22.73    1.66
   4  -6   2    6.70    0.89
   4  -6   2    5.83    1.42
  -4   6  -2    5.40    0.90
   4  -6   3    0.52    0.45
   4  -6   3    1.44    0.95
  -4   6  -3    0.30    0.51
   4  -6   4   75.92    4.70
   4  -6   4   73.01    2.97
  -4   6  -4   66.98    2.91
   4  -6   5   14.28    2.10
   4  -6   5   13.77    1.20
  -4   6  -5   14.15    1.25
   4  -6   6    0.49    0.76
   4  -6   6    0.48    0.41
  -4   6  -6    0.48    0.44
   4  -6   7   32.35    1.84
  -4   6  -7   32.50    1.83
   4  -6   7   36.50    3.12
   4  -6   8    0.82    0.79
   4  -6   8    0.30    0.43
   4  -6   9    5.67    0.77
   4  -5 -10    4.60    1.14
   4  -5  -9    2.07    0.89
   4  -5  -8   66.85    4.16
   4  -5  -7  114.71    5.73
   4  -5  -6    3.50    1.12
   4  -5  -5   43.14    3.40
   4  -5  -5   40.17    1.34
   4  -5  -4    9.87    1.70
   4  -5  -4    7.72    0.47
   4  -5  -3    2.35    0.68
   4  -5  -3    1.90    0.97
   4  -5  -2  242.94    9.26
   4  -5  -2  234.63    7.02
   4  -5  -1   41.99    2.26
  -4   5   1   39.19    1.30
  -4   5   0    2.74    0.32
   4  -5   0    2.26    0.61
   4  -5   1  109.40    4.48
   4  -5   1  107.58    5.70
   4  -5   1  104.45    3.69
  -4   5  -1   97.74    2.71
   4  -5   2   -0.61    0.73
   4  -5   2    0.18    0.38
   4  -5   2    0.13    0.78
   4  -5   3   28.84    2.84
   4  -5   3   26.46    1.61
  -4   5  -3   25.58    1.75
   4  -5   3   26.80    1.99
   4  -5   4   92.99    5.21
   4  -5   4   87.59    3.23
  -4   5  -4   90.70    3.55
   4  -5   4   92.29    3.79
   4  -5   5    1.03    0.52
   4  -5   5    0.51    0.38
   4  -5   5    0.49    0.76
  -4   5  -5    0.71    0.46
   4  -5   6   21.36    2.42
   4  -5   6   21.11    1.36
  -4   5  -6   19.18    1.44
   4  -5   7   20.60    1.34
  -4   5  -7   21.76    1.48
   4  -5   7   23.73    2.50
   4  -5   8   11.83    1.02
  -4   5  -8   11.24    1.07
   4  -5   8   11.11    1.70
   4  -5   9   18.03    1.26
   4  -5   9   19.77    2.13
   4  -5  10    0.25    0.38
   4  -4 -12   17.34    1.29
  -4   4  11    1.84    0.72
   4  -4 -11    1.96    0.48
  -4   4  10    1.60    0.71
   4  -4 -10    2.17    0.85
   4  -4 -10    1.72    0.44
  -4   4   9   83.46    3.40
   4  -4  -9   79.68    2.64
   4  -4  -9   74.31    4.13
   4  -4  -8   65.63    3.95
   4  -4  -7   21.47    2.28
   4  -4  -6  116.66    5.64
  -4   4   6  110.37    4.01
  -4   4   5    4.09    0.78
   4  -4  -5    3.26    1.12
   4  -4  -4  190.41    7.55
  -4   4   4  181.77    5.26
   4  -4  -3   10.23    1.71
  -4   4   3    7.76    0.92
  -4   4   2    2.59    0.61
   4  -4  -2    1.86    0.97
   4  -4  -1   17.34    2.20
  -4   4   1   15.69    1.12
   4  -4  -1   15.32    1.30
   4  -4  -1   16.08    1.79
  -4   4   0    3.53    0.57
   4  -4   0    2.93    0.92
  -4   4   0    2.01    0.23
   4  -4   0    1.89    0.56
  -4   4   0    2.56    0.44
   4  -4   1  455.01   11.08
  -4   4  -1  452.53   10.27
  -4   4  -1  449.13    9.73
   4  -4   2   56.10    3.92
   4  -4   2   48.73    2.21
  -4   4  -2   50.58    1.83
   4  -4   2   55.32    3.00
   4  -4   3    0.44    0.55
   4  -4   3    0.08    0.31
   4  -4   3    0.25    0.70
  -4   4  -3    0.10    0.25
  -4   4  -3    0.05    0.43
   4  -4   4  134.29    4.09
  -4   4  -4  125.45    3.46
  -4   4  -4  128.63    3.38
  -4   4  -4  136.36    4.60
   4  -4   5   16.37    1.13
  -4   4  -5   15.44    0.85
  -4   4  -5   17.04    1.40
   4  -4   5   15.42    1.33
   4  -4   5   15.29    2.04
   4  -4   6   46.96    2.02
  -4   4  -6   49.37    1.76
  -4   4  -6   47.88    2.37
   4  -4   7  126.43    3.91
  -4   4  -7  133.42    4.41
   4  -4   7  140.28    6.16
   4  -4   8    8.97    0.82
  -4   4  -8   10.77    1.04
   4  -4   8   10.70    1.63
   4  -4   9   36.19    1.70
   4  -4   9   38.83    2.90
   4  -4  10    5.06    0.65
   4  -4  10    5.13    1.09
   4  -3 -13   45.83    2.20
  -4   3  12    3.08    0.82
   4  -3 -12    2.93    0.62
  -4   3  11   12.40    1.29
   4  -3 -11   10.98    0.98
  -4   3  10   55.23    2.68
   4  -3 -10   49.36    2.06
   4  -3 -10   46.96    3.00
  -4   3   9    0.11    0.59
   4  -3  -9    0.26    0.53
   4  -3  -9    0.11    0.25
  -4   3   8   21.89    1.69
   4  -3  -8   20.96    1.11
   4  -3  -8   21.28    2.08
   4  -3  -7   93.31    2.77
   4  -3  -7   98.80    4.75
  -4   3   6    1.79    0.90
  -4   3   6    0.05    0.58
   4  -3  -6   -0.20    0.62
  -4   3   6    1.27    0.87
  -4   3   5   79.03    3.74
  -4   3   5   70.30    3.09
   4  -3  -5   74.72    4.33
  -4   3   5   75.98    3.94
  -4   3   4    3.34    0.77
   4  -3  -4    2.02    0.93
  -4   3   4    4.51    1.11
  -4   3   4    2.79    0.22
  -4   3   4    3.73    1.10
  -4   3   3    0.99    0.89
   4  -3  -3    0.65    0.71
  -4   3   3    0.22    0.56
   4  -3  -3    0.23    0.63
  -4   3   3    0.54    0.32
  -4   3   3    0.39    0.79
  -4   3   2  257.80    7.10
  -4   3   2  287.70    8.74
  -4   3   2  253.23    6.54
   4  -3  -2  283.22    8.91
   4  -3  -2  270.97    9.63
   4  -3  -1    4.63    1.05
  -4   3   1    3.84    0.71
  -4   3   1    3.43    0.48
   4  -3  -1    4.06    1.14
   4  -3   0   11.48    1.74
   4  -3   0    7.60    0.86
  -4   3   0    9.08    0.69
  -4   3   0    8.95    1.44
  -4   3   0    8.92    0.87
  -4   3   0   10.60    1.65
   4  -3   0    8.88    1.31
  -4   3  -1  240.54    6.01
   4  -3   1  236.43    6.42
  -4   3  -1  268.71    8.18
  -4   3  -1  228.23    5.00
  -4   3  -1  241.58    5.75
  -4   3  -1  263.80    8.55
   4  -3   1  265.53    7.96
  -4   3  -2    3.15    0.51
  -4   3  -2    3.56    1.11
   4  -3   2    3.40    0.90
   4  -3   2    3.29    0.56
  -4   3  -2    2.82    0.40
   4  -3   2    3.62    1.10
  -4   3  -2    2.86    1.01
  -4   3  -3    4.17    1.19
   4  -3   3    1.69    0.65
  -4   3  -3    2.23    0.39
   4  -3   3    2.16    0.89
   4  -3   3    2.03    0.46
  -4   3  -3    2.05    0.35
  -4   3  -3    1.82    0.24
  -4   3  -3    3.22    1.01
   4  -3   4    4.40    0.79
  -4   3  -4    6.33    1.24
   4  -3   4    4.17    0.57
  -4   3  -4    4.20    0.44
   4  -3   4    5.01    1.26
  -4   3  -4    4.13    0.37
  -4   3  -4    5.65    1.15
  -4   3  -4    4.51    0.77
   4  -3   5    0.34    0.62
   4  -3   5    0.69    0.33
  -4   3  -5    0.25    0.20
  -4   3  -5    0.26    0.20
  -4   3  -5    1.61    0.89
  -4   3  -5    0.35    0.44
  -4   3  -6   39.98    2.61
   4  -3   6   35.81    1.62
  -4   3  -6   38.23    2.38
  -4   3  -6   33.45    1.95
   4  -3   6   36.78    2.93
   4  -3   7    2.32    0.96
   4  -3   7    2.34    0.45
  -4   3  -7    1.90    0.55
   4  -3   8   47.77    1.88
  -4   3  -8   49.58    2.34
   4  -3   8   53.98    3.41
   4  -3   9    2.58    0.89
   4  -3   9    1.77    0.39
  -4   3  -9    2.37    0.59
   4  -3  10   72.73    2.44
   4  -2 -14   13.61    1.16
  -4   2  12   24.80    1.81
  -4   2  11    0.39    0.67
  -4   2  10   15.58    1.49
  -4   2  10   12.75    1.39
  -4   2   9   63.93    3.11
  -4   2   9   57.32    3.18
  -4   2   8    1.89    0.87
  -4   2   8    0.38    0.71
   4  -2  -8    0.65    0.28
  -4   2   8    1.71    0.78
  -4   2   8    1.10    0.62
   4  -2  -7  156.61    4.23
  -4   2   7  185.59    5.92
   4  -2  -7  162.39    6.31
  -4   2   7  161.09    6.23
  -4   2   7  177.36    6.11
  -4   2   6    2.79    0.93
   4  -2  -6    2.39    0.34
   4  -2  -6    1.84    0.74
  -4   2   6    2.45    0.84
  -4   2   6    2.40    0.88
  -4   2   5   10.81    1.42
   4  -2  -5    9.79    0.54
  -4   2   5    8.71    1.24
  -4   2   5   11.29    1.57
   4  -2  -5   11.25    1.58
  -4   2   4  567.74   14.21
  -4   2   4  569.37   14.85
  -4   2   4  565.54   13.28
  -4   2   4  563.88   15.27
   4  -2  -4  585.49   15.85
  -4   2   3    0.09    0.87
   4  -2  -3    1.04    0.75
  -4   2   3    1.13    0.65
   4  -2  -3    1.03    0.67
  -4   2   3    0.20    0.30
  -4   2   3   -0.52    0.92
  -4   2   3    0.19    0.16
  -4   2   2   67.28    3.00
  -4   2   2   62.46    3.41
  -4   2   2   62.45    2.32
  -4   2   2   62.88    3.65
   4  -2  -2   73.48    4.21
   4  -2  -2   71.51    3.87
  -4   2   1  147.30    4.73
   4  -2  -1  158.88    5.95
   4  -2  -1  147.34    6.40
  -4   2   0    0.90    0.82
   4  -2   0    1.67    0.77
  -4   2   0    1.32    0.63
   4  -2   0    2.11    0.91
  -4   2   0    1.77    0.36
  -4   2   0    0.85    0.80
  -4   2  -1  456.34   11.66
  -4   2  -1  452.06   12.81
  -4   2  -1  464.73   10.48
  -4   2  -1  446.03   13.17
  -4   2  -2   58.28    2.72
  -4   2  -2   64.71    2.39
  -4   2  -2   70.77    3.59
   4  -2   2   63.31    2.47
  -4   2  -2   62.89    1.98
  -4   2  -2   66.09    3.75
   4  -2   2   71.00    4.20
  -4   2  -3  177.51    5.72
  -4   2  -3  203.43    6.67
   4  -2   3  187.52    5.10
  -4   2  -3  183.77    4.47
  -4   2  -3  179.42    4.10
  -4   2  -3  190.16    4.80
  -4   2  -3  194.50    6.95
  -4   2  -4  257.69    6.24
  -4   2  -4  290.11    8.48
   4  -2   4  270.41    6.77
  -4   2  -4  269.99    6.18
  -4   2  -4  283.71    8.85
   4  -2   4  290.61    9.64
  -4   2  -5   63.39    1.84
   4  -2   5   65.20    2.30
  -4   2  -5   65.15    1.87
  -4   2  -5   82.22    3.72
  -4   2  -5   78.32    3.91
   4  -2   5   72.83    4.13
  -4   2  -6  149.09    5.92
  -4   2  -6  170.59    5.89
   4  -2   6  163.77    4.41
   4  -2   6  162.87    6.61
  -4   2  -6  170.29    6.15
   4  -2   7  185.33    4.85
  -4   2  -7  210.08    6.51
  -4   2  -7  176.72    5.50
   4  -2   7  194.02    7.18
  -4   2  -7  201.62    6.67
  -4   2  -7  177.43    6.53
   4  -2   8   16.05    0.94
  -4   2  -8   20.78    1.67
  -4   2  -8   15.94    1.27
  -4   2  -8   15.89    1.67
  -4   2  -8   20.43    1.82
  -4   2  -9  101.91    3.93
   4  -2   9   88.10    2.72
  -4   2  -9  100.42    3.73
  -4   2  -9   91.39    4.08
  -4   2  -9   91.62    3.35
   4  -2  10   50.16    1.77
   4  -2  11   24.55    1.12
   4  -2  11   28.29    2.43
   4  -2  12   -0.31    0.69
  -4   1  13   42.13    2.36
  -4   1  12    3.34    0.89
  -4   1  11   16.34    1.63
  -4   1  11   17.20    1.40
  -4   1  10   30.30    1.86
  -4   1  10   31.43    2.27
  -4   1  10   29.31    2.03
  -4   1   9    3.47    0.84
  -4   1   9    3.37    0.88
  -4   1   9    2.48    0.64
  -4   1   9    2.94    0.76
  -4   1   9    2.17    0.66
  -4   1   8   60.21    3.13
  -4   1   8   58.29    2.89
  -4   1   8   60.73    3.09
  -4   1   7   39.28    2.51
  -4   1   7   38.62    2.34
  -4   1   7   34.53    2.42
  -4   1   7   36.32    2.43
  -4   1   6   60.74    3.10
  -4   1   6   61.10    3.35
  -4   1   6   57.84    3.23
  -4   1   5    2.48    0.88
  -4   1   5    3.00    0.65
  -4   1   5    2.23    0.79
  -4   1   5    2.68    0.85
  -4   1   4    3.78    0.92
  -4   1   4    4.80    0.76
   4  -1  -4    5.30    1.09
  -4   1   4    3.90    0.91
  -4   1   4    4.44    1.02
  -4   1   3    6.84    1.07
  -4   1   3    5.03    0.69
   4  -1  -3    5.45    0.27
   4  -1  -3    4.67    1.03
  -4   1   3    4.98    1.02
   4  -1  -3    5.25    0.24
  -4   1   3    5.69    0.44
  -4   1   3    5.01    1.07
  -4   1   2   66.86    3.65
  -4   1   2   60.56    3.06
  -4   1   2   60.07    3.22
  -4   1   2   57.87    2.25
   4  -1  -2   63.58    3.75
  -4   1   1   75.82    3.43
  -4   1   1   75.78    2.59
   4  -1  -1   82.34    4.39
  -4   1   0   23.83    1.76
  -4   1   0   20.74    1.10
   4  -1   0   24.03    2.31
  -4   1  -1   -0.09    0.51
  -4   1  -1    0.26    0.34
  -4   1  -1    0.36    0.48
  -4   1  -1    0.27    0.21
  -4   1  -1   -0.08    0.48
  -4   1  -2   94.73    3.43
  -4   1  -2   89.65    4.37
  -4   1  -2   86.85    2.45
  -4   1  -2   92.43    4.12
  -4   1  -3   97.13    4.47
  -4   1  -3   89.80    3.07
  -4   1  -3   77.35    3.17
  -4   1  -3   87.44    4.03
  -4   1  -3   78.41    1.99
  -4   1  -3   84.62    2.27
   4  -1   3   91.90    4.66
  -4   1  -4   32.98    1.53
  -4   1  -4   30.21    1.84
  -4   1  -4   32.97    2.36
  -4   1  -4   28.31    1.02
  -4   1  -4   31.95    2.47
  -4   1  -5  123.59    3.32
  -4   1  -5  109.82    4.11
  -4   1  -5  134.51    5.06
   4  -1   5  120.10    3.43
  -4   1  -5  112.96    2.84
  -4   1  -5  111.94    3.98
  -4   1  -5  126.69    5.21
   4  -1   5  128.79    5.58
  -4   1  -6   11.72    0.60
  -4   1  -6   10.60    1.13
  -4   1  -6   11.26    1.45
   4  -1   6   12.89    0.82
  -4   1  -6   11.63    1.44
  -4   1  -6   12.10    1.11
  -4   1  -6   12.63    1.62
  -4   1  -7   12.51    1.43
   4  -1   7   13.88    0.82
  -4   1  -7   11.32    1.44
  -4   1  -7   12.51    1.12
  -4   1  -7   14.77    1.65
   4  -1   8   12.88    1.47
  -4   1  -8   14.34    1.45
   4  -1   8   13.56    0.78
  -4   1  -8   13.76    1.50
  -4   1  -8   12.21    1.09
  -4   1  -8   14.41    1.55
  -4   1  -9    6.29    1.10
   4  -1   9    5.71    1.05
   4  -1   9    5.52    0.47
  -4   1  -9    5.08    0.97
  -4   1  -9    5.38    1.00
  -4   1  -9    6.57    0.80
  -4   1 -10   77.55    3.48
   4  -1  10   79.24    4.01
   4  -1  10   80.25    2.25
  -4   1 -10   75.62    3.50
  -4   1 -10   78.31    2.94
  -4   1 -10   84.15    3.52
   4  -1  11    1.69    0.80
  -4   1 -11    3.18    0.83
   4  -1  11    2.07    0.31
  -4   1 -11    2.31    0.63
   4  -1  12   46.10    3.16
  -4   0  13    7.58    1.18
  -4   0  12   12.53    1.55
  -4   0  11    0.75    0.67
  -4   0  10   74.37    3.66
  -4   0  10   77.61    3.21
  -4   0  10   75.89    3.13
  -4   0   9   11.21    1.42
  -4   0   9   10.44    1.16
  -4   0   9   13.08    1.31
  -4   0   9   11.29    1.22
  -4   0   9   11.44    1.26
  -4   0   8    3.57    0.88
  -4   0   8    4.08    1.03
  -4   0   8    3.93    0.87
  -4   0   8    4.43    0.88
  -4   0   8    4.29    0.87
  -4   0   7  337.79   10.08
  -4   0   7  338.71    9.48
  -4   0   7  333.59    9.76
  -4   0   7  343.52    9.73
  -4   0   6    9.54    1.33
  -4   0   6   10.20    1.27
  -4   0   6    9.87    1.21
  -4   0   6   11.11    1.34
  -4   0   5   72.12    3.46
  -4   0   5   70.56    3.57
  -4   0   4  407.48   11.81
  -4   0   4  417.07   11.53
   4   0  -4  427.90    9.22
  -4   0   3   32.35    2.28
  -4   0   3   33.51    2.45
   4   0  -3   29.79    0.94
  -4   0   3   29.70    2.27
  -4   0   2  150.54    5.52
  -4   0   2  134.72    3.73
  -4   0   2  142.27    5.47
  -4   0   1  149.64    5.44
  -4   0   1  151.39    4.14
   4   0  -1  129.56    2.85
  -4   0   1  159.18    5.85
  -4   0   1  134.08    3.80
  -4   0   1  153.88    5.43
  -4   0   0   59.13    2.17
  -4   0   0   57.48    3.06
  -4   0  -1  636.27   16.13
  -4   0  -1  623.10   14.55
  -4   0  -1  645.65   13.90
  -4   0  -1  601.35   16.42
  -4   0  -1  612.19   15.60
  -4   0  -2   23.66    1.99
  -4   0  -2   22.84    1.47
  -4   0  -2   22.74    1.02
  -4   0  -2   28.32    2.26
  -4   0  -2   24.18    1.77
  -4   0  -3   79.14    3.77
  -4   0  -3   69.92    2.91
  -4   0  -3   77.43    2.10
  -4   0  -3   78.07    3.93
  -4   0  -3   76.04    3.22
  -4   0  -4   93.89    4.13
  -4   0  -4   83.05    3.25
  -4   0  -4   89.49    2.23
  -4   0  -4   98.61    4.40
  -4   0  -4   83.02    2.29
  -4   0  -4   92.59    3.44
  -4   0  -5   10.23    0.97
  -4   0  -5   11.89    1.39
  -4   0  -5   10.35    1.02
  -4   0  -5   11.37    1.42
  -4   0  -5    9.65    0.62
  -4   0  -5   10.06    0.45
  -4   0  -5    9.59    0.95
  -4   0  -6  365.47    8.70
  -4   0  -6  372.06   10.34
  -4   0  -6  351.59    9.37
  -4   0  -6  374.79   10.56
  -4   0  -6  359.36    8.37
  -4   0  -6  379.36    9.31
  -4   0  -7   38.91    1.37
  -4   0  -7   40.15    2.51
  -4   0  -7   38.17    2.47
  -4   0  -7   33.53    1.97
  -4   0  -7   36.21    1.87
  -4   0  -8   39.61    2.40
  -4   0  -8   36.16    0.90
  -4   0  -8   39.36    1.91
  -4   0  -8   36.62    2.39
  -4   0  -8   39.75    2.42
   4   0   9   85.23    4.02
  -4   0  -9   88.10    3.81
  -4   0  -9   92.01    3.97
  -4   0  -9   84.59    3.07
  -4   0  -9   97.71    4.01
  -4   0 -10   -0.06    0.73
   4   0  10    0.41    0.62
  -4   0 -10    0.39    0.65
  -4   0 -10    0.96    0.41
  -4   0 -10    0.38    0.51
  -4   0 -10    0.73    0.50
  -4   0 -11   49.24    2.55
   4   0  11   52.71    3.31
  -4   0 -11   59.55    2.82
   4   0  12   24.12    2.29
   4   0  13    2.73    1.01
  -4  -1  13   30.21    2.17
  -4  -1  12   20.38    1.84
  -4  -1  11   17.48    1.75
  -4  -1  10    5.04    1.13
  -4  -1  10    6.65    0.80
  -4  -1  10    5.28    0.84
  -4  -1   9   12.14    1.56
  -4  -1   9   12.47    1.24
  -4  -1   9   12.74    1.19
  -4  -1   9   13.77    1.26
   4   1  -9   10.08    0.86
  -4  -1   8    2.92    0.93
  -4  -1   8    4.26    0.82
  -4  -1   8    3.59    0.76
  -4  -1   8    4.28    0.80
   4   1  -8    2.76    0.53
  -4  -1   7    1.20    0.84
  -4  -1   7    2.69    0.72
  -4  -1   7    2.63    0.74
  -4  -1   7    2.29    0.74
   4   1  -7    3.48    0.57
  -4  -1   6    1.57    0.83
  -4  -1   6    3.02    0.74
   4   1  -6    4.34    0.48
  -4  -1   6    3.14    0.81
  -4  -1   6    3.70    0.84
  -4  -1   5   45.94    2.73
   4   1  -5   47.31    1.62
  -4  -1   5   49.34    2.92
  -4  -1   5   47.64    2.83
  -4  -1   5   41.71    2.92
   4   1  -4  202.85    4.89
  -4  -1   4  224.79    7.40
  -4  -1   4  224.43    7.24
  -4  -1   4  201.29    6.87
   4   1  -3   11.67    0.61
  -4  -1   3   15.07    1.63
  -4  -1   3   12.90    1.52
  -4  -1   3   14.42    1.67
  -4  -1   3   12.72    1.50
  -4  -1   2    0.33    0.56
  -4  -1   2    0.08    0.45
  -4  -1   2    0.07    0.47
  -4  -1   2    0.25    0.49
  -4  -1   1  209.12    6.88
  -4  -1   1  200.17    6.95
  -4  -1   1  202.74    6.73
  -4  -1   1  193.82    6.77
  -4  -1   0   40.16    1.84
   4   1   0   41.13    1.20
  -4  -1   0   37.23    1.73
  -4  -1   0   40.29    2.59
  -4  -1  -1   53.21    3.07
  -4  -1  -1   50.36    2.15
   4   1   1   53.30    1.45
  -4  -1  -1   52.12    1.39
  -4  -1  -1   54.37    3.19
  -4  -1  -1   45.52    2.07
  -4  -1  -1   52.50    3.00
  -4  -1  -1   49.52    2.83
  -4  -1  -2  358.05   10.34
  -4  -1  -2  340.41    8.76
  -4  -1  -2  357.94    8.24
  -4  -1  -2  363.25    7.72
  -4  -1  -2  352.23   10.50
  -4  -1  -2  344.48    9.85
  -4  -1  -2  348.72   10.20
  -4  -1  -3    2.30    0.52
  -4  -1  -3    3.00    0.34
  -4  -1  -3    2.93    0.78
  -4  -1  -3    3.24    0.81
  -4  -1  -3    2.41    0.75
  -4  -1  -4  149.43    4.69
  -4  -1  -4  156.09    3.60
  -4  -1  -4  168.37    6.14
  -4  -1  -4  149.86    5.67
  -4  -1  -4  172.62    6.04
   4   1   5   39.98    2.19
  -4  -1  -5   37.87    1.96
  -4  -1  -5   42.74    1.05
  -4  -1  -5   40.11    1.48
  -4  -1  -5   41.15    1.95
  -4  -1  -5   45.10    2.83
  -4  -1  -5   45.51    2.79
  -4  -1  -5   44.45    2.72
   4   1   6    4.81    0.80
  -4  -1  -6    5.16    1.01
  -4  -1  -6    5.82    0.78
  -4  -1  -6    5.70    0.50
  -4  -1  -6    7.41    0.81
  -4  -1  -6    7.30    1.15
  -4  -1  -6    5.80    0.78
  -4  -1  -6    7.32    1.14
   4   1   7  117.79    4.55
  -4  -1  -7  118.63    4.11
  -4  -1  -7  125.22    3.59
  -4  -1  -7  130.29    5.07
  -4  -1  -7  120.46    3.86
  -4  -1  -7  130.83    5.02
  -4  -1  -7  129.65    4.05
  -4  -1  -7  133.58    5.09
  -4  -1  -8    6.55    1.08
   4   1   8    4.42    0.91
  -4  -1  -8    5.54    0.63
  -4  -1  -8    5.44    0.68
  -4  -1  -8    5.20    0.95
  -4  -1  -8    4.25    0.87
  -4  -1  -8    5.69    0.66
  -4  -1  -9   84.43    3.74
  -4  -1  -9   78.19    2.86
  -4  -1  -9   80.99    3.53
  -4  -1  -9   81.79    3.60
  -4  -1  -9   80.95    2.86
  -4  -1  -9   82.31    2.32
  -4  -1 -10  124.78    4.09
  -4  -1 -10  134.62    4.70
  -4  -1 -10  135.03    4.76
  -4  -1 -10  139.24    4.95
  -4  -1 -11   -0.04    0.34
  -4  -1 -11    0.05    0.41
  -4  -1 -12   25.43    1.62
  -4  -1 -12   31.17    1.71
  -4  -1 -12   31.52    2.02
   4   1  13    1.61    0.83
  -4  -1 -13    1.61    0.54
  -4  -1 -14    3.55    0.73
  -4  -2  12    9.88    1.40
  -4  -2  11    0.08    0.66
  -4  -2  10   49.11    3.10
  -4  -2   9    3.89    1.09
   4   2  -9    3.55    0.61
  -4  -2   8    0.93    0.77
  -4  -2   8    1.74    0.65
  -4  -2   8    2.01    0.58
   4   2  -8    1.99    0.48
  -4  -2   7  176.95    5.63
  -4  -2   7  180.79    5.76
   4   2  -7  181.89    4.68
   4   2  -7  149.09    4.80
  -4  -2   7  152.25    6.38
  -4  -2   7  165.62    5.80
  -4  -2   6   13.59    1.38
  -4  -2   6   13.93    1.39
   4   2  -6   14.29    0.92
   4   2  -6   12.20    1.03
  -4  -2   6   13.01    1.45
  -4  -2   6   10.49    1.58
  -4  -2   5  132.91    4.94
  -4  -2   5  132.95    5.03
   4   2  -5  127.98    3.50
   4   2  -5  119.29    3.88
  -4  -2   5  121.62    4.93
  -4  -2   5  123.79    5.52
  -4  -2   4  429.52   11.54
   4   2  -4  429.14    9.46
  -4  -2   4  422.73   11.68
   4   2  -4  395.14   10.11
  -4  -2   4  409.11   11.55
   4   2  -3   38.27    1.41
  -4  -2   3   48.11    2.79
  -4  -2   3   48.19    2.89
  -4  -2   3   42.85    2.72
   4   2  -2   25.94    2.21
  -4  -2   2   25.45    2.05
  -4  -2   2   24.12    2.02
  -4  -2   2   22.67    1.95
  -4  -2   1   35.85    1.61
  -4  -2   1   40.37    2.65
  -4  -2   1   41.19    2.62
  -4  -2   1   31.58    2.32
   4   2  -1   39.95    2.82
  -4  -2   0   86.49    2.82
  -4  -2   0   79.39    3.85
  -4  -2   0   77.29    2.78
   4   2   0   90.13    4.49
  -4  -2  -1  257.79    6.55
   4   2   1  254.90    5.89
  -4  -2  -1  262.94    5.85
  -4  -2  -1  241.81    6.66
   4   2   1  269.74    8.88
  -4  -2  -2   23.95    1.33
   4   2   2   22.98    0.96
  -4  -2  -2   23.30    0.94
  -4  -2  -2   24.87    2.10
  -4  -2  -2   27.84    2.13
  -4  -2  -2   22.09    1.43
  -4  -2  -2   23.49    1.93
   4   2   2   26.36    2.36
  -4  -2  -3  272.89    6.92
  -4  -2  -3  294.11    8.82
  -4  -2  -3  295.32    8.65
  -4  -2  -3  250.08    7.17
  -4  -2  -3  252.81    8.12
  -4  -2  -4   28.44    1.53
  -4  -2  -4   31.27    1.10
  -4  -2  -4   32.73    2.36
  -4  -2  -4   33.79    2.34
  -4  -2  -4   29.69    2.17
   4   2   4   28.32    2.48
   4   2   5   31.58    2.57
   4   2   5   24.36    1.63
  -4  -2  -5   26.17    1.52
  -4  -2  -5   27.79    0.74
  -4  -2  -5   27.26    2.09
  -4  -2  -5   30.42    2.23
  -4  -2  -5   26.32    1.43
  -4  -2  -5   25.69    2.01
   4   2   6  366.68    9.76
   4   2   6  393.29   11.60
  -4  -2  -6  378.46    9.29
  -4  -2  -6  353.43    8.56
  -4  -2  -6  393.46   10.60
  -4  -2  -6  399.93   10.78
  -4  -2  -6  385.04    9.07
  -4  -2  -6  349.89   10.35
   4   2   7    3.47    0.75
  -4  -2  -7    3.05    0.57
  -4  -2  -7    3.29    0.50
  -4  -2  -7    2.83    0.78
  -4  -2  -7    3.81    0.85
  -4  -2  -7    3.31    0.54
  -4  -2  -7    3.81    0.85
   4   2   8   30.25    2.10
  -4  -2  -8   30.57    1.67
  -4  -2  -8   30.21    1.49
  -4  -2  -8   31.86    2.10
  -4  -2  -8   31.61    2.14
  -4  -2  -8   30.20    1.48
  -4  -2  -8   30.84    2.18
   4   2   9   59.28    3.15
  -4  -2  -9   59.78    2.38
  -4  -2  -9   64.00    2.97
  -4  -2  -9   63.39    3.01
  -4  -2  -9   59.75    2.23
  -4  -2  -9   61.18    3.21
  -4  -2 -10    3.92    0.74
   4   2  10    3.12    0.85
  -4  -2 -10    2.38    0.57
  -4  -2 -10    4.12    0.91
  -4  -2 -10    3.08    0.71
   4   2  11    5.71    1.12
  -4  -2 -11    4.76    0.77
  -4  -2 -11    3.94    0.85
  -4  -2 -11    4.62    0.76
   4   2  12   -0.64    0.66
  -4  -2 -12    0.49    0.48
   4   2  13    3.94    1.10
  -4  -2 -13    3.97    0.77
  -4  -2 -14   11.66    1.25
  -4  -3  11    0.51    0.79
  -4  -3  10    4.89    1.24
  -4  -3   9    9.21    1.56
  -4  -3   8    6.49    0.68
  -4  -3   8    4.92    1.25
  -4  -3   8    4.66    0.95
  -4  -3   7   46.90    2.81
  -4  -3   7   45.13    3.28
   4   3  -6   46.25    2.20
  -4  -3   6   50.64    2.97
  -4  -3   6   51.78    3.48
   4   3  -5   22.83    2.09
  -4  -3   5   28.95    2.03
   4   3  -5   27.75    1.36
   4   3  -5   26.17    1.62
  -4  -3   5   27.44    2.18
  -4  -3   5   25.25    2.40
  -4  -3   4  117.14    4.43
  -4  -3   4  113.24    4.48
   4   3  -4   97.89    3.00
   4   3  -4   98.25    3.55
  -4  -3   4   97.70    4.45
   4   3  -4  106.74    4.87
  -4  -3   3    0.89    0.58
  -4  -3   3    0.81    0.58
   4   3  -3    0.09    0.55
   4   3  -3    0.64    0.39
  -4  -3   2   95.67    2.87
  -4  -3   2  113.43    4.48
  -4  -3   2  114.61    4.65
   4   3  -2  109.84    4.98
   4   3  -2  101.63    3.61
  -4  -3   1  187.47    4.90
  -4  -3   1  209.96    6.79
   4   3  -1  206.14    7.48
  -4  -3   1  208.91    6.93
  -4  -3   0    6.38    0.58
  -4  -3   0    7.65    1.15
   4   3   0    8.27    1.33
  -4  -3   0    8.27    1.21
  -4  -3  -1  155.67    4.22
  -4  -3  -1  162.26    4.02
  -4  -3  -1  152.26    4.60
  -4  -3  -2  202.25    5.29
   4   3   2  204.80    5.07
   4   3   2  225.94    7.99
  -4  -3  -2  226.40    7.15
  -4  -3  -2  211.01    5.08
  -4  -3  -2  231.01    7.33
  -4  -3  -2  193.75    5.71
  -4  -3  -3    0.03    0.24
  -4  -3  -3    0.36    0.50
   4   3   3   -0.08    0.25
  -4  -3  -3    0.23    0.43
  -4  -3  -3    0.09    0.32
   4   3   4  306.48    8.22
  -4  -3  -4  339.13    8.00
   4   3   4  313.35    7.52
  -4  -3  -4  358.62    9.70
   4   3   4  325.61   10.57
  -4  -3  -4  346.07    9.75
  -4  -3  -4  322.89    8.64
   4   3   5  249.46    6.98
  -4  -3  -5  279.18    6.84
  -4  -3  -5  279.95    8.18
  -4  -3  -5  261.81    5.64
   4   3   5  270.71    9.23
  -4  -3  -5  284.14    8.35
  -4  -3  -5  270.27    6.59
  -4  -3  -5  244.96    7.30
   4   3   6    0.39    0.38
  -4  -3  -6    0.45    0.32
  -4  -3  -6    0.45    0.47
   4   3   6    0.40    0.54
  -4  -3  -6    0.63    0.50
  -4  -3  -6    0.05    0.27
  -4  -3  -6    0.11    0.36
   4   3   7   19.76    1.57
  -4  -3  -7   19.87    1.24
  -4  -3  -7   23.56    1.82
  -4  -3  -7   22.90    1.86
   4   3   7   23.46    2.29
  -4  -3  -7   19.61    1.10
   4   3   8   40.18    2.36
  -4  -3  -8   41.59    2.39
  -4  -3  -8   39.61    1.80
  -4  -3  -8   44.49    2.51
  -4  -3  -8   42.01    1.66
   4   3   8   45.50    3.20
  -4  -3  -8   34.94    2.38
   4   3   9  187.36    6.89
   4   3   9  155.64    5.73
  -4  -3  -9  166.36    4.85
  -4  -3  -9  169.04    5.51
  -4  -3  -9  144.15    5.57
   4   3  10   58.75    3.21
  -4  -3 -10   59.55    2.53
  -4  -3 -10   55.17    3.05
   4   3  11   28.54    2.27
  -4  -3 -11   30.56    1.81
  -4  -3 -11   29.10    2.12
   4   3  12   84.91    4.25
  -4  -3 -12   85.01    3.33
   4   3  13    6.87    1.31
  -4  -3 -13    8.27    0.98
   4   3  14    1.90    0.91
  -4  -3 -14    1.32    0.57
  -4  -4  10   13.40    1.89
  -4  -4   9    0.95    0.82
  -4  -4   8    1.33    0.84
   4   4  -7   42.83    2.87
  -4  -4   7   47.06    3.45
  -4  -4   6    0.22    0.69
   4   4  -6    0.36    0.58
  -4  -4   5   40.51    1.30
   4   4  -5   36.87    2.76
  -4  -4   4    7.81    0.41
  -4  -4   4    6.78    0.43
   4   4  -4    7.18    1.33
  -4  -4   3    8.64    0.42
   4   4  -3    7.42    1.35
  -4  -4   2   64.10    1.62
   4   4  -2   60.19    2.65
  -4  -4   1   13.01    0.56
   4   4  -1   10.66    1.58
  -4  -4   1   13.73    1.47
   4   4  -1   11.55    1.12
  -4  -4   0   26.95    0.99
   4   4   0   26.55    2.45
  -4  -4   0   25.80    2.06
   4   4   1   82.94    4.51
  -4  -4  -1   79.54    2.22
  -4  -4  -1   74.37    2.41
   4   4   2   21.02    2.21
  -4  -4  -2   21.09    0.95
   4   4   2   16.82    0.97
  -4  -4  -2   23.02    1.91
  -4  -4  -2   19.51    1.05
  -4  -4  -3   52.81    1.76
   4   4   3   46.26    1.76
  -4  -4  -3   56.09    3.05
  -4  -4  -3   44.77    1.75
  -4  -4  -3   45.32    2.22
   4   4   4   26.44    1.44
   4   4   4   26.83    1.27
  -4  -4  -4   24.81    0.88
  -4  -4  -4   30.72    2.21
  -4  -4  -4   27.65    1.22
  -4  -4  -4   23.05    1.57
   4   4   5    0.44    0.31
  -4  -4  -5    1.50    0.20
   4   4   5    0.42    0.28
   4   4   5    1.09    0.79
  -4  -4  -5    0.35    0.44
  -4  -4  -5    0.50    0.25
  -4  -4  -5    0.15    0.43
   4   4   6   80.58    3.20
   4   4   6   84.13    4.66
  -4  -4  -6   85.53    2.05
  -4  -4  -6   85.56    3.82
  -4  -4  -6   82.86    2.50
   4   4   7   85.39    3.45
   4   4   7   92.13    4.92
  -4  -4  -7   90.04    2.59
   4   4   8    7.23    1.39
   4   4   8    9.73    1.14
  -4  -4  -8    8.74    1.11
   4   4   9   22.97    1.83
   4   4   9   29.20    2.61
  -4  -4  -9   25.65    1.99
  -4  -4 -10   18.22    1.31
   4   4  10   19.40    2.09
   4   4  10   17.10    1.67
  -4  -4 -10   17.69    1.71
   4   4  11   -0.08    0.53
   4   4  11    0.20    0.62
  -4  -4 -11   -0.05    0.43
  -4  -4 -11    0.39    0.51
   4   4  12   -0.09    0.62
  -4  -4 -12   -0.16    0.44
   4   4  12    0.09    0.57
  -4  -4 -12   -0.25    0.69
   4   4  13    4.16    1.04
  -4  -4 -13    4.72    0.88
  -4  -4 -13    3.09    0.94
   4   4  14    6.39    1.28
  -4  -4 -14    8.13    1.16
  -4  -5   9   10.52    1.75
  -4  -5   8    0.72    0.93
   4   5  -7   31.22    2.52
  -4  -5   7   29.54    2.81
   4   5  -6   40.42    2.95
   4   5  -5   51.32    3.44
   4   5  -4  102.16    5.08
   4   5  -3    1.18    0.77
   4   5  -2   22.42    2.34
   4   5  -1   93.70    4.94
   4   5   0   39.93    3.12
   4   5   1  127.66    5.93
  -4  -5  -1  118.90    3.50
   4   5   2   71.69    2.46
  -4  -5  -2   77.44    2.56
   4   5   3   39.90    1.70
  -4  -5  -3   37.94    1.32
  -4  -5  -3   41.17    1.73
   4   5   3   42.60    3.34
  -4  -5  -4   97.45    2.56
  -4  -5  -4   92.49    2.99
  -4  -5  -4  100.79    2.56
   4   5   5   22.88    2.42
   4   5   5   22.28    1.33
  -4  -5  -5   23.77    0.93
  -4  -5  -5   24.69    0.93
   4   5   6   50.48    3.56
   4   5   6   51.18    2.33
  -4  -5  -6   53.05    1.56
   4   5   7   70.32    2.99
   4   5   7   74.99    4.43
  -4  -5  -7   74.16    1.94
  -4  -5  -7   71.40    3.20
   4   5   8   10.47    1.18
   4   5   8   13.84    1.88
  -4  -5  -8   10.08    1.21
   4   5   9   77.77    3.52
   4   5   9   78.31    4.53
  -4  -5  -9   75.81    3.52
   4   5  10   22.37    1.88
   4   5  10   26.01    2.56
  -4  -5 -10   21.86    1.86
   4   5  11   19.87    1.86
   4   5  11   17.37    2.07
  -4  -5 -11   17.68    1.74
   4   5  12   41.45    2.81
   4   5  12   39.03    3.00
  -4  -5 -12   39.15    2.62
   4   5  13    0.99    0.69
   4   5  13    0.59    0.61
  -4  -5 -13    0.97    0.50
  -4  -5 -13    0.87    0.68
  -4  -5 -14   20.45    1.97
   4   6  -6    1.47    0.85
   4   6  -5   41.80    3.23
   4   6  -4    8.15    1.51
   4   6  -3   49.28    3.56
   4   6  -2    0.59    0.74
   4   6  -1   25.46    2.63
  -4  -6   0   15.10    0.94
   4   6   0   16.52    2.18
   4   6   1    6.02    1.41
  -4  -6  -1    5.86    0.55
  -4  -6  -1    6.31    0.67
  -4  -6  -2   34.14    1.39
  -4  -6  -2   33.92    1.64
  -4  -6  -2   34.68    1.02
   4   6   3    0.78    0.93
  -4  -6  -3   -0.08    0.22
  -4  -6  -3    0.13    0.33
  -4  -6  -4   91.66    2.61
  -4  -6  -4   88.99    3.04
   4   6   5    8.31    0.74
   4   6   5    9.02    1.73
  -4  -6  -5    9.66    0.64
  -4  -6  -5    9.07    0.86
   4   6   6   18.57    1.27
  -4  -6  -6   22.62    0.98
   4   6   6   20.85    2.44
   4   6   7   15.46    1.23
  -4  -6  -7   15.65    0.79
   4   6   8    3.19    0.71
   4   6   8    3.30    1.12
  -4  -6  -8    3.46    0.76
   4   6   9   18.50    2.22
   4   6   9   17.30    1.55
  -4  -6  -9   18.97    1.63
   4   6  10   13.20    1.44
   4   6  10   12.53    1.89
  -4  -6 -10   14.74    1.47
   4   6  11    0.60    0.58
   4   6  11    1.63    0.84
  -4  -6 -11    1.49    0.69
   4   6  12    6.78    1.17
  -4  -6 -12    6.36    1.08
   4   6  12    7.55    1.53
   4   6  13    0.79    0.63
   4   6  13    0.11    0.68
  -4  -6 -13   -0.14    0.60
   4   7  -5    6.85    1.44
   4   7  -4    8.22    1.61
  -4  -7   4    9.80    0.95
   4   7  -3   27.05    2.76
  -4  -7   3   30.47    1.60
  -4  -7   2   29.55    1.53
   4   7  -2   35.51    3.25
   4   7  -1    1.10    1.03
  -4  -7   1    0.17    0.31
  -4  -7   0   11.25    0.86
   4   7   0   14.23    2.12
  -4  -7  -1   64.26    2.29
   4   7   1   80.25    4.98
   4   7   2    7.30    1.59
  -4  -7  -2    6.34    0.63
  -4  -7  -2    6.48    0.75
  -4  -7  -3   30.15    1.37
  -4  -7  -3   28.75    1.58
  -4  -7  -4   83.92    2.61
  -4  -7  -4   91.02    3.14
  -4  -7  -5    0.91    0.32
  -4  -7  -5    0.22    0.38
   4   7   6    0.28    0.77
   4   7   6    0.51    0.29
  -4  -7  -6    0.62    0.27
  -4  -7  -6    0.19    0.39
   4   7   7    9.21    1.77
   4   7   7    6.87    0.83
  -4  -7  -7    8.67    0.66
   4   7   8   15.37    1.32
   4   7   8   13.20    2.08
   4   7   9   59.71    2.90
   4   7   9   66.66    4.50
   4   7  10    3.72    0.84
   4   7  10    3.04    1.13
   4   7  11    2.26    0.75
   4   7  11    1.61    0.94
   4   7  12    6.16    1.15
   4   7  12    4.41    1.28
   4   7  13    3.89    1.03
   4   7  13    3.89    1.29
   4   8  -2    1.30    0.99
  -4  -8   1   41.68    1.94
   4   8  -1   48.40    4.01
   4   8   0    3.50    1.36
  -4  -8   0    2.69    0.54
  -4  -8  -1    0.06    0.33
   4   8   1    0.15    0.96
  -4  -8  -2   16.57    1.08
  -4  -8  -2   15.79    1.15
   4   8   2   16.34    2.45
  -4  -8  -3   17.74    1.08
  -4  -8  -3   17.79    1.25
   4   8   3   21.47    2.74
  -4  -8  -4   24.82    1.31
  -4  -8  -4   23.77    1.49
   4   8   4   24.23    2.95
  -4  -8  -5    1.34    0.40
  -4  -8  -5    1.32    0.53
  -4  -8  -6   25.60    1.27
  -4  -8  -6   24.28    1.56
  -4  -8  -7   18.15    1.34
   4   8   7   21.05    2.73
   4   8   8    2.71    1.18
  -4  -8  -8    3.04    0.67
   4   8   9   15.60    2.33
   4   8  10   15.66    2.39
  -4  -9  -2    1.13    0.44
  -4  -9  -3    6.75    0.77
  -4  -9  -4   11.95    0.95
  -5   7   0    9.00    1.24
  -5   7  -1    0.74    0.59
  -5   7  -2   15.95    1.53
   5  -6  -6    0.15    0.86
   5  -6  -5   49.71    4.16
   5  -6  -4   13.26    2.25
   5  -6  -3    9.76    1.96
   5  -6  -2   44.23    3.97
   5  -6  -1    5.60    1.05
   5  -6  -1    6.72    1.77
   5  -6   0   69.77    3.41
   5  -6   1   57.90    4.55
   5  -6   1   51.43    2.81
   5  -6   2   20.99    2.80
   5  -6   2   21.29    1.76
  -5   6  -2   20.26    1.74
   5  -6   3   56.89    4.46
   5  -6   3   54.31    2.81
  -5   6  -3   56.46    2.92
   5  -6   4   22.92    1.72
  -5   6  -4   23.89    1.84
   5  -6   4   22.05    2.83
   5  -6   5    2.90    1.26
   5  -6   5    2.86    0.71
   5  -6   6   36.96    2.19
   5  -6   7    3.28    0.78
   5  -5 -10   17.51    2.22
   5  -5  -9    5.97    1.38
   5  -5  -8   10.57    1.88
  -5   5   7   50.28    2.58
   5  -5  -7   42.71    3.61
  -5   5   6    1.38    0.65
   5  -5  -6    0.88    0.94
  -5   5   5    0.59    0.61
   5  -5  -5   -0.30    1.04
  -5   5   4   23.02    1.63
   5  -5  -4   21.39    2.71
   5  -5  -3    1.55    1.05
   5  -5  -2   67.50    4.82
   5  -5  -1   20.39    2.69
   5  -5   0    1.61    0.66
   5  -5   1   19.35    1.64
   5  -5   1   17.94    2.50
   5  -5   2    0.16    0.84
   5  -5   2    0.23    0.47
   5  -5   3   28.97    1.90
  -5   5  -3   27.30    2.00
   5  -5   3   29.76    3.20
   5  -5   4   20.72    1.57
  -5   5  -4   20.50    1.75
   5  -5   4   23.27    2.91
   5  -5   5    4.84    1.43
   5  -5   5    3.40    0.74
  -5   5  -5    3.23    0.83
   5  -5   6   47.05    2.39
  -5   5  -6   49.84    2.61
   5  -5   6   46.89    3.83
   5  -5   7    3.69    1.25
   5  -5   7    3.64    0.70
   5  -5   8    0.13    0.78
   5  -5   8   -0.05    0.41
   5  -5   9   35.14    3.09
   5  -4 -10   61.98    3.91
   5  -4  -9    0.56    0.78
   5  -4  -8    4.80    1.31
  -5   4   7    0.17    0.60
   5  -4  -7    0.50    0.75
  -5   4   6    1.03    0.69
   5  -4  -6    1.70    0.97
  -5   4   5  124.19    4.43
   5  -4  -5  124.47    6.38
  -5   4   4    4.43    0.85
   5  -4  -4    5.58    1.49
  -5   4   3   34.34    2.90
  -5   4   3   32.93    1.98
   5  -4  -3   36.04    3.45
  -5   4   2   88.39    3.35
   5  -4  -2   99.65    5.89
  -5   4   1   56.97    2.46
   5  -4  -1   64.43    4.72
  -5   4   0   44.79    3.39
  -5   4   0   42.59    1.96
  -5   4  -1   48.72    3.49
  -5   4  -1   45.33    1.96
   5  -4   1   47.87    2.51
   5  -4   2    0.35    0.63
  -5   4  -2    2.30    1.34
   5  -4   2    0.63    0.91
   5  -4   2    0.32    0.47
  -5   4  -3   95.53    4.81
   5  -4   3   86.96    3.50
   5  -4   3   90.60    4.21
   5  -4   3   95.94    5.72
   5  -4   4    0.15    0.75
   5  -4   4    0.15    0.45
  -5   4  -4    0.06    0.56
   5  -4   5   11.16    1.12
  -5   4  -5   13.17    1.39
   5  -4   5   12.39    2.06
   5  -4   6   14.62    1.21
  -5   4  -6   14.49    1.43
   5  -4   6   14.17    2.14
   5  -4   7    4.86    0.77
   5  -4   7    4.56    1.36
  -5   4  -7    5.26    0.92
   5  -4   8   17.50    1.30
  -5   4  -8   18.34    1.51
   5  -4   8   17.70    2.25
   5  -4   9    0.34    0.70
  -5   3   9    0.73    0.73
   5  -3  -8   11.02    1.70
  -5   3   7  138.63    5.66
  -5   3   7  132.51    4.94
   5  -3  -7  128.84    6.13
  -5   3   6    9.69    1.65
  -5   3   6    9.29    1.25
   5  -3  -6   10.04    1.71
  -5   3   5   35.35    2.26
   5  -3  -5   35.33    3.16
  -5   3   5   39.72    2.99
  -5   3   4   38.62    2.31
   5  -3  -4   42.08    3.47
  -5   3   4   40.57    3.11
  -5   3   3    7.35    1.10
  -5   3   3    6.65    1.52
   5  -3  -3    6.83    1.51
  -5   3   3    5.61    0.50
  -5   3   2  187.62    5.87
  -5   3   2  196.55    7.74
   5  -3  -2  203.71    8.55
  -5   3   1  104.56    3.81
   5  -3  -1  113.33    6.17
  -5   3   0   75.68    3.01
  -5   3   0   82.23    4.65
  -5   3  -1   30.07    1.61
  -5   3  -1   27.07    1.32
  -5   3  -1   31.28    2.82
  -5   3  -2   18.24    1.15
  -5   3  -2   16.17    0.97
   5  -3   2   20.18    2.58
  -5   3  -3  117.72    3.45
   5  -3   3  121.08    4.17
  -5   3  -3  115.99    3.31
   5  -3   3  133.02    6.67
  -5   3  -3  134.46    5.99
   5  -3   4  127.28    4.26
  -5   3  -4  121.59    3.37
   5  -3   4  127.61    6.57
  -5   3  -4  136.01    5.95
   5  -3   5   33.39    1.84
  -5   3  -5   31.15    1.26
   5  -3   5   33.28    3.18
   5  -3   6  138.78    4.42
   5  -3   6  140.24    6.77
  -5   3  -6  144.24    6.00
  -5   3  -7   24.93    2.26
   5  -3   7   21.28    1.40
   5  -3   7   22.55    2.54
   5  -3   8    0.83    0.80
   5  -3   8    0.66    0.38
   5  -3   9   29.25    1.57
  -5   2  10   34.81    2.36
   5  -2 -10   32.82    1.57
  -5   2   9   26.91    2.13
  -5   2   9   26.42    2.08
   5  -2  -9   22.77    1.22
  -5   2   8   22.74    1.99
   5  -2  -8   20.40    1.04
  -5   2   8   24.21    2.15
  -5   2   7    3.39    1.15
   5  -2  -7    2.94    0.36
  -5   2   6   16.74    1.79
   5  -2  -6   14.43    0.64
  -5   2   6   15.27    1.86
  -5   2   5   64.89    3.25
   5  -2  -5   66.39    4.11
  -5   2   5   68.13    3.89
  -5   2   4    0.82    0.88
  -5   2   4    2.62    0.86
   5  -2  -4    2.11    0.95
  -5   2   3   15.83    1.55
  -5   2   3    9.19    1.57
  -5   2   3   10.53    0.69
   5  -2  -3   14.65    2.05
  -5   2   2    0.11    1.01
  -5   2   2    2.00    0.76
   5  -2  -2    1.20    0.84
  -5   2   2    0.78    0.31
  -5   2   1   15.73    1.47
  -5   2   1   14.07    0.98
   5  -2  -1   12.58    2.00
  -5   2   0  113.46    3.42
  -5   2   0  121.40    5.76
  -5   2   0  118.21    4.33
  -5   2  -1   43.47    2.31
  -5   2  -1   38.59    1.56
  -5   2  -1   41.77    3.23
  -5   2  -2   31.86    1.81
  -5   2  -2   29.85    1.31
  -5   2  -2   33.07    2.90
  -5   2  -3  106.58    3.47
  -5   2  -3  108.38    3.05
  -5   2  -3  110.52    5.37
   5  -2   3  120.08    6.17
  -5   2  -4    9.62    1.64
  -5   2  -4    9.28    0.79
  -5   2  -4    7.95    0.39
  -5   2  -4    8.94    0.61
  -5   2  -4    8.97    0.40
  -5   2  -5   17.94    0.94
  -5   2  -5   18.35    0.85
  -5   2  -5   16.29    0.67
  -5   2  -5   16.11    1.46
  -5   2  -5   17.64    2.10
   5  -2   5   19.93    2.42
  -5   2  -6   -0.20    0.85
   5  -2   6   -0.25    0.74
  -5   2  -6    0.17    0.21
  -5   2  -6    0.06    0.51
   5  -2   7   40.44    1.90
  -5   2  -7   41.92    2.37
  -5   2  -7   47.36    3.14
  -5   2  -8    1.05    0.93
   5  -2   8   -0.03    0.35
  -5   2  -8   -0.05    0.46
   5  -2   9   47.17    1.98
  -5   2  -9   47.98    2.44
  -5   2 -10   29.44    2.21
  -5   2 -10   24.82    1.69
  -5   1  10   54.28    2.91
  -5   1  10   61.50    3.39
  -5   1  10   52.40    3.08
  -5   1   9   -0.07    0.69
  -5   1   9    1.30    0.76
  -5   1   9    0.50    0.63
  -5   1   8   30.63    2.35
  -5   1   8   31.71    2.45
  -5   1   7   69.78    3.75
  -5   1   6    3.29    1.07
   5  -1  -6    3.45    0.33
  -5   1   5  202.10    6.99
   5  -1  -5  199.16    4.48
   5  -1  -5  191.17    4.35
  -5   1   5  205.65    7.54
  -5   1   4   19.33    1.89
   5  -1  -4   15.47    0.45
  -5   1   4   19.24    2.18
  -5   1   3    0.55    0.65
  -5   1   3    0.53    0.24
  -5   1   2  391.92   10.76
  -5   1   2  376.20    8.99
  -5   1   1   49.59    2.90
  -5   1   1   45.64    1.94
  -5   1   0   36.49    2.42
  -5   1   0   31.04    1.89
  -5   1   0   36.87    1.59
  -5   1  -1  143.13    5.04
  -5   1  -1  133.76    3.66
  -5   1  -2   26.65    1.82
  -5   1  -2   23.27    1.10
  -5   1  -3   81.36    3.26
  -5   1  -3   81.50    2.38
  -5   1  -4   50.22    2.24
  -5   1  -4   45.87    1.54
  -5   1  -5  142.31    3.90
  -5   1  -5  133.58    3.14
  -5   1  -5  134.52    4.62
  -5   1  -6  133.62    3.59
  -5   1  -6  135.83    3.19
  -5   1  -6  143.47    4.82
  -5   1  -6  147.81    6.20
  -5   1  -7    2.94    1.11
  -5   1  -7    4.27    0.38
  -5   1  -7    3.75    0.45
  -5   1  -7    4.93    0.82
  -5   1  -8   43.16    2.29
  -5   1  -8   39.67    2.92
  -5   1  -9   67.96    2.97
  -5   1  -9   70.68    3.84
  -5   1 -10    0.39    0.80
  -5   1 -10    0.84    0.51
  -5   1 -10    0.51    0.57
  -5   1 -11    6.96    1.24
  -5   0  10   17.09    1.83
  -5   0  10   16.55    1.61
  -5   0  10   18.28    1.69
  -5   0   9   26.95    2.30
  -5   0   9   23.27    1.98
  -5   0   9   23.04    1.98
  -5   0   8    0.40    0.75
  -5   0   8    0.26    0.72
  -5   0   8    1.28    0.70
  -5   0   7   16.18    1.86
   5   0  -7   14.55    0.82
  -5   0   7   14.50    1.74
  -5   0   7   11.86    1.67
   5   0  -6    0.65    0.24
  -5   0   6    0.57    0.65
   5   0  -5   28.72    1.04
  -5   0   4    7.53    1.31
  -5   0   3    1.31    0.76
  -5   0   2   53.90    3.27
  -5   0   2   53.74    3.26
  -5   0   2   53.40    2.36
  -5   0   2   49.90    1.93
  -5   0   1   56.20    3.29
  -5   0   1   58.06    3.41
  -5   0   1   58.27    2.33
  -5   0   1   51.01    2.10
  -5   0   0   25.44    1.62
  -5   0   0   31.58    1.51
  -5   0   0   25.04    1.45
  -5   0   0   31.09    2.35
  -5   0  -1  122.87    5.29
  -5   0  -1  106.72    3.94
  -5   0  -1  119.03    3.45
  -5   0  -1  127.34    5.75
  -5   0  -1  118.70    4.86
  -5   0  -2   -0.15    0.37
  -5   0  -2   -0.28    0.71
  -5   0  -2    0.02    0.21
  -5   0  -2   -0.09    0.55
  -5   0  -2   -0.11    0.54
  -5   0  -3    0.67    0.43
  -5   0  -3    0.50    0.55
  -5   0  -3    1.01    0.26
  -5   0  -3    0.98    0.70
  -5   0  -3    0.78    0.13
  -5   0  -4  247.74    7.36
  -5   0  -4  246.60    8.35
  -5   0  -4  247.97    7.23
  -5   0  -4  255.66    5.78
  -5   0  -5   22.74    1.59
  -5   0  -5   21.91    0.81
  -5   0  -6    9.95    0.99
  -5   0  -6    9.87    0.65
  -5   0  -6    9.51    0.42
  -5   0  -6   10.60    1.14
  -5   0  -7  133.34    3.69
  -5   0  -7  131.61    4.44
  -5   0  -8    0.74    0.31
  -5   0  -8    1.28    0.37
  -5   0  -8    1.19    0.53
  -5   0  -8    1.21    0.76
  -5   0  -9   43.84    1.86
  -5   0  -9   48.11    3.09
  -5   0  -9   46.16    2.28
  -5   0 -10    0.52    0.83
  -5   0 -10    1.09    0.40
  -5   0 -10    1.35    0.54
  -5   0 -10    1.76    0.78
  -5   0 -11    8.90    1.37
  -5   0 -11    8.42    0.85
  -5   0 -11    8.38    1.23
  -5   0 -11    9.30    0.98
   5   0  12   10.31    1.58
  -5   0 -12    5.74    0.77
  -5   0 -13    0.21    0.33
  -5   0 -14   28.13    1.70
  -5  -1  10   29.90    2.49
  -5  -1   9    0.52    0.75
  -5  -1   9    1.14    0.82
  -5  -1   9    0.77    0.52
  -5  -1   8   90.07    4.59
  -5  -1   8   91.69    4.15
  -5  -1   7   57.32    3.60
   5   1  -7   60.85    2.07
  -5  -1   7   54.84    3.28
  -5  -1   6   21.60    2.20
   5   1  -6   21.54    1.06
  -5  -1   6   22.32    2.10
   5   1  -5  116.30    3.13
  -5  -1   5  134.82    5.71
  -5  -1   4   15.44    1.88
  -5  -1   4   12.24    1.75
  -5  -1   3    9.38    1.51
  -5  -1   3   10.02    1.58
  -5  -1   2  310.47   10.15
  -5  -1   2  290.76    9.58
  -5  -1   2  289.38    9.39
  -5  -1   1   54.72    2.38
   5   1  -1   55.82    1.52
  -5  -1   1   55.72    3.70
  -5  -1   1   51.48    2.12
  -5  -1   1   53.91    3.38
  -5  -1   1   56.48    3.44
  -5  -1   0   30.12    1.68
   5   1   0   33.01    1.00
  -5  -1   0   31.10    1.65
  -5  -1   0   33.63    2.62
  -5  -1   0   31.40    2.53
  -5  -1  -1    2.14    0.79
  -5  -1  -1    1.90    0.52
  -5  -1  -1    2.24    0.47
  -5  -1  -1    2.16    0.52
  -5  -1  -2   12.86    1.71
  -5  -1  -2   10.30    1.03
  -5  -1  -2   11.97    0.81
  -5  -1  -2   11.22    0.48
  -5  -1  -2   12.86    1.75
  -5  -1  -2   10.62    1.05
  -5  -1  -2   13.43    1.53
  -5  -1  -2   11.38    1.57
  -5  -1  -3  178.31    5.45
  -5  -1  -3  184.93    4.50
  -5  -1  -3  174.11    4.11
  -5  -1  -3  201.32    7.55
  -5  -1  -3  184.30    6.37
  -5  -1  -3  177.02    6.78
  -5  -1  -3  194.74    7.20
  -5  -1  -4   58.26    2.70
  -5  -1  -4   62.68    1.79
  -5  -1  -4   59.83    3.17
  -5  -1  -4   61.93    3.59
  -5  -1  -5   94.07    3.68
  -5  -1  -5  102.57    2.45
  -5  -1  -5  105.11    5.14
  -5  -1  -5   97.75    4.11
  -5  -1  -5  101.70    4.72
  -5  -1  -6   21.29    0.56
  -5  -1  -6   21.10    1.51
  -5  -1  -6   20.61    1.63
  -5  -1  -7    2.93    0.66
  -5  -1  -7    3.62    0.48
  -5  -1  -7    3.67    0.71
  -5  -1  -7    3.00    0.95
   5   1   8   41.08    2.68
  -5  -1  -8   39.54    1.71
  -5  -1  -8   44.45    3.04
  -5  -1  -8   42.15    2.11
  -5  -1  -8   41.70    1.98
  -5  -1  -9   30.62    1.36
   5   1   9   27.40    2.22
  -5  -1  -9   24.60    1.32
  -5  -1  -9   28.98    2.32
  -5  -1  -9   29.75    1.70
   5   1  10    3.46    0.91
  -5  -1 -10    3.73    0.59
  -5  -1 -10    3.82    0.88
  -5  -1 -10    3.43    0.64
   5   1  11   29.40    2.45
  -5  -1 -11   30.65    1.69
  -5  -1 -11   32.70    2.28
   5   1  12    1.33    0.75
  -5  -1 -12    1.10    0.46
  -5  -1 -13    0.36    0.41
  -5  -1 -14   13.94    1.27
  -5  -2  10    2.81    1.08
  -5  -2   9   15.51    1.97
  -5  -2   9   15.85    1.44
  -5  -2   8    0.21    0.86
  -5  -2   8    0.33    0.47
  -5  -2   7   42.65    2.67
  -5  -2   7   37.55    3.10
   5   2  -6   13.95    0.92
  -5  -2   6   11.29    1.48
  -5  -2   6   13.35    1.88
  -5  -2   5    0.11    0.69
   5   2  -5    1.03    0.33
  -5  -2   5    1.14    0.65
  -5  -2   4   14.40    1.72
  -5  -2   3    0.21    0.64
  -5  -2   3    0.38    0.66
  -5  -2   2  143.41    4.43
  -5  -2   2  162.51    6.47
  -5  -2   2  155.04    6.51
  -5  -2   1   46.30    2.06
  -5  -2   1   50.29    3.36
  -5  -2   0   -0.28    0.66
  -5  -2   0    0.04    0.34
   5   2   0   -0.06    0.21
  -5  -2   0    0.21    0.61
  -5  -2   0    0.04    0.28
  -5  -2  -1  375.54    9.18
   5   2   1  365.10    8.11
  -5  -2  -1  350.28    9.11
  -5  -2  -2    7.65    0.84
  -5  -2  -2    8.62    0.54
  -5  -2  -2    8.73    1.48
  -5  -2  -2    8.03    0.93
  -5  -2  -3    6.70    0.82
  -5  -2  -3    7.57    0.63
  -5  -2  -3    6.66    0.50
  -5  -2  -3    8.46    1.41
  -5  -2  -3    6.58    0.86
  -5  -2  -4  178.98    5.37
  -5  -2  -4  182.72    4.39
  -5  -2  -4  166.99    5.67
  -5  -2  -5    9.77    1.00
  -5  -2  -5   10.36    0.47
  -5  -2  -5   11.20    1.59
  -5  -2  -6  105.54    3.87
  -5  -2  -6  120.95    5.32
  -5  -2  -6  113.87    3.83
   5   2   7  118.38    4.70
  -5  -2  -7  124.29    5.42
  -5  -2  -7  128.51    4.14
   5   2   8   31.46    2.24
  -5  -2  -8   30.60    1.48
  -5  -2  -8   33.94    2.55
  -5  -2  -8   34.52    1.79
   5   2   9   37.59    2.52
  -5  -2  -9   40.38    1.85
  -5  -2  -9   44.22    2.81
  -5  -2  -9   40.25    1.92
  -5  -2  -9   37.59    2.02
   5   2  10    2.99    0.85
  -5  -2 -10    3.51    0.63
  -5  -2 -10    4.26    0.66
  -5  -2 -10    2.96    0.80
   5   2  11   42.06    2.92
  -5  -2 -11   39.32    2.01
  -5  -2 -11   43.43    2.61
   5   2  12   47.71    3.21
  -5  -2 -12   43.85    2.16
  -5  -2 -12   47.21    2.55
  -5  -2 -13    6.64    0.82
  -5  -2 -14   29.18    1.80
  -5  -3   9   -0.55    1.00
  -5  -3   8   13.18    1.98
  -5  -3   7   10.34    1.73
  -5  -3   6    2.53    1.07
  -5  -3   6    4.59    0.93
  -5  -3   5   50.90    3.06
  -5  -3   5   48.06    3.62
  -5  -3   4   16.83    1.83
  -5  -3   3   19.37    1.18
  -5  -3   3   22.41    2.09
  -5  -3   2  116.37    3.60
   5   3  -2  121.81    5.82
  -5  -3   2  122.65    5.35
   5   3  -1    3.50    1.16
  -5  -3   1    4.02    0.56
  -5  -3   1    4.12    1.05
  -5  -3   0   27.75    1.46
   5   3   0   26.24    2.68
  -5  -3  -1    0.40    0.31
   5   3   1    0.04    0.21
   5   3   1   -0.25    0.81
  -5  -3  -2    1.16    0.39
   5   3   2    1.16    0.29
  -5  -3  -2    2.19    0.35
   5   3   2    1.13    0.87
  -5  -3  -2    2.28    0.85
  -5  -3  -2    1.04    0.42
  -5  -3  -3    5.86    0.70
   5   3   3    5.30    0.51
  -5  -3  -3    5.69    0.54
  -5  -3  -3    6.00    1.21
  -5  -3  -3    5.55    0.79
  -5  -3  -4   -0.04    0.32
  -5  -3  -4    0.78    0.68
  -5  -3  -4    0.05    0.38
   5   3   4    0.51    0.83
  -5  -3  -5  142.96    4.37
  -5  -3  -5  138.84    3.42
  -5  -3  -5  154.85    6.13
  -5  -3  -5  138.08    4.27
  -5  -3  -5  132.19    4.89
   5   3   5  153.72    6.96
   5   3   6    9.20    1.72
  -5  -3  -6    7.56    0.91
  -5  -3  -6    7.45    0.83
  -5  -3  -6    6.55    1.19
  -5  -3  -6    7.06    1.02
   5   3   7   40.24    2.42
  -5  -3  -7   44.21    2.90
  -5  -3  -7   42.70    1.91
  -5  -3  -7   39.24    2.52
   5   3   8   13.40    1.41
  -5  -3  -8   13.34    1.02
   5   3   9    1.64    0.67
  -5  -3  -9    2.39    0.80
  -5  -3  -9    1.44    0.42
   5   3  10   15.78    1.70
  -5  -3 -10   15.33    1.15
  -5  -3 -10   15.86    1.59
   5   3  11   15.19    1.76
  -5  -3 -11   15.00    1.22
  -5  -3 -11   13.40    1.42
   5   3  12   13.19    1.71
  -5  -3 -12   12.05    1.19
   5   3  13    0.70    0.80
  -5  -3 -13    1.25    0.54
  -5  -4   8    6.61    1.49
  -5  -4   7   62.93    4.31
  -5  -4   6   -0.26    0.90
  -5  -4   5    0.25    0.83
   5   4  -4  100.15    5.23
  -5  -4   3   14.44    1.64
   5   4  -3   15.82    2.08
  -5  -4   2   73.71    3.89
   5   4  -2   67.24    4.31
  -5  -4   1   53.40    1.83
  -5  -4   1   55.13    3.37
   5   4  -1   51.93    3.75
  -5  -4   0   17.11    0.95
  -5  -4   0   16.95    1.85
   5   4   0   18.77    2.28
  -5  -4  -1  136.83    3.62
   5   4   1  144.83    6.57
  -5  -4  -2   16.94    1.02
   5   4   2   15.51    0.95
   5   4   2   18.81    2.30
  -5  -4  -2   16.66    0.97
  -5  -4  -3  103.57    3.13
   5   4   3   87.09    2.80
  -5  -4  -3  105.26    4.85
  -5  -4  -3   92.92    2.86
  -5  -4  -3   83.60    3.42
  -5  -4  -4  102.95    3.16
   5   4   4   93.18    2.94
  -5  -4  -4   97.15    2.96
  -5  -4  -4   91.93    3.68
  -5  -4  -5    3.21    0.52
  -5  -4  -5    2.49    0.26
   5   4   5    3.64    1.15
  -5  -4  -5    3.35    0.92
  -5  -4  -5    2.70    0.50
  -5  -4  -5    2.76    0.68
  -5  -4  -6  105.18    2.43
  -5  -4  -6  110.89    4.87
   5   4   6  105.84    5.67
  -5  -4  -6  101.87    3.25
  -5  -4  -6  100.05    4.12
   5   4   7   99.13    3.93
  -5  -4  -7  109.69    4.75
  -5  -4  -7  104.59    3.18
   5   4   7  101.26    5.63
  -5  -4  -7   96.99    4.23
   5   4   8   50.30    2.74
  -5  -4  -8   59.40    3.24
  -5  -4  -8   52.82    1.98
   5   4   8   58.61    4.14
   5   4   9   30.46    2.19
   5   4   9   39.71    3.33
   5   4  10    0.08    0.58
  -5  -4 -10   -0.08    0.63
   5   4  10    0.25    0.83
   5   4  11   44.62    2.93
  -5  -4 -11   45.54    3.03
   5   4  12    1.09    0.72
  -5  -4 -12    1.58    0.83
   5   4  13    8.78    1.45
  -5  -4 -13    6.97    0.96
  -5  -5   6   -0.27    0.95
   5   5  -6    0.11    0.66
   5   5  -5    2.22    1.00
   5   5  -4    7.72    1.50
   5   5  -3   34.85    3.10
   5   5  -2    2.29    1.04
   5   5  -1   17.15    2.27
   5   5   0    5.57    1.42
   5   5   1   29.40    2.98
  -5  -5  -2    4.60    0.58
   5   5   2    2.73    1.19
   5   5   3   21.86    2.58
  -5  -5  -3   21.08    0.96
  -5  -5  -3   21.85    1.22
  -5  -5  -4    1.87    0.28
  -5  -5  -4    1.30    0.39
  -5  -5  -4    1.84    0.37
  -5  -5  -5    4.65    0.39
  -5  -5  -5    4.10    0.59
  -5  -5  -5    4.18    0.49
  -5  -5  -5    5.28    0.88
   5   5   5    4.72    1.40
   5   5   6   11.43    1.98
  -5  -5  -6   10.70    0.54
  -5  -5  -6    9.28    0.69
  -5  -5  -6    9.20    1.14
   5   5   7    4.78    1.37
   5   5   7    4.22    0.76
  -5  -5  -7    4.53    0.47
   5   5   8    0.28    0.45
   5   5   8   -0.27    0.72
   5   5   9    6.13    1.01
   5   5   9    6.07    1.44
  -5  -5  -9    8.12    1.22
   5   5  10    5.94    1.07
   5   5  10    7.42    1.62
  -5  -5 -10    5.52    1.08
   5   5  11    0.08    0.51
   5   5  11    0.39    0.80
  -5  -5 -11    0.34    0.62
   5   5  12    5.18    1.10
  -5  -5 -12    7.24    1.30
   5   5  12    6.67    1.53
   5   6  -5   -0.12    0.74
   5   6  -4   16.48    2.22
   5   6  -3   19.44    2.43
   5   6  -2   46.37    3.78
   5   6  -1   26.79    2.89
   5   6   0   38.38    3.47
   5   6   1   40.42    3.58
  -5  -6  -1   39.14    1.60
  -5  -6  -2    0.30    0.25
   5   6   2   -0.14    0.77
  -5  -6  -2    0.21    0.32
   5   6   3   44.45    3.78
  -5  -6  -3   40.48    1.51
  -5  -6  -3   39.57    1.82
  -5  -6  -4   25.34    1.10
  -5  -6  -4   26.93    1.48
   5   6   5   13.46    2.18
  -5  -6  -5   14.20    0.76
  -5  -6  -5   13.52    1.07
   5   6   6   93.29    5.56
  -5  -6  -6   89.74    3.13
   5   6   7    1.86    0.55
   5   6   7    2.00    1.06
   5   6   8    9.51    1.07
   5   6   8   11.52    2.01
  -5  -6  -8   10.11    1.26
   5   6   9   21.45    1.73
   5   6   9   25.68    2.84
  -5  -6  -9   25.56    1.99
   5   6  10   -0.28    0.85
   5   6  10    0.07    0.47
  -5  -6 -10   -0.14    0.54
   5   6  11   22.50    1.99
   5   6  11   23.84    2.71
  -5  -6 -11   23.51    1.98
   5   6  12    9.63    1.43
   5   6  12   10.24    1.88
   5   6  13    4.12    1.29
   5   7  -3   13.07    2.14
  -5  -7   2    1.14    0.43
   5   7  -2    0.43    0.97
   5   7  -1   27.33    3.03
  -5  -7   1   24.69    1.38
   5   7   0    3.43    1.29
  -5  -7   0    2.51    0.46
   5   7   1   20.66    2.67
  -5  -7  -1   16.53    1.03
   5   7   2   24.85    2.89
  -5  -7  -2   22.16    1.18
   5   7   3    4.39    1.48
  -5  -7  -3    3.21    0.47
  -5  -7  -3    3.15    0.59
   5   7   4    0.76    1.02
  -5  -7  -4    0.44    0.29
  -5  -7  -4    0.11    0.37
  -5  -7  -5    0.89    0.46
   5   7   6   33.51    3.34
  -5  -7  -6   32.37    1.77
   5   7   7   21.61    2.75
  -5  -7  -7   19.06    1.34
   5   7   8    7.72    0.93
   5   7   8    8.38    1.78
   5   7   9    7.68    1.01
   5   7   9    8.98    1.83
   5   7  10    1.14    0.60
   5   7  10    1.45    1.13
   5   7  11    0.36    0.50
   5   7  12    5.71    1.13
  -5  -8   0   21.96    1.31
  -5  -8  -1    3.35    0.54
  -5  -8  -2    0.03    0.30
  -5  -8  -3   31.92    1.49
  -5  -8  -3   27.33    1.58
  -5  -8  -4    0.12    0.41
  -5  -8  -5    1.51    0.54
  -5  -8  -6   51.78    2.40
  -6   5   3   26.19    1.77
   6  -5  -1    8.17    2.01
   6  -5   5   12.43    1.42
   6  -5   6    1.04    0.64
   6  -4  -7    5.91    1.58
   6  -4  -6    1.51    1.10
  -6   4   5   44.77    2.52
   6  -4  -5   46.39    4.06
  -6   4   4   20.79    2.47
  -6   4   4   16.99    1.54
   6  -4  -4   21.37    2.88
  -6   4   3    6.17    1.56
  -6   4   3    5.13    0.98
   6  -4  -3    2.55    1.22
  -6   4   2   22.37    2.58
  -6   4   2   18.70    1.53
   6  -4  -2   23.13    3.00
  -6   4   1    3.14    0.79
   6  -4  -1    1.06    1.12
  -6   4   0   23.98    2.69
  -6   4   0   18.80    1.37
   6  -4   0   19.09    2.81
  -6   4  -1   81.41    4.83
  -6   4  -1   69.24    2.70
  -6   4  -2   12.96    2.12
   6  -4   2   13.90    2.38
  -6   4  -3   60.06    4.08
   6  -4   3   58.29    4.74
  -6   4  -4    7.23    1.75
   6  -4   4    6.38    1.75
  -6   4  -4    5.70    1.09
   6  -4   5    0.17    0.85
  -6   4  -5    0.22    0.63
   6  -4   6   43.00    3.91
   6  -4   7    7.84    1.77
  -6   3   7    2.69    1.28
  -6   3   6    9.60    1.35
  -6   3   6   10.99    1.86
  -6   3   5   15.12    1.59
   6  -3  -5   12.73    2.20
  -6   3   5   15.49    2.16
  -6   3   4   10.18    1.34
   6  -3  -4   10.03    2.02
  -6   3   4   13.35    2.07
  -6   3   3   15.75    1.57
   6  -3  -3   18.27    2.60
  -6   3   3   22.26    2.55
  -6   3   2    2.91    1.31
  -6   3   2    2.53    0.84
   6  -3  -2    2.35    1.31
  -6   3   1   13.55    1.37
   6  -3  -1   13.90    2.28
  -6   3   0   67.63    2.95
   6  -3   0   70.61    5.19
  -6   3   0   66.52    4.48
  -6   3  -1   12.86    1.18
  -6   3  -1   13.48    2.16
  -6   3  -2   19.85    1.33
   6  -3   2   20.09    2.81
  -6   3  -2   22.15    2.61
  -6   3  -3    0.13    1.06
  -6   3  -3    0.50    0.47
   6  -3   3    0.35    0.89
  -6   3  -4    6.17    0.68
  -6   3  -4   10.11    1.85
   6  -3   4    6.92    1.75
  -6   3  -5    8.89    1.76
   6  -3   5    6.51    1.66
  -6   3  -6    3.01    1.30
  -6   3  -7   19.88    2.34
  -6   3  -8    5.28    1.42
  -6   2   9    7.42    1.49
  -6   2   8   37.66    2.91
  -6   2   7    0.52    1.04
  -6   2   7   -0.08    0.87
  -6   2   6    1.52    1.09
  -6   2   6    1.46    0.99
  -6   2   5  121.87    5.20
  -6   2   5  122.02    5.93
  -6   2   4    2.16    1.24
  -6   2   4    1.88    1.03
  -6   2   3   37.36    2.59
  -6   2   3   37.30    3.21
  -6   2   2  140.78    5.17
  -6   2   2  132.98    6.29
  -6   2   1    8.84    1.33
  -6   2   1    7.86    0.82
  -6   2   0    6.67    1.17
   6  -2   0   11.47    2.21
  -6   2  -1  137.96    4.87
  -6   2  -1  127.84    6.42
  -6   2  -2   68.72    3.01
  -6   2  -2   73.46    4.64
  -6   2  -3   98.74    3.51
  -6   2  -3  101.76    2.98
  -6   2  -3  101.36    5.48
  -6   2  -4   11.89    0.99
  -6   2  -4   11.29    1.94
  -6   2  -5    9.35    1.82
  -6   2  -5    8.75    0.77
  -6   2  -5    7.40    1.15
  -6   2  -6   32.68    2.28
  -6   2  -6   38.94    3.19
  -6   2  -7    1.35    1.15
  -6   2  -7    1.50    0.72
  -6   2  -8   80.22    3.64
  -6   2  -8   92.29    4.86
  -6   2  -9   66.96    3.95
  -6   1   9    0.78    0.88
  -6   1   9    0.21    0.69
  -6   1   8   34.66    2.95
  -6   1   8   44.55    3.15
  -6   1   7    9.88    1.71
  -6   1   6    3.42    1.20
  -6   1   6    3.09    1.03
  -6   1   5   -0.34    1.20
  -6   1   5    0.88    0.82
  -6   1   4   23.67    2.15
  -6   1   4   22.49    2.54
  -6   1   3    2.89    1.25
  -6   1   3    5.83    1.17
  -6   1   2    4.43    1.04
  -6   1   2    2.81    0.48
  -6   1   1   11.43    1.47
  -6   1   1    9.80    0.90
  -6   1   0   14.96    1.62
  -6   1   0   10.51    1.02
  -6   1  -1   50.68    2.87
  -6   1  -1   47.48    1.87
  -6   1  -2   95.54    3.94
  -6   1  -2   88.10    2.73
  -6   1  -3   28.50    1.93
  -6   1  -3   27.90    1.24
  -6   1  -4   62.79    2.79
  -6   1  -5    2.30    1.20
  -6   1  -5    2.66    0.69
  -6   1  -6   47.66    1.95
  -6   1  -6   46.70    2.69
  -6   1  -7    2.22    1.17
  -6   1  -7    2.87    0.79
  -6   1  -8    2.31    1.15
  -6   1  -8    3.48    0.84
  -6   1  -9   -0.32    1.17
  -6   1  -9    0.36    0.53
  -6   1  -9    0.11    0.66
  -6   1 -10   12.45    1.78
  -6   1 -10   13.23    1.86
  -6   0   9    0.35    0.85
  -6   0   9    0.27    0.56
  -6   0   8   44.70    3.19
  -6   0   8   47.69    3.22
  -6   0   7    2.29    1.12
  -6   0   7    2.95    0.99
  -6   0   6    8.99    1.66
  -6   0   5   99.53    4.99
  -6   0   5  101.81    5.38
  -6   0   4    2.40    1.00
  -6   0   4    3.94    1.24
  -6   0   3   41.37    3.03
  -6   0   2   49.44    3.26
  -6   0   1    0.45    0.72
  -6   0   1    0.48    0.31
  -6   0   0   88.89    4.35
  -6   0   0   88.92    2.97
  -6   0   0   79.70    3.13
  -6   0  -1  106.42    4.67
  -6   0  -1   99.65    3.07
  -6   0  -2    9.88    1.40
  -6   0  -2   10.56    0.76
  -6   0  -3   51.57    2.92
  -6   0  -3   52.06    1.78
  -6   0  -4   31.15    2.12
  -6   0  -4   28.47    1.15
  -6   0  -5   24.64    1.80
  -6   0  -6   15.46    1.28
  -6   0  -6   14.56    1.43
  -6   0  -6   14.93    2.02
  -6   0  -7   20.08    1.29
  -6   0  -7   19.02    1.66
  -6   0  -7   20.89    2.36
  -6   0  -8   72.97    3.32
  -6   0  -8   75.99    4.50
  -6   0  -9   -0.57    1.28
  -6   0  -9    0.45    0.53
  -6   0  -9    0.34    0.72
  -6   0 -10    4.12    1.34
  -6   0 -10    5.76    0.90
  -6   0 -10    4.91    1.20
  -6   0 -11   77.55    4.13
  -6  -1   8    8.24    1.39
  -6  -1   7    3.90    1.25
  -6  -1   7    4.80    1.16
  -6  -1   6    0.73    0.80
  -6  -1   5   35.65    2.99
  -6  -1   5   45.33    3.37
  -6  -1   4   25.90    2.55
  -6  -1   4   28.95    2.78
  -6  -1   3   -0.11    0.88
   6   1  -3    0.29    0.15
  -6  -1   3    0.13    0.70
   6   1  -2   55.82    1.44
  -6  -1   2   62.99    4.30
  -6  -1   2   54.96    3.66
  -6  -1   1   16.30    2.25
  -6  -1   1   11.63    0.97
  -6  -1   1   12.92    1.78
  -6  -1   0   15.18    1.11
  -6  -1   0   13.59    1.09
  -6  -1   0   12.97    1.76
  -6  -1  -1  102.21    3.20
  -6  -1  -1   93.77    3.58
  -6  -1  -1  107.99    4.96
  -6  -1  -2    0.09    0.68
  -6  -1  -2    0.10    0.28
  -6  -1  -2    0.54    0.70
  -6  -1  -2   -0.10    0.37
  -6  -1  -3   98.72    2.82
  -6  -1  -3   89.78    3.81
  -6  -1  -3   99.45    4.57
  -6  -1  -4   25.49    1.05
  -6  -1  -4   25.83    0.88
  -6  -1  -4   29.28    2.92
  -6  -1  -4   28.83    2.21
  -6  -1  -5    0.56    0.61
  -6  -1  -5    0.78    0.86
  -6  -1  -6   80.35    3.44
  -6  -1  -6   88.69    5.04
  -6  -1  -6   76.52    3.52
  -6  -1  -7    4.04    0.82
  -6  -1  -7    5.91    0.94
  -6  -1  -7    6.36    1.42
  -6  -1  -8   12.83    1.87
  -6  -1  -8   13.43    1.31
  -6  -1  -9   24.01    1.25
  -6  -1  -9   28.16    2.55
  -6  -1  -9   28.71    1.84
  -6  -1 -10   27.69    2.48
  -6  -1 -10   27.23    1.75
  -6  -1 -11   13.88    1.75
  -6  -1 -11   12.51    1.18
  -6  -2   8    8.84    1.33
  -6  -2   7   -0.58    0.94
  -6  -2   7    0.61    0.68
  -6  -2   6   16.23    1.88
  -6  -2   6   15.48    2.17
  -6  -2   5   58.67    3.75
  -6  -2   4    3.59    1.19
  -6  -2   4    3.75    1.09
  -6  -2   3   31.20    2.83
  -6  -2   3   32.77    2.92
  -6  -2   2    6.13    0.81
  -6  -2   2    7.37    1.52
   6   2  -2    6.83    0.48
  -6  -2   2    7.48    1.47
  -6  -2   1    5.23    0.77
  -6  -2   1    3.69    1.12
   6   2  -1    6.35    0.47
  -6  -2   1    6.61    1.42
  -6  -2   0   26.10    1.64
   6   2   0   24.77    0.98
  -6  -2   0   29.81    2.88
  -6  -2   0   27.26    2.54
  -6  -2  -1   63.41    2.75
  -6  -2  -1   58.54    2.31
  -6  -2  -1   61.87    2.66
  -6  -2  -1   61.74    3.83
  -6  -2  -2   58.15    2.64
  -6  -2  -2   51.43    2.04
  -6  -2  -2   53.12    2.60
  -6  -2  -2   56.36    3.53
  -6  -2  -3    9.48    0.72
  -6  -2  -3    9.43    0.54
  -6  -2  -3    9.95    1.73
  -6  -2  -3    8.79    1.11
  -6  -2  -3    9.14    1.40
  -6  -2  -4    8.58    0.56
  -6  -2  -4   10.48    1.75
  -6  -2  -4    6.81    0.99
  -6  -2  -4    9.69    1.42
  -6  -2  -5    9.10    0.62
  -6  -2  -5    9.72    1.66
  -6  -2  -5   11.01    1.30
  -6  -2  -5    7.65    1.26
  -6  -2  -6    3.00    0.83
  -6  -2  -6    3.35    0.71
  -6  -2  -6    3.13    1.06
  -6  -2  -6    2.02    0.70
  -6  -2  -7    2.92    0.77
  -6  -2  -7    3.29    0.72
  -6  -2  -7    3.48    1.10
  -6  -2  -8   78.80    4.50
  -6  -2  -8   77.99    3.14
  -6  -2  -8   73.54    3.36
  -6  -2  -9    0.20    0.68
  -6  -2  -9    0.64    0.48
  -6  -2 -10    1.93    0.77
  -6  -2 -10    0.97    0.52
  -6  -2 -11    5.92    0.74
  -6  -2 -11    6.63    1.22
  -6  -2 -11    7.03    0.87
  -6  -3   7   21.91    1.97
  -6  -3   6    2.73    1.10
  -6  -3   6    3.02    0.95
  -6  -3   5   52.19    3.43
  -6  -3   5   42.41    3.54
  -6  -3   4   40.93    3.04
  -6  -3   3    1.80    1.00
  -6  -3   3    1.77    0.84
  -6  -3   2   53.96    3.61
  -6  -3   2   44.96    3.60
  -6  -3   1    6.15    1.44
   6   3  -1    6.00    0.54
  -6  -3   1    7.64    1.48
   6   3   0   60.10    1.98
  -6  -3   0   63.15    4.01
  -6  -3  -1   25.31    1.57
   6   3   1   25.85    1.13
  -6  -3  -1   21.46    2.26
  -6  -3  -2    0.17    0.36
   6   3   2    0.30    0.22
  -6  -3  -2    0.44    0.47
  -6  -3  -3  156.08    4.87
  -6  -3  -3  160.99    4.05
  -6  -3  -3  145.90    5.09
  -6  -3  -4   60.22    2.66
  -6  -3  -4   64.57    2.09
  -6  -3  -4   59.87    3.00
  -6  -3  -5   24.11    1.16
  -6  -3  -5   26.36    1.98
  -6  -3  -6   46.56    3.39
  -6  -3  -6   42.55    2.16
  -6  -3  -6   41.87    2.64
  -6  -3  -7    5.72    0.82
  -6  -3  -7    5.44    1.20
  -6  -3  -7    4.02    0.92
  -6  -3  -8   17.20    1.93
  -6  -3  -8   17.81    1.29
  -6  -3  -8   14.92    1.72
  -6  -3  -9   10.19    1.54
  -6  -3  -9   12.02    1.08
  -6  -3  -9   11.22    1.58
  -6  -3  -9    9.77    1.19
  -6  -3 -10   80.09    4.17
  -6  -3 -10   78.19    2.89
   6   3  11   53.30    3.36
  -6  -3 -11   54.55    3.20
  -6  -3 -12    0.07    0.47
  -6  -4   4    4.61    1.05
  -6  -4   3   17.38    1.97
  -6  -4   2   15.07    1.87
  -6  -4   2   12.38    1.99
  -6  -4   1    0.85    0.75
   6   4   0   32.91    3.26
   6   4   0   28.16    1.34
  -6  -4   0   33.25    2.85
   6   4   1    2.10    1.05
   6   4   1    1.96    0.39
  -6  -4  -1    2.93    1.06
   6   4   2    0.46    0.81
   6   4   2    0.02    0.27
   6   4   3   15.43    2.35
   6   4   3   14.14    0.91
  -6  -4  -3   16.54    2.05
  -6  -4  -3   14.94    0.92
  -6  -4  -3   14.76    1.33
  -6  -4  -4    6.29    0.63
  -6  -4  -4    6.15    1.41
  -6  -4  -4    5.69    0.92
  -6  -4  -5    2.12    0.43
   6   4   5    1.55    1.07
  -6  -4  -5    2.08    0.92
  -6  -4  -5    1.60    0.47
  -6  -4  -5    1.81    0.68
   6   4   6    3.26    1.32
  -6  -4  -6    2.93    0.49
  -6  -4  -6    3.48    1.05
  -6  -4  -6    2.86    0.59
  -6  -4  -6    2.81    0.78
  -6  -4  -7    0.20    0.53
  -6  -4  -7    0.03    0.33
  -6  -4  -7   -0.30    0.59
  -6  -4  -8    5.65    0.71
  -6  -4  -8    5.12    1.14
  -6  -4  -8    5.08    1.08
  -6  -4  -9   10.95    1.53
  -6  -4  -9   12.31    0.95
  -6  -4  -9   12.63    1.64
   6   4  10    1.71    0.81
   6   4  11    2.53    0.88
   6   5  -3    0.42    0.82
   6   5  -2   21.89    2.68
   6   5  -1   11.69    2.05
   6   5   0   39.54    3.68
  -6  -5  -1   19.71    2.12
   6   5   1   17.19    2.49
   6   5   2   32.73    3.40
  -6  -5  -3   42.04    3.15
  -6  -5  -3   44.42    1.81
   6   5   3   45.13    3.99
  -6  -5  -4    0.18    0.20
  -6  -5  -4   -0.14    0.37
  -6  -5  -4    0.10    0.64
  -6  -5  -4    0.65    0.33
  -6  -5  -5   76.13    4.21
  -6  -5  -5   68.76    2.52
  -6  -5  -5   70.66    2.55
   6   5   5   68.74    4.98
  -6  -5  -5   65.45    3.16
  -6  -5  -6   45.74    1.96
   6   5   6   52.71    4.34
  -6  -5  -6   46.20    2.68
   6   5   7    0.32    0.95
  -6  -5  -7    0.10    0.37
  -6  -5  -7    0.34    0.50
  -6  -5  -8   20.21    1.85
   6   5   8   25.40    3.06
   6   5   9   15.29    2.36
   6   5  10   11.27    1.44
   6   5  11   12.31    1.58
   6   6  -2   22.51    2.81
   6   6  -1    4.62    1.55
   6   6   0    7.48    1.79
   6   6   1    2.39    1.18
   6   6   2    1.78    1.14
  -6  -6  -2    2.32    0.42
   6   6   3    4.23    1.39
  -6  -6  -3    4.09    0.45
  -6  -6  -3    4.31    0.63
  -6  -6  -4   40.66    1.86
  -6  -6  -5    2.84    0.58
   6   6   6    0.49    0.95
  -6  -6  -6   -0.18    0.39
   6   6   7    4.67    1.45
  -6  -6  -7    2.72    0.58
  -6  -6  -8    5.20    0.75
   6   6   8    3.83    1.41
   6   6   9   10.76    2.04
   6   6  10    2.09    0.74
   6   6  11    7.50    1.25
  -6  -7   0   14.51    1.03
  -6  -7  -1   -0.13    0.28
  -6  -7  -4   -0.04    0.38
  -6  -7  -5    7.99    0.89
  -6  -7  -6    3.71    0.67
  -6  -7  -7   -0.04    0.40
  -7   4   1    0.78    0.65
  -7   4   0    0.62    0.57
  -7   4  -1    5.05    0.81
  -7   3   2   38.42    2.41
  -7   3   1    5.10    1.04
  -7   3   0   80.38    3.38
  -7   3  -1    1.29    0.71
  -7   3  -2   -0.08    0.57
  -7   2   4    0.54    1.14
  -7   2   3    1.53    1.27
  -7   2   3    1.45    1.01
  -7   2   2    0.71    1.23
  -7   2   2    1.31    0.98
  -7   2   1    2.41    1.37
  -7   2   1    4.46    1.17
  -7   2   0   19.25    1.84
  -7   2  -1   -0.57    1.21
  -7   2  -1   -0.47    0.84
  -7   2  -2    2.01    1.31
  -7   2  -2    2.94    0.84
  -7   2  -3   17.98    1.41
  -7   2  -3   18.56    2.59
  -7   2  -4    2.29    1.34
  -7   2  -5    8.68    1.96
  -7   2  -6    5.30    1.66
  -7   1   6   23.26    2.74
  -7   1   6   24.70    2.71
  -7   1   5   11.27    2.01
  -7   1   4   -0.67    1.30
  -7   1   4    1.29    0.88
  -7   1   3   62.37    3.63
  -7   1   3   56.05    4.23
  -7   1   2   10.06    1.52
  -7   1   2    5.46    1.65
  -7   1   1    0.88    1.21
  -7   1   1    2.59    0.99
  -7   1   0  164.62    5.98
  -7   1   0  145.51    4.79
  -7   1  -1    7.95    1.26
  -7   1  -1    6.13    0.90
  -7   1  -2    0.54    0.63
  -7   1  -2    0.06    0.43
  -7   1  -3   27.33    1.95
  -7   1  -3   20.63    2.83
  -7   1  -4   16.90    1.51
  -7   1  -4   13.54    2.36
  -7   1  -5   42.76    2.69
  -7   1  -5   46.49    3.95
  -7   1  -6    5.91    1.69
  -7   1  -6    7.46    1.21
  -7   1  -7   43.74    3.65
  -7   1  -8   18.25    2.36
  -7   1  -8   18.57    2.44
  -7   0   7    5.07    1.48
  -7   0   7    5.56    1.41
  -7   0   6    0.63    1.12
  -7   0   6    2.81    1.18
  -7   0   5    4.95    1.62
  -7   0   5    6.07    1.53
  -7   0   4    2.76    1.17
  -7   0   4    4.74    1.41
  -7   0   3    0.85    0.86
  -7   0   3    0.92    0.92
  -7   0   2   22.64    2.33
  -7   0   2   21.88    2.79
  -7   0   1    2.77    1.00
  -7   0   1    2.03    1.16
  -7   0   1    2.29    0.57
  -7   0   0   11.80    1.69
  -7   0   0   14.67    2.30
  -7   0   0   11.64    1.08
  -7   0  -1    0.63    0.83
  -7   0  -1    0.47    0.44
  -7   0  -2    8.20    1.36
  -7   0  -2    7.03    0.97
  -7   0  -2    7.46    1.71
  -7   0  -3   63.23    3.40
  -7   0  -3   64.47    4.65
  -7   0  -3   51.49    2.83
  -7   0  -4    0.61    0.67
  -7   0  -4    0.15    0.84
  -7   0  -5    3.07    0.79
  -7   0  -5    2.55    1.21
  -7   0  -6   29.48    2.17
  -7   0  -6   32.68    3.28
  -7   0  -7    0.50    0.63
  -7   0  -7    0.71    0.98
  -7   0  -8    4.87    1.62
  -7   0  -8    4.95    1.45
  -7   0  -9   52.40    3.93
  -7   0  -9   59.90    4.16
  -7   0 -10    6.78    1.68
  -7  -1   6   12.62    1.90
  -7  -1   5    7.66    1.64
  -7  -1   4   -0.14    0.85
  -7  -1   3   32.68    2.89
  -7  -1   3   32.86    3.31
  -7  -1   2   14.59    1.98
  -7  -1   2   18.50    2.51
  -7  -1   1   17.65    2.14
  -7  -1   1   22.71    2.80
  -7  -1   0   30.23    2.65
  -7  -1   0   30.19    1.78
  -7  -1  -1    3.15    1.10
  -7  -1  -1    3.33    0.69
  -7  -1  -2   10.11    1.55
  -7  -1  -2   14.53    2.36
  -7  -1  -2   12.13    1.25
  -7  -1  -3   17.00    1.85
  -7  -1  -3   20.02    2.70
  -7  -1  -3   17.35    1.58
  -7  -1  -4    6.94    1.26
  -7  -1  -4    8.52    1.86
  -7  -1  -4    5.43    0.99
  -7  -1  -5   39.80    2.59
  -7  -1  -5   39.69    2.61
  -7  -1  -6   -0.06    0.63
  -7  -1  -6   -0.06    0.57
  -7  -1  -6   -0.15    0.94
  -7  -1  -7    5.71    1.05
  -7  -1  -7    5.11    1.43
  -7  -1  -8    1.12    0.65
  -7  -1  -8    2.10    0.99
  -7  -1  -9    0.12    0.72
  -7  -1 -10   40.05    3.25
  -7  -2   6    0.53    0.73
  -7  -2   5   17.44    2.21
  -7  -2   4    0.38    0.67
  -7  -2   3    5.02    1.40
  -7  -2   3    7.74    1.61
  -7  -2   2   20.88    2.59
  -7  -2   2   19.68    2.43
  -7  -2   1    7.99    1.56
  -7  -2   1    8.57    1.79
  -7  -2   0   64.18    4.56
  -7  -2   0   50.03    3.58
  -7  -2  -1   11.17    1.13
  -7  -2  -1    9.66    1.59
  -7  -2  -2    6.81    1.35
  -7  -2  -2    7.29    1.66
  -7  -2  -2    6.36    0.93
  -7  -2  -3   28.24    3.04
  -7  -2  -3   23.43    1.80
  -7  -2  -3   22.06    2.19
  -7  -2  -4    5.10    1.13
  -7  -2  -4    9.17    1.80
  -7  -2  -4    7.19    1.13
  -7  -2  -5   19.03    2.46
  -7  -2  -5   17.59    1.73
  -7  -2  -5   15.45    1.71
  -7  -2  -6   28.17    1.98
  -7  -2  -6   29.02    2.27
  -7  -2  -6   28.83    2.26
  -7  -2  -7   36.14    3.26
  -7  -2  -7   30.87    2.07
  -7  -2  -7   29.32    2.42
  -7  -2  -8   24.59    2.65
  -7  -2  -8   24.21    1.76
  -7  -2  -8   22.75    2.22
  -7  -2  -9    9.68    1.14
  -7  -2  -9    9.24    1.64
  -7  -2 -10    3.05    1.12
  -7  -3   4    0.69    0.71
  -7  -3   3    7.13    1.49
  -7  -3   2    0.52    0.86
  -7  -3   2   -0.13    0.69
  -7  -3   1   32.04    3.07
  -7  -3   1   25.57    2.74
  -7  -3   0   20.10    2.51
  -7  -3   0   15.83    2.18
  -7  -3  -1   20.87    2.58
  -7  -3  -1   16.53    2.14
  -7  -3  -2    0.55    0.76
  -7  -3  -3    0.21    0.74
  -7  -3  -3   -0.14    0.78
  -7  -3  -3   -0.06    0.49
  -7  -3  -4    1.46    0.86
  -7  -3  -4    0.98    0.91
  -7  -3  -4    1.68    0.63
  -7  -3  -5   28.62    2.93
  -7  -3  -5   23.99    1.94
  -7  -3  -6    0.93    0.62
  -7  -3  -6    1.31    0.90
  -7  -3  -6    0.67    0.57
  -7  -3  -6    1.08    0.70
  -7  -3  -7    1.63    0.78
  -7  -3  -7    3.34    1.17
  -7  -3  -7    1.58    0.68
  -7  -3  -7    2.29    0.89
  -7  -3  -8    2.23    1.07
  -7  -3  -8    1.84    0.62
  -7  -3  -9   11.41    1.74
  -7  -3  -9    9.67    1.07
  -7  -3 -10    5.27    0.79
  -7  -4   0    5.11    1.39
  -7  -4   0    3.19    1.14
  -7  -4  -1   19.55    2.43
  -7  -4  -1   14.46    2.04
  -7  -4  -2   46.32    3.43
  -7  -4  -3    6.48    1.38
  -7  -4  -3   10.43    1.84
  -7  -4  -4    2.49    1.04
  -7  -4  -4    2.09    0.67
  -7  -4  -5   26.29    1.69
  -7  -4  -5   26.57    2.01
  -7  -4  -6   13.30    2.00
  -7  -4  -6   11.30    1.13
  -7  -4  -6   10.46    1.34
  -7  -4  -7   12.96    1.17
  -8   1  -2    3.17    1.03
  -8   1  -4    2.14    0.76
  -8   0  -1    0.94    0.76
  -8   0  -2   42.29    2.79
  -8   0  -2   38.60    2.32
  -8   0  -3    8.93    1.34
  -8   0  -3    6.68    1.10
  -8   0  -4    4.09    0.90
  -8  -1  -1   12.84    1.24
  -8  -1  -2    5.00    1.23
  -8  -1  -2    5.02    0.85
  -8  -1  -3    8.48    1.42
  -8  -1  -3    8.26    1.16
  -8  -1  -4    4.75    1.13
  -8  -1  -4    3.92    0.96
  -8  -2  -2   25.21    1.82
  -8  -2  -3   -0.10    0.81
  -8  -2  -3    0.73    0.58
  -8  -2  -4    1.15    0.88
  -8  -3  -5   21.68    1.71
  -8  -3  -5   19.17    1.99
   0   0   0    0.00    0.00
;
_shelx_hkl_checksum              80826
loop_
_space_group_symop_operation_xyz
'x, y, z'
'-x, -y, -z'
loop_
_atom_site_label
_atom_site_type_symbol
_atom_site_fract_x
_atom_site_fract_y
_atom_site_fract_z
_atom_site_U_iso_or_equiv
_atom_site_adp_type
_atom_site_occupancy
_atom_site_site_symmetry_order
_atom_site_calc_flag
_atom_site_refinement_flags_posn
_atom_site_refinement_flags_adp
_atom_site_refinement_flags_occupancy
_atom_site_disorder_assembly
_atom_site_disorder_group
Cl1 Cl 0.26160(6) 0.29000(5) 0.50520(3) 0.03380(15) Uani 1 1 d . . . . .
Cl2 Cl 0.40589(7) 0.28504(5) 0.87770(3) 0.04300(16) Uani 1 1 d . . . . .
N2 N -0.03304(17) 0.19537(15) 0.20241(9) 0.0241(2) Uani 1 1 d . . . . .
N1 N 0.2902(2) -0.26830(15) 0.35914(10) 0.0291(3) Uani 1 1 d . . . . .
H1A H 0.3531 -0.3058 0.2929 0.044 Uiso 1 1 calc R U . . .
H1B H 0.1603 -0.3315 0.3896 0.044 Uiso 1 1 calc R U . . .
H1C H 0.3951 -0.2949 0.4127 0.044 Uiso 1 1 calc R U . . .
C2 C 0.0793(2) -0.00873(18) 0.22530(12) 0.0279(3) Uani 1 1 d . . . . .
H2B H 0.1793 -0.0266 0.1536 0.034 Uiso 1 1 calc R U . . .
H2A H -0.0450 -0.0990 0.2406 0.034 Uiso 1 1 calc R U . . .
C3 C -0.1987(2) 0.2299(2) 0.30873(12) 0.0338(3) Uani 1 1 d . . . . .
H3A H -0.2969 0.1221 0.3382 0.051 Uiso 1 1 calc R U . . .
H3B H -0.2971 0.3469 0.2852 0.051 Uiso 1 1 calc R U . . .
H3C H -0.1080 0.2429 0.3707 0.051 Uiso 1 1 calc R U . . .
C1 C 0.2272(2) -0.05777(18) 0.32982(12) 0.0315(3) Uani 1 1 d . . . . .
H1E H 0.3705 0.0126 0.3091 0.038 Uiso 1 1 calc R U . . .
H1D H 0.1380 -0.0194 0.3989 0.038 Uiso 1 1 calc R U . . .
C4 C -0.1705(3) 0.2207(2) 0.09600(12) 0.0356(3) Uani 1 1 d . . . . .
H4A H -0.0624 0.2124 0.0261 0.053 Uiso 1 1 calc R U . . .
H4B H -0.2567 0.3455 0.0831 0.053 Uiso 1 1 calc R U . . .
H4C H -0.2799 0.1204 0.1110 0.053 Uiso 1 1 calc R U . . .
C5 C 0.1493(2) 0.3436(2) 0.17408(13) 0.0339(3) Uani 1 1 d . . . . .
H5A H 0.2360 0.3301 0.2420 0.051 Uiso 1 1 calc R U . . .
H5B H 0.0718 0.4715 0.1559 0.051 Uiso 1 1 calc R U . . .
H5C H 0.2569 0.3240 0.1062 0.051 Uiso 1 1 calc R U . . .
loop_
_atom_site_aniso_label
_atom_site_aniso_U_11
_atom_site_aniso_U_22
_atom_site_aniso_U_33
_atom_site_aniso_U_23
_atom_site_aniso_U_13
_atom_site_aniso_U_12
Cl1 0.0316(2) 0.0327(2) 0.0357(2) -0.00300(14) -0.00729(14) -0.00222(14)
Cl2 0.0483(3) 0.0421(2) 0.0347(2) -0.00981(16) 0.00424(15) 0.00774(16)
N2 0.0233(5) 0.0249(5) 0.0224(5) -0.0029(4) -0.0030(4) 0.0013(4)
N1 0.0312(6) 0.0265(5) 0.0268(5) -0.0015(4) -0.0048(4) 0.0031(4)
C2 0.0300(6) 0.0248(6) 0.0298(6) -0.0073(5) -0.0083(5) 0.0040(5)
C3 0.0272(6) 0.0402(7) 0.0298(7) -0.0057(5) 0.0037(5) 0.0044(5)
C1 0.0346(7) 0.0245(6) 0.0367(7) -0.0062(5) -0.0139(5) 0.0026(5)
C4 0.0382(7) 0.0384(7) 0.0304(7) -0.0049(6) -0.0151(6) 0.0045(6)
C5 0.0338(7) 0.0315(7) 0.0333(7) -0.0008(5) -0.0001(5) -0.0080(5)
loop_
_atom_type_symbol
_atom_type_description
_atom_type_scat_dispersion_real
_atom_type_scat_dispersion_imag
_atom_type_scat_source
C C 0.0033 0.0016 'International Tables Vol C Tables 4.2.6.8 and 6.1.1.4'
H H 0.0000 0.0000 'International Tables Vol C Tables 4.2.6.8 and 6.1.1.4'
Cl Cl 0.1484 0.1585 'International Tables Vol C Tables 4.2.6.8 and 6.1.1.4'
N N 0.0061 0.0033 'International Tables Vol C Tables 4.2.6.8 and 6.1.1.4'
loop_
_geom_angle_atom_site_label_1
_geom_angle_atom_site_label_2
_geom_angle_atom_site_label_3
_geom_angle
_geom_angle_site_symmetry_1
_geom_angle_site_symmetry_3
_geom_angle_publ_flag
C5 N2 C3 108.19(10) . . ?
C5 N2 C2 111.85(10) . . ?
C3 N2 C2 111.44(10) . . ?
C5 N2 C4 108.82(10) . . ?
C3 N2 C4 109.48(10) . . ?
C2 N2 C4 107.02(9) . . ?
N2 C2 C1 113.77(10) . . ?
N1 C1 C2 109.36(10) . . ?
loop_
_geom_bond_atom_site_label_1
_geom_bond_atom_site_label_2
_geom_bond_distance
_geom_bond_site_symmetry_2
_geom_bond_publ_flag
N2 C5 1.4982(16) . ?
N2 C3 1.5032(16) . ?
N2 C2 1.5053(15) . ?
N2 C4 1.5058(15) . ?
N1 C1 1.4723(16) . ?
C2 C1 1.5139(17) . ?
