#------------------------------------------------------------------------------
#$Date: 2020-04-07 01:44:34 +0300 (Tue, 07 Apr 2020) $
#$Revision: 250404 $
#$URL: file:///home/coder/svn-repositories/cod/cif/4/13/46/4134613.cif $
#------------------------------------------------------------------------------
#
# This file is available in the Crystallography Open Database (COD),
# http://www.crystallography.net/
#
# All data on this site have been placed in the public domain by the
# contributors.
#
data_4134613
loop_
_publ_author_name
'Deng, Bin-Bin'
'Xu, Chu-Chu'
'Cheng, Ting-Ting'
'Yang, Yi-Ting'
'Hu, Yan-Ting'
'Wang, Pan'
'He, Wen-Hui'
'Yang, Meng-Juan'
'Liao, Wei-Qiang'
_publ_section_title
;
 Homochiral Nickel Nitrite ABX<sub>3</sub> (X =
 NO<sub>2</sub><sup>-</sup>) Perovskite Ferroelectrics.
;
_journal_name_full               'Journal of the American Chemical Society'
_journal_paper_doi               10.1021/jacs.0c02580
_journal_year                    2020
_chemical_absolute_configuration ad
_chemical_formula_moiety         'N3 Ni O6, C8 H16 N O'
_chemical_formula_sum            'C8 H16 N4 Ni O7'
_chemical_formula_weight         338.94
_space_group_crystal_system      monoclinic
_space_group_IT_number           4
_space_group_name_Hall           'P 2yb'
_space_group_name_H-M_alt        'P 1 21 1'
_atom_sites_solution_hydrogens   difmap
_audit_creation_method           SHELXL-2014/7
_cell_angle_alpha                90
_cell_angle_beta                 112.658(14)
_cell_angle_gamma                90
_cell_formula_units_Z            2
_cell_length_a                   9.7669(11)
_cell_length_b                   7.0025(5)
_cell_length_c                   10.1992(12)
_cell_measurement_reflns_used    2070
_cell_measurement_temperature    293(2)
_cell_measurement_theta_max      26.5790
_cell_measurement_theta_min      3.6120
_cell_volume                     643.71(13)
_computing_cell_refinement       'CrysAlisPro 1.171.39.46 (Rigaku OD, 2018)'
_computing_data_collection       'CrysAlisPro 1.171.39.46 (Rigaku OD, 2018)'
_computing_data_reduction        'CrysAlisPro 1.171.39.46 (Rigaku OD, 2018)'
_computing_molecular_graphics    'DIAMOND (Brandenburg & Putz, 2005)'
_computing_publication_material  'SHELXL-2014/7 (Sheldrick, 2014)'
_computing_structure_refinement  'SHELXL-2014/7 (Sheldrick, 2014)'
_computing_structure_solution    'SHELXL-2014/7 (Sheldrick, 2014)'
_diffrn_ambient_temperature      293(2)
_diffrn_measured_fraction_theta_full 0.997
_diffrn_measured_fraction_theta_max 0.817
_diffrn_measurement_device_type  'XtaLAB Synergy R, DW system, HyPix'
_diffrn_measurement_method       'four-circle diffractometer'
_diffrn_radiation_type           MoK\a
_diffrn_radiation_wavelength     0.71073
_diffrn_reflns_av_R_equivalents  0.0518
_diffrn_reflns_av_unetI/netI     0.0976
_diffrn_reflns_Laue_measured_fraction_full 0.997
_diffrn_reflns_Laue_measured_fraction_max 0.817
_diffrn_reflns_limit_h_max       12
_diffrn_reflns_limit_h_min       -14
_diffrn_reflns_limit_k_max       7
_diffrn_reflns_limit_k_min       -10
_diffrn_reflns_limit_l_max       10
_diffrn_reflns_limit_l_min       -15
_diffrn_reflns_number            5808
_diffrn_reflns_point_group_measured_fraction_full 0.998
_diffrn_reflns_point_group_measured_fraction_max 0.818
_diffrn_reflns_theta_full        25.242
_diffrn_reflns_theta_max         31.566
_diffrn_reflns_theta_min         3.627
_diffrn_source                   'Rotating-anode X-ray tube'
_exptl_absorpt_coefficient_mu    1.547
_exptl_absorpt_correction_T_max  0.844
_exptl_absorpt_correction_T_min  0.831
_exptl_absorpt_correction_type   multi-scan
_exptl_absorpt_process_details   'CrysAlisPro 1.171.39.46 (Rigaku OD, 2018)'
_exptl_crystal_colour            Brown
_exptl_crystal_density_diffrn    1.749
_exptl_crystal_description       Prism
_exptl_crystal_F_000             352
_exptl_crystal_size_max          0.120
_exptl_crystal_size_mid          0.120
_exptl_crystal_size_min          0.110
_refine_diff_density_max         0.512
_refine_diff_density_min         -0.469
_refine_diff_density_rms         0.094
_refine_ls_abs_structure_details
;
 Refined as an inversion twin.
;
_refine_ls_abs_structure_Flack   0.00(4)
_refine_ls_extinction_method     none
_refine_ls_goodness_of_fit_ref   1.001
_refine_ls_hydrogen_treatment    constr
_refine_ls_matrix_type           full
_refine_ls_number_parameters     182
_refine_ls_number_reflns         4306
_refine_ls_number_restraints     1
_refine_ls_restrained_S_all      1.001
_refine_ls_R_factor_all          0.0795
_refine_ls_R_factor_gt           0.0541
_refine_ls_shift/su_max          0.002
_refine_ls_shift/su_mean         0.000
_refine_ls_structure_factor_coef Fsqd
_refine_ls_weighting_details
'w=1/[\s^2^(Fo^2^)+(0.0200P)^2^+0.3420P] where P=(Fo^2^+2Fc^2^)/3'
_refine_ls_weighting_scheme      calc
_refine_ls_wR_factor_gt          0.1007
_refine_ls_wR_factor_ref         0.1131
_reflns_Friedel_coverage         0.868
_reflns_Friedel_fraction_full    0.999
_reflns_Friedel_fraction_max     0.820
_reflns_number_gt                4306
_reflns_number_total             4306
_reflns_threshold_expression     'I > 2\s(I)'
_cod_data_source_file            ja0c02580_si_005.cif
_cod_data_source_block           P21
_cod_original_sg_symbol_H-M      'P 21'
_cod_database_code               4134613
_shelx_shelxl_version_number     2014/7
_shelx_space_group_comment
;
The symmetry employed for this shelxl refinement is uniquely defined
by the following loop, which should always be used as a source of
symmetry information in preference to the above space-group names.
They are only intended as comments.
;
_shelx_estimated_absorpt_t_min   0.836
_shelx_estimated_absorpt_t_max   0.848
_shelx_res_file
;

    P21.res created by SHELXL-2014/7


TITL P21 in P2(1)
CELL 0.71073   9.7669   7.0025  10.1992  90.000 112.658  90.000
ZERR    2.00   0.0011   0.0005   0.0012   0.000   0.014   0.000
LATT -1
SYMM -X, 0.5+Y, -Z
SFAC C  H  N  O  Ni
UNIT 16 32 8 14 2
OMIT 8 2 2
L.S. 4
ACTA
BOND
FMAP 2
PLAN 5
CONF
TWIN
SIZE 0.11 0.12 0.12
EQIV $1 x+1, y, z+1
HTAB C1 O5_$1
EQIV $2 -x+1, y+1/2, -z+1
HTAB C1 O2_$2
EQIV $3 x, y, z+1
HTAB C5 O4_$3
EQIV $4 -x, y-1/2, -z
HTAB O1 O7_$4
TEMP 20
WGHT    0.020000    0.342000
BASF   0.00429
FVAR       0.73394
MOLE 1
NI1   5    0.008441    0.543330    0.008961    11.00000    0.02795    0.01576 =
         0.02758   -0.00029    0.01018    0.00000
MOLE 2
C1    1    0.539612    0.711374    0.905300    11.00000    0.04281    0.04234 =
         0.03863   -0.01023    0.00310   -0.00579
AFIX   3
H1A   2    0.613849    0.614082    0.923005    11.00000   -1.50000
H1B   2    0.495922    0.702464    0.974806    11.00000   -1.50000
H1C   2    0.584506    0.834743    0.911312    11.00000   -1.50000
AFIX   0
C2    1    0.172196    0.785041    0.596799    11.00000    0.04101    0.06415 =
         0.05536    0.01486    0.00957    0.01819
AFIX   3
H2A   2    0.091453    0.734336    0.619375    11.00000   -1.20000
H2B   2    0.137263    0.899131    0.539681    11.00000   -1.20000
AFIX   0
C3    1    0.304212    0.834177    0.734133    11.00000    0.05647    0.03890 =
         0.05086   -0.00137    0.02236    0.02146
AFIX   3
H3A   2    0.343281    0.958752    0.725360    11.00000   -1.20000
H3B   2    0.272517    0.838096    0.813288    11.00000   -1.20000
AFIX   0
C4    1    0.247838    0.450844    0.598189    11.00000    0.03992    0.05359 =
         0.03366   -0.00941    0.00958   -0.00681
AFIX   3
H4    2    0.153847    0.401764    0.598127    11.00000   -1.20000
AFIX   0
C5    1    0.354719    0.490825    0.749478    11.00000    0.04363    0.02839 =
         0.03255   -0.00164    0.00972   -0.00864
AFIX   3
H5A   2    0.301929    0.483117    0.812712    11.00000   -1.20000
H5B   2    0.432464    0.395044    0.778763    11.00000   -1.20000
AFIX   0
C6    1    0.221586    0.638471    0.515411    11.00000    0.03960    0.06891 =
         0.02795    0.00358    0.00075    0.01517
AFIX   3
H6A   2    0.143696    0.620911    0.420728    11.00000   -1.20000
AFIX   0
C7    1    0.362709    0.703346    0.502079    11.00000    0.08310    0.07232 =
         0.02930    0.00666    0.02467    0.00867
AFIX   3
H7A   2    0.349900    0.830913    0.462056    11.00000   -1.20000
H7B   2    0.387774    0.618055    0.439735    11.00000   -1.20000
AFIX   0
C8    1    0.486092    0.703164    0.649629    11.00000    0.04903    0.05167 =
         0.06643   -0.00052    0.03602   -0.00599
AFIX   3
H8A   2    0.552943    0.597366    0.657596    11.00000   -1.20000
H8B   2    0.542494    0.820781    0.664125    11.00000   -1.20000
AFIX   0
N1    3    0.422424    0.685017    0.760400    11.00000    0.02651    0.02880 =
         0.03507   -0.00628    0.01212    0.00077
MOLE 1
N2    3    0.197936    0.714626    0.073869    11.00000    0.02407    0.02467 =
         0.03476    0.00127    0.00761    0.00113
N3    3   -0.086029    0.711620    0.119720    11.00000    0.02821    0.02348 =
         0.02908   -0.00147    0.00740   -0.00265
N4    3   -0.092214    0.702254   -0.178774    11.00000    0.03503    0.02554 =
         0.02329   -0.00222    0.00724   -0.00427
MOLE 2
O1    4    0.317344    0.308784    0.543739    11.00000    0.06459    0.05772 =
         0.04981   -0.02418    0.00502    0.00695
AFIX   3
H1    2    0.258825    0.272406    0.465885    11.00000   -1.50000
AFIX   0
MOLE 1
O2    4    0.322567    0.650297    0.121378    11.00000    0.03146    0.03592 =
         0.07883    0.00404    0.01101    0.00895
O3    4    0.103770    0.380516    0.187891    11.00000    0.04854    0.01845 =
         0.03016   -0.00393    0.00666    0.00053
O4    4    0.104798    0.390021   -0.101419    11.00000    0.04481    0.02041 =
         0.04706    0.00174    0.02676    0.00122
O5    4   -0.186533    0.393947   -0.059715    11.00000    0.03555    0.01729 =
         0.05067    0.00062    0.01347    0.00373
MOLE 2
O6    4   -0.135529    0.640951    0.201462    11.00000    0.06840    0.03089 =
         0.05739    0.00468    0.04627   -0.00498
O7    4   -0.144642    0.614755   -0.292452    11.00000    0.06921    0.03367 =
         0.02561   -0.00537    0.00404    0.00261
HKLF 4

REM  P21 in P2(1)
REM R1 =  0.0541 for    2405 Fo > 4sig(Fo)  and  0.0795 for all    3120 data
REM    182 parameters refined using      1 restraints

END

WGHT      0.0000      0.0000

REM Highest difference peak  0.512,  deepest hole -0.469,  1-sigma level  0.094
Q1    1  -0.1550  0.5444 -0.0839  11.00000  0.05    0.51
Q2    1   0.1674  0.5441  0.0975  11.00000  0.05    0.48
Q3    1   0.2581  0.7697  0.2650  11.00000  0.05    0.39
Q4    1   0.0895  0.5508  0.4781  11.00000  0.05    0.39
Q5    1  -0.0261  0.5412  0.2274  11.00000  0.05    0.39
;
_shelx_res_checksum              24513
_shelx_hkl_file
;
   2   0   0  134.12   12.17
  -2   0   0  156.21   12.47
   3   0   0   53.74    7.18
  -3   0   0   56.58    7.26
   4   0   0    2.68    3.49
  -4   0   0   -2.62    3.75
  -5   0   0   40.72    7.79
  -5   0   0   49.88    7.69
  -5   0   0   62.95    8.89
  -6   0   0  524.00   44.16
  -6   0   0  531.50   43.75
  -6   0   0  584.37   42.51
  -7   0   0  124.63   16.27
  -7   0   0  158.40   15.40
  -7   0   0  135.20   16.46
  -8   0   0   71.59   12.08
  -8   0   0   57.44    9.80
  -8   0   0   63.49   11.40
  -9   0   0  233.10   22.79
  -9   0   0  308.59   28.09
 -10   0   0  110.96   13.38
 -10   0   0  158.11   19.72
 -11   0   0   72.45   14.99
 -12   0   0   70.54   15.37
   0   1   0    0.57    2.42
   0  -1   0   -3.49    2.51
   1  -1   0  370.69   27.24
  -1  -1   0  393.28   27.27
  -2  -1   0 1326.18   90.70
   2  -1   0 1259.53   90.60
  -2   1   0 1293.57   89.96
  -3   1   0  896.94   63.73
  -3  -1   0  911.26   64.49
   3  -1   0  869.57   64.32
  -4   1   0  608.01   48.36
  -4  -1   0  691.28   49.57
   4  -1   0  684.53   49.58
  -5  -1   0  124.71   14.21
  -5  -1   0  123.99   13.61
  -5   1   0  133.66   13.16
  -5   1   0  115.47   10.01
  -6  -1   0  271.94   27.16
  -6   1   0  302.62   23.16
  -6  -1   0  337.71   27.88
  -6   1   0  334.35   27.05
  -7   1   0  161.54   18.72
  -7  -1   0  138.08   18.64
  -7   1   0  201.65   20.53
  -7  -1   0  160.91   19.40
  -7   1   0  185.91   14.50
  -7  -1   0  207.07   20.14
  -8   1   0   37.26    9.13
  -8  -1   0   27.78   10.14
  -8   1   0   52.27   10.87
  -8   1   0   34.75    5.11
  -8  -1   0   16.44    7.91
  -8  -1   0   21.17    8.94
  -9  -1   0   31.57    9.01
  -9   1   0   23.67    9.23
  -9  -1   0   24.89   10.85
 -10   1   0   49.73   12.36
 -10  -1   0   72.04   14.51
 -10  -1   0   42.90   11.12
 -11   1   0    6.42    9.76
 -11  -1   0   41.05   12.89
 -12   1   0    3.49   10.28
 -12  -1   0   16.01   13.23
   0   2   0 1353.78   96.47
   1  -2   0 1371.33   93.08
  -1  -2   0 1439.23   94.57
  -1   2   0 1341.51   93.51
  -1  -2   0 1311.84   90.86
  -1   2   0 1256.76   90.83
   2  -2   0 1067.43   76.18
  -2   2   0 1132.02   76.43
  -2  -2   0 1051.64   76.14
  -3  -2   0 1092.21   76.48
  -3   2   0 1029.57   75.16
  -3   2   0 1111.16   76.69
  -4   2   0  643.32   50.45
  -4   2   0  697.84   49.43
  -4  -2   0  672.90   50.53
  -5  -2   0  912.27   66.22
  -5   2   0  866.86   63.34
  -5  -2   0  846.41   63.24
  -5   2   0  787.04   61.50
  -6  -2   0  310.50   30.87
  -6   2   0  425.45   31.03
  -6  -2   0  383.25   34.56
  -6   2   0  360.34   31.73
  -7   2   0  310.91   24.96
  -7  -2   0  269.71   25.56
  -7  -2   0  214.57   25.94
  -7   2   0  240.53   25.31
  -8  -2   0  349.65   29.97
  -8  -2   0  248.81   28.76
  -8   2   0  285.42   27.14
  -8   2   0  287.51   28.70
  -9   2   0  102.33   14.83
  -9  -2   0   73.39   15.19
 -10  -2   0   12.91   11.57
 -10  -2   0   18.60    9.78
 -10   2   0   16.49   10.38
 -11  -2   0    8.07   10.88
 -11   2   0   18.21   11.21
 -11  -2   0   -3.11   11.10
 -12   2   0   26.26   11.21
   0  -3   0   -1.74    5.80
   0   3   0  -14.82    6.12
  -1  -3   0   88.76    7.02
  -1   3   0   86.42   11.28
  -1   3   0   83.84    7.01
   1  -3   0   87.13   11.07
  -1  -3   0   98.95   12.86
  -2  -3   0  425.50   32.32
  -2   3   0  446.94   35.57
   2  -3   0  454.48   34.53
  -2  -3   0  436.32   37.89
  -2   3   0  439.13   32.42
  -2  -3   0  471.66   37.47
  -3   3   0   40.68    6.11
   3  -3   0   52.74    6.64
  -3  -3   0   27.59    9.96
  -3   3   0   33.48    6.98
  -3  -3   0   39.89    6.05
  -4  -3   0   88.20   10.20
  -4   3   0   92.79   10.23
  -4  -3   0   63.77   13.96
  -5   3   0   75.38   10.41
  -5  -3   0   78.61   10.09
  -5   3   0   76.47    8.79
  -5  -3   0   45.63   12.44
  -6   3   0   50.04    8.15
  -6  -3   0   60.31   10.05
  -6   3   0   65.82   10.71
  -6  -3   0   32.97   11.25
  -7  -3   0   96.01   14.15
  -7  -3   0  106.17   18.22
  -7   3   0  102.14   12.81
  -7  -3   0   84.50   14.93
  -8  -3   0   19.69    8.41
  -8   3   0   18.99    8.31
  -8  -3   0   26.77    8.20
  -8  -3   0   26.26   12.22
  -8   3   0   19.19    7.69
  -9  -3   0   43.13   13.83
  -9   3   0   17.65    8.57
  -9  -3   0   21.86   11.37
 -10  -3   0    4.03   11.90
 -10   3   0   29.79    9.99
 -11  -3   0   11.93   12.87
 -11   3   0    5.49    9.45
 -12   3   0    3.00   10.49
   0  -4   0   39.53   10.28
   1  -4   0  418.21   35.94
  -1   4   0  442.71   36.53
  -2  -4   0  509.50   43.41
  -2   4   0  520.67   41.52
  -2   4   0  497.50   36.44
  -2  -4   0  513.05   36.47
   2  -4   0  474.98   40.17
  -3  -4   0 1206.67   89.37
   3  -4   0 1113.06   84.14
  -3   4   0 1146.77   82.52
  -3  -4   0 1182.97   82.61
  -3  -4   0 1109.90   89.49
  -3   4   0 1200.55   86.39
  -4   4   0  826.08   62.19
  -4  -4   0  776.02   66.34
  -4  -4   0  812.35   59.56
  -4   4   0  808.30   59.62
  -4  -4   0  779.30   64.99
  -5  -4   0  435.16   38.66
  -5   4   0  381.29   33.89
  -5  -4   0  424.85   39.84
  -5  -4   0  397.71   32.88
  -5   4   0  391.16   32.79
  -6  -4   0  353.65   34.68
  -6  -4   0  359.77   37.20
  -6  -4   0  382.01   32.76
  -6  -4   0  336.35   37.58
  -6   4   0  462.91   34.13
  -7   4   0  252.62   24.24
  -7  -4   0  230.94   23.61
  -7  -4   0  195.85   28.05
  -7  -4   0  250.37   26.27
  -8  -4   0  108.69   17.62
  -8   4   0   80.51   13.56
  -8  -4   0   83.52   18.78
  -8  -4   0   66.40   13.33
  -9  -4   0   16.98   11.85
  -9  -4   0   27.65   14.61
  -9  -4   0   11.64    9.13
 -10  -4   0    4.77   13.68
 -10  -4   0   21.17   12.16
 -10  -4   0   21.97   12.27
 -11  -4   0   17.99   14.28
 -11  -4   0   19.14   14.84
   0  -5   0   -2.92    8.80
   1  -5   0   39.66   10.97
  -1  -5   0   32.07   11.29
   2  -5   0  287.37   27.99
  -2   5   0  314.97   21.43
  -2  -5   0  345.00   31.81
  -2  -5   0  285.64   21.21
  -2  -5   0  287.18   21.42
  -2   5   0  294.84   21.52
  -2   5   0  311.94   28.95
  -3   5   0  132.47   12.34
   3  -5   0  141.20   16.34
  -3  -5   0  174.10   21.41
  -3  -5   0  135.32   21.08
  -3  -5   0  135.96   12.44
  -3   5   0  162.45   18.52
  -4   5   0   80.49   13.05
  -4   5   0   58.71    8.51
  -4  -5   0   80.72    9.14
  -4  -5   0   64.45   16.11
  -4  -5   0   83.27   16.06
  -5  -5   0   14.65    5.54
  -5  -5   0   16.15    9.52
  -5   5   0   37.68   10.11
  -5  -5   0   12.86   11.63
  -5   5   0   22.19    6.46
  -6   5   0   40.76    8.81
  -6  -5   0   55.74   15.38
  -6   5   0   47.75   10.82
  -6  -5   0   59.07   16.25
  -6  -5   0   56.01   12.69
  -6  -5   0   47.60    9.37
  -7  -5   0   58.73   16.33
  -7  -5   0   76.48   17.81
  -7   5   0   50.42   10.96
  -7   5   0   48.06   10.09
  -7  -5   0   69.71   11.68
  -7  -5   0   69.68   13.83
  -8  -5   0   33.24   12.49
  -8  -5   0   28.36   14.15
  -8   5   0   52.45   10.36
  -8   5   0   30.29   10.42
  -8  -5   0   55.24   17.14
  -9  -5   0   14.72   12.88
  -9  -5   0   40.63   13.21
  -9  -5   0    5.27   12.88
 -10  -5   0   10.88   15.56
 -10  -5   0   -5.03   12.22
 -11  -5   0   15.25   12.38
 -11  -5   0    5.50   13.89
   0  -6   0  843.31   64.96
   0  -6   0  746.77   55.42
  -1  -6   0  485.13   47.55
   1  -6   0  512.09   36.91
   1  -6   0  566.75   46.98
  -2  -6   0  695.76   59.68
   2  -6   0  649.10   55.29
  -3  -6   0  164.40   11.87
  -3  -6   0  172.04   12.32
   3  -6   0  175.64   19.47
  -3   6   0  138.33   11.81
  -3   6   0  146.09   19.70
  -3   6   0  125.94   12.01
  -3  -6   0  155.95   22.74
  -4  -6   0  116.87   21.49
  -4  -6   0  133.55   12.24
  -4   6   0  148.28   12.73
  -4  -6   0  133.38   16.51
  -4  -6   0  102.72   21.14
  -4  -6   0  142.97   13.17
  -4   6   0  150.68   18.93
  -4   6   0  121.59   12.53
  -5  -6   0  132.96   22.85
  -5  -6   0  101.49   15.60
  -5  -6   0   84.89   19.02
  -5   6   0  103.68   11.84
  -5  -6   0   90.59   11.52
  -5   6   0  126.45   16.97
  -6   6   0   23.35    7.28
  -6  -6   0   39.58    8.22
  -6  -6   0   20.66   14.09
  -6  -6   0   44.76   14.77
  -6   6   0   35.05   10.64
  -6  -6   0   31.09   10.49
  -7  -6   0   43.25   15.98
  -7  -6   0   46.90   15.80
  -7  -6   0   17.39    9.82
  -7   6   0   17.31    8.04
  -7   6   0   31.79   10.27
  -8  -6   0   21.64   14.63
  -8  -6   0   46.12   13.26
  -9  -6   0  116.62   23.32
  -9  -6   0   58.76   20.44
  -9  -6   0   62.89   16.53
   0  -7   0  -12.46   11.55
   0  -7   0   -1.89    3.84
  -1  -7   0   -8.96   12.45
  -1  -7   0    1.38    4.84
   1  -7   0   -3.81   10.89
   1  -7   0    3.19    1.80
  -2  -7   0    8.84    5.20
   2  -7   0  -13.78    9.85
  -2  -7   0   -4.79   11.63
  -3  -7   0   30.42   15.85
  -3  -7   0   72.68   17.18
   3  -7   0   67.04   13.96
  -3  -7   0   68.55   11.32
  -4   7   0   26.82    3.65
  -4  -7   0   28.47    3.50
  -4   7   0   21.01    3.56
  -4  -7   0   10.23   12.07
  -4  -7   0   40.14    9.58
  -5   7   0    6.71    3.64
  -5  -7   0    5.59   13.60
  -5  -7   0   -5.38   11.47
  -5  -7   0    8.62    9.30
  -5   7   0    6.19    3.89
  -6  -7   0   22.67   10.70
  -6  -7   0   -5.84   14.20
  -6   7   0    1.46    4.39
  -6  -7   0   -5.64   13.18
  -7   7   0    9.14    6.42
  -7  -7   0   -6.06   14.74
  -7  -7   0   10.79   11.64
  -7  -7   0    5.88   12.55
  -8  -7   0   18.21   16.40
  -8  -7   0   15.77   11.33
   0  -8   0   85.03   20.47
  -1  -8   0  146.90   14.26
  -1  -8   0  111.98   23.57
   1  -8   0  112.82   21.67
  -2  -8   0  123.59   14.82
   2  -8   0  141.88   21.07
  -2  -8   0  125.11   24.79
  -3  -8   0  126.66   23.92
   3  -8   0   84.16   17.60
  -4  -8   0  136.78   17.26
  -4  -8   0   79.73   20.60
  -4  -8   0   90.59   24.89
  -5  -8   0   88.62   14.94
  -5  -8   0   89.73   21.44
  -6  -8   0   79.61   16.27
  -7  -8   0  124.64   20.21
   0  -9   0   -5.24   14.12
  -1  -9   0   11.27   14.23
   1  -9   0    4.81   12.58
   2  -9   0   -4.37   12.15
  -2  -9   0    6.02   16.23
   3  -9   0    7.83   10.89
   1 -10   0   36.26   15.81
   2 -10   0   28.25   15.01
 -11   0  -1   40.22   13.10
 -10   0  -1  134.45   19.23
 -10   0  -1   93.77   13.13
  -9   0  -1  152.80   20.12
  -9   0  -1  141.54   16.47
  -8   0  -1   67.41   10.99
  -8   0  -1   57.57   12.26
  -8   0  -1   73.85   12.93
  -7   0  -1  116.27   15.54
  -7   0  -1  110.87   15.02
  -6   0  -1  232.96   24.59
  -6   0  -1  311.99   26.15
  -5   0  -1  419.27   33.36
  -5   0  -1  374.31   32.63
  -4   0  -1  332.47   27.58
  -3   0  -1  370.99   29.50
   2   0   1 1052.94   74.76
   1   0   1 5102.15  346.44
  -1   0  -1 4977.78  346.46
  -2   0   1 4953.70  337.04
   2   0  -1 4839.18  337.13
  -3   0   1  282.60   21.75
  -3   0   1  266.96   22.55
   3   0  -1  289.15   22.76
   3   0  -1  295.89   21.91
  -4   0   1  204.95   16.63
   4   0  -1  196.77   17.52
  -4   0   1  180.41   17.41
   5   0  -1  267.91   23.75
  -5   0   1  293.41   24.33
  -5   0   1  271.65   22.51
   6   0  -1  334.93   29.43
  -6   0   1  333.94   29.40
  -6   0   1  343.83   27.38
   7   0  -1  312.61   28.19
  -7   0   1  299.69   25.42
  -7   0   1  299.37   27.98
  -8   0   1   39.51    9.56
  -8   0   1   23.72    8.03
  -8   0   1   21.32    6.60
  -9   0   1  190.94   20.17
  -9   0   1  131.80   15.34
 -10   0   1  197.83   22.84
 -11   0   1  124.95   18.92
 -12   0   1   24.88   11.11
 -12   1  -1  -11.08   13.89
 -11   1  -1   20.78   11.08
 -11  -1  -1   31.26   13.54
 -10  -1  -1   43.84   11.11
 -10  -1  -1   39.71   13.86
 -10   1  -1   44.51   12.84
  -9   1  -1    8.59    9.33
  -9  -1  -1   21.26    9.39
  -9   1  -1   17.13    4.79
  -9  -1  -1   29.62   11.16
  -8   1  -1   66.34   12.33
  -8   1  -1   39.91    6.75
  -8  -1  -1   52.65   11.94
  -7   1  -1  107.65   13.66
  -7   1  -1   90.51   13.06
  -7  -1  -1   78.80   12.71
  -7   1  -1   64.20    8.74
  -7  -1  -1   60.39   12.57
  -6   1  -1   88.24   12.93
  -6  -1  -1   75.92   11.92
  -6   1  -1  106.30   13.14
  -5  -1  -1   28.30    6.77
  -5   1  -1   -1.62    5.49
  -4  -1  -1  185.11   17.70
  -4   1  -1  189.65   17.41
  -3  -1  -1  635.07   45.71
   3  -1   1  610.19   44.40
  -3   1  -1  569.61   44.38
  -3  -1  -1  591.04   44.86
  -2  -1  -1  793.87   56.80
   2  -1   1  771.12   55.80
  -2   1  -1  780.78   55.93
  -1  -1  -1  155.19   13.16
   1  -1   1  158.12   12.66
   0   1  -1  468.10   33.55
   0  -1  -1  459.74   32.37
   0  -1   1  444.89   32.31
   0  -1  -1  464.48   32.61
  -1  -1   1  613.82   44.87
  -1  -1   1  670.05   46.50
   1   1  -1  657.95   46.43
   1  -1  -1  633.88   44.89
  -2  -1   1   39.70    5.17
   2  -1  -1   32.82    4.88
  -2  -1   1   32.77    6.64
  -2  -1   1   35.23    5.54
  -2   1   1   36.36    3.96
   3  -1  -1 1458.12  101.21
  -3  -1   1 1471.97  102.32
  -3  -1   1 1379.37  101.09
  -4  -1   1  178.99   16.29
  -4  -1   1  158.04   15.03
   4  -1  -1  144.04   14.50
   5  -1  -1   90.46   11.13
  -5  -1   1   95.67   11.94
  -5  -1   1   97.09   11.36
  -6  -1   1    7.70    5.81
   6  -1  -1   -1.94    4.14
  -6  -1   1    7.56    6.12
  -7  -1   1  189.12   20.62
   7  -1  -1  214.51   21.02
  -7   1   1  189.08   19.28
  -7  -1   1  203.89   20.91
  -7   1   1  211.48   21.26
  -8   1   1   47.18    9.92
  -8   1   1   82.02   13.23
  -8  -1   1   66.28   11.50
  -8  -1   1   73.08   12.21
  -9  -1   1   22.72    8.81
  -9  -1   1   29.56    9.89
  -9   1   1   19.61    7.74
 -10  -1   1   40.48    9.87
 -10   1   1   27.48    9.19
 -10  -1   1   36.04   11.71
 -11   1   1   39.37   10.75
 -11  -1   1   10.74    9.51
 -11  -1   1   30.07    9.55
 -12  -1   1   30.87   12.79
 -12   1   1    6.58    9.73
 -13   1   1    3.53   11.89
 -12   2  -1   41.24   13.80
 -11  -2  -1    4.19   11.75
 -11   2  -1   45.01   13.27
 -10  -2  -1   38.80   12.98
 -10   2  -1   11.84   11.13
 -10  -2  -1   47.88   13.01
  -9   2  -1   64.49   13.49
  -9  -2  -1   58.38   15.06
  -8   2  -1   55.15   11.58
  -8  -2  -1   53.44   12.88
  -7   2  -1  241.98   23.49
  -7  -2  -1  194.57   22.51
  -7   2  -1  233.03   22.22
  -6   2  -1  674.93   54.20
  -6  -2  -1  733.84   55.45
  -6  -2  -1  675.36   56.29
  -6   2  -1  733.19   55.38
  -5  -2  -1  322.98   29.81
  -5   2  -1  324.09   28.47
  -5  -2  -1  381.20   29.24
  -5   2  -1  366.31   28.52
  -5   2  -1  323.56   24.50
  -4   2  -1  484.74   38.65
  -4   2  -1  495.73   35.80
  -4  -2  -1  535.92   39.07
  -4  -2  -1  484.08   39.82
  -4   2  -1  477.51   37.87
   3  -2   1 1918.82  135.15
  -3  -2  -1 2004.51  137.52
  -3   2  -1 1947.02  134.69
  -3   2  -1 1948.73  135.39
  -3  -2  -1 1848.08  135.93
  -3   2  -1 1953.27  136.19
   2  -2   1  699.34   50.28
  -2  -2  -1  673.92   50.86
  -2   2  -1  700.82   50.98
  -2   2  -1  739.80   51.06
  -2  -2  -1  708.47   52.03
  -1   2  -1  537.90   44.50
  -1  -2  -1  619.48   43.28
   1  -2   1  633.81   44.88
  -1  -2  -1  624.91   44.32
   0  -2  -1 1003.40   71.49
   0  -2   1  999.94   70.74
   0   2  -1 1086.90   74.05
   0   2  -1 1028.40   70.79
   0   2  -1 1033.01   74.01
   0  -2  -1 1013.34   70.85
   0   2   1 1035.32   70.89
   1   2  -1  760.38   57.90
   1   2  -1  819.84   54.45
   1  -2  -1  725.17   54.27
  -1   2   1  756.62   54.22
  -1   2   1  805.20   54.48
   1  -2  -1  782.66   56.69
   1   2  -1  786.97   57.57
  -1  -2   1  800.38   57.67
  -2  -2   1  860.19   58.39
  -2   2   1  807.78   59.05
   2   2  -1  744.72   58.16
   2  -2  -1  853.39   58.30
  -2   2   1  777.15   58.16
  -2  -2   1  902.13   62.03
  -2  -2   1  881.83   61.13
  -3  -2   1 1654.94  115.63
  -3   2   1 1655.67  113.72
  -3  -2   1 1636.90  117.67
  -3   2   1 1653.35  115.26
   3   2  -1 1615.64  115.47
  -3  -2   1 1694.26  118.70
  -3   2   1 1648.93  115.64
   3  -2  -1 1587.17  115.37
   4   2  -1  984.67   68.02
  -4  -2   1  828.19   67.28
  -4  -2   1  917.46   70.57
   4  -2  -1  897.14   67.54
  -4   2   1 1009.44   68.21
  -4   2   1  942.14   65.97
  -5  -2   1  507.79   39.80
   5   2  -1  437.17   36.25
   5  -2  -1  483.69   36.66
  -5   2   1  409.56   34.37
  -5  -2   1  486.87   36.74
  -5   2   1  467.48   36.74
  -6   2   1  476.87   38.02
   6  -2  -1  501.54   39.93
  -6  -2   1  493.66   41.97
  -6  -2   1  481.32   39.84
  -6   2   1  485.59   39.96
   6   2  -1  512.05   40.13
  -7   2   1  508.03   41.34
   7   2  -1  510.06   41.39
   7  -2  -1  500.92   41.24
  -7  -2   1  479.98   40.97
  -7   2   1  513.28   39.28
  -7  -2   1  422.59   41.75
  -8  -2   1  297.78   27.73
  -8   2   1  313.51   26.06
  -8  -2   1  237.44   27.83
  -8   2   1  254.29   27.03
  -9  -2   1   45.65   12.44
  -9   2   1   53.57   10.87
 -10   2   1   40.36   11.48
 -10  -2   1   50.02   12.81
 -10  -2   1   76.69   14.04
 -11   2   1   19.62    9.13
 -11  -2   1   12.47    9.70
 -11  -2   1   23.36   11.50
 -11  -2   1   11.94   10.51
 -12   2   1   15.45   10.26
 -13   2   1   40.21   12.47
 -12   3  -1   35.06   12.57
 -11   3  -1   -2.95    9.33
 -10  -3  -1    8.43   12.06
 -10   3  -1   -2.69    8.51
  -9  -3  -1   37.44   14.96
  -9   3  -1   24.19    9.56
  -9  -3  -1   26.63   11.04
  -8  -3  -1   37.86   12.03
  -8   3  -1   32.08    9.26
  -8  -3  -1   23.97   12.81
  -7   3  -1   79.63   12.26
  -7  -3  -1  105.42   17.43
  -7  -3  -1   96.08   14.51
  -7  -3  -1   79.87   14.83
  -7   3  -1  110.09   14.34
  -6   3  -1   12.67    6.30
  -6   3  -1   15.66    7.01
  -6  -3  -1   18.87    7.95
  -6  -3  -1   21.62    8.62
  -5  -3  -1  133.28   16.45
  -5   3  -1  134.21   14.87
  -5  -3  -1  146.57   15.36
  -4  -3  -1   66.44    9.87
  -4   3  -1   90.52   10.40
  -4   3  -1   82.12    8.63
  -4  -3  -1   85.13   11.86
  -3  -3  -1    6.53    5.41
   3  -3   1    5.84    3.26
  -3   3  -1   16.54    5.48
  -3  -3  -1    1.09    3.41
  -3   3  -1   10.03    4.07
  -2   3  -1  188.07   15.69
  -2  -3  -1  183.13   15.59
   2  -3   1  213.54   15.40
  -2  -3  -1  186.39   17.26
  -2   3  -1  168.78   17.29
  -1   3  -1   -0.49    2.10
  -1   3  -1    2.49    2.04
  -1  -3  -1    1.48    1.91
  -1   3  -1    4.52    6.02
   1  -3   1    5.89    5.35
  -1   3  -1    1.71    6.10
  -1  -3  -1    2.42    2.14
  -1  -3  -1    4.82    3.73
   0   3  -1  123.58   15.10
   0  -3   1  131.80   14.92
   0   3  -1  127.97   14.94
   0  -3  -1  150.02   10.59
   0  -3  -1  131.24   11.79
  -1   3   1  177.47   12.93
   1  -3  -1  171.62   12.87
  -1  -3   1  149.28   17.26
   1   3  -1  166.01   12.88
  -1  -3   1  180.26   12.79
   1  -3  -1  183.23   17.39
   1  -3  -1  174.32   12.88
   1   3  -1  141.56   17.04
   2   3  -1  265.80   20.52
  -2  -3   1  278.10   25.91
   2  -3  -1  261.00   20.45
  -2  -3   1  285.91   20.84
  -2   3   1  250.03   23.04
  -2  -3   1  293.15   25.47
  -2   3   1  273.43   20.72
   3   3  -1  196.81   16.50
  -3  -3   1  193.03   16.59
   3  -3  -1  190.88   16.95
  -3   3   1  193.20   16.63
  -3  -3   1  182.06   20.50
  -3   3   1  191.24   17.95
  -3  -3   1  211.97   20.97
   3  -3  -1  211.47   16.63
  -4   3   1   24.34    5.79
  -4   3   1   10.19    4.97
   4   3  -1   22.27    4.69
  -4   3   1   16.24    3.09
   4  -3  -1   18.42    4.51
  -4  -3   1   25.30    5.69
   4  -3  -1    5.18    3.27
  -4  -3   1   11.69    6.95
  -5   3   1   11.87    4.04
  -5  -3   1    5.78    8.32
  -5   3   1   17.52    5.68
  -5   3   1   20.97    5.73
   5   3  -1   15.85    4.99
  -5  -3   1   20.21    8.23
  -5  -3   1    7.96    4.90
   5  -3  -1   15.74    5.29
   6   3  -1   92.96   11.95
  -6  -3   1   71.27   13.57
  -6   3   1  111.64   13.03
   6  -3  -1   71.29   11.03
  -6  -3   1   78.41   15.15
  -6  -3   1   72.96   11.45
  -6   3   1  117.51   10.75
  -7  -3   1   30.43   11.21
  -7   3   1   34.51    9.11
  -7  -3   1   38.45   10.27
  -7  -3   1   65.21   10.79
  -7   3   1   26.59    7.05
  -8   3   1   28.86    7.65
  -8   3   1   21.08    7.80
  -8  -3   1    2.58    6.57
  -8  -3   1   10.84   10.37
  -8  -3   1    6.33    7.75
  -9  -3   1   22.65   12.80
  -9  -3   1   33.59   11.47
  -9   3   1   46.13    9.81
 -10  -3   1    3.53   10.37
 -10   3   1    2.31    8.11
 -10  -3   1  -19.24   11.61
 -11  -3   1    7.34    9.89
 -11  -3   1    3.82   12.60
 -11   3   1   -7.78   10.04
 -12   3   1   11.38    9.42
 -11  -4  -1   14.98   15.81
 -11  -4  -1    9.50   12.43
 -10  -4  -1   -9.89   14.53
 -10  -4  -1   13.16   13.22
  -9  -4  -1   24.10   14.64
  -9  -4  -1   28.24   13.17
  -8  -4  -1   83.45   20.56
  -8  -4  -1  190.54   22.40
  -7  -4  -1  223.50   22.80
  -7  -4  -1  180.65   23.56
  -7  -4  -1  202.52   27.51
  -7   4  -1  219.11   22.35
  -6  -4  -1  107.52   16.40
  -6  -4  -1  106.16   14.12
  -6   4  -1   94.07   13.52
  -5  -4  -1  225.98   22.45
  -5   4  -1  259.29   23.17
  -5  -4  -1  303.89   27.02
  -4  -4  -1  943.95   66.98
  -4  -4  -1  826.39   63.69
  -4   4  -1  853.85   63.92
  -3  -4  -1  408.15   29.47
  -3  -4  -1  367.51   31.67
  -3   4  -1  438.64   33.96
   3  -4   1  358.00   27.52
  -3   4  -1  346.70   29.05
  -2  -4  -1  678.77   56.70
  -2  -4  -1  696.88   50.28
  -2   4  -1  688.68   50.33
  -2  -4  -1  670.28   52.53
  -2  -4  -1  648.98   50.08
   2  -4   1  776.57   54.32
   2  -4   1  705.21   49.70
  -2   4  -1  768.20   55.78
  -2   4  -1  720.99   50.32
  -1  -4  -1  632.99   43.12
  -1  -4  -1  613.75   43.10
   1  -4   1  653.54   48.86
  -1   4  -1  599.11   49.19
  -1   4  -1  587.99   43.11
  -1  -4  -1  643.65   45.73
  -1   4  -1  590.87   42.95
   0   4  -1   48.09    9.66
   0  -4   1   63.78   10.77
   0  -4  -1   49.14    6.07
   0  -4  -1   50.77   10.51
  -1  -4   1  229.21   22.96
   1  -4  -1  213.81   16.10
   1  -4  -1  187.44   20.99
   1   4  -1  246.27   22.96
  -2  -4   1  767.96   52.56
   2  -4  -1  702.26   56.75
  -2   4   1  723.03   52.49
  -2  -4   1  743.63   59.50
  -3   4   1  985.78   70.26
  -3   4   1  998.01   73.69
  -3  -4   1  870.61   75.55
   3   4  -1  995.23   70.11
  -3  -4   1 1055.60   77.69
  -3  -4   1  980.27   70.27
   3  -4  -1  976.00   72.54
  -4  -4   1  419.59   40.42
  -4   4   1  496.21   38.02
  -4  -4   1  457.29   35.73
  -4  -4   1  502.37   42.94
   4  -4  -1  457.02   35.76
  -4   4   1  452.53   35.60
  -5  -4   1  727.27   59.42
  -5   4   1  725.64   52.74
  -5  -4   1  633.29   56.75
  -5  -4   1  707.65   52.81
  -5   4   1  653.92   53.14
  -6  -4   1  108.90   19.16
  -6  -4   1  121.15   14.71
  -6  -4   1  142.64   19.69
  -6   4   1  151.14   15.38
  -6   4   1  123.33   15.00
  -7  -4   1   74.21   11.48
  -7   4   1   81.37   12.86
  -7   4   1   86.86   11.77
  -7   4   1   86.75    9.71
  -7  -4   1   56.31   15.06
  -7  -4   1   61.34   13.93
  -8  -4   1  303.06   34.72
  -8  -4   1  343.44   30.26
  -8   4   1  314.24   29.89
  -8   4   1  284.36   25.54
  -8  -4   1  282.00   32.85
  -8   4   1  349.96   28.23
  -9  -4   1   71.83   17.52
  -9  -4   1   62.54   16.69
  -9   4   1   71.72   10.62
  -9  -4   1   85.86   16.29
 -10  -4   1   13.77   14.04
 -10  -4   1   62.13   15.48
 -10   4   1   36.33    9.16
 -10  -4   1   32.74   13.16
 -11  -4   1   13.83   12.88
 -11   4   1   26.20    9.40
 -11  -4   1   12.74   11.88
 -10  -5  -1   10.53   13.77
 -10  -5  -1   16.85   16.09
  -9  -5  -1    4.21   11.73
  -9  -5  -1   10.87   14.19
  -9  -5  -1   10.32   12.06
  -8  -5  -1   47.08   17.34
  -8  -5  -1   30.77   11.68
  -8  -5  -1    4.99   10.20
  -7   5  -1   34.09   11.24
  -7  -5  -1   65.12   18.64
  -7  -5  -1   66.85   15.94
  -7  -5  -1   38.15   11.20
  -7   5  -1   19.29    8.13
  -7  -5  -1   31.56    9.25
  -6  -5  -1  125.98   13.85
  -6   5  -1   77.96   14.29
  -6  -5  -1   52.50   12.88
  -6  -5  -1   42.96   16.74
  -6   5  -1   91.71   12.25
  -6  -5  -1   99.34   19.35
  -5  -5  -1   50.77   13.12
  -5  -5  -1   94.88   17.99
  -5   5  -1   49.40   11.87
  -5   5  -1   47.12    8.94
  -5  -5  -1   82.82   10.65
  -5  -5  -1   70.49   13.21
  -4  -5  -1   56.18   11.32
  -4   5  -1   73.54   13.08
  -4  -5  -1   43.10    7.45
  -4  -5  -1   63.15   14.39
  -4   5  -1   72.48    9.12
  -4  -5  -1   60.67    9.21
  -4  -5  -1   76.63   18.59
  -3   5  -1  153.86   14.22
  -3  -5  -1  107.74   20.38
  -3  -5  -1  176.86   22.52
  -3  -5  -1  138.50   16.59
  -3   5  -1  179.65   14.40
  -3   5  -1  184.73   20.17
  -3  -5  -1  171.79   14.58
  -3  -5  -1  150.05   13.90
  -2  -5  -1   49.09    6.06
   2  -5   1   56.46    6.14
  -2   5  -1   63.90    6.33
  -2  -5  -1   60.51    6.32
  -2   5  -1   67.91    6.54
  -2   5  -1   84.57   13.87
  -2  -5  -1   61.60    9.27
   2  -5   1   54.96   10.69
  -1   5  -1   35.82   10.18
  -1  -5  -1   48.20    7.32
   1  -5   1   54.12   11.59
  -1  -5  -1   54.94   12.88
   0  -5   1   22.82    8.64
   0  -5  -1    3.05    7.17
   0  -5  -1   14.44    4.43
   0   5  -1   13.89    7.99
   0  -5  -1    9.41    9.26
   1  -5  -1   34.26   10.99
   1  -5  -1   74.41    6.60
   1  -5  -1   62.27   13.18
  -1  -5   1   68.52   13.72
   2  -5  -1  104.65   14.69
  -2  -5   1   68.23   13.63
  -2   5   1   82.88    6.59
   3  -5  -1   32.24    9.30
  -3  -5   1   41.81    5.40
  -3  -5   1   48.13   12.96
  -3   5   1   35.01    5.24
  -4  -5   1  130.75   19.43
  -4  -5   1  119.91   19.30
  -4   5   1  126.87   15.45
   4  -5  -1  120.51   13.93
  -4   5   1  102.91   11.38
  -4  -5   1  108.85   11.55
  -5  -5   1   12.38   10.72
  -5   5   1   59.00   10.46
  -5  -5   1   26.91   11.87
  -5  -5   1   43.06    7.90
  -5   5   1   37.27    7.68
  -6   5   1  108.34   13.22
  -6  -5   1  109.91   19.46
  -6   5   1  100.85   14.14
  -6  -5   1  113.65   19.76
  -6  -5   1  108.21   13.47
  -7  -5   1   15.75    7.36
  -7  -5   1    8.55   10.04
  -7  -5   1    9.31   14.77
  -7   5   1   19.80    8.06
  -7   5   1   19.74    7.03
  -8  -5   1   17.79    9.81
  -8   5   1   35.59    9.14
  -8  -5   1   44.14   15.29
  -8   5   1   17.10    8.15
  -8  -5   1   22.34   11.05
  -9  -5   1   39.16   12.99
  -9  -5   1    4.63   10.88
  -9  -5   1   20.45   14.26
 -10  -5   1    9.50   11.57
 -10  -5   1   17.07   11.53
 -10  -5   1    5.27   14.66
 -11  -5   1   31.99   16.89
 -11  -5   1    4.82   13.44
  -9  -6  -1    6.01   14.76
  -9  -6  -1   87.54   21.66
  -8  -6  -1   81.33   21.02
  -8  -6  -1   51.79   14.88
  -8  -6  -1   34.17   15.75
  -7   6  -1   48.30   10.45
  -7  -6  -1   66.19   11.13
  -7  -6  -1   50.52   19.32
  -7   6  -1   48.37   14.13
  -7  -6  -1   72.33   14.54
  -7  -6  -1   60.37   18.17
  -6  -6  -1   71.33   15.23
  -6  -6  -1   70.14   19.34
  -6  -6  -1   50.78   10.15
  -6   6  -1   52.71    9.56
  -6  -6  -1   57.32    9.56
  -6   6  -1   67.36   14.92
  -5  -6  -1  170.61   28.51
  -5  -6  -1  154.44   16.83
  -5   6  -1  157.03   16.67
  -5  -6  -1  174.89   16.81
  -5   6  -1  176.92   16.99
  -5  -6  -1  177.62   21.12
  -5  -6  -1  202.68   27.67
  -5   6  -1  165.94   21.91
  -4  -6  -1  174.79   16.46
  -4  -6  -1  157.02   19.54
  -4   6  -1  206.55   23.67
  -4   6  -1  180.76   16.11
  -4  -6  -1  134.66   24.46
  -4   6  -1  198.39   16.66
  -4  -6  -1  187.41   28.47
  -4  -6  -1  170.63   15.93
  -3  -6  -1  103.01    8.87
  -3   6  -1   79.33    8.71
  -3  -6  -1   79.58    8.80
  -3  -6  -1   91.27   13.24
  -3   6  -1  105.03   16.24
  -3  -6  -1   78.53   17.50
  -3   6  -1   99.16    8.95
   2  -6   1   90.11    7.21
   2  -6   1   64.85   13.90
  -2   6  -1   83.23   14.81
  -2  -6  -1   96.52   12.24
  -1  -6  -1  420.00   32.83
   1  -6   1  403.85   38.06
  -1   6  -1  440.47   39.25
  -1  -6  -1  371.46   40.41
  -1  -6  -1  391.93   40.16
   0  -6  -1  922.72   66.95
   0  -6  -1  825.13   74.62
   0  -6  -1 1048.54   77.27
   0  -6   1  973.01   75.50
   1  -6  -1  749.83   52.74
  -1  -6   1  790.89   63.82
   1  -6  -1  705.53   61.83
   2  -6  -1  323.35   32.10
  -2  -6   1  323.57   34.53
  -3  -6   1   85.25   16.31
  -3   6   1   65.36    5.72
   3  -6  -1   62.33   12.88
  -3   6   1   61.20    5.68
  -4  -6   1  178.34   15.19
  -4  -6   1  167.56   25.54
  -4  -6   1  136.91   23.39
  -4   6   1  176.75   15.29
   4  -6  -1  171.90   19.69
  -5  -6   1  164.13   15.49
   5  -6  -1  127.84   16.19
  -5   6   1  158.74   15.09
  -5  -6   1  175.86   24.99
  -5  -6   1  129.32   23.57
  -6  -6   1  129.29   13.33
  -6   6   1   79.64   11.44
  -6   6   1   71.05   13.34
  -6  -6   1   85.20   18.29
  -6  -6   1  105.91   20.51
  -7  -6   1   37.04   15.41
  -7  -6   1   79.17   19.09
  -7   6   1   34.77    8.66
  -7   6   1   45.99   10.87
  -7  -6   1   43.15    8.85
  -8  -6   1   -5.13   13.42
  -8  -6   1   27.60   17.07
  -8  -6   1    3.71   11.20
  -8   6   1   31.03    8.55
  -9  -6   1  101.36   18.32
  -9  -6   1   68.63   21.45
  -9  -6   1   63.29   18.92
 -10  -6   1   37.47   16.34
  -8  -7  -1   28.46   14.11
  -7  -7  -1    6.16   15.54
  -7   7  -1    1.97    5.47
  -7  -7  -1   11.15   10.63
  -7  -7  -1  -12.40   15.64
  -6  -7  -1   33.52   11.48
  -6  -7  -1   36.10   19.98
  -6   7  -1   27.40    6.75
  -6  -7  -1   35.40   16.04
  -5  -7  -1   32.79   11.71
  -5   7  -1   30.29    5.75
  -5   7  -1   23.26    5.84
  -5  -7  -1   39.27   15.25
  -5  -7  -1   34.89   16.28
  -4  -7  -1   21.26   13.51
  -4  -7  -1   41.69   10.08
  -4  -7  -1   27.49    4.82
  -4   7  -1   21.93    4.24
  -4   7  -1   23.12    4.63
  -3  -7  -1   37.86    9.95
   2  -7   1   -3.33    9.25
  -2  -7  -1  -10.06   13.14
  -2  -7  -1   -3.68    5.96
  -1  -7  -1   32.88   15.23
   1  -7   1   18.34    9.64
  -1  -7  -1    8.99   10.98
   1  -7   1   16.47    3.90
  -1  -7  -1   15.80    5.84
   0  -7  -1    9.87    4.59
   0  -7  -1   -4.35   10.97
   0  -7   1    4.00   11.44
  -1  -7   1  -12.92   10.86
   1  -7  -1    7.98   10.06
  -2  -7   1    4.61   12.05
   2  -7  -1   -7.27   10.68
  -3  -7   1   29.42   14.44
   3  -7  -1    6.46    9.28
  -4  -7   1   63.68   15.68
   4  -7  -1   69.33   13.31
  -5   7   1   15.81    4.28
  -5   7   1   21.89    4.44
  -5  -7   1   26.43    4.74
  -6  -7   1   22.73   14.84
  -6  -7   1   -5.38   13.57
  -6   7   1    4.32    4.69
  -6  -7   1   25.14    9.00
  -7  -7   1   17.71   17.38
  -7  -7   1    5.59   13.63
  -7  -7   1   20.92    9.75
  -8  -7   1   -5.76   13.46
  -8  -7   1    3.82   10.62
  -8  -7   1   12.19   15.92
  -7  -8  -1   71.53   16.78
  -6  -8  -1   61.33   14.40
  -5  -8  -1  130.65   18.54
  -5  -8  -1   97.02   25.61
  -5  -8  -1  118.20   25.44
  -4  -8  -1   35.52   16.77
  -4  -8  -1   53.15   12.18
  -3  -8  -1   59.74   20.78
  -3  -8  -1  110.96   14.51
  -2  -8  -1  149.84   17.19
  -2  -8  -1  192.49   28.25
  -2  -8  -1  148.91   25.81
   2  -8   1  152.45   23.57
  -1  -8  -1  111.71   23.50
  -1  -8  -1  132.68   14.58
   0  -8   1  118.04   22.49
   0  -8  -1  119.11   23.15
   1  -8  -1  114.27   22.29
  -1  -8   1  117.35   22.97
  -1  -8   1  112.54   12.77
  -2  -8   1   76.67   11.43
   2  -8  -1   99.56   18.50
  -2  -8   1   67.75   18.39
  -3  -8   1  110.55   22.61
   3  -8  -1  121.96   18.86
  -3  -8   1   73.61   13.17
  -4  -8   1  168.63   28.12
  -4  -8   1  152.09   19.28
   4  -8  -1  156.91   21.66
  -5  -8   1   75.19   14.32
  -6  -8   1  110.25   17.65
  -6  -8   1  101.24   22.10
  -7  -8   1   75.16   15.17
  -2  -9  -1    6.30   16.99
  -1  -9  -1  -11.84   15.45
   1  -9   1    9.28   14.34
   0  -9  -1   32.96   17.82
   0  -9   1   15.09   13.64
  -1  -9   1   10.81   13.16
   1  -9  -1   10.10   14.06
   2  -9  -1   -9.16   11.98
  -2  -9   1  -11.54   15.08
  -3  -9   1  -12.21   14.84
   3  -9  -1    4.09   11.69
   4  -9  -1    7.13   10.49
   1 -10   1   35.20   15.35
   2 -10  -1   24.53   15.95
 -11   0  -2   42.97   14.95
 -10   0  -2   58.30   14.24
  -9   0  -2   66.67   14.70
  -9   0  -2   76.04   13.04
  -8   0  -2  111.41   16.75
  -7   0  -2    5.36    8.87
  -7   0  -2   10.39    7.45
  -6   0  -2  340.91   30.73
  -6   0  -2  326.95   30.11
  -5   0  -2  773.65   62.34
  -5   0  -2  874.12   63.32
  -4   0  -2 1682.55  120.73
   3   0   2 1600.04  113.98
   2   0   2  477.79   36.48
   1   0   2    4.21    4.45
  -1   0  -2    4.06    3.02
  -1   0  -2    6.97    4.86
   0   0  -2  909.89   66.00
   0   0   2  954.78   65.94
  -1   0   2 4024.44  277.35
   1   0  -2 4031.04  277.37
   2   0  -2    0.82    3.14
  -2   0   2    8.09    3.46
   3   0  -2  226.57   18.93
  -3   0   2  235.46   19.43
   3   0  -2  236.73   19.59
  -4   0   2 1604.98  115.83
   4   0  -2 1657.09  114.84
  -4   0   2 1624.72  113.04
   4   0  -2 1631.33  116.07
  -5   0   2 1740.41  120.26
   5   0  -2 1639.49  118.43
   5   0  -2 1667.64  120.08
  -6   0   2  965.87   74.16
   6   0  -2 1022.19   74.56
   7   0  -2  461.92   39.27
  -7   0   2  470.49   39.18
   8   0  -2   49.88    9.76
  -8   0   2   45.96   10.27
   9   0  -2   84.08   14.32
 -10   0   2  122.92   17.13
 -11   0   2   70.04   11.36
 -11   0   2   94.45   15.64
 -12   0   2   30.79   11.49
 -13   0   2   36.59   12.82
 -11  -1  -2   12.52   12.60
 -11   1  -2   10.94   11.56
 -10  -1  -2    7.71   10.49
 -10   1  -2   20.45   11.35
 -10  -1  -2   39.93   11.30
  -9   1  -2   22.29    6.75
  -9  -1  -2   29.94   11.46
  -9   1  -2   69.07   14.06
  -9  -1  -2   56.20   14.39
  -8   1  -2   85.45   14.12
  -8  -1  -2   47.72   11.95
  -7  -1  -2   37.01   10.54
  -7   1  -2   45.79   11.07
  -7  -1  -2   36.75    9.94
  -7   1  -2   45.77    9.80
  -6   1  -2  191.50   20.70
  -6  -1  -2  215.10   21.52
  -6   1  -2  199.03   21.18
  -5  -1  -2   25.65    6.82
  -5   1  -2   17.35    7.39
   4  -1   2  203.29   19.17
  -4  -1  -2  219.05   19.63
  -4   1  -2  202.33   19.54
   3  -1   2   76.81    8.67
  -3   1  -2   51.25    8.51
  -3  -1  -2   64.29    9.22
   2  -1   2  567.91   40.81
  -2  -1  -2  541.14   41.28
  -2   1  -2  519.01   40.59
  -1  -1  -2  978.24   72.17
  -1  -1  -2 1066.81   71.90
   1  -1   2  979.54   71.72
   0  -1  -2  983.48   70.40
   0  -1   2 1009.14   70.29
   1  -1  -2   84.68    8.03
  -1  -1   2   88.46    8.04
   2  -1  -2 2255.68  156.49
  -2  -1   2 2269.64  156.51
   2   1  -2 2215.73  156.72
   3   1  -2  524.93   42.21
  -3  -1   2  573.50   42.27
   3  -1  -2  545.04   41.33
  -3  -1   2  594.58   41.22
   3   1  -2  541.03   40.89
  -3  -1   2  534.24   41.26
   4   1  -2   34.30    7.69
   4  -1  -2   28.20    4.61
  -4  -1   2   39.41    7.73
  -4  -1   2   30.98    6.30
  -4  -1   2   46.63    6.58
   4  -1  -2   39.00    6.59
   5  -1  -2  171.79   13.20
  -5  -1   2  175.41   16.27
  -5  -1   2  141.95   15.87
   5  -1  -2  147.11   15.63
  -5  -1   2  151.32   14.86
  -6  -1   2    1.39    4.19
  -6  -1   2   -1.84    5.81
   6  -1  -2    1.92    4.10
   7  -1  -2   15.79    7.02
  -7   1   2    8.95    6.80
  -7  -1   2   15.98    7.18
  -7  -1   2   11.03    5.82
  -8  -1   2    6.37    6.74
   8  -1  -2   13.07    6.86
  -8  -1   2    7.61    6.20
  -8   1   2   12.86    7.39
   9  -1  -2   44.87   10.43
  -9  -1   2   19.81    8.31
  -9   1   2   20.74    7.33
 -10   1   2   75.35   12.23
 -10  -1   2   65.74   11.18
 -10  -1   2   56.76   13.37
 -11   1   2   43.24   11.95
 -11  -1   2   33.65    9.45
 -11  -1   2   41.41   12.15
 -12  -1   2    7.47    9.75
 -12   1   2   -3.15    9.00
 -13   1   2   13.52    9.44
 -11   2  -2   30.83   13.82
 -10  -2  -2   36.71   13.97
 -10   2  -2   31.75   11.99
 -10  -2  -2   44.59   15.24
  -9   2  -2   34.90   11.28
  -9  -2  -2   52.64   14.17
  -8   2  -2   81.48    7.63
  -8   2  -2   82.34    7.88
  -7   2  -2  306.60   31.05
  -7   2  -2  363.17   32.06
  -7  -2  -2  389.01   33.10
  -6  -2  -2   61.31   11.52
  -6   2  -2  108.62   13.65
  -6  -2  -2   70.04   12.84
  -6   2  -2   87.21   12.10
  -5  -2  -2  175.90   17.89
  -5   2  -2  146.48   16.89
  -5   2  -2  181.27   18.14
  -5  -2  -2  189.96   19.52
  -4  -2  -2  415.27   34.08
  -4   2  -2  416.83   33.92
  -4   2  -2  413.95   33.68
  -4  -2  -2  446.54   35.62
   4  -2   2  409.09   33.16
  -3  -2  -2  784.45   58.01
   3  -2   2  746.73   55.92
  -2  -2  -2 1570.16  107.96
  -2  -2  -2 1537.04  108.86
   2  -2   2 1473.90  107.48
  -1   2  -2 1821.39  130.16
  -1  -2  -2 1859.96  130.26
   1   2   2 1851.88  130.92
  -1   2  -2 1870.65  131.55
  -1  -2  -2 1935.07  131.19
   0   2   2  317.49   25.51
   0  -2   2  378.35   25.62
   0   2  -2  325.40   25.46
   0   2  -2  309.77   27.52
   0   2   2  333.81   25.95
   0  -2  -2  366.45   26.35
   0  -2  -2  357.13   25.72
  -1  -2   2  655.46   43.57
  -1   2   2  600.15   43.53
   1  -2  -2  666.11   44.10
   1   2  -2  586.63   43.81
   1   2  -2  569.22   46.36
  -1   2   2  562.05   43.24
   2  -2  -2 1441.08   98.32
   2   2  -2 1389.36   98.21
  -2  -2   2 1471.74   98.48
   2  -2  -2 1413.53   98.71
  -2  -2   2 1523.45  101.67
  -2   2   2 1264.54   98.08
   2   2  -2 1330.72  100.97
  -3  -2   2 1057.63   77.52
   3  -2  -2 1057.67   77.46
  -3  -2   2 1066.94   79.23
   3   2  -2 1084.63   77.59
  -3  -2   2 1032.96   80.06
  -3   2   2 1185.45   77.88
   3   2  -2 1070.14   79.06
   4   2  -2 2004.42  139.58
  -4  -2   2 2016.44  139.40
   4  -2  -2 1944.02  139.32
  -4  -2   2 1953.09  140.54
   4   2  -2 2053.95  142.13
  -4  -2   2 1908.40  141.70
  -4   2   2 1930.77  139.28
   5   2  -2  650.51   49.84
   5  -2  -2  675.38   50.15
  -5   2   2  634.62   49.82
  -5  -2   2  664.40   50.80
  -5  -2   2  601.84   49.53
  -5   2   2  667.49   46.65
  -5  -2   2  641.90   52.31
  -6  -2   2  210.99   19.39
  -6  -2   2  181.39   18.11
  -6   2   2  184.39   18.37
   6   2  -2  154.66   17.47
  -6  -2   2  195.82   20.67
  -6   2   2  167.01   14.35
   6  -2  -2  191.77   18.34
   7  -2  -2  174.72   18.80
  -7   2   2  159.67   18.72
   7   2  -2  175.76   18.62
  -7  -2   2  171.76   19.23
  -7  -2   2  180.65   19.20
  -7  -2   2  197.55   21.47
  -8   2   2  217.31   21.99
   8   2  -2  233.15   22.23
  -8  -2   2  167.92   20.41
   8  -2  -2  236.97   22.56
  -8   2   2  165.77   18.89
  -8  -2   2  195.36   22.52
  -8  -2   2  189.46   21.12
   9  -2  -2  139.85   18.27
  -9  -2   2  114.76   17.79
   9   2  -2  152.34   18.66
  -9  -2   2  118.01   16.76
  -9   2   2  135.11   15.91
 -10   2   2  168.10   17.53
 -10  -2   2  115.37   17.37
 -10  -2   2  122.00   18.42
 -11   2   2   50.27   11.06
 -11  -2   2   28.14   10.42
 -11  -2   2   43.98   12.50
 -11  -2   2   45.22   13.49
 -12   2   2   20.37   11.89
 -12  -2   2   28.44   11.42
 -13   2   2   47.32   13.33
 -10  -3  -2   45.10   16.93
  -9  -3  -2   19.94   11.21
  -9  -3  -2   35.69   16.28
  -8  -3  -2   55.41   16.64
  -8  -3  -2   76.13   15.16
  -7  -3  -2   61.88   13.89
  -7   3  -2   76.39   12.29
  -7  -3  -2   74.84   12.66
  -6   3  -2   17.27    5.96
  -6  -3  -2   20.22    9.01
  -6   3  -2   17.60    4.12
  -6  -3  -2   22.34    7.33
  -5   3  -2  240.97   20.82
  -5  -3  -2  240.90   23.31
  -5   3  -2  272.86   23.62
  -5  -3  -2  277.79   26.17
  -4   3  -2    9.38    4.74
  -4  -3  -2    6.51    6.22
  -4  -3  -2   12.87    4.87
  -4   3  -2    1.19    4.56
   4  -3   2    7.46    4.84
  -3   3  -2   63.88    8.96
   3  -3   2   56.15    8.26
  -3   3  -2   67.51    8.47
  -3  -3  -2   77.80    8.99
  -2  -3  -2  132.47   14.52
  -2   3  -2  142.10   13.36
   2  -3   2  167.35   13.67
  -2   3  -2  145.32   14.72
  -2  -3  -2  136.18   13.26
  -1   3  -2  334.04   24.22
  -1  -3  -2  295.91   24.07
  -1   3  -2  324.11   27.20
  -1  -3  -2  304.16   25.53
   0  -3   2  107.58   12.48
   0   3  -2  105.68   12.97
   0   3   2  103.95    8.65
   0   3  -2   98.12    8.47
   0  -3  -2   78.06    8.33
   0  -3  -2   90.29    9.46
   1   3  -2  454.01   38.15
  -1   3   2  452.42   33.47
   1  -3  -2  468.68   33.81
  -1  -3   2  471.31   33.40
   1  -3  -2  504.33   37.70
   1   3  -2  415.36   37.52
   1   3  -2  458.27   33.79
  -2  -3   2   50.86    5.77
   2   3  -2   65.29    6.51
   2  -3  -2   46.51    5.81
  -2   3   2   50.67    5.81
   2   3  -2   51.71   10.48
   2  -3  -2   51.90    8.36
  -3  -3   2   93.49   10.07
  -3  -3   2  115.75   15.20
  -3   3   2   87.09    9.80
   3   3  -2   97.32    9.78
   3  -3  -2  110.99   10.21
  -3  -3   2   80.70   12.74
   4  -3  -2  158.25   14.57
   4   3  -2  151.62   14.34
  -4  -3   2  166.21   19.16
  -4  -3   2  121.94   16.64
  -4   3   2  150.33   11.71
  -4  -3   2  143.60   14.45
  -4   3   2  175.54   15.15
  -5  -3   2   36.47    7.27
  -5   3   2   41.34    7.74
   5  -3  -2   41.82    5.24
  -5   3   2   58.63    6.04
   5   3  -2   55.92    8.22
  -5   3   2   50.41    7.41
   5  -3  -2   58.92    8.40
  -5  -3   2   48.26   11.03
  -5  -3   2   34.42   10.73
  -6   3   2   83.01    9.76
  -6  -3   2   83.83   11.82
  -6  -3   2  130.10   17.34
   6  -3  -2   86.32   11.55
   6   3  -2   90.31   12.05
  -6  -3   2   82.54   13.68
  -6   3   2   99.94   12.45
  -6   3   2   98.88    9.78
   7   3  -2    6.69    6.38
   7  -3  -2   11.13    6.71
  -7  -3   2   16.56    8.73
  -7   3   2    4.51    6.08
  -7  -3   2    6.63   10.48
  -7  -3   2   -4.44    5.99
  -7   3   2   -1.03    4.35
  -7   3   2    2.50    5.20
  -8  -3   2   66.69   14.57
  -8  -3   2   41.25   10.45
  -8  -3   2   43.07   10.20
  -8   3   2   31.02    9.46
   8   3  -2   56.91   10.68
  -8   3   2   50.41    7.32
  -8   3   2   43.21    8.31
   8  -3  -2   64.64   10.82
  -9  -3   2    3.65    9.86
  -9   3   2    9.16    5.80
  -9  -3   2   -6.23    8.91
  -9   3   2    9.44    4.52
 -10  -3   2   13.07   10.18
 -10  -3   2   22.42   12.67
 -10   3   2   23.29    8.67
 -11  -3   2   -3.38    9.69
 -11  -3   2    7.43   10.92
 -11   3   2   12.00    8.57
 -12   3   2   40.48   11.41
 -10  -4  -2   52.01   19.21
  -9  -4  -2   75.68   17.92
  -9  -4  -2   66.19   21.17
  -8  -4  -2   19.17   11.77
  -8  -4  -2   63.56   17.89
  -7  -4  -2  191.75   21.78
  -7   4  -2  202.22   21.86
  -7  -4  -2  207.30   24.79
  -6  -4  -2  139.12   16.46
  -6   4  -2  123.87   15.47
  -6  -4  -2  147.79   18.88
  -5  -4  -2  199.26   18.98
  -5   4  -2  167.55   18.20
  -5  -4  -2  189.33   21.30
  -4  -4  -2  185.97   16.58
  -4  -4  -2  171.96   16.50
  -4   4  -2  153.91   15.70
  -4   4  -2  132.15   15.45
  -4  -4  -2  187.13   19.21
   4  -4   2  148.70   14.56
  -3  -4  -2  272.61   23.06
   3  -4   2  253.99   22.16
  -3   4  -2  263.12   23.16
  -3  -4  -2  291.84   23.62
  -3   4  -2  308.44   23.57
  -3  -4  -2  265.51   25.08
  -3   4  -2  305.78   25.32
  -2  -4  -2  565.20   42.07
  -2  -4  -2  575.59   42.07
  -2   4  -2  561.74   42.03
  -2   4  -2  623.83   45.88
  -2   4  -2  604.92   42.25
  -2  -4  -2  503.67   43.68
   2  -4   2  540.57   41.71
  -1   4  -2  725.28   56.13
  -1   4  -2  737.65   51.29
  -1   4  -2  755.09   57.16
  -1  -4  -2  706.40   51.29
  -1  -4  -2  661.47   52.92
   0  -4   2  759.25   59.45
   0   4  -2  752.46   53.48
   0  -4  -2  756.78   55.18
   0  -4  -2  714.24   59.64
   0   4  -2  735.18   59.32
   0   4  -2  796.63   60.32
   0  -4  -2  773.93   53.76
   1  -4  -2  578.67   39.59
   1   4  -2  552.22   39.60
  -1  -4   2  557.49   46.30
   1   4  -2  509.63   45.53
  -1   4   2  506.95   39.35
   1   4  -2  525.24   45.83
  -1  -4   2  582.96   39.23
   1  -4  -2  567.09   45.65
  -2  -4   2 1222.94   83.21
   2   4  -2 1202.69   83.46
   2  -4  -2 1120.34   83.44
  -2   4   2 1192.37   83.26
   2  -4  -2 1208.70   88.55
  -3  -4   2  766.66   59.74
  -3  -4   2  708.45   52.43
   3  -4  -2  729.97   52.18
   3   4  -2  713.49   52.17
  -3  -4   2  713.17   57.83
  -3   4   2  706.31   52.41
  -4  -4   2  274.94   24.92
  -4  -4   2  336.35   31.03
   4  -4  -2  293.52   26.04
  -4  -4   2  312.64   31.50
   4  -4  -2  294.89   24.90
   4   4  -2  333.84   25.30
  -4   4   2  339.05   25.68
  -5  -4   2  147.12   14.97
   5  -4  -2  148.78   13.39
  -5  -4   2   86.58   18.25
  -5   4   2  144.79   14.76
  -5  -4   2  109.35   17.17
   5   4  -2  136.23   14.23
   5  -4  -2  181.30   15.38
  -6   4   2  172.73   16.69
   6   4  -2  130.19   15.29
   6  -4  -2  137.19   15.44
  -6  -4   2  118.60   20.44
  -6   4   2  149.92   12.09
  -6  -4   2  154.38   20.47
  -6   4   2  150.82   15.33
  -6  -4   2  138.92   16.14
   7  -4  -2  251.15   23.29
  -7  -4   2  228.31   23.41
  -7   4   2  239.42   19.00
  -7  -4   2  258.23   27.30
  -7   4   2  222.40   20.66
   7   4  -2  202.60   22.00
  -7  -4   2  248.40   28.86
  -7   4   2  207.37   22.63
  -8   4   2  205.27   18.81
  -8   4   2  170.23   21.01
  -8  -4   2  182.70   21.41
  -8  -4   2  167.79   24.50
  -8  -4   2  178.69   26.29
  -8   4   2  247.04   18.60
  -9   4   2  116.95   13.47
  -9  -4   2  104.09   20.73
  -9  -4   2  119.40   18.62
 -10   4   2   74.10   11.31
 -10  -4   2   42.56   13.90
 -10  -4   2   49.01   15.84
 -11   4   2   22.36   10.07
 -11  -4   2   39.71   13.72
 -11  -4   2   12.89   12.02
 -11  -4   2    4.48   13.22
 -10  -5  -2   -5.81   16.63
 -10  -5  -2   17.62    9.53
  -9  -5  -2   -8.75   11.43
  -9  -5  -2   11.34   15.29
  -8  -5  -2   27.36   15.23
  -8  -5  -2    4.01   10.85
  -7  -5  -2   10.49   14.26
  -7   5  -2   48.13   10.69
  -7  -5  -2   32.65   11.62
  -7  -5  -2   17.90    8.11
  -6  -5  -2   42.24   11.74
  -6  -5  -2   13.20    7.05
  -6  -5  -2   40.26    9.24
  -6  -5  -2   29.93   14.78
  -6   5  -2   28.74    8.24
  -5  -5  -2   34.45   10.01
  -5   5  -2   37.62    8.06
  -5   5  -2   49.51    9.01
  -5  -5  -2   60.37    9.80
  -5  -5  -2   55.84    9.60
  -4  -5  -2   77.43   12.44
  -4  -5  -2   54.26    8.74
  -4   5  -2   52.40    8.25
   4  -5   2   58.10    7.13
  -4   5  -2   37.26    7.53
  -4  -5  -2   53.26    8.23
  -3  -5  -2    6.40    6.49
   3  -5   2   13.59    4.42
  -3  -5  -2   15.59    5.00
  -3   5  -2   10.94    4.43
  -3   5  -2   23.29   10.24
  -3  -5  -2   15.85    4.59
  -3   5  -2   10.92    4.57
  -2   5  -2   14.55    9.20
  -2  -5  -2    1.77    5.74
  -2   5  -2    2.58    2.96
   2  -5   2    0.86    4.08
  -2  -5  -2   -0.89    3.24
  -2   5  -2    1.79    2.76
  -2  -5  -2    2.63    3.18
  -1  -5  -2   12.79    5.57
  -1   5  -2   29.19   10.90
   1  -5   2   36.27   10.60
  -1  -5  -2   19.80    3.57
  -1   5  -2   27.09    3.71
  -1   5  -2   25.72    3.61
  -1  -5  -2   24.03    3.75
   0  -5  -2   34.42    6.32
   0   5  -2   31.64    3.29
   0  -5  -2   34.60    3.13
   0  -5   2   36.82   10.15
   0  -5  -2   46.87   11.16
   0   5  -2   28.15    3.32
   1  -5  -2   41.13   10.14
  -1  -5   2   24.63   11.20
   1   5  -2   29.54    9.59
  -2  -5   2  174.36   13.21
  -2   5   2  181.04   13.68
   2   5  -2  165.31   13.43
   2  -5  -2  190.04   13.54
  -2  -5   2  149.52   21.35
   2   5  -2  151.90   20.17
   2  -5  -2  193.83   20.80
   3  -5  -2   13.60    3.29
  -3   5   2   11.73    3.20
  -3  -5   2    5.48    2.62
   3   5  -2   15.72    3.67
   4  -5  -2   26.41    5.48
  -4  -5   2   38.15   12.19
   4  -5  -2   26.11    7.97
  -4  -5   2   34.92   11.18
  -4  -5   2   35.79    6.37
  -4   5   2   21.02    5.57
   4   5  -2   19.40    5.08
  -5  -5   2   -3.67    8.58
   5  -5  -2    1.45    4.15
  -5  -5   2    4.06    9.88
   5   5  -2    5.65    3.81
   5  -5  -2    1.55    5.55
  -5  -5   2    1.52    4.46
  -5   5   2    1.48    4.35
  -6  -5   2   34.49   13.24
  -6  -5   2   29.69    7.82
  -6   5   2   43.21    8.44
  -6  -5   2   46.33   13.00
  -7   5   2   81.00   12.11
  -7  -5   2   81.92   19.31
  -7  -5   2   61.56   11.21
  -7  -5   2   76.76   16.42
  -8   5   2   19.69    8.52
  -8  -5   2   12.63   10.29
  -8  -5   2   14.33   12.52
  -8  -5   2   12.66    7.51
  -9  -5   2    9.95   13.44
  -9  -5   2   13.08   10.63
 -10  -5   2    4.47   12.05
 -10  -5   2    5.12   12.93
 -10  -5   2   -8.26   11.81
 -11  -5   2   10.39   14.87
 -11  -5   2    9.08   12.63
  -9   6  -2   12.10    8.93
  -8  -6  -2   45.50   15.70
  -8  -6  -2   18.06   16.13
  -8   6  -2   57.53   11.52
  -8  -6  -2   68.03   12.43
  -8  -6  -2   65.44   19.16
  -7  -6  -2   45.21   13.70
  -7   6  -2   51.79   10.85
  -7   6  -2   24.25    7.95
  -7  -6  -2   42.88    9.74
  -7  -6  -2   45.94   16.64
  -7  -6  -2   52.60   16.93
  -6  -6  -2  138.89   20.02
  -6  -6  -2  158.79   16.94
  -6  -6  -2  120.26   23.84
  -6   6  -2  148.21   17.06
  -6   6  -2  111.25   16.04
  -6  -6  -2  170.56   18.04
  -6  -6  -2  129.99   25.10
  -5  -6  -2  151.91   26.37
  -5  -6  -2  183.60   22.22
  -5   6  -2  200.03   19.26
  -5  -6  -2  180.39   18.09
  -5  -6  -2  159.56   26.03
  -5   6  -2  182.71   18.37
  -5  -6  -2  203.59   19.36
  -4  -6  -2  322.12   36.40
  -4   6  -2  324.58   31.42
  -4   6  -2  263.91   23.35
  -4  -6  -2  258.82   23.06
  -4  -6  -2  308.34   34.33
  -4   6  -2  294.42   24.16
  -4  -6  -2  265.97   23.79
  -4  -6  -2  263.31   27.10
  -3  -6  -2   83.66   12.83
   3  -6   2   70.25    7.91
  -3  -6  -2  100.45    9.43
  -3   6  -2  108.78   16.86
  -3   6  -2   82.92    9.07
  -3  -6  -2   81.27   18.13
  -3  -6  -2   87.57    9.71
  -3   6  -2   80.87    9.28
  -2  -6  -2   90.82   12.60
   2  -6   2   93.11    9.43
  -2   6  -2   76.74    8.59
  -2  -6  -2   99.05    8.77
  -2   6  -2  104.56    8.69
  -2  -6  -2  105.68    9.08
  -2   6  -2   74.60   14.98
  -1  -6  -2  321.83   24.84
  -1  -6  -2  271.22   30.90
  -1   6  -2  244.75   29.07
   1  -6   2  239.66   28.25
   0  -6   2  385.01   35.98
   0  -6  -2  410.84   38.11
   0   6  -2  354.25   35.85
   0  -6  -2  360.61   28.90
   0  -6  -2  336.49   37.36
  -1  -6   2  455.47   40.29
   1   6  -2  393.56   38.60
   1  -6  -2  370.99   38.54
   1  -6  -2  408.08   38.86
  -2  -6   2  308.52   34.34
   2  -6  -2  364.15   34.53
  -3   6   2  194.12   14.52
   3  -6  -2  181.96   21.83
  -3  -6   2  187.04   13.86
   4  -6  -2  102.99   14.47
  -4  -6   2   85.83    8.26
  -4   6   2   66.98    7.98
   5  -6  -2  179.76   21.67
  -5  -6   2  266.42   30.59
  -5  -6   2  219.75   30.39
  -5  -6   2  231.84   20.44
  -5   6   2  263.09   20.70
  -6   6   2  205.54   20.82
  -6  -6   2  162.39   27.17
  -6  -6   2  253.53   21.77
   6  -6  -2  238.97   20.40
  -6  -6   2  215.82   29.27
  -7  -6   2  158.44   17.80
  -7  -6   2  144.39   25.28
  -7   6   2  169.19   17.58
  -7  -6   2  112.42   21.83
  -8  -6   2   33.92   16.96
  -8  -6   2   80.69   20.70
  -8   6   2   79.08   12.50
  -9  -6   2   27.88   15.60
  -9  -6   2   24.87   13.94
 -10  -6   2   35.38   16.04
 -10  -6   2    5.73   15.02
  -7  -7  -2   -7.71   12.19
  -7   7  -2   -2.16    5.63
  -6  -7  -2   38.36   13.59
  -6  -7  -2   31.29   17.46
  -6   7  -2   18.03    6.27
  -6  -7  -2   24.67   13.87
  -5  -7  -2    5.85   13.09
  -5  -7  -2   -6.09   15.38
  -5  -7  -2    6.23    8.93
  -5   7  -2   14.20    5.37
  -4  -7  -2   57.40   12.42
  -4   7  -2   80.21    8.87
  -4   7  -2   61.82    8.10
  -4  -7  -2   87.97   19.11
  -4  -7  -2   53.01   19.60
  -3  -7  -2   32.95    9.29
  -3   7  -2   26.89    3.71
  -3  -7  -2   27.67    4.11
  -3   7  -2   23.35    4.18
  -2  -7  -2   24.44   12.34
   2  -7   2    4.16    3.00
  -2  -7  -2    5.93    6.67
  -2  -7  -2   16.13   13.56
  -1  -7  -2   23.78    7.42
   1  -7   2   10.88   11.27
  -1  -7  -2    9.24   10.86
  -1  -7  -2   15.15   12.33
   0  -7  -2   -4.68   11.81
   0  -7  -2    5.51    4.59
   0  -7   2   11.75   11.51
   0  -7  -2    4.37   10.22
  -1  -7   2   -4.21    9.00
   1  -7  -2   32.96   11.81
   1  -7  -2   17.12   11.56
   2  -7  -2    3.88    9.81
  -2  -7   2   22.43   12.85
  -3  -7   2   14.30   12.45
   3  -7  -2    3.44   10.90
  -4   7   2    1.54    1.53
   4  -7  -2    6.05    9.56
  -4   7   2    1.00    1.50
  -5   7   2    8.49    3.61
   5  -7  -2    4.98    7.71
  -5  -7   2    5.28   11.82
  -6   7   2   24.08    5.21
  -6  -7   2   27.63   14.04
  -7  -7   2    5.29   11.28
  -7  -7   2   -5.75   15.99
  -8  -7   2   -5.96   14.48
  -8  -7   2   -5.45   11.61
  -6  -8  -2   84.75   17.15
  -5  -8  -2   82.16   15.35
  -4  -8  -2   27.89   11.13
  -4  -8  -2  -12.24   14.88
  -3  -8  -2   96.44   15.06
  -3  -8  -2  100.91   22.68
  -2  -8  -2   77.82   12.92
  -2  -8  -2  102.02   22.89
  -2  -8  -2   87.69   19.69
  -1  -8  -2  108.92   13.25
  -1  -8  -2  103.84   21.45
  -1  -8  -2  118.54   24.02
   0  -8  -2  193.85   27.17
   0  -8  -2  137.52   23.01
   0  -8   2  128.52   22.44
   1  -8  -2  182.64   27.02
  -1  -8   2  132.92   23.69
   2  -8  -2  118.63   20.84
  -2  -8   2   86.01   20.22
  -3  -8   2  107.10   22.32
   3  -8  -2   87.01   18.06
   4  -8  -2   89.82   16.24
  -4  -8   2   84.50   19.17
   5  -8  -2   31.61   11.00
  -6  -8   2   67.40   19.91
  -7  -8   2   42.08   12.84
  -1  -9  -2   12.37   14.47
   0  -9   2    9.84   14.07
   0  -9  -2   -5.77   15.07
   1  -9  -2   -5.33   15.28
  -1  -9   2  -21.02   14.64
   2  -9  -2   19.41   14.26
  -2  -9   2   -5.59   15.54
   3  -9  -2   -8.70   11.74
  -3  -9   2   -5.90   16.89
   4  -9  -2    3.80   11.18
   2 -10  -2   51.68   19.41
 -10   0  -3    3.86   12.74
  -9   0  -3   25.11   12.91
  -8   0  -3   59.31   13.93
  -7   0  -3   47.79   12.68
  -6   0  -3  271.06   26.53
  -6   0  -3  272.39   27.56
  -5   0  -3  757.60   60.67
  -5   0  -3  787.91   60.11
   4   0   3 1810.48  130.04
   3   0   3  251.19   22.46
  -2   0  -3 3217.55  225.55
   2   0   3 3246.07  225.64
  -1   0  -3  167.85   15.54
   1   0   3  177.90   16.16
   0   0  -3    1.89    3.55
   0   0   3    3.66    3.91
  -1   0   3  771.78   56.34
   1   0  -3  791.18   56.56
   2   0  -3    9.94    4.46
  -2   0   3   10.65    4.03
   3   0  -3   91.90   10.62
  -3   0   3  109.00   11.36
  -4   0   3 1104.16   78.19
   4   0  -3 1055.56   78.19
   4   0  -3 1056.16   77.37
  -5   0   3 1274.18   93.65
   5   0  -3 1306.92   94.11
   5   0  -3 1284.77   92.61
  -6   0   3 1433.77  106.06
   6   0  -3 1500.04  106.75
   6   0  -3 1444.74  104.52
  -7   0   3 1178.05   84.41
   7   0  -3 1214.69   84.78
  -7   0   3 1071.45   78.94
  -8   0   3  338.50   29.81
   8   0  -3  390.83   30.73
  -9   0   3   11.49    8.66
   9   0  -3    2.97    6.64
  -9   0   3    2.08    3.85
  10   0  -3  106.91   16.30
 -10   0   3  105.76   11.46
 -11   0   3   60.85   12.85
  11   0  -3   63.12   14.35
 -12   0   3   26.44   10.60
 -13   0   3   -3.55    8.95
 -11   1  -3   15.48   11.42
 -10  -1  -3   20.53   11.48
 -10   1  -3   14.53   13.24
  -9  -1  -3   41.93   15.00
  -9   1  -3   37.08   13.13
  -8  -1  -3   87.31   16.10
  -8   1  -3   64.98   15.20
  -7  -1  -3   22.13   11.24
  -7   1  -3   33.64   10.86
  -6   1  -3  147.84   18.04
  -6   1  -3  123.51   16.29
  -6  -1  -3  145.98   17.77
  -5  -1  -3  146.60   16.90
  -5   1  -3  143.47   17.35
   5  -1   3  129.87   15.78
  -5   1  -3  169.17   17.26
  -4   1  -3   21.10    7.71
  -4  -1  -3   12.99    7.50
   4  -1   3   10.40    5.92
  -3  -1  -3  458.52   37.55
  -3   1  -3  493.43   38.05
   3   1   3  455.95   37.72
  -3  -1  -3  489.62   38.68
   3  -1   3  459.96   37.21
  -2  -1  -3  149.24   15.55
   2  -1   3  171.63   16.21
  -2  -1  -3  190.71   17.29
  -1  -1  -3  526.98   39.22
  -1  -1  -3  514.35   39.64
   1  -1   3  504.98   39.21
   0  -1   3 1127.68   82.86
   0  -1  -3 1209.99   83.16
  -1  -1   3  105.18   10.21
   1  -1  -3  106.25   10.20
  -2  -1   3 1551.60  111.03
   2  -1  -3 1615.32  111.88
  -3  -1   3  157.64   15.09
   3   1  -3  154.48   14.51
   3  -1  -3  167.45   15.21
  -4  -1   3  309.49   25.96
   4   1  -3  292.66   24.62
   4   1  -3  349.82   27.05
   4  -1  -3  294.59   25.75
   5   1  -3   60.77   10.34
   5  -1  -3   53.90    8.54
   5  -1  -3   43.33    6.68
   6  -1  -3   16.30    6.18
  -6  -1   3    9.63    5.71
   6   1  -3    1.98    6.58
  -6  -1   3    3.74    4.00
  -7  -1   3   -2.21    5.37
  -7   1   3    2.23    6.02
   7  -1  -3   -2.30    5.59
  -7  -1   3    2.78    4.86
  -8  -1   3   83.33   12.94
  -8   1   3   89.55   13.53
  -8  -1   3   72.19   10.45
   8  -1  -3   57.42   11.84
  -9  -1   3   68.33   12.86
  -9   1   3   75.11   13.03
  -9  -1   3   48.48    9.70
  10  -1  -3   66.65   14.48
 -10  -1   3   94.67   11.96
  11  -1  -3   25.93   10.43
 -11  -1   3   35.07    8.14
 -11   1   3   11.04    8.89
 -12  -1   3    7.26    9.16
 -12   1   3   -3.02    8.65
 -13   1   3   29.37   11.81
 -10  -2  -3   47.95   14.33
 -10   2  -3   58.34   15.39
 -10  -2  -3   16.28   12.84
  -9   2  -3   50.92   13.33
  -8   2  -3  107.98   16.93
  -7   2  -3  121.46   17.14
  -6   2  -3  155.63   18.17
  -6  -2  -3  135.43   17.26
  -6   2  -3  139.50   16.82
  -6  -2  -3  141.70   18.98
  -5  -2  -3  292.05   26.22
  -5   2  -3  247.55   25.05
   5  -2   3  241.54   24.31
   4  -2   3   26.31    6.97
  -4  -2  -3   24.94    9.09
  -3   2  -3  354.84   33.90
  -3  -2  -3  498.67   35.41
   3  -2   3  451.41   34.62
  -3  -2  -3  428.83   35.83
  -2   2  -3  784.23   55.20
  -2  -2  -3  724.60   54.85
   2  -2   3  695.49   54.61
  -2  -2  -3  730.77   56.03
   2   2   3  747.05   55.62
  -1  -2  -3  896.37   65.58
  -1  -2  -3  926.02   64.91
  -1   2  -3  859.77   64.51
   1   2   3  879.85   65.15
   0  -2   3 1597.12  110.62
   0   2   3 1566.27  110.74
   0   2   3 1526.37  110.89
   0   2  -3 1518.87  110.53
   0  -2  -3 1648.74  110.80
  -1  -2   3 1415.01  101.93
  -1   2   3 1471.40  102.15
   1   2  -3 1436.58  102.13
   1  -2  -3 1459.37  102.22
  -1   2   3 1463.12  102.00
   1   2  -3 1460.20  104.88
   2  -2  -3 1102.73   79.21
   2   2  -3 1126.92   79.25
  -2  -2   3 1047.22   78.39
  -2   2   3 1149.10   78.72
   2   2  -3 1099.71   81.62
  -3   2   3 1861.48  126.63
   3  -2  -3 1780.10  126.44
   3   2  -3 1694.29  126.22
   3   2  -3 1832.44  128.01
  -3  -2   3 1790.84  126.42
  -4   2   3  858.22   62.54
   4  -2  -3  850.29   62.61
  -4  -2   3  839.39   62.42
   4   2  -3  818.19   64.64
   4   2  -3  834.97   63.08
   4   2  -3  811.59   62.36
  -4  -2   3  894.16   65.36
   5   2  -3   95.10   11.90
   5  -2  -3   88.08   11.77
   5   2  -3   85.42   13.89
  -5  -2   3  111.97   12.53
  -5  -2   3   91.55   13.72
  -5   2   3  126.42   12.98
  -5  -2   3  109.38   12.70
  -6  -2   3  274.36   24.31
  -6  -2   3  272.07   24.32
  -6   2   3  276.45   24.39
   6   2  -3  270.43   24.42
   6  -2  -3  265.99   24.29
  -6  -2   3  225.55   25.31
   6   2  -3  230.48   25.39
   6  -2  -3  262.60   19.90
  -7  -2   3  207.05   23.39
  -7  -2   3  179.13   21.28
   7   2  -3  191.26   21.49
   7  -2  -3  240.83   22.48
  -7  -2   3  231.10   21.74
  -8  -2   3  153.59   19.29
  -8  -2   3  164.74   18.38
   8  -2  -3  207.24   20.03
   8   2  -3  184.41   19.37
  -8  -2   3  129.00   19.68
  -8   2   3  164.20   19.60
  -9   2   3  187.71   21.66
  -9  -2   3  161.84   18.93
   9   2  -3  159.24   20.60
   9  -2  -3  173.52   20.08
  -9  -2   3  160.47   21.55
  10   2  -3  119.44   17.66
  10  -2  -3  102.64   16.46
 -10  -2   3   76.80   13.52
 -10   2   3  114.35   14.76
  11   2  -3   51.56   12.69
  11  -2  -3   51.44   13.13
 -11  -2   3   52.10   11.42
 -11   2   3   55.46   11.71
 -12   2   3   55.66   12.32
 -12  -2   3   39.63   14.02
 -13   2   3   51.39   13.04
 -10  -3  -3   14.50   15.31
  -9  -3  -3   42.51   14.05
  -9  -3  -3   42.86   16.63
  -8  -3  -3   50.18   13.95
  -7  -3  -3   69.65   14.75
  -7   3  -3   36.64    6.89
  -6  -3  -3  115.03   15.44
  -6  -3  -3  105.82   18.11
  -6   3  -3  122.93   15.58
  -6   3  -3  141.75   13.97
  -5  -3  -3   -2.75    8.51
  -5  -3  -3    8.59    5.98
  -5   3  -3   11.93    5.78
  -5   3  -3    9.80    5.92
   5  -3   3   -3.48    6.21
   4  -3   3   62.07    8.63
  -4   3  -3   33.84    7.80
  -4  -3  -3   45.60   10.15
  -4  -3  -3   42.90    8.30
  -4   3  -3   30.71    7.58
  -4  -3  -3   55.46    8.78
  -4   3  -3   42.71    8.32
  -3  -3  -3   12.87    5.12
  -3  -3  -3    2.06    6.55
   3  -3   3    5.56    5.33
  -3   3  -3    8.06    4.38
  -3   3  -3    9.91    6.12
  -2  -3  -3   -1.76    5.70
   2  -3   3    6.31    4.60
  -2   3  -3    6.68    3.95
  -2  -3  -3    2.68    4.25
  -2   3  -3   18.99    6.49
  -1  -3  -3  186.76   16.18
  -1   3  -3  170.63   15.90
  -1   3  -3  180.52   18.50
   1   3   3  197.99   17.26
  -1  -3  -3  182.47   17.46
   0   3   3  270.00   21.66
   0   3   3  267.25   21.07
   0  -3  -3  294.07   22.22
   0   3  -3  260.92   20.91
   0  -3  -3  242.38   20.87
   0   3  -3  265.81   24.46
   0  -3   3  243.63   20.54
  -1  -3   3  179.82   15.43
  -1   3   3  174.36   15.47
   1   3  -3  218.91   20.62
   1  -3  -3  189.46   15.80
   1   3  -3  194.75   15.63
  -1   3   3  186.02   15.62
   2  -3  -3   81.06    8.76
  -2  -3   3   83.33    8.38
  -2   3   3   74.47    8.28
  -2   3   3   76.38    7.66
   2   3  -3   71.57    8.70
  -3  -3   3  211.23   18.18
   3  -3  -3  251.60   19.44
  -3   3   3  217.46   18.34
   3   3  -3  172.35   20.73
   3  -3  -3  251.82   20.30
   3   3  -3  205.42   18.68
   3   3  -3  256.30   23.74
  -3  -3   3  211.66   22.57
  -4   3   3   25.34    6.27
  -4  -3   3   45.26   11.00
   4   3  -3   38.56    9.41
   4  -3  -3   29.61    6.21
   4   3  -3   29.63    6.28
  -4  -3   3   45.45    7.39
  -5   3   3   14.88    5.70
  -5  -3   3   23.21    7.52
  -5  -3   3   17.20    8.58
   5   3  -3   28.37   10.43
   5   3  -3   38.85    7.20
  -5  -3   3   11.62    6.34
   5  -3  -3   42.27    7.21
   6   3  -3    3.86    5.83
   6  -3  -3    3.86    5.06
  -6  -3   3   19.67    8.13
  -6  -3   3    6.16    8.32
  -6  -3   3    3.87    5.39
  -6   3   3    1.94    5.07
  -7  -3   3   23.42    8.54
  -7  -3   3   16.38   10.92
   7   3  -3   22.30    7.35
   7  -3  -3   31.24    7.66
  -7  -3   3   17.81    7.34
  -7   3   3   15.68    7.23
  -8  -3   3   -2.74    6.93
   8  -3  -3    5.12    6.23
  -8  -3   3    3.46   10.16
   8   3  -3   12.80    7.12
  -8   3   3    1.44    4.66
  -8  -3   3    2.53    6.16
  -8   3   3    2.56    7.31
  -9  -3   3   10.81   10.90
   9   3  -3   20.38    8.82
   9  -3  -3   17.49    8.15
  -9  -3   3    5.76    8.28
  -9   3   3   10.32    6.08
 -10   3   3   49.99   10.20
 -10  -3   3   66.33   14.67
  10   3  -3   68.62   12.91
 -10  -3   3   39.01   12.27
  10  -3  -3   35.99   10.43
 -11   3   3   -2.27    6.68
 -11  -3   3    3.69   10.27
 -11  -3   3    9.27    9.08
 -12   3   3   17.76    8.97
 -10  -4  -3   22.01   16.24
  -9  -4  -3   35.50   15.30
  -9   4  -3   13.99   10.61
  -9  -4  -3   17.61    9.27
  -9  -4  -3    5.38   14.09
  -8  -4  -3   85.17   17.88
  -8  -4  -3  105.24   16.56
  -7  -4  -3  164.98   23.34
  -7   4  -3  178.14   20.95
  -7  -4  -3  199.43   22.04
  -6   4  -3   66.01    9.15
  -6   4  -3   76.29   12.43
  -6  -4  -3   55.34   11.84
  -6  -4  -3   62.44   14.28
  -6  -4  -3   78.20   12.45
  -6   4  -3   78.01   12.10
  -5  -4  -3   69.92   13.18
  -5  -4  -3   45.50    9.36
  -5   4  -3   39.07    8.52
  -5   4  -3   46.51   10.16
  -5  -4  -3   56.81   10.04
  -5   4  -3   64.90    9.51
   5  -4   3   44.63    8.68
   4  -4   3   74.94    9.78
  -4  -4  -3   63.78   12.90
  -4   4  -3   35.79    8.21
  -4  -4  -3   80.15   10.28
  -4  -4  -3   51.66    9.04
  -4   4  -3   54.84    9.88
  -4   4  -3   32.00    7.84
  -3  -4  -3  297.27   27.41
  -3   4  -3  293.46   25.33
  -3  -4  -3  306.53   25.41
  -3   4  -3  283.69   26.60
  -3  -4  -3  252.31   24.43
   3  -4   3  309.31   24.89
  -3   4  -3  313.09   24.97
  -2   4  -3  245.46   20.89
  -2  -4  -3  230.88   20.68
  -2   4  -3  228.14   23.22
   2  -4   3  263.92   21.48
  -2  -4  -3  247.86   23.09
  -1   4  -3 1038.54   75.29
  -1  -4  -3 1064.90   75.51
  -1   4  -3 1101.01   79.87
  -1  -4  -3 1018.46   77.20
   0   4  -3 1054.88   76.77
   0  -4  -3 1088.87   77.07
   0   4  -3 1200.49   82.88
   0  -4  -3 1093.54   78.27
   0   4  -3 1008.31   81.96
   1   4  -3  528.99   39.12
   1  -4  -3  517.38   39.08
  -1  -4   3  500.25   44.25
  -1  -4   3  522.45   38.42
  -1   4   3  547.44   38.78
   1   4  -3  541.41   44.63
   1   4  -3  496.89   43.92
   2   4  -3  909.93   64.81
  -2  -4   3  910.14   64.18
  -2   4   3  920.58   64.41
   2   4  -3  841.57   70.35
   2  -4  -3  879.17   64.68
   2  -4  -3  884.72   68.81
   3  -4  -3  535.25   42.48
  -3  -4   3  555.91   42.16
  -3   4   3  579.53   42.32
   3   4  -3  586.00   42.81
  -3  -4   3  562.17   48.63
   3  -4  -3  646.25   46.41
   3   4  -3  521.45   48.05
   3   4  -3  605.34   48.00
   4   4  -3  460.71   35.54
  -4  -4   3  482.62   35.86
  -4   4   3  447.27   35.45
   4  -4  -3  452.78   35.51
  -4  -4   3  390.37   40.21
  -5   4   3  350.26   30.07
   5   4  -3  380.29   30.37
   5  -4  -3  336.23   29.80
  -5  -4   3  386.28   35.96
  -5  -4   3  381.52   30.57
  -6  -4   3   80.76   17.34
   6  -4  -3  141.83   14.03
   6  -4  -3  108.08   10.64
  -6  -4   3   94.55   12.77
  -6   4   3   91.41   12.66
   6   4  -3  105.34   12.95
  -6  -4   3  125.60   17.11
  -6   4   3   98.38    8.80
  -7   4   3   40.11    5.75
   7   4  -3   36.78    8.21
   7  -4  -3   30.57    7.74
  -7  -4   3   29.08    8.86
  -7  -4   3   23.35   11.68
  -7   4   3   33.03    8.98
  -7  -4   3   44.99   11.51
  -8   4   3   94.32    9.85
   8   4  -3   97.46   13.98
   8  -4  -3   75.74   12.92
  -8  -4   3  106.94   14.81
  -8  -4   3   69.57   16.04
  -8  -4   3   80.57   15.70
  -8   4   3   83.12   13.55
   9   4  -3  264.36   25.50
  -9  -4   3  178.01   25.40
  -9  -4   3  268.44   31.45
  -9   4   3  225.74   20.33
   9  -4  -3  235.55   25.01
 -10   4   3   47.39    9.59
 -10  -4   3   68.38   15.07
 -11   4   3   36.66    9.69
 -11  -4   3   61.84   16.91
 -11  -4   3   69.87   15.44
  -9   5  -3   37.23   11.26
  -9  -5  -3    6.79   10.83
  -9  -5  -3   17.74   14.98
  -8  -5  -3   25.30   14.28
  -8   5  -3   34.08   10.53
  -8  -5  -3   12.31    8.41
  -8  -5  -3   11.41   14.96
  -7  -5  -3   26.78   12.85
  -7   5  -3   44.61   10.22
  -7  -5  -3   30.25    9.39
  -6  -5  -3   23.25    8.07
  -6   5  -3   11.35    6.58
  -6   5  -3   29.55    8.37
  -6  -5  -3    9.67    6.81
  -6  -5  -3   10.33   10.69
  -5  -5  -3  119.55   17.17
  -5   5  -3   80.93   12.32
  -5  -5  -3   87.98   12.41
  -5  -5  -3   88.58   12.28
  -5   5  -3   92.64   12.45
   4  -5   3   60.73    8.98
  -4  -5  -3   59.27   12.12
  -4   5  -3   77.83   10.38
  -4  -5  -3   46.24    9.00
  -4   5  -3   66.39   11.53
  -4   5  -3   67.47    9.99
  -4  -5  -3   67.69   10.24
   3  -5   3    6.12    5.12
  -3  -5  -3   11.73    7.92
  -3   5  -3   10.27    4.98
  -3   5  -3    8.45    4.78
  -3  -5  -3    9.99    4.75
  -3   5  -3   -2.40    7.78
  -3  -5  -3   10.22    5.05
  -2   5  -3   70.13   14.09
  -2  -5  -3   86.33   13.17
   2  -5   3  105.02   11.69
  -2   5  -3   94.38   10.41
  -2  -5  -3  110.92   11.13
  -2  -5  -3   95.98   10.65
  -2   5  -3  101.89   10.53
  -2   5  -3  124.20   17.18
  -1  -5  -3  193.15   16.40
  -1   5  -3  183.57   16.13
  -1   5  -3  171.60   22.08
  -1   5  -3  183.11   22.51
  -1  -5  -3  237.44   19.71
   0   5  -3  133.83   12.73
   0  -5  -3  165.72   13.09
   0   5  -3  105.77   18.36
   0  -5  -3  127.99   19.18
   0   5  -3  115.00   18.06
   0  -5  -3  175.72   15.01
   1  -5  -3   42.20   11.69
   1   5  -3   48.25    5.85
   1   5  -3   34.30   10.91
   1  -5  -3   39.11    5.26
   1   5  -3   31.06   11.46
  -2  -5   3  193.60   22.68
   2   5  -3  165.99   14.35
   2  -5  -3  158.69   14.20
  -2  -5   3  177.04   13.96
  -2   5   3  187.64   14.46
   2  -5  -3  155.19   20.28
   2   5  -3  196.96   23.37
   3   5  -3  135.42   12.69
   3  -5  -3  138.51   12.65
  -3  -5   3  147.59   12.47
  -3   5   3  137.22   12.42
   3  -5  -3  147.48   17.81
   4   5  -3   45.40    7.16
   4  -5  -3   60.58    7.73
  -4  -5   3   34.18   12.59
  -4   5   3   53.69    7.28
  -4  -5   3   70.75    7.77
   5  -5  -3    4.42    4.67
   5  -5  -3   -1.92    6.36
  -5   5   3    4.66    4.92
  -5  -5   3    1.58    4.66
  -5  -5   3   20.11   11.18
   5   5  -3   11.51    5.14
  -6  -5   3   32.12    8.14
   6   5  -3   43.58    7.85
  -6   5   3   53.49    8.97
   6  -5  -3   41.17    8.04
   6  -5  -3   32.49    7.15
  -7   5   3   40.48    8.89
   7   5  -3   31.04    8.19
   7  -5  -3   38.27    8.40
  -7  -5   3   17.94   14.35
  -7  -5   3   33.03    8.81
  -7  -5   3   15.29   11.73
   8  -5  -3   -9.86    7.24
   8   5  -3    4.80    6.27
  -8  -5   3   -4.70   11.42
  -8   5   3    2.44    6.78
  -8  -5   3   -2.53    6.81
  -8  -5   3   -3.97    9.64
  -9  -5   3   34.18   14.50
  -9  -5   3   28.67   12.53
 -10  -5   3   65.39   17.85
 -10  -5   3   29.29   12.93
 -11  -5   3  -10.21   15.00
 -11  -5   3   21.17   12.77
  -9   6  -3   12.77    8.38
  -8   6  -3    8.76    7.89
  -8  -6  -3    2.91    8.33
  -7  -6  -3    7.92   11.36
  -7  -6  -3   24.24   16.86
  -7   6  -3    7.88    7.95
  -7  -6  -3   13.01    7.68
  -6  -6  -3  122.38   15.62
  -6  -6  -3   96.81   18.12
  -6  -6  -3   87.91   22.64
  -6   6  -3  108.95   14.78
  -6   6  -3  130.00   15.68
  -5   6  -3  145.40   16.26
  -5  -6  -3   96.17   18.00
  -5   6  -3  122.28   15.19
  -5  -6  -3  132.82   15.41
  -4  -6  -3  543.44   44.49
  -4   6  -3  539.07   44.37
  -4   6  -3  580.33   44.63
  -4  -6  -3  612.89   44.69
   4  -6   3  581.00   42.75
  -4  -6  -3  551.83   48.37
  -3  -6  -3  343.12   27.86
  -3   6  -3  337.93   27.77
  -3   6  -3  390.61   27.91
  -3  -6  -3  365.74   27.77
   3  -6   3  290.92   26.49
  -3  -6  -3  318.60   30.96
  -2  -6  -3  192.02   16.16
  -2   6  -3  180.08   15.84
  -2   6  -3  180.06   15.67
  -2  -6  -3  172.17   15.76
  -2   6  -3  148.03   22.33
  -2  -6  -3  209.73   20.15
   2  -6   3  188.15   16.63
  -1  -6  -3   55.90    6.87
  -1  -6  -3   67.57   10.83
  -1   6  -3   91.81    7.83
  -1   6  -3   76.88    7.17
  -1  -6  -3   57.05    6.88
  -1  -6  -3   69.45   15.05
  -1   6  -3   75.74   15.51
   0  -6  -3  140.60   11.76
   0   6  -3  173.13   12.18
   0   6  -3  147.47   21.13
   0   6  -3  162.38   12.29
   0  -6  -3  144.75   11.89
   0  -6  -3  181.35   22.89
   0  -6  -3  163.86   15.45
  -1  -6   3  241.22   26.32
   1   6  -3  165.83   23.30
   1  -6  -3  189.63   24.24
   2   6  -3   89.00    7.59
   2  -6  -3   95.28    7.48
  -2  -6   3  104.97   17.95
   2   6  -3  118.66   18.28
   2  -6  -3   85.62   15.42
  -3  -6   3  109.93    8.47
  -3   6   3   88.99    8.69
   3  -6  -3  100.27    8.83
   3   6  -3   76.74    8.37
  -3  -6   3   90.71   17.20
  -4  -6   3  133.80   12.05
  -4   6   3  131.20   12.28
   4   6  -3  127.90   12.28
   4  -6  -3  145.83   12.68
   4  -6  -3  134.37   18.55
   5   6  -3  359.44   27.78
  -5   6   3  365.34   27.76
  -5  -6   3  313.62   26.97
  -5  -6   3  400.72   39.23
   5  -6  -3  357.76   32.07
   5  -6  -3  316.29   27.62
  -6  -6   3  462.30   38.00
  -6   6   3  526.78   38.49
   6  -6  -3  427.22   37.91
  -6  -6   3  469.62   47.97
  -7  -6   3  257.95   25.43
  -7   6   3  257.83   24.88
  -7  -6   3  289.11   34.46
  -8  -6   3  116.28   22.71
  -8   6   3   76.39   12.55
  -9  -6   3   10.95   15.24
 -10  -6   3   39.43   16.34
  -7  -7  -3   44.70   14.81
  -6  -7  -3    3.70   12.21
  -6  -7  -3  -13.01   15.82
  -6   7  -3   10.00    5.57
  -6  -7  -3  -12.81   13.66
  -5  -7  -3   31.81   18.28
  -5  -7  -3   19.92   10.65
  -5  -7  -3   12.12   15.39
  -5   7  -3   29.85    6.93
  -4  -7  -3   38.36   11.15
  -4  -7  -3   18.55   15.77
  -4   7  -3   35.13    6.52
  -4  -7  -3   39.93   16.48
  -3   7  -3   42.76    6.20
  -3  -7  -3   37.92    5.78
  -3   7  -3   38.18    5.76
  -2  -7  -3    6.50    7.90
  -2  -7  -3    9.27    2.94
  -2   7  -3   13.14    3.48
  -2  -7  -3   25.07   12.67
  -2  -7  -3   17.11   14.41
  -1  -7  -3   59.31   10.14
  -1  -7  -3   47.32   14.90
   0  -7  -3   -4.49   12.47
   0  -7  -3    5.04   13.16
   1  -7  -3   18.59   14.07
  -1  -7   3   12.57   11.72
   1  -7  -3   25.49   12.22
  -2  -7   3    8.87   12.33
   2  -7  -3   -8.47   12.44
   2  -7  -3    3.98    9.67
  -3  -7   3   56.29   16.55
   3  -7  -3   53.01   14.01
   4  -7  -3    3.30   10.81
  -4   7   3   27.88    3.86
   5  -7  -3   -2.81    8.48
  -5   7   3    2.72    3.18
   6  -7  -3   17.47    8.75
  -6   7   3   14.90    4.51
  -7  -7   3    5.65   15.71
  -8  -7   3   35.07   18.21
  -6  -8  -3   40.97   15.12
  -5  -8  -3   23.48   12.28
  -4  -8  -3  103.77   17.15
  -3  -8  -3   41.61   16.85
  -3  -8  -3   61.40   12.63
  -3  -8  -3   26.58   18.76
  -2  -8  -3   63.80   12.29
  -2  -8  -3   95.81   23.25
  -2  -8  -3   61.72   17.95
  -1  -8  -3   66.43   21.70
  -1  -8  -3  122.12   22.95
   0  -8  -3   95.64   22.88
   0  -8  -3  136.12   22.41
   1  -8  -3  145.16   25.41
   1  -8  -3  167.01   24.64
  -1  -8   3  169.77   25.81
   2  -8  -3  178.99   27.86
  -2  -8   3  204.25   28.33
  -3  -8   3   94.62   20.16
   3  -8  -3  122.37   20.47
  -4  -8   3   93.75   23.46
   4  -8  -3   89.98   18.59
   5  -8  -3   73.57   15.91
  -6  -8   3   41.92   17.83
  -1  -9  -3    6.52   15.86
   0  -9  -3  -12.18   16.44
   1  -9  -3   11.20   18.51
   2  -9  -3  -10.24   15.82
  -2  -9   3   11.00   16.58
  -3  -9   3  -11.56   16.56
   3  -9  -3  -13.92   15.67
   4  -9  -3    4.10   12.67
   3 -10  -3   78.41   20.27
 -10   0  -4   36.83   13.47
  -9   0  -4   49.84   15.88
  -8   0  -4   39.07   13.81
  -7   0  -4   13.03   10.57
  -6   0  -4  120.98   16.99
  -6   0  -4   88.44   13.82
  -5   0  -4  638.94   51.91
  -5   0  -4  643.44   52.71
   5   0   4  639.95   51.75
  -4   0  -4  847.74   65.95
   4   0   4  867.37   65.89
  -3   0  -4 1499.67  110.77
   3   0   4 1551.89  110.85
  -2   0  -4  281.24   24.68
   2   0   4  280.26   24.86
   1   0   4   51.07    9.16
   1   0   4   59.99    8.83
  -1   0  -4   70.30    8.99
   0   0   4  691.51   52.53
   0   0  -4  722.47   52.70
  -1   0   4 1723.77  124.77
   1   0  -4 1817.86  125.15
  -2   0   4  367.57   29.28
   2   0  -4  378.29   29.63
   3   0  -4  583.64   46.17
  -3   0   4  620.09   45.53
  -4   0   4   28.90    6.90
   4   0  -4   40.02    7.22
  -5   0   4  879.07   69.73
   5   0  -4  953.96   70.44
   5   0  -4  975.22   69.71
  -6   0   4  835.32   65.69
   6   0  -4  830.24   65.96
   6   0  -4  917.72   65.17
  -7   0   4 1344.20   98.93
   7   0  -4 1308.52   99.45
   7   0  -4 1342.58   97.30
  -8   0   4  475.49   43.31
   8   0  -4  568.83   44.61
   8   0  -4  511.94   41.46
   9   0  -4  180.65   21.14
  -9   0   4  155.00   19.89
  10   0  -4   70.16   13.61
  11   0  -4   14.78   10.61
  12   0  -4   -4.06   10.24
 -13   0   4    6.91   10.16
 -10   1  -4   39.00   16.00
  -9  -1  -4   36.33   14.42
  -9   1  -4   21.96   13.08
  -9   1  -4    7.81    9.16
  -9  -1  -4    3.92    8.81
  -8  -1  -4   37.42   12.34
  -8   1  -4   34.00   13.59
  -7  -1  -4   47.91   13.52
  -7   1  -4   77.97   14.72
  -6   1  -4   76.40   14.27
  -6  -1  -4   59.97   12.30
  -6  -1  -4   88.79   14.16
  -6   1  -4   94.01   13.03
  -5  -1  -4  181.64   21.67
  -5   1  -4  226.05   23.06
   5  -1   4  241.26   22.43
   4  -1   4  151.13   16.81
  -4  -1  -4  164.25   18.37
  -4  -1  -4  139.44   16.43
   4   1   4  149.97   17.09
   3   1   4  438.13   35.53
  -3  -1  -4  392.04   34.81
   3  -1   4  455.43   35.39
  -3  -1  -4  411.63   36.15
  -2  -1  -4    7.46    6.11
  -2  -1  -4   13.39    5.14
   2  -1   4   26.14    7.29
  -1  -1  -4  523.35   40.31
   1  -1   4  512.07   40.46
   0  -1   4   97.61   10.79
   0  -1  -4   96.14   10.63
  -1  -1   4  202.61   18.47
   1  -1  -4  237.58   19.24
  -2  -1   4  114.85   11.48
   2  -1  -4  111.28   11.60
   3  -1  -4  735.15   54.11
  -3  -1   4  696.96   52.86
  -4  -1   4  371.54   30.46
   4  -1  -4  361.38   30.51
   4   1  -4  353.73   29.06
   4   1  -4  385.72   31.59
   5  -1  -4   20.79    6.40
  -5  -1   4   19.81    7.12
   5   1  -4   15.85    7.92
   5   1  -4   23.60    5.35
  -6  -1   4  217.40   22.88
   6  -1  -4  233.56   23.51
   6  -1  -4  270.54   21.74
   6   1  -4  266.66   24.48
   7   1  -4   27.38    9.21
  -7  -1   4   20.57    7.68
  -7   1   4   27.61    8.33
   7  -1  -4   46.88    9.50
   7  -1  -4   34.82    7.36
   8  -1  -4   29.85    9.49
   8  -1  -4   19.61    6.52
  -8  -1   4   35.89    9.14
  -8   1   4   20.71    9.55
  -9   1   4   -5.77    8.04
  -9  -1   4   14.31    8.20
  10  -1  -4   23.31    9.12
  11  -1  -4   18.42   10.32
  12   1  -4   -4.05    9.06
  12  -1  -4   16.19    9.85
 -12   1   4   11.70    8.38
 -13  -1   4   -3.80   11.44
 -13   1   4   12.64    9.53
  -9   2  -4   34.73   12.41
  -9  -2  -4   31.08   11.93
  -8   2  -4   56.41   13.58
  -8  -2  -4   56.61   13.83
  -7   2  -4  136.94   19.12
  -7  -2  -4  162.45   20.52
  -6  -2  -4  172.83   24.02
  -6   2  -4  225.01   23.40
  -6  -2  -4  205.00   22.92
  -6  -2  -4  236.58   23.97
  -6   2  -4  207.12   21.76
  -5  -2  -4  215.84   24.62
  -5   2  -4  300.11   25.46
  -5  -2  -4  254.17   24.21
  -5   2  -4  300.53   24.23
  -5  -2  -4  162.37   22.28
   5  -2   4  218.33   22.91
   4  -2   4   97.03   12.86
  -4  -2  -4   85.11   13.90
  -4   2  -4   97.06   13.06
  -4  -2  -4   99.24   12.88
  -3   2  -4  135.89   16.69
  -3  -2  -4  203.07   18.46
   3  -2   4  186.00   17.85
  -3  -2  -4  164.14   18.77
  -2   2  -4  408.26   34.98
  -2  -2  -4  442.77   35.53
   2   2   4  429.04   35.65
   2  -2   4  476.26   35.84
  -2  -2  -4  426.25   36.29
   1   2   4  964.21   69.95
  -1   2  -4  934.90   69.36
  -1  -2  -4  960.62   69.52
  -1  -2  -4  914.06   70.14
   0  -2   4 1139.15   78.37
   0   2   4 1079.20   78.30
   0   2  -4 1058.17   78.35
   0  -2  -4 1053.68   78.36
   0   2   4 1088.05   78.81
  -1   2   4 1445.92   95.60
  -1  -2   4 1349.72   95.23
   1   2  -4 1320.19   95.47
   1  -2  -4 1193.06   95.15
  -1   2   4 1387.14   95.43
   2   2  -4 1897.66  131.41
   2  -2  -4 1825.14  131.20
  -2  -2   4 1816.13  130.27
  -2   2   4 1878.32  130.38
   2   2  -4 1823.09  133.48
   3   2  -4  468.71   37.22
   3  -2  -4  454.82   37.17
  -3   2   4  463.68   36.38
  -3  -2   4  498.40   36.63
  -4  -2   4  696.52   51.60
  -4   2   4  675.53   51.29
   4   2  -4  686.64   51.61
   4  -2  -4  688.57   51.73
   4   2  -4  617.91   53.25
   4   2  -4  651.16   51.87
   5   2  -4  534.81   45.98
  -5   2   4  584.56   44.36
   5   2  -4  567.34   44.25
   5  -2  -4  582.14   44.59
  -5  -2   4  487.12   43.39
   5   2  -4  584.73   44.02
  -6   2   4  468.12   37.80
   6   2  -4  386.92   37.03
   6  -2  -4  535.82   39.22
   6   2  -4  375.90   38.41
  -6  -2   4  523.56   38.62
   7   2  -4   48.50    9.15
   7  -2  -4   55.86    9.73
   7  -2  -4   19.03    5.64
  -7  -2   4   34.38    8.96
  -7   2   4   64.66   10.63
   7   2  -4   47.69   11.31
  -8  -2   4  253.44   26.52
  -8   2   4  277.33   27.15
   8   2  -4  296.41   27.42
   8  -2  -4  256.45   26.21
   9   2  -4  210.96   23.57
   9  -2  -4  216.85   23.40
  -9  -2   4  182.58   22.65
  -9   2   4  217.75   23.96
  10   2  -4  128.88   18.06
  10  -2  -4   95.78   17.50
  11   2  -4   91.47   17.08
  11  -2  -4  106.16   17.79
 -11   2   4  106.57   14.71
  12  -2  -4   28.09   11.65
  12   2  -4   52.09   13.66
 -12   2   4   21.42    8.89
 -13   2   4   17.51    9.91
 -14   2   4   40.64   11.87
  -9  -3  -4   31.35   14.60
  -9   3  -4   18.99   10.10
  -9  -3  -4   38.21   11.96
  -8  -3  -4   53.83   14.79
  -8   3  -4   34.85   10.64
  -8  -3  -4   45.34   12.56
  -7  -3  -4   56.81   14.55
  -7   3  -4   66.38   13.06
  -7  -3  -4   53.52   12.30
  -6  -3  -4   51.33   13.36
  -6   3  -4   48.14   11.57
  -6  -3  -4   42.23   10.70
  -6   3  -4   79.06   12.27
  -5  -3  -4    3.06    9.72
  -5   3  -4   25.06    7.60
  -5  -3  -4   17.43    7.36
  -5  -3  -4   14.55    7.17
  -5   3  -4   24.87    7.82
   5  -3   4   -2.03    6.18
   4  -3   4   61.32   10.59
  -4  -3  -4   54.25   12.37
  -4   3  -4   87.65   12.12
  -4  -3  -4   76.43   11.35
   3  -3   4   27.64    7.76
  -3  -3  -4   26.06    8.49
  -3   3  -4   28.66    7.16
  -3  -3  -4   22.91    6.42
  -2   3  -4  165.75   17.64
  -2  -3  -4  130.46   16.62
  -2   3  -4  138.28   15.11
  -2  -3  -4  172.50   15.96
   2   3   4  155.01   16.43
   2  -3   4  139.71   15.80
  -1  -3  -4  121.69   13.68
  -1  -3  -4  109.52   11.73
  -1   3  -4   91.12   11.01
  -1   3  -4  110.11   14.14
   1   3   4   84.30   11.45
   0   3   4  102.27   11.29
   0   3   4   94.63   10.40
   0  -3  -4  112.36   10.92
   0  -3   4   90.72    9.95
   0   3  -4  103.18   13.76
   0   3  -4   80.76   10.08
  -1   3   4   57.14    7.88
   1   3  -4   59.81   11.57
  -1  -3   4   77.97    8.04
  -1   3   4   50.46    7.44
   1  -3  -4   51.17    7.56
   1   3  -4   57.98    7.66
  -2   3   4   29.43    5.60
   2   3  -4   19.44    5.93
   2  -3  -4   26.38    6.21
   2   3  -4    7.30    7.15
  -2  -3   4   36.77    5.41
  -2   3   4   19.97    4.72
   3   3  -4  156.15   15.68
   3  -3  -4  161.49   15.61
  -3  -3   4  165.00   14.88
  -3   3   4  174.27   15.20
   3   3  -4  150.00   19.34
   3   3  -4  147.65   17.72
   4   3  -4  133.96   14.97
   4  -3  -4  141.06   15.04
  -4   3   4  166.47   14.86
  -4  -3   4  145.81   14.35
   4  -3  -4  152.57   14.54
   4   3  -4  153.19   17.60
  -5  -3   4   54.30    9.19
  -5   3   4   75.37   10.47
   5   3  -4   64.07    9.60
   5  -3  -4   51.42    9.30
   5   3  -4   75.98   13.77
   5   3  -4   79.60   12.18
  -6  -3   4    4.08    6.01
  -6   3   4   30.52    8.35
  -6  -3   4   18.86    9.81
   6   3  -4   21.97   10.24
   6   3  -4   37.91    8.40
   6  -3  -4   25.36    7.26
   7   3  -4   16.43    6.79
   7  -3  -4   21.21    8.17
  -7  -3   4   26.59   10.80
  -7  -3   4    9.20    6.84
  -7   3   4   11.50    7.35
   8  -3  -4   13.08    7.95
  -8   3   4   20.70    8.05
  -8  -3   4   18.03    8.56
  -8  -3   4    6.99   10.31
   8   3  -4   10.46    6.89
   9   3  -4   37.93    9.99
   9  -3  -4   17.57    8.33
  10   3  -4    3.25    7.62
  10  -3  -4   13.06    7.96
 -10   3   4    9.57    7.44
  11   3  -4   25.22   10.63
  11  -3  -4   18.08    9.18
 -11   3   4    8.73    6.66
 -12   3   4    9.77    7.92
  -9  -4  -4   16.89   15.76
  -9   4  -4   22.22   10.75
  -9  -4  -4   40.90   13.39
  -8  -4  -4   34.59   14.56
  -8  -4  -4   61.26   13.61
  -7  -4  -4   67.24   16.63
  -7   4  -4   52.83   12.52
  -7  -4  -4   83.16   13.89
  -6  -4  -4  110.94   18.42
  -6   4  -4  128.28   17.76
  -6  -4  -4  143.35   17.99
  -6   4  -4  116.83   14.77
  -5  -4  -4   16.04   10.76
  -5   4  -4   37.02    9.45
  -5  -4  -4   24.44    7.95
  -5   4  -4   37.31   10.34
  -5  -4  -4   18.41    7.18
  -5   4  -4   28.69    7.79
   5  -4   4   32.30    7.80
   4  -4   4   47.51    9.22
  -4  -4  -4   54.08   12.31
  -4  -4  -4   42.83    9.14
  -4   4  -4   55.97    9.02
  -4   4  -4   62.93   10.60
  -4  -4  -4   45.14    9.23
  -4   4  -4   46.86   10.66
  -3   4  -4  270.77   24.37
  -3  -4  -4  252.82   23.97
  -3   4  -4  258.95   26.02
   3  -4   4  282.66   24.39
  -3  -4  -4  291.70   27.24
  -2   4  -4  242.55   24.23
  -2  -4  -4  342.51   25.70
  -2   4  -4  285.45   27.85
  -2  -4  -4  287.73   26.97
   2  -4   4  301.36   25.49
  -1   4  -4  491.53   38.59
  -1  -4  -4  483.64   38.62
  -1   4  -4  508.23   42.56
  -1  -4  -4  522.83   40.50
   0   4  -4  702.89   49.60
   0  -4  -4  605.05   49.19
   0   4  -4  722.38   54.85
  -1  -4   4  464.51   35.01
  -1   4   4  465.58   35.29
   1  -4  -4  442.54   35.26
   1   4  -4  474.32   35.28
   1   4  -4  448.91   40.51
  -1   4   4  467.43   35.50
   2   4  -4  366.13   30.02
   2  -4  -4  369.35   30.08
  -2  -4   4  360.55   29.14
  -2   4   4  390.28   29.55
   2   4  -4  418.28   36.07
  -2   4   4  385.70   28.89
   3  -4  -4  943.74   72.18
   3   4  -4  928.57   69.62
   3  -4  -4  941.91   69.71
  -3  -4   4  928.63   68.79
  -3   4   4  968.91   69.03
   3   4  -4  967.36   75.63
   3   4  -4  960.30   74.51
  -3   4   4  966.86   67.34
   4   4  -4  939.61   69.77
   4  -4  -4  897.27   69.69
   4   4  -4  998.21   74.34
  -4   4   4  972.14   69.31
  -4  -4   4  959.58   69.19
  -4  -4   4  919.71   75.43
   4  -4  -4  951.78   71.12
  -4   4   4  940.32   66.42
  -5  -4   4  129.03   14.35
  -5   4   4   95.45   13.13
  -5  -4   4  122.48   18.62
   5   4  -4  105.62   13.40
  -6  -4   4  250.70   21.22
  -6   4   4  158.76   19.12
   6   4  -4  152.41   18.61
   6  -4  -4  225.34   20.21
  -6  -4   4  229.61   25.83
   7   4  -4   64.94   10.57
   7  -4  -4   58.60   10.41
  -7  -4   4   59.79   11.47
  -7   4   4   34.00    9.28
  -7  -4   4   74.16   16.00
  -8   4   4   86.73   14.00
  -8  -4   4   69.59   16.51
  -8  -4   4   59.43   13.49
  -8   4   4  108.65   10.18
   8   4  -4   73.21   12.69
   8  -4  -4  106.90   14.50
   9   4  -4  116.49   16.38
   9  -4  -4  106.10   16.50
  -9   4   4  113.80   12.27
  -9  -4   4   85.16   19.83
 -10   4   4   86.09   11.92
  10   4  -4   85.82   15.22
 -10  -4   4   92.06   18.67
  10  -4  -4   80.19   14.39
 -11   4   4   71.04   11.32
  11  -4  -4   63.76   13.33
  11   4  -4   49.11   12.78
  -8   5  -4   19.82    8.94
  -8  -5  -4    3.29    9.17
  -7  -5  -4   20.50   13.43
  -7   5  -4   36.22   10.79
  -7  -5  -4   32.87    9.48
  -6  -5  -4   29.77   12.01
  -6   5  -4   54.33   10.95
  -6  -5  -4   26.75    8.80
  -5  -5  -4   32.86    8.46
  -5   5  -4   45.71    9.19
  -5  -5  -4   23.41   11.45
  -5   5  -4   40.77    9.36
  -5  -5  -4   23.57    8.19
  -5   5  -4   38.97   10.10
   5  -5   4   13.81    6.78
   4  -5   4   42.34    8.33
  -4  -5  -4   50.56   12.63
  -4   5  -4   33.00    8.84
  -4  -5  -4   28.48    7.58
  -4   5  -4   54.41   11.60
  -4  -5  -4   28.86    7.56
  -4   5  -4   47.51    8.66
   3  -5   4   28.38    7.48
  -3  -5  -4   39.11   10.50
  -3   5  -4   25.33    6.63
  -3   5  -4   43.81    8.41
  -3  -5  -4   38.47    8.14
  -3   5  -4   26.63   10.25
  -3  -5  -4   36.78    7.48
  -2  -5  -4   11.25    8.39
   2  -5   4   19.92    7.18
  -2   5  -4   -2.81    9.16
  -2   5  -4   17.71    5.48
  -2  -5  -4   25.32    6.13
  -1   5  -4  325.49   26.70
  -1  -5  -4  343.96   26.97
  -1   5  -4  284.84   31.78
  -1  -5  -4  346.63   29.46
   0  -5  -4  297.66   22.89
   0   5  -4  268.13   22.31
   0   5  -4  291.82   29.29
   0   5  -4  218.13   28.26
   1   5  -4   25.79   11.11
  -1   5   4   14.97    4.34
   1  -5  -4   14.21    4.73
   1  -5  -4   -3.09    7.83
   1   5  -4   23.17   10.26
   1   5  -4    9.61    4.59
  -2  -5   4   27.36    5.10
  -2   5   4   39.84    6.17
   2   5  -4   16.96   12.11
   2  -5  -4   29.06    9.88
   2   5  -4   38.03    6.23
   2  -5  -4   43.24    6.25
   3   5  -4  178.59   17.30
   3  -5  -4  189.55   17.36
  -3  -5   4  198.97   16.76
  -3   5   4  201.19   17.00
   3   5  -4  201.63   23.67
   3  -5  -4  191.71   22.12
   3   5  -4  236.45   26.18
   4   5  -4  157.67   20.23
   4   5  -4  125.13   13.46
   4  -5  -4  139.84   13.73
  -4  -5   4  134.34   12.97
  -4   5   4  125.62   12.93
   4   5  -4  124.03   19.88
  -4  -5   4  142.11   21.35
   4  -5  -4  118.32   16.23
  -5   5   4   -2.86    4.42
  -5  -5   4   -1.39    4.60
   5   5  -4    6.48    4.37
   5  -5  -4    1.63    4.54
  -6  -5   4   11.70    6.65
  -6   5   4   22.93    7.47
   6   5  -4   12.85    5.75
   6  -5  -4   11.21    5.43
  -6  -5   4   25.58   13.21
   7  -5  -4    4.29    5.22
  -7  -5   4    4.52    6.47
   7  -5  -4   -1.19    4.76
  -7  -5   4    8.95   12.80
  -7   5   4    6.61    6.30
   7   5  -4    2.11    4.93
  -8  -5   4    9.36   13.01
  -8   5   4   -2.49    7.50
   8  -5  -4    4.92    6.63
  -8  -5   4    2.57    6.92
   8   5  -4   -2.41    5.86
  -9   5   4   24.03    3.96
   9   5  -4    5.47    6.25
  -9  -5   4   29.19   15.44
   9  -5  -4   16.73    8.08
  10   5  -4    9.15    8.02
 -10  -5   4  -10.02   12.67
  -8   6  -4   15.67   10.19
  -7  -6  -4   25.17   13.60
  -7  -6  -4   -6.24   14.60
  -7   6  -4   17.09    8.43
  -7  -6  -4   14.00    8.28
  -6  -6  -4   30.59   13.45
  -6   6  -4   20.25    7.91
  -6  -6  -4    9.91    7.92
  -5  -6  -4  117.26   18.89
  -5   6  -4   74.22   12.03
  -5   6  -4   86.03   12.59
  -5  -6  -4   78.03   12.15
  -4  -6  -4  221.46   22.84
  -4   6  -4  230.12   22.85
  -4   6  -4  264.06   23.59
  -4  -6  -4  260.32   23.24
  -4  -6  -4  270.57   27.49
  -3  -6  -4  356.02   30.38
  -3   6  -4  361.48   30.20
  -3   6  -4  366.90   30.26
  -3  -6  -4  334.76   29.75
  -3   6  -4  380.60   35.57
   3  -6   4  390.62   30.18
  -3  -6  -4  380.45   34.64
  -2   6  -4  229.23   19.86
  -2  -6  -4  216.32   19.76
  -2  -6  -4  205.95   19.65
  -2   6  -4  234.58   20.10
  -2   6  -4  215.47   26.11
  -2  -6  -4  239.13   23.29
   2  -6   4  238.29   20.78
  -1   6  -4  171.63   23.96
  -1   6  -4  183.32   16.89
  -1  -6  -4  195.99   17.28
  -1  -6  -4  214.11   17.44
  -1  -6  -4  184.67   25.44
  -1  -6  -4  221.61   20.72
  -1   6  -4  200.82   17.17
   0   6  -4  150.42   13.49
   0  -6  -4  145.49   13.44
   0   6  -4  118.39   19.96
   0  -6  -4  121.98   21.12
   1   6  -4   48.59   13.70
   1  -6  -4   44.80   12.97
   1   6  -4   54.80    6.71
   1  -6  -4   39.51    5.82
   2   6  -4   42.43    6.08
  -2   6   4   48.20    6.11
   2  -6  -4   49.59    6.14
   2  -6  -4   42.30   12.75
   3   6  -4  132.44   13.39
   3  -6  -4  146.38   13.67
  -3  -6   4  168.91   13.14
  -3   6   4  142.62   13.36
  -3  -6   4  158.73   23.06
   3  -6  -4  154.31   20.30
   4   6  -4   74.77    9.47
   4  -6  -4   84.52    9.60
  -4  -6   4   87.79    9.44
  -4   6   4   96.38    9.80
   5   6  -4  361.24   29.63
   5  -6  -4  354.74   29.86
  -5  -6   4  412.62   29.81
  -5   6   4  369.81   29.71
  -5  -6   4  285.51   37.59
   6   6  -4  390.06   32.23
  -6   6   4  399.44   32.08
  -6  -6   4  423.45   32.08
   6  -6  -4  369.90   32.15
  -6  -6   4  409.82   42.29
   6  -6  -4  351.73   33.80
  -7   6   4  305.54   27.14
  -7   6   4  314.63   26.32
  -7  -6   4  286.77   25.71
   7   6  -4  312.91   26.79
   7  -6  -4  298.47   26.70
   7  -6  -4  231.81   24.51
  -7  -6   4  327.42   37.16
   8  -6  -4   67.68   11.61
   8   6  -4   67.49   11.26
  -8   6   4   60.99   11.66
  -8  -6   4   83.96   20.83
  -9  -6   4   32.62   16.13
 -10  -6   4   39.15   17.07
  -6  -7  -4   19.38   11.76
  -5  -7  -4   10.51   11.03
  -5   7  -4   34.45    7.49
  -5  -7  -4   44.14   18.65
  -5  -7  -4   59.27   20.93
  -4  -7  -4   12.49   10.75
  -4   7  -4    6.37    5.18
  -3   7  -4   33.52    6.70
  -3  -7  -4   32.88   11.67
  -3   7  -4   19.33    5.84
  -2  -7  -4    9.44    8.79
  -2   7  -4   15.79    4.47
  -2  -7  -4   25.70   12.55
  -2  -7  -4   18.56    5.15
  -2   7  -4   18.10    4.23
  -1  -7  -4   47.23    9.74
  -1   7  -4   49.45    5.84
  -1   7  -4   39.21    6.07
  -1  -7  -4   52.46    6.08
  -1  -7  -4   43.59   14.95
   0   7  -4   27.36    3.45
   0   7  -4   26.66    3.18
   1  -7  -4   21.74   11.82
   2  -7  -4   57.56   14.67
  -3  -7   4   23.59   12.93
   3  -7  -4   45.78   13.81
  -4   7   4   26.03    4.57
   4  -7  -4   25.82   11.80
  -4  -7   4   34.53   15.70
   5  -7  -4    6.36    9.82
  -5   7   4    3.09    3.61
   6  -7  -4    2.58    8.88
  -6  -7   4  -10.76   14.95
  -6   7   4    1.31    3.76
   7  -7  -4    5.47    6.51
  -7  -7   4  -11.19   14.11
  -8  -7   4    5.79   14.08
  -5  -8  -4   48.69   14.83
  -4  -8  -4   71.42   15.86
  -3  -8  -4   13.97   19.47
  -3  -8  -4   32.67   12.67
  -3  -8  -4   12.18   13.70
  -2  -8  -4  114.51   27.23
  -2  -8  -4  114.60   22.89
  -1  -8  -4  115.36   24.90
  -1  -8  -4   81.29   19.71
   0  -8  -4  162.39   27.75
   0  -8  -4   92.60   20.59
   1  -8  -4  133.68   26.35
   1  -8  -4  180.92   26.10
   2  -8  -4  193.65   25.27
   2  -8  -4  107.11   22.62
   3  -8  -4  105.68   21.33
   4  -8  -4   93.55   20.24
  -4  -8   4  153.50   24.70
   5  -8  -4   66.86   15.06
  -5  -8   4   57.10   18.56
   6  -8  -4   43.70   12.16
   0  -9  -4   64.84   22.72
   1  -9  -4    5.98   18.03
   2  -9  -4   10.92   16.47
   3  -9  -4    4.91   13.24
   4  -9  -4    4.40   12.58
  -9   0  -5   28.87   14.47
  -9   0  -5    4.15   10.13
  -8   0  -5   69.54   15.74
  -8   0  -5   53.40   13.99
  -7   0  -5  100.29   17.29
  -7   0  -5   69.40   14.16
  -6   0  -5   16.44   10.66
  -6   0  -5    9.39    6.72
  -5   0  -5   98.59   15.35
  -5   0  -5   92.74   14.19
   5   0   5   67.36   12.68
  -4   0  -5  468.95   42.44
   4   0   5  560.80   43.62
  -3   0  -5  283.14   28.84
   3   0   5  394.55   30.95
   2   0   5   68.59   11.84
  -2   0  -5  109.08   12.60
   1   0   5 1260.21   88.24
  -1   0  -5 1170.25   88.41
   1   0   5 1180.85   88.30
   0   0   5  123.28   13.98
   0   0  -5  158.53   14.93
  -1   0   5  635.04   47.10
   1   0  -5  597.65   47.24
  -2   0   5 2351.74  164.10
   2   0  -5 2305.86  164.42
   3   0  -5  230.47   21.26
  -3   0   5  216.42   19.82
  -4   0   5  114.62   12.60
   4   0  -5  116.43   13.93
  -5   0   5  586.66   45.94
   5   0  -5  559.03   45.89
  -6   0   5  488.29   38.67
   6   0  -5  436.02   38.36
   6   0  -5  445.06   37.77
  -7   0   5  727.14   56.48
   7   0  -5  689.61   56.59
   7   0  -5  698.97   55.31
  -8   0   5  426.08   37.92
   8   0  -5  412.71   38.42
   8   0  -5  441.00   36.81
   9   0  -5  100.76   16.43
   9   0  -5  137.79   16.21
  -9   0   5  120.31   17.37
  10   0  -5   -3.41    8.92
  11   0  -5  107.89   18.37
  12   0  -5  125.83   20.27
  -9  -1  -5   30.11   14.99
  -9   1  -5   33.04   11.40
  -9  -1  -5   45.60   14.99
  -8  -1  -5   60.28   15.94
  -8   1  -5   49.41   12.76
  -8  -1  -5   45.66   12.52
  -7  -1  -5   40.84   13.91
  -7  -1  -5   31.17   10.71
  -6  -1  -5    6.26    7.90
  -5  -1  -5   56.13   11.28
   5   1   5   53.44   11.66
   5  -1   5   47.73   10.50
   4  -1   5   76.00   13.21
  -4  -1  -5  122.38   16.40
  -4  -1  -5   87.91   12.78
   4   1   5   82.76   14.28
   3   1   5   68.27   11.52
   3  -1   5   65.19   11.80
  -3  -1  -5   77.09   12.85
  -3  -1  -5   80.86   11.80
  -2  -1  -5  172.23   17.88
   2  -1   5  171.57   18.30
   1  -1   5  120.60   13.45
  -1  -1  -5   89.87   12.12
   0  -1   5   54.08    8.26
   0  -1  -5   59.10    8.87
  -1  -1   5  237.74   19.08
   1  -1  -5  174.97   18.17
   2  -1  -5   96.22   11.26
  -2  -1   5   94.80   11.06
   3  -1  -5  172.57   17.91
  -3  -1   5  188.68   17.10
   4  -1  -5  164.57   17.68
  -4  -1   5  184.91   17.04
   5  -1  -5  121.90   14.04
  -5  -1   5  107.68   13.39
   5   1  -5  100.90   14.73
   5   1  -5  104.11   11.74
   6   1  -5  103.57   15.01
   6  -1  -5  111.61   14.70
  -6  -1   5  103.50   14.02
   6   1  -5   92.31   10.63
   7   1  -5   49.70   11.05
   7  -1  -5   41.56    9.63
   7  -1  -5   20.19    7.56
  -7  -1   5   41.10    9.02
  -7   1   5   62.88   11.13
   8   1  -5   -5.21    8.27
   8  -1  -5   10.15    6.60
  -8  -1   5   13.25    7.83
  -8   1   5   21.35    8.66
   8  -1  -5   20.29    8.09
   9  -1  -5    9.44    8.10
   9  -1  -5   24.50    6.98
  -9   1   5   29.44    9.86
  10  -1  -5    3.40    7.94
  11  -1  -5   11.14    8.71
  12   1  -5   -4.04    9.83
  12  -1  -5   -4.05    8.63
 -13   1   5    6.16    9.29
  -8   2  -5   37.68   10.96
  -8  -2  -5   22.65   10.06
  -7   2  -5   48.19   12.16
  -7  -2  -5   34.39   11.23
  -6  -2  -5  119.81   18.84
  -6   2  -5  124.70   17.54
  -6  -2  -5   90.22   15.93
  -5  -2  -5  137.35   19.40
  -5   2  -5  128.81   16.97
  -5  -2  -5  148.19   17.57
   5  -2   5   92.32   15.48
   4  -2   5  163.39   18.75
  -4  -2  -5  175.40   21.29
  -4  -2  -5  190.97   19.97
  -4   2  -5  160.96   18.94
  -3   2  -5  348.38   30.93
  -3  -2  -5  339.82   30.69
   3  -2   5  321.28   30.36
  -3  -2  -5  393.07   33.11
  -2   2  -5  439.45   37.17
  -2  -2  -5  477.55   37.71
   2   2   5  427.06   37.49
   2  -2   5  458.42   37.58
  -2  -2  -5  466.26   38.81
  -1   2  -5  245.67   22.89
  -1  -2  -5  257.80   23.09
   1   2   5  249.57   23.26
   0  -2   5  738.67   52.11
   0   2   5  628.86   51.69
   0   2  -5  653.99   52.07
   0  -2  -5  714.53   52.41
   0   2   5  696.53   52.54
  -1  -2   5  432.74   35.87
  -1   2   5  456.05   36.19
   1   2  -5  482.84   36.74
   1  -2  -5  450.89   36.42
  -1   2   5  474.44   36.53
  -2  -2   5  490.94   39.54
  -2   2   5  548.14   40.06
   2  -2  -5  447.73   39.56
   2   2  -5  578.01   40.65
   3   2  -5  764.72   58.40
   3  -2  -5  768.72   58.51
  -3  -2   5  722.94   56.92
  -3   2   5  808.55   57.39
   4   2  -5  929.36   69.02
   4  -2  -5  822.84   68.44
  -4   2   5  927.68   67.72
  -4  -2   5  916.90   67.71
   4   2  -5  981.14   69.47
  -5  -2   5  357.79   30.25
  -5   2   5  354.47   30.02
   5   2  -5  368.81   30.71
   5  -2  -5  334.50   30.11
   5   2  -5  317.90   31.75
   5   2  -5  322.34   29.56
   6   2  -5  126.30   16.11
   6  -2  -5  143.38   16.34
  -6  -2   5  125.51   15.89
  -6   2   5  118.86   15.74
   6   2  -5  153.92   18.81
   6   2  -5  159.43   16.14
  -7  -2   5  239.63   25.20
  -7   2   5  235.75   25.41
   7   2  -5  305.18   26.84
   7  -2  -5  304.13   27.02
   7   2  -5  255.42   28.05
  -8  -2   5  321.94   29.63
  -8   2   5  324.35   29.96
   8   2  -5  248.76   28.32
   8   2  -5  267.73   30.32
   8  -2  -5  297.76   25.27
   9   2  -5  184.72   20.27
   9  -2  -5  166.85   20.01
   9  -2  -5  118.39   12.89
  10   2  -5  104.13   17.21
  10  -2  -5  148.27   19.37
  11   2  -5   91.83   16.07
  11  -2  -5   44.20   13.62
  12   2  -5    8.01    9.38
  12  -2  -5   16.07   11.19
 -13   2   5   16.97    9.98
 -14   2   5   33.38   11.62
  -8  -3  -5   17.41   14.10
  -8   3  -5    3.72    8.72
  -8  -3  -5   22.30   11.24
  -7  -3  -5   44.20   14.65
  -7   3  -5   47.73   12.32
  -7  -3  -5   40.78   11.62
  -6  -3  -5   58.72   15.23
  -6   3  -5   61.95   12.64
  -6  -3  -5   52.44   12.06
   6  -3   5   37.36    9.80
  -5   3  -5   17.50    6.63
  -5  -3  -5   23.22   10.37
  -5   3  -5   47.62   10.47
  -5  -3  -5   16.71    7.91
  -5  -3  -5   24.46    9.30
   5  -3   5   25.60    9.02
   4  -3   5   30.29    8.39
  -4  -3  -5   17.87    9.65
  -4   3  -5   29.99    8.18
  -4  -3  -5   44.83    9.43
   3  -3   5   26.60    9.17
  -3  -3  -5   23.92   10.09
  -3   3  -5   24.22    7.72
  -3  -3  -5   17.58    7.42
   2  -3   5   57.19   10.83
  -2  -3  -5   63.62   12.09
  -2   3  -5   42.67    9.13
  -2  -3  -5   66.06    9.69
   2   3   5   58.72   10.53
   1   3   5  135.58   14.66
  -1  -3  -5  117.36   12.99
   0   3   5   87.92   10.83
   0  -3   5  111.20   11.20
   0   3   5   68.11    9.97
   0   3  -5   87.91   14.27
   0   3  -5   61.55    9.63
   0  -3  -5   94.92   10.92
  -1   3   5  100.26   11.71
  -1  -3   5   72.39   10.08
  -1   3   5   83.64   10.42
   1   3  -5   95.68   14.52
   1   3  -5   93.96   10.98
   1  -3  -5   82.80   10.48
   2  -3  -5   16.31    4.90
  -2   3   5   11.44    5.71
   2   3  -5   10.45    5.35
   2  -3  -5   17.23    6.23
  -2  -3   5   14.77    4.90
  -2   3   5   15.10    5.09
   2   3  -5   26.81    9.09
   3  -3  -5   41.04    8.20
   3   3  -5   67.38    9.15
   3   3  -5   56.24   12.20
  -3  -3   5   43.54    7.96
  -3   3   5   55.26    8.02
   4   3  -5   24.52    8.63
   4   3  -5    9.34    5.41
   4  -3  -5    7.54    5.46
  -4  -3   5   12.10    4.97
  -4   3   5   18.28    5.69
  -5   3   5   92.73   11.63
  -5  -3   5   85.15   11.33
   5   3  -5   98.15   12.30
   5  -3  -5  100.86   13.11
   5   3  -5   99.34   16.05
   5  -3  -5  105.55   10.68
   5   3  -5   87.85   14.33
  -6  -3   5   39.57    9.31
  -6   3   5   65.51   10.36
   6   3  -5   40.62    9.41
   6  -3  -5   38.76    8.98
   6   3  -5   55.29   14.55
   7   3  -5    6.88    9.57
  -7  -3   5   12.16    7.87
   7   3  -5   15.15    7.23
   7  -3  -5   -2.55    5.96
  -7   3   5    2.42    6.12
   8   3  -5    8.30    7.71
   8  -3  -5    8.36    6.26
   8   3  -5    3.61   10.34
  -8  -3   5   10.72    8.11
   8  -3  -5   10.97    5.20
  -8   3   5   13.33    9.01
   9   3  -5    6.01    7.31
   9  -3  -5    3.03    7.91
  10   3  -5    3.29    7.74
  10  -3  -5   33.11   10.74
  11  -3  -5   -3.63    8.48
 -11   3   5    2.12    6.23
  12   3  -5   -3.94    8.39
  12  -3  -5   -7.93   10.69
 -12   3   5   11.83    7.65
  -8   4  -5   21.90   10.21
  -8  -4  -5   10.95   10.50
  -7  -4  -5   45.82   15.37
  -7   4  -5   57.34   13.45
  -7  -4  -5   66.97   14.28
  -6  -4  -5  148.41   22.10
  -6   4  -5  101.45   16.67
  -6  -4  -5  112.39   17.74
   6  -4   5  130.77   16.52
  -5  -4  -5   96.50   17.04
  -5   4  -5   85.55   14.12
  -5  -4  -5   95.52   14.70
  -5   4  -5   90.65   15.23
   5  -4   5   81.42   12.74
   4  -4   5  126.25   15.48
  -4  -4  -5  105.17   17.52
  -4   4  -5  112.35   15.50
  -4  -4  -5  142.85   16.57
  -4   4  -5  136.66   17.80
   3  -4   5   75.83   12.12
  -3  -4  -5   82.72   14.82
  -3   4  -5   94.48   12.51
  -3  -4  -5   81.43   12.33
  -3   4  -5   86.92   14.74
  -2  -4  -5  175.65   21.43
  -2   4  -5  231.10   20.32
  -2  -4  -5  189.52   19.59
  -2   4  -5  201.23   23.16
   2  -4   5  220.77   21.17
  -1   4  -5  355.61   29.84
  -1  -4  -5  357.51   29.87
  -1   4  -5  345.66   33.52
   1   4   5  357.27   30.79
   0   4  -5  476.40   35.46
   0  -4  -5  466.07   35.49
   0   4  -5  361.31   38.14
   0   4   5  419.42   35.21
  -1  -4   5  256.74   21.30
  -1   4   5  215.55   21.03
   1  -4  -5  243.78   21.45
   1   4  -5  257.45   21.55
   1   4  -5  299.24   27.80
  -1   4   5  234.70   21.65
   2   4  -5  301.43   25.08
   2  -4  -5  273.70   24.48
  -2  -4   5  250.74   23.10
  -2   4   5  278.38   23.60
   2   4  -5  299.40   29.62
  -2   4   5  292.35   23.23
   3   4  -5  638.99   47.56
   3  -4  -5  575.50   47.00
  -3  -4   5  594.86   46.15
  -3   4   5  600.57   46.20
   3   4  -5  618.99   52.87
   3   4  -5  601.64   51.28
  -3   4   5  631.98   45.30
   4   4  -5  352.77   29.15
   4  -4  -5  388.26   29.75
  -4  -4   5  370.81   28.30
  -4   4   5  299.47   27.41
   4   4  -5  318.52   33.53
   4  -4  -5  362.43   30.07
   4   4  -5  338.27   32.64
  -4   4   5  308.22   25.93
   5   4  -5  410.36   34.70
   5  -4  -5  404.03   34.57
  -5   4   5  442.80   34.12
  -5  -4   5  440.59   33.95
   5   4  -5  411.95   38.24
   5  -4  -5  376.54   33.48
  -6   4   5  326.74   27.92
   6   4  -5  356.43   28.52
   6  -4  -5  262.59   27.01
  -6   4   5  276.54   26.07
  -6  -4   5  298.32   26.46
   6   4  -5  316.93   33.51
  -7  -4   5   36.20    8.80
  -7   4   5   57.07   10.91
   7   4  -5   35.47   12.24
   7   4  -5   36.69    9.49
   7  -4  -5   51.55   10.08
  -8   4   5   71.26   13.81
  -8  -4   5  112.50   15.31
   8   4  -5   95.36   14.19
   8  -4  -5  106.58   15.24
   9   4  -5  125.07   18.37
   9  -4  -5  170.11   19.61
  10   4  -5  153.68   19.76
  10  -4  -5  113.13   17.36
 -10   4   5  128.94   14.68
 -11   4   5   37.66    8.58
  11   4  -5   17.59   10.31
  11  -4  -5   42.65   11.70
  12   4  -5   11.48   10.70
  12  -4  -5   23.20   11.12
  -8   5  -5   21.25   11.21
  -8  -5  -5    3.52    8.89
  -7  -5  -5   12.86   12.70
  -7   5  -5   35.91   12.16
  -7  -5  -5   22.51    9.83
  -6  -5  -5   23.54   11.87
  -6   5  -5   14.82    8.53
  -6  -5  -5    8.73    8.38
  -5  -5  -5   39.19   13.62
  -5  -5  -5   52.04   10.70
  -5   5  -5   29.06    9.28
   5  -5   5   36.66    8.75
   4  -5   5   44.73    9.48
  -4  -5  -5   70.40   14.74
  -4  -5  -5   60.44   10.39
  -4   5  -5   63.17   11.60
  -4   5  -5   46.39   12.71
  -4  -5  -5   55.61   10.61
  -4   5  -5   41.25    8.60
   3  -5   5   74.20   11.39
  -3  -5  -5   99.85   14.85
  -3   5  -5   67.88   10.90
  -3  -5  -5   59.49   10.87
  -3   5  -5   79.27   15.49
   2  -5   5   16.63    7.71
  -2  -5  -5   35.32   10.38
  -2   5  -5   50.31   13.03
  -2   5  -5   23.34    6.79
  -2  -5  -5   32.49    7.64
  -1   5  -5   35.53   11.83
  -1   5  -5   23.98    5.92
  -1  -5  -5   19.57    5.82
   0   5  -5   49.77   13.41
   0   5  -5   54.49    8.25
   0  -5  -5   61.28    8.88
   1   5  -5   82.03   16.47
   1   5  -5   93.78   11.16
  -1  -5   5   87.08   10.25
   1  -5  -5   92.64   11.63
  -1   5   5   86.34   10.27
   1   5  -5  105.49   17.05
  -2  -5   5    6.02    4.37
  -2   5   5    7.72    4.34
   2   5  -5    3.55   10.44
   2   5  -5   -1.55    4.56
   2  -5  -5    3.08    4.41
   3   5  -5   81.68   15.64
  -3  -5   5   83.98    9.88
  -3   5   5   91.95   10.27
   3  -5  -5   53.29   12.12
   3   5  -5   80.31   15.54
  -3   5   5   72.16    8.07
   3   5  -5   79.80   10.33
   3  -5  -5   56.32    9.19
   4  -5  -5    5.13    6.47
   4   5  -5    1.67    4.78
   4  -5  -5    1.67    4.21
   4   5  -5   -3.89   11.44
  -4  -5   5    1.37    4.14
  -4   5   5   -1.42    4.27
   4   5  -5    3.47    9.06
  -4   5   5    0.57    2.59
   5   5  -5   14.78    6.34
   5  -5  -5   25.94    6.84
   5   5  -5   30.82   10.65
  -5  -5   5   13.94    5.56
   5  -5  -5   26.24    8.55
  -5   5   5   20.61    5.79
  -5   5   5   16.67    2.46
  -6  -5   5   46.58    8.58
   6   5  -5   28.94    7.77
   6  -5  -5   45.93    9.02
  -6   5   5   28.11    7.23
  -7   5   5    7.78    5.58
  -7  -5   5   -1.93    5.37
  -7   5   5    9.07    6.49
   7   5  -5    6.76    5.70
   7  -5  -5    4.57    5.97
   8  -5  -5    7.23    4.73
  -8   5   5    1.35    1.73
  -8  -5   5   -2.62    7.50
  -8   5   5   15.34    7.11
   8   5  -5    2.50    6.74
   8  -5  -5   15.17    7.23
  -9   5   5    1.63    3.46
   9   5  -5   11.10    7.25
   9  -5  -5   -2.81    7.35
  10   5  -5   30.74    9.50
  10  -5  -5   -3.12    8.68
  11   5  -5   10.14    7.96
  11  -5  -5   27.40   11.36
  -7   6  -5    9.12    9.41
  -6  -6  -5   32.03   13.83
  -6   6  -5   27.61    9.22
  -6  -6  -5   10.87    7.90
  -5  -6  -5   51.03   14.74
  -5   6  -5   27.11    8.81
  -5  -6  -5   38.92    9.16
  -4  -6  -5   78.81   14.83
  -4   6  -5   64.51   10.31
  -4   6  -5   47.76    9.66
  -4  -6  -5   43.00   10.11
  -3  -6  -5  193.51   23.00
  -3   6  -5  195.94   19.56
  -3  -6  -5  200.43   19.92
  -3  -6  -5  184.74   19.55
  -3   6  -5  196.09   19.45
  -3   6  -5  188.93   24.53
   3  -6   5  202.10   19.81
  -2  -6  -5  103.43   13.27
   2  -6   5  108.00   14.36
  -2  -6  -5  106.07   16.16
  -2   6  -5  135.44   14.02
  -2   6  -5  127.24   19.90
  -2   6  -5  125.26   13.70
  -2  -6  -5  132.84   14.11
  -1   6  -5  128.48   13.74
  -1  -6  -5  147.63   14.40
  -1   6  -5  120.79   20.19
   0   6  -5   95.50   11.53
   0  -6  -5   95.21   11.62
   0   6  -5   94.67   19.02
   1   6  -5  326.91   26.70
   1  -6  -5  316.12   26.52
   1  -6  -5  308.29   33.62
   1   6  -5  325.16   34.90
   2   6  -5  234.18   19.35
   2  -6  -5  216.96   18.99
  -2   6   5  193.02   18.30
   2  -6  -5  249.72   27.00
   3   6  -5  207.97   16.44
   3  -6  -5  167.18   15.75
  -3  -6   5  148.75   14.85
  -3   6   5  154.39   15.25
   3  -6  -5  173.48   22.08
   4   6  -5  150.98   14.84
   4  -6  -5  142.62   14.61
  -4  -6   5  137.93   14.05
  -4   6   5  155.51   14.67
   4  -6  -5  149.26   19.54
   5   6  -5  114.99   12.85
   5  -6  -5  124.95   13.32
  -5  -6   5  131.37   12.77
   6   6  -5  156.58   16.73
  -6  -6   5  152.38   16.18
  -6   6   5  190.75   17.00
   6  -6  -5  136.96   16.19
   7   6  -5  185.55   19.80
  -7   6   5  209.49   20.21
  -7  -6   5  191.09   19.49
   7  -6  -5  158.96   19.87
  -8   6   5   51.15    9.57
   8   6  -5   48.53    9.93
   8  -6  -5   73.05   11.82
   8  -6  -5   51.21    8.19
   9   6  -5   52.05   10.24
   9  -6  -5   66.35   12.25
  10  -6  -5   26.53    9.43
  10   6  -5   17.35    8.17
  -5  -7  -5    3.68   11.65
  -4  -7  -5    9.98   11.23
  -4   7  -5    7.54    5.11
  -3  -7  -5   29.69   12.00
  -3  -7  -5   28.51   15.01
  -3   7  -5   27.56    6.83
  -2  -7  -5  -21.16   14.71
  -2   7  -5    5.41    4.38
  -1   7  -5    9.74    5.20
  -1   7  -5   13.05    4.31
  -1  -7  -5   14.81   13.74
   0   7  -5   22.38    5.12
   0   7  -5   11.71    4.25
   0  -7  -5    9.34   12.63
   1   7  -5   16.17    4.13
   1  -7  -5   15.23    4.20
   2   7  -5   13.13    3.96
   2  -7  -5   20.99    4.05
   2  -7  -5   12.63   12.75
   3  -7  -5    7.63    3.41
   3  -7  -5   15.84   10.70
   3   7  -5   13.16    3.72
   4   7  -5    6.05    3.35
  -4   7   5    4.07    3.51
  -5   7   5    7.26    3.84
   5   7  -5    2.46    3.33
   6  -7  -5    6.09    9.25
   6   7  -5   22.30    5.88
   7   7  -5    5.30    5.86
   7  -7  -5   16.46    9.92
   8   7  -5   -2.05    5.17
  -2  -8  -5   41.07   17.47
  -1  -8  -5   60.62   17.52
   0  -8  -5  125.42   22.54
   1  -8  -5   54.74   17.51
   2  -8  -5   75.63   18.20
   3  -8  -5   59.55   17.27
   3  -8  -5   66.37   16.36
   4  -8  -5   89.18   18.56
   5  -8  -5   66.45   16.87
   6  -8  -5   42.78   11.68
   1  -9  -5   19.17   16.74
   2  -9  -5   17.49   16.25
   3  -9  -5   26.33   15.17
   4  -9  -5   18.87   15.64
  -8   0  -6  114.00   19.03
  -7   0  -6   14.99    9.16
  -6   0  -6   24.07    9.97
  -5   0  -6   12.53    7.37
   4   0   6   29.15    9.88
  -4   0  -6   36.89    9.64
  -3   0  -6  221.93   23.07
   3   0   6  231.54   23.91
  -2   0  -6  267.55   24.23
   2   0   6  217.45   23.80
  -1   0  -6  349.78   31.45
   1   0   6  380.25   32.16
   0   0   6   89.10   13.00
   0   0   6   81.27   11.66
   0   0  -6  114.81   12.91
  -1   0   6  872.47   63.71
   1   0  -6  817.61   63.83
  -2   0   6 1273.34   91.45
   2   0  -6 1230.74   91.93
   3   0  -6  695.29   54.90
  -3   0   6  699.99   53.34
   4   0  -6 1019.41   81.32
  -4   0   6 1140.49   80.34
   5   0  -6  246.71   23.97
  -5   0   6  235.80   22.37
  -6   0   6  480.73   42.93
   6   0  -6  537.89   44.09
   6   0  -6  529.81   38.94
   7   0  -6   94.40   13.52
  -7   0   6  101.02   14.22
  -8   0   6  168.66   20.46
   8   0  -6  161.47   20.61
   8   0  -6  193.60   20.79
   9   0  -6   24.53    9.40
   9   0  -6    6.69    7.54
  10   0  -6   47.20   11.03
  10   0  -6   42.87   12.43
  11   0  -6   80.12   15.97
  12   0  -6   53.31   15.08
  -8   1  -6    8.12   11.10
  -8  -1  -6   56.87   13.82
  -7   1  -6   48.61   13.91
  -7  -1  -6   67.27   14.13
  -6  -1  -6   20.60    9.64
  -5  -1  -6   97.01   16.05
   4  -1   6   33.74   10.39
  -4  -1  -6   51.03   11.26
   4   1   6   56.75   11.66
   3   1   6   27.30    8.60
   3  -1   6   14.44    8.51
   2  -1   6  131.48   17.41
  -2  -1  -6  149.92   16.85
  -1  -1  -6  185.00   18.95
   1  -1   6  188.02   20.49
   0  -1   6  103.79   12.64
   0  -1  -6  104.63   12.78
  -1  -1   6  312.41   26.78
   1  -1  -6  306.33   27.01
  -2  -1   6   36.20    7.01
   2  -1  -6   20.10    6.68
   3  -1  -6   54.08   10.11
  -3  -1   6   58.53    8.72
   4  -1  -6   20.31    7.06
  -4  -1   6   14.05    5.28
  -5  -1   6   85.16   11.31
   5  -1  -6   97.38   13.65
   6  -1  -6   12.77    6.42
   6   1  -6   33.64    7.26
  -6  -1   6   23.63    8.28
  -6   1   6   33.07    9.43
   6   1  -6   23.71    9.54
   7  -1  -6   63.90   11.79
  -7  -1   6   44.03   10.33
  -7   1   6   51.92   10.65
   7   1  -6   24.59   10.04
  -8  -1   6   28.11    8.95
  -8   1   6   36.70   10.30
   8   1  -6   34.09   10.71
   8  -1  -6   51.83   10.70
   8  -1  -6   18.40    8.32
   9   1  -6   96.68   15.86
   9  -1  -6  101.40   13.66
   9  -1  -6   70.16   14.12
  10  -1  -6    3.86    6.51
  10  -1  -6    3.57    7.22
  10   1  -6    3.01    9.94
  11  -1  -6    3.81    8.52
  12   1  -6    4.08    8.71
  12  -1  -6    4.10    8.29
  -8   2  -6   12.12   10.56
  -8  -2  -6    4.04    9.84
  -7   2  -6    7.46   10.22
  -7  -2  -6   59.79   13.45
  -6   2  -6   34.28   11.34
  -6  -2  -6   47.87   12.86
  -5  -2  -6  112.96   19.17
  -5   2  -6  124.79   17.53
  -5  -2  -6  137.00   18.96
  -4   2  -6  253.66   27.68
  -4  -2  -6  286.80   28.42
   4  -2   6  324.62   28.87
   3  -2   6  114.37   17.65
  -3   2  -6  177.18   18.89
  -3  -2  -6  177.41   18.75
   3   2   6  169.82   19.37
  -2   2  -6  284.22   26.20
  -2  -2  -6  270.95   26.04
   2   2   6  288.71   26.75
   2  -2   6  262.30   26.32
  -1   2  -6  858.71   63.79
  -1  -2  -6  807.64   63.43
   1   2   6  867.16   64.12
   1  -2   6  782.34   63.52
   0  -2   6  462.57   39.36
   0   2   6  526.51   40.18
   0   2  -6  484.70   40.11
   0  -2  -6  554.92   40.77
   0   2   6  457.00   40.08
  -1  -2   6  193.06   17.55
  -1   2   6  187.22   17.40
   1  -2  -6  220.16   18.66
   1   2  -6  128.34   16.25
  -1   2   6  146.12   17.19
  -2  -2   6  266.96   21.80
  -2   2   6  202.08   20.63
   2  -2  -6  240.55   21.75
   2   2  -6  219.15   21.42
   3   2  -6  215.95   20.91
   3  -2  -6  212.15   20.66
  -3  -2   6  229.70   19.55
  -3   2   6  163.00   18.32
   4   2  -6  227.71   23.85
   4  -2  -6  312.66   25.86
  -4  -2   6  229.83   22.54
  -4   2   6  267.34   23.24
   5   2  -6  733.55   56.48
   5  -2  -6  661.07   55.71
  -5   2   6  705.98   54.74
  -5  -2   6  717.93   54.81
   5   2  -6  719.80   58.23
   5   2  -6  727.40   55.77
   6   2  -6  685.30   49.91
   6  -2  -6  584.81   48.88
  -6   2   6  632.33   47.69
  -6  -2   6  565.56   46.90
   6   2  -6  716.31   52.33
   6  -2  -6  558.62   42.09
   6   2  -6  660.60   48.27
  -7  -2   6  465.66   40.12
  -7   2   6  458.59   39.96
   7   2  -6  451.68   40.06
   7  -2  -6  508.39   41.22
   7   2  -6  427.63   41.57
  -8  -2   6  123.55   16.18
  -8   2   6  143.90   17.32
   8   2  -6  107.90   17.54
   8  -2  -6   93.83   14.58
   8  -2  -6   98.58   13.20
   8   2  -6   78.00   14.20
   9   2  -6  205.84   24.32
   9  -2  -6  143.74   17.05
   9   2  -6  187.40   22.60
   9  -2  -6  218.71   23.80
  10   2  -6  118.93   17.47
  10  -2  -6  112.30   17.03
  10  -2  -6   83.97   11.39
  11   2  -6   56.19   13.99
  11  -2  -6   41.46   12.62
  12   2  -6   72.69   15.12
  12  -2  -6   16.26   11.58
 -14   2   6    2.95    8.90
  -7  -3  -6   12.90   13.90
  -7   3  -6    7.40   10.28
  -7  -3  -6   -7.36   10.53
  -6  -3  -6   31.73   14.17
  -6   3  -6   61.14   13.64
  -6  -3  -6   33.75   11.04
  -5  -3  -6   58.07   14.68
  -5   3  -6   61.78   12.10
  -5  -3  -6   39.95   10.11
   4  -3   6   36.97    9.41
  -4  -3  -6   36.34   12.02
  -4   3  -6   30.59    9.30
  -4  -3  -6   36.04    9.46
   3  -3   6  103.86   15.42
  -3   3  -6  102.82   14.64
  -3  -3  -6   75.27   13.21
   3   3   6  111.35   15.72
   2  -3   6  146.64   17.09
  -2   3  -6  143.07   16.59
  -2  -3  -6  136.39   16.17
   2   3   6  129.76   16.88
   1   3   6  113.06   15.07
  -1  -3  -6   90.62   13.24
   0   3   6  117.19   15.44
   0   3   6  159.46   15.72
   0   3  -6  167.85   16.12
   0  -3   6  130.34   14.80
   0  -3  -6  117.15   14.94
  -1   3   6   24.61    7.90
  -1  -3   6   29.93    7.08
  -1   3   6   56.67    8.32
   1   3  -6   26.20   10.25
   1   3  -6   25.70    7.13
   1  -3  -6   33.01    7.01
   2  -3  -6   24.98    6.69
   2   3  -6   14.09    5.31
  -2   3   6   15.93    6.55
  -2  -3   6   22.60    5.98
  -2   3   6   21.38    5.88
  -3   3   6   14.74    6.62
   3   3  -6   21.60   10.63
   3   3  -6   23.64    7.12
   3  -3  -6    2.14    5.43
  -3  -3   6   16.31    6.15
  -3   3   6    3.28    4.74
   4   3  -6   61.01   10.38
   4  -3  -6   61.48   10.23
  -4  -3   6   61.95    9.47
  -4   3   6   60.45    9.43
   4   3  -6   55.25   12.34
   5   3  -6    3.34   10.33
   5   3  -6   -7.87    7.71
  -5  -3   6    5.50    5.66
  -5   3   6   -1.84    4.97
   5   3  -6   -2.30    6.00
   5  -3  -6    2.32    6.06
  -6   3   6    1.98    5.52
  -6  -3   6    9.79    6.06
   6   3  -6    4.94    6.67
   6  -3  -6    2.50    5.86
   6   3  -6    6.96   11.25
   6   3  -6    2.58    7.59
   6  -3  -6    6.01    3.89
  -7  -3   6   15.32    8.09
  -7   3   6   -2.54    6.20
   7   3  -6    8.08    7.51
   7  -3  -6   19.07    8.63
   7   3  -6   17.98   11.12
   8   3  -6   56.48   14.72
  -8  -3   6   53.31   11.49
  -8   3   6   47.57   11.47
   8   3  -6   53.21   11.73
   8  -3  -6   32.93   10.60
   9   3  -6   -3.19    8.34
   9  -3  -6    6.46    7.23
   9   3  -6    7.83   10.55
   9  -3  -6    2.50    4.84
  10   3  -6   10.20    8.32
  10  -3  -6   20.62    9.32
  11   3  -6    3.67    8.56
  11  -3  -6    3.70    9.00
  12   3  -6  -15.83    9.63
  12  -3  -6    4.00    8.54
  -7  -4  -6   22.10   14.74
  -7   4  -6   28.95   11.37
  -7  -4  -6   39.35   12.93
  -6  -4  -6   40.76   13.88
  -6   4  -6   66.49   13.12
  -6  -4  -6   42.68   11.78
  -5  -4  -6   97.13   18.50
  -5   4  -6   93.55   15.12
  -5  -4  -6  125.53   17.62
   4  -4   6   73.57   12.89
  -4  -4  -6   78.21   15.68
  -4   4  -6  111.93   14.72
  -4  -4  -6   76.00   13.33
  -4   4  -6   66.24   15.29
   3  -4   6  152.58   17.53
  -3  -4  -6  141.31   19.25
  -3   4  -6  125.47   16.48
  -3   4  -6  172.43   20.68
  -3  -4  -6   95.90   14.99
  -2   4  -6  365.49   37.26
  -2   4  -6  420.95   34.81
  -2  -4  -6  427.43   34.77
   2  -4   6  371.46   34.48
  -1   4  -6  145.08   15.52
  -1   4  -6  116.19   19.18
  -1  -4  -6  127.47   14.77
   1   4   6  118.79   15.42
   0   4  -6  256.78   22.37
   0  -4  -6  198.76   21.66
   0   4  -6  255.53   27.34
   0   4   6  250.78   23.01
  -1  -4   6  233.91   22.26
  -1   4   6  267.90   23.09
   1  -4  -6  256.94   23.37
   1   4  -6  257.80   23.35
   1   4  -6  235.82   27.37
  -1   4   6  278.52   23.66
  -2   4   6  128.27   14.85
   2  -4  -6  173.99   17.14
  -2  -4   6  194.94   16.16
  -2   4   6  156.76   15.40
   2   4  -6  117.93   15.35
   2   4  -6  101.46   18.82
   3   4  -6  175.89   18.92
   3  -4  -6  219.09   19.61
  -3  -4   6  224.68   18.40
  -3   4   6  166.54   17.19
   3   4  -6  136.95   22.09
   3   4  -6  155.62   21.63
  -3   4   6  167.92   17.22
   4   4  -6  339.49   30.88
   4  -4  -6  306.74   30.59
  -4  -4   6  384.51   30.36
  -4   4   6  364.00   30.10
   4   4  -6  324.73   36.63
   4   4  -6  326.15   34.17
  -4   4   6  409.33   29.30
   5   4  -6  420.70   32.56
   5  -4  -6  328.02   31.16
  -5  -4   6  405.52   30.91
  -5   4   6  366.94   30.59
   5  -4  -6  317.72   30.07
   5   4  -6  306.66   33.82
   6   4  -6   55.14   10.74
   6  -4  -6   48.51   10.47
   6   4  -6   43.10   15.16
   6   4  -6   64.44   13.43
  -6   4   6   59.05    9.72
  -6  -4   6   50.66    9.18
   7   4  -6  300.97   27.62
   7  -4  -6  273.06   27.17
  -7   4   6  296.45   26.37
  -7  -4   6  249.62   25.44
  -8  -4   6  138.08   18.74
  -8   4   6  119.86   17.14
   8   4  -6  157.78   19.27
   8  -4  -6  177.30   19.75
   9  -4  -6  228.46   22.56
   9   4  -6  201.08   21.36
  10   4  -6  157.82   20.79
  10  -4  -6  166.54   20.99
  11   4  -6   35.63   11.02
  11  -4  -6   28.85   11.66
 -11   4   6   39.50    8.04
  12   4  -6   19.26   10.14
  12  -4  -6   19.49   10.92
  -7   5  -6   27.76   10.33
  -7  -5  -6   20.57    9.94
  -6  -5  -6   12.52   15.43
  -6   5  -6   19.21    9.19
  -6  -5  -6    3.15    8.80
  -5  -5  -6   49.80   15.08
  -5   5  -6   46.65   11.73
  -5  -5  -6   69.14   13.13
   4  -5   6   62.99   11.83
  -4  -5  -6   70.58   12.62
  -4  -5  -6   69.76   16.30
  -4   5  -6   78.16   16.57
  -4   5  -6   71.24   12.97
   3  -5   6   79.81   12.63
  -3  -5  -6   59.84   14.11
  -3   5  -6   75.64   12.05
  -3  -5  -6   70.61   11.69
  -3   5  -6   62.55   14.49
   2  -5   6   12.93    8.57
  -2   5  -6   31.62   13.66
  -2   5  -6   23.35    6.84
  -2  -5  -6   14.90    6.85
  -1   5  -6   78.19   15.62
  -1   5  -6   60.11   10.07
  -1  -5  -6   45.20    8.80
   0   5  -6   37.44    7.21
   0  -5  -6   20.10    6.26
   1  -5  -6   -5.18    4.66
   1   5  -6   11.55    5.33
  -1  -5   6    1.51    4.55
  -1   5   6    1.61    4.96
   1   5  -6    3.71   11.18
  -1   5   6   -1.66    5.60
  -2  -5   6   34.28    7.04
  -2   5   6   28.27    6.99
   2   5  -6   33.40    7.94
   2  -5  -6   35.22    8.75
  -2   5   6   28.38    6.88
  -3  -5   6   27.07    6.48
   3   5  -6   47.03   14.37
  -3   5   6   32.77    6.70
   3   5  -6   27.07    6.82
   3  -5  -6   30.95    7.97
   3   5  -6   29.69   10.80
  -3   5   6   26.14    6.11
   4   5  -6   19.79    6.19
  -4   5   6   19.48    4.79
   4  -5  -6    7.96    5.29
  -4  -5   6   11.05    5.19
  -4   5   6   11.32    5.21
   4  -5  -6   24.30    8.78
   4   5  -6   11.00    9.62
  -5   5   6   33.18    5.62
   5   5  -6   35.70    9.12
   5  -5  -6   33.77    8.47
   5   5  -6   39.81   12.95
  -5  -5   6   46.16    8.49
  -5   5   6   45.43    8.08
   5  -5  -6   47.60   10.36
  -6   5   6   58.78    7.29
   6   5  -6   70.72   11.78
   6  -5  -6   91.70   12.52
  -6  -5   6   80.66   10.90
  -6   5   6   80.15   11.21
  -7   5   6    3.61    3.72
   7   5  -6   -2.50    6.31
   7  -5  -6    5.05    6.59
  -7   5   6   -2.07    5.42
  -7  -5   6    6.14    6.02
  -8   5   6   35.87    8.65
  -8  -5   6   46.89    9.61
   8   5  -6   13.35    7.69
   8  -5  -6   29.69    8.95
   9  -5  -6   10.63    4.95
   9   5  -6    5.77    7.08
   9  -5  -6   26.29    9.28
  -9   5   6   15.97    4.42
  10   5  -6   -3.14    7.35
  10  -5  -6   -3.18    7.43
  11   5  -6    3.42    8.00
  11  -5  -6   13.85    9.64
  -7   6  -6   22.80    9.94
  -6   6  -6   18.02    8.91
  -5  -6  -6   31.17   13.44
  -5   6  -6   24.60    9.11
  -5  -6  -6    8.09    7.59
  -4   6  -6   29.46    8.51
  -4  -6  -6   17.06    8.45
  -3   6  -6   55.28    9.90
  -3   6  -6   61.60   10.99
  -3  -6  -6   43.94    9.59
   2  -6   6   -2.08    7.94
  -2   6  -6    3.87   11.67
  -2   6  -6   15.84    7.31
  -2  -6  -6   -2.01    5.74
  -1   6  -6   17.78    6.52
  -1  -6  -6   43.90    7.94
   0  -6  -6  123.84   14.00
   0   6  -6  120.94   13.47
   1   6  -6  345.44   29.56
   1  -6  -6  339.32   29.80
   2   6  -6  479.92   38.09
   2  -6  -6  438.67   37.32
  -2  -6   6  506.42   36.78
  -2   6   6  442.89   36.69
   2  -6  -6  483.98   44.22
   3   6  -6  442.18   34.59
   3  -6  -6  472.03   34.88
  -3  -6   6  389.12   32.85
  -3   6   6  430.88   33.66
   3  -6  -6  326.33   38.31
   4  -6  -6  188.01   16.57
   4   6  -6  118.88   15.06
  -4  -6   6  135.48   14.58
  -4   6   6  151.09   15.25
   4  -6  -6  133.74   19.42
   5   6  -6   19.08    7.06
   5  -6  -6   33.95    8.73
  -5  -6   6   36.88    7.13
  -5   6   6   22.71    6.28
   5  -6  -6   31.69   11.15
  -6  -6   6   92.22   11.44
  -6   6   6   66.21   10.67
   6   6  -6   60.59   11.17
   6  -6  -6   66.61   11.31
   7   6  -6   44.62    9.25
   7  -6  -6   31.39    9.17
  -7   6   6   35.58    7.61
   8  -6  -6   74.77   11.92
   8   6  -6   95.18   13.38
   8  -6  -6   88.32   13.53
  -8   6   6  110.00   13.72
   9   6  -6   10.74    7.27
   9  -6  -6    8.12    6.86
  10  -6  -6   35.72   10.75
  10   6  -6   41.30   10.66
  11   6  -6   25.75   10.33
  -3   7  -6   33.03    7.63
  -2   7  -6   13.65    5.10
  -1   7  -6   26.43    6.53
  -1  -7  -6   30.51   14.66
   0   7  -6    1.65    4.97
   0  -7  -6   -4.76   11.11
   1   7  -6   11.61    5.28
   1  -7  -6   -9.02   12.17
   2   7  -6    6.70    4.72
   2  -7  -6    4.29   11.22
  -3   7   6   28.67    5.60
   3   7  -6   21.28    5.56
   3  -7  -6   20.37   11.77
  -4   7   6   14.18    4.56
   4   7  -6   16.95    5.49
   4  -7  -6   22.61   11.96
   5   7  -6   12.17    5.49
   6   7  -6   20.21    6.37
   7   7  -6    1.90    5.14
   7  -7  -6    5.77    9.34
   8   7  -6    6.45    5.81
  -1  -8  -6   67.61   19.91
   0  -8  -6   42.49   15.46
   1  -8  -6   50.49   17.69
   2  -8  -6   43.32   15.16
   3  -8  -6   59.12   15.25
   5  -8  -6   51.43   16.46
   6  -8  -6   37.20   13.74
   3  -9  -6   -5.64   15.69
   4  -9  -6  -10.13   13.25
  -7   0  -7  141.35   21.71
  -6   0  -7   41.01   13.12
  -5   0  -7   13.70    9.56
  -4   0  -7   40.74   11.13
   3   0   7   49.14   12.09
  -3   0  -7  109.37   14.96
   2   0   7    5.14    8.67
  -2   0  -7    7.95    7.16
   1   0   7   79.37   13.81
  -1   0  -7   88.24   13.02
   0   0   7  105.63   14.96
   0   0   7  115.58   13.84
   0   0  -7   85.04   12.74
  -1   0   7  936.67   67.56
   1   0  -7  833.84   67.50
  -2   0   7  928.53   68.68
   2   0  -7  884.77   69.08
  -3   0   7 1878.69  130.38
   3   0  -7 1733.82  130.59
   4   0  -7  465.23   40.40
  -4   0   7  472.91   38.68
   5   0  -7  193.19   20.91
  -5   0   7  184.31   19.44
   6   0  -7  251.67   25.51
  -6   0   7  229.45   22.98
  -7   0   7   92.55   13.46
   7   0  -7  105.99   15.91
   7   0  -7  108.35   16.07
   7   0  -7   94.96   10.43
  -8   0   7   82.71   14.38
   8   0  -7   81.00   14.48
   8   0  -7   71.02   13.83
   9   0  -7   27.80   11.18
   9   0  -7   17.49    8.63
  10   0  -7   27.72   10.55
  10   0  -7   22.74   10.36
  11   0  -7   47.96   14.11
  11   0  -7   46.76   11.88
  12   0  -7  193.80   25.20
  -7   1  -7   44.31   12.76
  -7  -1  -7   80.58   16.54
  -6   1  -7   37.23   11.97
  -6  -1  -7   26.04   11.96
  -5  -1  -7   40.98   12.29
  -4  -1  -7   62.62   12.68
   3  -1   7   43.26   11.96
  -3  -1  -7   34.51    9.85
   2  -1   7   59.30   12.80
  -2  -1  -7   87.49   13.23
   1  -1   7  179.77   20.52
  -1  -1  -7  180.90   19.64
   0   1   7   80.42   13.88
   0  -1   7   95.80   13.24
   0  -1  -7  119.01   13.80
  -1   1   7   73.48   12.34
  -1  -1   7   75.73   10.95
   1  -1  -7   74.77   11.57
  -2  -1   7   94.21   12.11
   2  -1  -7   92.63   12.52
   3  -1  -7   36.25    8.36
   3  -1  -7   37.71    8.97
  -3  -1   7   32.51    7.34
   4  -1  -7   -2.60    7.24
  -4  -1   7   -1.97    5.15
   5  -1  -7   93.77   13.75
  -5  -1   7   76.49   11.81
   6  -1  -7  239.61   24.68
  -6  -1   7  246.46   23.15
   6   1  -7  222.76   25.61
   6   1  -7  225.69   21.84
  -7   1   7   81.16   12.10
  -7  -1   7   76.05   11.52
   7  -1  -7   60.41   12.06
   7   1  -7   69.53   14.57
   7  -1  -7   53.50    5.53
   7   1  -7   72.85   10.25
  -8  -1   7   55.98   11.70
  -8   1   7   53.18   12.23
   8   1  -7   31.12   11.93
   8  -1  -7   60.62   11.73
   9   1  -7   22.29   10.09
   9  -1  -7   38.34   10.58
   9  -1  -7   38.49   10.78
  10   1  -7   48.72   13.38
  10  -1  -7   32.69   10.51
  10  -1  -7   34.10   12.25
  11  -1  -7   19.85   11.05
  11  -1  -7    2.19    7.67
  12   1  -7   16.72   11.29
  12  -1  -7    4.20    9.41
  -7   2  -7   31.96   12.19
  -7  -2  -7   23.95   11.88
  -6   2  -7   44.33   12.19
  -6  -2  -7   25.81   12.90
  -5   2  -7  108.66   16.66
  -5  -2  -7   74.60   14.09
  -4   2  -7   90.40   14.85
  -4  -2  -7   93.52   14.85
   3  -2   7  118.25   16.96
  -3   2  -7  131.63   17.06
  -3  -2  -7  111.79   16.52
  -2   2  -7  379.50   34.16
  -2  -2  -7  377.09   34.30
   2   2   7  391.51   34.76
   2  -2   7  358.80   33.97
  -1  -2  -7  342.52   32.66
   1   2   7  390.31   33.77
   1  -2   7  309.15   32.50
   0  -2   7  395.65   32.65
   0   2   7  380.84   32.38
   0   2  -7  371.82   32.70
   0  -2  -7  394.74   33.13
   0   2   7  317.98   32.51
  -1  -2   7  241.74   23.22
  -1   2   7  220.03   22.95
   1   2  -7  216.69   23.13
   1  -2  -7  293.68   24.55
  -1   2   7  278.41   24.61
  -2   2   7   84.01   13.15
  -2  -2   7  108.95   12.40
  -2   2   7   77.21   11.43
   2  -2  -7   68.52   11.24
   2   2  -7   84.16   11.85
   3   2  -7  129.67   16.32
   3  -2  -7   99.87   14.32
  -3  -2   7  108.48   13.21
  -3   2   7  112.64   13.55
   4   2  -7  316.93   28.87
   4  -2  -7  293.79   28.38
  -4  -2   7  303.87   26.85
  -4   2   7  280.55   26.49
   5   2  -7  419.94   35.59
   5  -2  -7  380.38   35.20
  -5  -2   7  399.39   33.51
  -5   2   7  371.76   33.03
   5   2  -7  390.69   37.57
   6   2  -7  398.96   35.53
   6  -2  -7  422.86   36.03
  -6   2   7  361.70   33.17
  -6  -2   7  393.91   33.66
   6   2  -7  369.35   37.42
   6   2  -7  377.73   33.74
   7   2  -7  175.48   23.19
   7  -2  -7  228.24   24.93
  -7   2   7  284.60   24.52
  -7  -2   7  265.82   23.84
   7   2  -7  236.50   27.10
   7   2  -7  210.03   22.60
  -8  -2   7  149.44   20.48
  -8   2   7  188.08   21.18
   8   2  -7  169.03   21.59
   8  -2  -7  180.50   21.96
   8   2  -7  194.41   23.84
   9  -2  -7  201.26   22.38
   9   2  -7  231.41   27.53
   9   2  -7  237.75   26.13
   9  -2  -7  243.56   26.19
  10   2  -7   78.52   17.19
  10  -2  -7   87.61   13.11
  10   2  -7   96.81   16.57
  10  -2  -7   82.18   16.03
  11   2  -7   35.01   12.31
  11  -2  -7   90.30   16.10
  12   2  -7   49.51   14.86
  12  -2  -7   20.81   10.32
  -7   3  -7   -7.86   11.85
  -7  -3  -7   11.74    9.87
  -6   3  -7   32.81   11.58
  -6  -3  -7   47.15   12.28
  -5   3  -7   23.57   10.53
  -5  -3  -7   23.47   10.96
  -4  -3  -7   61.69   12.60
  -4   3  -7   55.64   12.09
   3  -3   7  114.26   16.49
  -3   3  -7   99.21   15.24
  -3  -3  -7  119.19   15.95
   2  -3   7    5.08    7.86
  -2   3  -7    7.81    6.59
  -2  -3  -7   15.61    7.66
   2   3   7    2.63    7.54
   1   3   7  111.13   15.11
   1  -3   7  114.47   15.21
  -1   3  -7   81.81   13.60
  -1  -3  -7   84.11   13.29
   0   3   7   95.36   14.66
   0  -3   7  123.68   14.09
   0   3   7   84.17   12.73
   0   3  -7   82.03   12.58
   0  -3  -7  133.75   14.84
  -1   3   7   43.42    9.71
  -1  -3   7   17.50    6.90
  -1   3   7   24.06    7.36
   1   3  -7   17.45    6.96
   1  -3  -7   36.89    8.33
   2  -3  -7   58.87   10.00
   2   3  -7   79.77   11.13
  -2   3   7   64.93   11.49
  -2  -3   7   49.12    9.43
  -2   3   7   51.80   10.15
   2   3  -7   86.14   15.40
  -3   3   7   35.78    9.93
   3   3  -7   43.08   10.23
   3  -3  -7   87.29   12.36
  -3  -3   7   69.89   10.25
  -3   3   7   56.95    9.38
   3   3  -7   47.50   13.67
   4   3  -7   25.39    8.31
   4  -3  -7   22.80    8.63
  -4  -3   7   21.23    6.75
  -4   3   7   11.59    5.82
   5   3  -7   31.26    8.52
   5  -3  -7   15.76    8.02
  -5  -3   7   10.14    6.39
  -5   3   7   28.46    7.98
   5   3  -7   14.14    8.62
   6   3  -7    2.73    7.64
   6  -3  -7    8.31    7.04
   6   3  -7   26.21   12.39
   6   3  -7    8.35    7.55
  -6  -3   7   21.50    7.85
  -6   3   7   23.81    7.05
  -7   3   7   20.75    7.37
  -7  -3   7   27.42    7.92
   7   3  -7   11.61    8.37
   7  -3  -7   14.75    8.73
   7   3  -7   -3.86   10.78
   7   3  -7   13.38    8.13
  -8  -3   7    2.44    6.58
   8   3  -7   12.53    7.61
   8  -3  -7   -3.18    6.78
   9   3  -7    3.40    7.93
   9  -3  -7   -3.45    8.38
  10   3  -7    3.59    8.40
  10  -3  -7   14.59    9.53
  10  -3  -7    4.41    5.53
  11   3  -7    7.58    8.49
  12   3  -7    8.06    9.43
  12  -3  -7    8.17   10.68
  -6   4  -7   35.79   11.51
  -6  -4  -7   24.81   12.59
  -5   4  -7   62.88   14.49
  -5  -4  -7  105.01   16.30
  -4   4  -7   79.03   13.81
  -4  -4  -7   69.57   13.45
  -4   4  -7   83.74   18.12
  -3   4  -7   89.00   14.62
  -3   4  -7   60.65   16.23
   2  -4   7  112.91   17.48
  -2   4  -7  101.82   18.51
  -2   4  -7  122.24   16.02
  -2  -4  -7  160.23   16.90
   1  -4   7  166.19   20.88
  -1   4  -7  210.50   20.56
  -1  -4  -7  192.10   20.03
  -1   4  -7  153.60   22.42
   1   4   7  162.87   19.95
   0   4  -7  367.41   30.78
   0  -4  -7  287.74   29.15
   0   4  -7  348.48   34.85
   0   4   7  351.91   30.63
  -1   4   7   66.20   12.37
   1  -4  -7  160.26   15.66
  -1  -4   7  115.56   13.41
  -1   4   7  103.92   13.61
   1   4  -7  114.46   19.34
   1   4  -7  120.89   14.12
  -2   4   7   78.38   12.00
   2  -4  -7   89.16   12.52
   2   4  -7   87.33   11.86
   2   4  -7  110.65   14.09
   2  -4  -7   57.76   11.45
  -2  -4   7   74.55   11.47
  -2   4   7  100.86   12.47
   2   4  -7  117.53   18.61
  -3   4   7   35.57    8.78
   3   4  -7   31.97    9.07
   3  -4  -7   29.28    9.01
  -3  -4   7   46.22    8.21
  -3   4   7   28.06    7.50
   3   4  -7   30.30   12.46
  -4   4   7  110.11   13.86
   4   4  -7  101.81   19.19
  -4  -4   7  152.85   15.24
  -4   4   7  119.59   14.36
   4   4  -7  112.95   15.45
   4  -4  -7  142.94   16.60
   4   4  -7  101.36   17.68
  -5  -4   7  165.01   18.13
  -5   4   7  177.72   18.13
   5   4  -7  193.66   22.87
   5   4  -7  146.42   18.40
  -5   4   7  170.96   16.91
   5  -4  -7  168.65   19.40
   6   4  -7  269.31   26.83
   6  -4  -7  259.21   26.65
  -6  -4   7  279.45   25.35
  -6   4   7  294.27   25.64
   6  -4  -7  245.12   23.44
   6   4  -7  248.94   28.32
   7   4  -7  277.62   27.97
   7  -4  -7  253.36   27.54
  -7  -4   7  280.43   26.58
  -7   4   7  303.35   27.18
   7   4  -7  276.09   29.66
   8   4  -7  155.49   19.56
   8  -4  -7  120.96   17.97
   9   4  -7  148.07   19.57
   9  -4  -7  133.93   19.31
  10   4  -7   68.87   14.15
  10  -4  -7   70.02   14.56
  11   4  -7   32.96   12.49
  11  -4  -7   59.56   12.93
  12  -4  -7   19.85    9.37
  -6   5  -7    6.91   10.17
  -6  -5  -7   10.24    7.99
  -5  -5  -7   41.11   10.92
  -5   5  -7   28.82   11.06
  -4   5  -7   17.59    8.95
  -4  -5  -7   23.24    9.08
  -3   5  -7   15.70   13.55
  -3   5  -7   10.71    7.33
  -3  -5  -7   31.97    8.71
   2  -5   7   36.91   10.58
  -2   5  -7   31.97    8.72
  -2  -5  -7   19.73    7.92
  -1   5  -7   66.34   15.78
  -1   5  -7   84.35   11.59
  -1  -5  -7   52.78   10.46
   0   5  -7   29.80    7.62
   0  -5  -7   25.94    7.59
   0   5   7   13.07    7.51
   1  -5  -7   61.50   10.75
   1   5  -7   93.64   11.89
  -1   5   7   77.70   11.12
  -1   5   7   68.11   11.44
   2   5  -7   37.94    9.17
  -2  -5   7   28.25    6.88
   2  -5  -7   25.71    8.62
  -2   5   7   31.29    8.15
  -2   5   7   39.62    8.34
  -3   5   7   12.10    5.53
  -3  -5   7    7.08    4.81
  -3   5   7    9.08    5.38
   3   5  -7    9.27    5.88
   3  -5  -7    9.23    7.49
  -4   5   7   13.23    5.90
  -4  -5   7   23.58    7.18
  -4   5   7   18.51    6.17
   4   5  -7   32.58    8.58
   4  -5  -7   35.06    8.62
   5   5  -7   76.96   13.10
  -5   5   7   77.02   10.08
   5  -5  -7   87.55   13.52
  -5  -5   7   88.90   11.95
  -5   5   7   88.35   11.96
   5  -5  -7   84.64   14.24
  -6   5   7   26.37    6.22
   6   5  -7   30.42    9.01
   6  -5  -7   33.22    9.24
  -6  -5   7   36.47    8.06
  -6   5   7   41.20    8.97
   6  -5  -7   42.13    9.16
  -7   5   7   10.65    4.89
   7   5  -7   21.72    7.82
   7  -5  -7    5.47    6.19
  -7  -5   7   17.54    6.67
  -7   5   7   19.99    7.39
   8   5  -7   -8.78    8.38
   8  -5  -7   -2.96    8.00
   9   5  -7    9.27    6.94
   9  -5  -7    9.33    7.87
  10   5  -7   29.40    9.49
  10  -5  -7   19.85    9.07
  11   5  -7    3.50    8.51
  11  -5  -7  -10.63    8.62
  -6   6  -7   12.96    8.78
  -5   6  -7    8.98    7.56
  -5  -6  -7    2.96    7.73
  -4   6  -7   -5.49    7.18
  -4  -6  -7   16.35    8.42
  -3   6  -7   35.24    9.33
  -3  -6  -7   22.67    7.64
  -2   6  -7   50.77   10.25
  -2  -6  -7   55.74   10.55
   1  -6   7   38.36   11.26
  -1   6  -7   38.17    8.49
  -1  -6  -7   36.71    8.75
   0  -6  -7    8.04    6.41
   0   6  -7   15.52    6.05
   1   6  -7  202.49   20.54
   1  -6  -7  165.69   19.67
   2   6  -7  367.35   29.91
   2  -6  -7  311.68   28.98
  -2   6   7  296.31   27.65
   3   6  -7  339.78   31.43
   3  -6  -7  424.05   32.45
  -3  -6   7  374.56   30.44
  -3   6   7  339.34   30.32
   3  -6  -7  323.88   35.45
   4   6  -7  244.29   22.78
   4  -6  -7  234.72   22.53
  -4  -6   7  221.24   20.99
  -4   6   7  232.33   21.46
   4  -6  -7  179.77   24.53
   5   6  -7   66.23   11.18
   5  -6  -7   69.53   12.15
  -5  -6   7   76.60   10.72
  -5   6   7   82.14   10.78
   5  -6  -7   70.45   13.53
   6  -6  -7   39.44    9.25
  -6   6   7   31.02    7.72
   6   6  -7   28.15    8.51
  -7   6   7   25.20    7.63
   7  -6  -7   35.09    8.64
   8   6  -7   50.35   10.97
   8  -6  -7   50.34   11.94
   9   6  -7   28.33    8.94
   9  -6  -7   25.51    9.15
  10   6  -7   64.11   13.26
  11   6  -7    3.29    8.59
  -2   7  -7   22.40    7.30
  -1   7  -7   18.20    6.26
   0   7  -7   23.08    6.97
   1   7  -7    5.77    5.80
   1  -7  -7   -4.60   12.79
   2  -7  -7   -4.38   10.24
   2   7  -7   10.86    5.61
   3   7  -7    5.30    5.85
   3  -7  -7   12.48   11.22
   4   7  -7    5.36    5.68
   4  -7  -7   19.53   12.36
   5   7  -7    1.88    5.52
   5  -7  -7   -7.02    8.85
   6   7  -7   -2.00    5.55
   7   7  -7    8.49    6.58
   1  -8  -7   25.63   15.55
   2  -8  -7   29.32   14.86
   3  -8  -7   65.03   17.15
   4  -8  -7   25.96   13.16
  -6   0  -8   39.94   12.35
  -5   0  -8  100.54   17.84
  -4   0  -8   41.56   12.01
  -3   0  -8  115.88   17.40
  -2   0  -8   38.96   10.25
   1   0   8   -5.44    7.99
  -1   0  -8    5.61    6.82
   0   0   8  155.72   18.73
   0   0  -8  178.54   19.84
  -1   0   8   69.13   10.98
   1   0  -8   59.17   11.02
  -2   0   8  567.96   45.65
   2   0  -8  549.29   46.24
  -3   0   8 1183.15   91.02
   3   0  -8 1281.49   92.53
   4   0  -8  506.65   42.90
  -4   0   8  468.08   40.06
   5   0  -8  203.21   22.64
  -5   0   8  189.55   20.61
   6   0  -8   71.99   13.99
  -6   0   8   66.84   11.67
   7   0  -8   39.25   11.18
   7   0  -8   42.11    7.71
  -7   0   8   45.29   10.02
   8   0  -8  145.72   19.65
   8   0  -8  110.75   17.87
   9   0  -8  129.54   19.03
   9   0  -8   96.19   17.13
  10   0  -8   81.18   15.29
  10   0  -8   79.09   15.59
  11   0  -8   61.50   14.44
  11   0  -8   67.59   15.17
  12   0  -8   87.68   17.76
  -6   1  -8   35.87   11.81
  -6  -1  -8   11.97   10.18
  -5   1  -8   22.29    9.80
  -5  -1  -8   18.59   10.12
  -4   1  -8   89.87   15.62
  -4  -1  -8   65.71   13.58
  -3  -1  -8   57.95   12.15
  -2  -1  -8   38.91   10.43
   1  -1   8   70.44   14.05
  -1  -1  -8   81.14   13.02
   0   1   8   40.81   10.79
   0  -1   8   43.89   11.98
   0  -1   8   42.79    9.59
   0   1   8   24.07    8.23
   0  -1  -8   55.93   10.80
  -1   1   8  120.08   17.10
  -1  -1   8  126.13   16.02
   1  -1  -8  133.06   16.38
  -2  -1   8  121.23   15.70
   2  -1  -8  144.59   16.86
   3  -1  -8   44.05    9.32
  -3  -1   8   52.30   10.07
   4  -1  -8   65.01   12.67
  -4  -1   8   59.26   10.58
   5  -1  -8   90.25   14.23
  -5  -1   8   72.81   12.14
   6  -1  -8   18.69    9.21
  -6  -1   8    7.16    6.71
  -6   1   8   23.93    7.81
   7  -1  -8    3.27    8.25
   7   1  -8    6.72    9.87
   7   1  -8   13.30    6.66
  -7   1   8   -7.56    6.79
  -7  -1   8   -2.51    6.76
   8  -1  -8    3.47    8.43
   8   1  -8    3.42   10.30
   8   1  -8   -3.24    5.35
   9  -1  -8    3.70    8.66
   9   1  -8   20.91   10.79
   9  -1  -8   16.64    9.92
  10   1  -8   38.63   12.43
  10  -1  -8   16.37    9.37
  10  -1  -8   31.63   12.34
  11   1  -8   -7.10   11.73
  11  -1  -8   -2.60    8.58
  11  -1  -8    8.45    9.45
  12   1  -8    4.36    9.75
  12  -1  -8    8.73   10.20
  -6   2  -8   23.80   11.30
  -6  -2  -8   59.41   15.07
  -5   2  -8   77.69   14.73
  -5  -2  -8   18.48    9.29
  -4   2  -8   61.90   13.09
  -4  -2  -8   72.25   13.70
  -3   2  -8   89.62   14.84
  -3  -2  -8   70.53   13.54
  -2   2  -8   38.66   10.88
  -2  -2  -8   32.72    9.92
   1   2   8  134.41   18.22
   1  -2   8  138.60   18.65
  -1   2  -8   97.49   16.00
  -1  -2  -8  139.25   17.67
   0  -2   8  192.99   21.87
   0   2   8  228.74   23.12
   0   2  -8  242.20   23.67
   0  -2  -8  206.49   22.91
   0   2   8  258.77   24.65
  -1  -2   8  247.57   24.52
  -1   2   8  226.07   24.37
   1   2  -8  308.51   26.64
   1  -2  -8  242.00   24.95
  -1   2   8  260.59   25.68
  -2  -2   8  258.67   24.36
  -2   2   8  254.04   24.32
   2  -2  -8  257.79   24.88
   2   2  -8  253.01   24.96
  -2   2   8  228.36   24.14
   3   2  -8  263.58   26.75
   3  -2  -8  240.21   25.96
  -3  -2   8  230.23   23.79
  -3   2   8  241.49   24.12
   3  -2  -8  272.69   25.44
   3   2  -8  291.59   25.95
  -4   2   8  154.86   17.75
   4   2  -8  154.78   19.69
   4  -2  -8  155.25   19.17
  -4  -2   8  159.33   17.64
   5   2  -8  237.57   23.92
  -5  -2   8  210.33   21.56
  -5   2   8  183.37   20.86
   5  -2  -8  215.12   23.56
   5   2  -8  207.16   25.81
   6   2  -8  229.19   25.17
   6  -2  -8  275.87   25.87
  -6  -2   8  241.77   23.28
  -6   2   8  190.45   22.15
   6   2  -8  225.79   26.99
   6   2  -8  192.08   22.41
   7  -2  -8  159.20   20.11
   7   2  -8  137.86   21.92
   7   2  -8  146.81   18.20
  -7  -2   8  131.75   17.76
  -7   2   8  125.24   17.04
   8   2  -8  140.27   20.26
   8  -2  -8  185.75   21.99
   8   2  -8  118.46   21.20
   8   2  -8  186.97   19.31
   9   2  -8  131.01   19.25
   9  -2  -8  114.00   18.27
  10  -2  -8   94.99   13.98
  10   2  -8   77.93   16.04
  10  -2  -8   90.61   17.65
  11   2  -8   70.14   16.28
  11  -2  -8   53.93   14.32
  12   2  -8   25.60   11.68
  12  -2  -8   34.50   12.83
  -6   3  -8   15.69   10.32
  -6  -3  -8   23.44   11.55
  -5   3  -8   21.99   10.89
  -5  -3  -8   25.55   10.85
  -4   3  -8   40.99   12.10
  -4  -3  -8   44.32   11.86
  -3   3  -8   28.49    9.72
  -3  -3  -8   25.31    8.98
  -2   3  -8   55.91   11.69
  -2  -3  -8   26.47    9.45
   1  -3   8   84.77   14.65
  -1   3  -8   58.07   11.64
  -1  -3  -8   80.01   12.75
   0   3   8    7.54    7.95
   0   3   8   11.95    6.45
   0   3  -8    5.27    6.89
   0  -3  -8   -2.62    6.13
  -1   3   8  109.37   15.49
  -1  -3   8  122.60   15.06
  -1   3   8  102.45   14.10
   1   3  -8  113.95   15.15
   1  -3  -8  108.06   15.06
   2  -3  -8   36.53    9.26
   2   3  -8   39.14    9.30
  -2   3   8   46.78   10.87
  -2  -3   8   54.61   10.77
  -2   3   8   33.07    8.20
  -3   3   8   23.05    8.80
   3   3  -8    8.72    7.18
   3  -3  -8   34.04    9.65
  -3  -3   8   15.06    7.36
  -3   3   8   19.42    6.94
   3   3  -8   22.31   11.28
   4   3  -8   64.40   13.01
   4  -3  -8   66.49   12.26
  -4  -3   8   49.81   10.15
   4   3  -8   80.09   15.86
  -4   3   8   36.78    9.38
   5   3  -8   32.44   10.23
   5  -3  -8   41.23   10.41
  -5  -3   8   33.50    8.46
  -5   3   8   35.74    8.73
  -6  -3   8    9.33    5.69
  -6   3   8   11.71    7.08
   6   3  -8   15.02    9.07
   6   3  -8    3.03    7.39
   6  -3  -8    3.06    7.16
   7   3  -8   -3.19    7.14
   7  -3  -8    6.48    7.57
   7  -3  -8    3.66    3.95
   7   3  -8    5.80    8.06
  -7  -3   8    2.46    6.84
  -7   3   8   -2.48    6.25
   8   3  -8   16.78    8.17
   8  -3  -8    6.82    7.97
   8   3  -8   -2.74    8.66
   9   3  -8   -3.58    9.03
   9  -3  -8   -3.64    8.85
  10  -3  -8   -2.06    6.95
  10   3  -8    3.82    7.74
  10  -3  -8   -7.78    9.46
  11   3  -8    8.00    9.35
  11  -3  -8   -4.05   10.21
  12  -3  -8   -4.23   10.66
  -5   4  -8    7.21    9.45
  -5  -4  -8   21.44   12.31
  -4   4  -8   50.20   12.84
  -4  -4  -8   29.94   11.30
  -3   4  -8   58.92   12.50
  -3  -4  -8   43.29   11.75
  -2   4  -8  150.10   19.20
  -2  -4  -8  170.17   20.24
  -1   4  -8  220.34   24.13
  -1  -4  -8  261.32   25.57
   0   4   8  127.54   17.03
   0   4  -8  128.92   16.35
   0  -4  -8  121.42   16.47
  -1  -4   8  211.99   21.34
   1   4  -8  236.93   22.41
   1  -4  -8  195.31   21.62
  -1   4   8  174.99   20.59
  -1   4   8  212.01   21.96
   2  -4  -8   54.93   10.42
   2   4  -8   68.60   11.28
  -2   4   8   66.08   11.38
  -2  -4   8   49.44   10.20
  -2   4   8   76.49   11.72
  -3   4   8   20.15    8.11
   3   4  -8   22.78    8.86
   3  -4  -8   11.21    7.40
  -3  -4   8    8.44    6.45
  -3   4   8   21.29    7.11
  -4   4   8  172.26   17.86
  -4   4   8  170.97   17.97
   4   4  -8  138.39   18.83
  -4  -4   8  160.05   17.89
   4  -4  -8  137.96   18.88
  -5   4   8  156.60   17.21
  -5   4   8  177.16   18.76
  -5  -4   8  144.10   17.66
   5   4  -8  128.64   18.39
   5  -4  -8  195.83   21.05
   5   4  -8  181.90   23.14
   6  -4  -8  194.15   23.27
   6   4  -8  244.73   24.08
  -6  -4   8  215.17   21.49
   6  -4  -8  175.26   19.37
  -6   4   8  188.92   20.42
   6   4  -8  181.88   24.22
   7   4  -8  133.05   18.50
   7  -4  -8  166.17   19.95
   7   4  -8  159.33   20.95
   7  -4  -8  132.88   13.86
   8   4  -8   81.69   14.74
   8  -4  -8  113.36   16.43
   9   4  -8   69.62   14.17
   9  -4  -8   42.62   12.30
  10   4  -8   77.42   14.86
  10  -4  -8   63.86   14.68
  11   4  -8   61.28   14.61
  11  -4  -8   70.29   14.87
  -5   5  -8   -3.47   10.20
  -5  -5  -8    3.43    9.24
  -4   5  -8   25.82   10.05
  -4  -5  -8   12.79    9.23
  -3   5  -8   24.01    9.65
  -3  -5  -8   26.84    9.16
  -2   5  -8   25.25    8.92
  -2  -5  -8    5.60    7.13
  -1   5  -8   26.24    7.98
  -1  -5  -8    7.90    6.48
   0  -5  -8   37.40    9.58
   0   5   8   34.32   10.53
   1  -5  -8   57.08   10.57
   1   5  -8   67.61   11.31
  -1   5   8   69.23   11.71
  -2   5   8   32.39    8.83
   2   5  -8   55.37   11.36
   2  -5  -8   37.99    9.35
  -2  -5   8   30.68    8.47
  -2   5   8   48.58    9.61
  -3   5   8   31.06    8.44
  -3  -5   8   34.82    8.28
  -3   5   8   62.67   10.04
   3   5  -8   35.35    9.57
   3  -5  -8   45.86   10.49
  -4   5   8    4.95    6.30
  -4  -5   8    6.15    6.19
  -4   5   8    8.33    6.13
   4   5  -8    5.38    7.03
   4  -5  -8   -2.69    6.53
  -5   5   8   -6.05    5.95
  -5  -5   8   -2.10    6.34
  -5   5   8    4.26    5.56
   5  -5  -8    8.18    8.22
   5   5  -8    2.73    6.37
   5  -5  -8    5.51    6.95
  -6   5   8    9.78    6.75
   6   5  -8   -2.84    7.43
   6  -5  -8   22.85    8.19
  -6  -5   8    2.19    6.62
  -6   5   8   26.65    7.94
   6  -5  -8    9.38    6.73
  -7   5   8   32.39    6.86
   7   5  -8   32.57   10.39
   7  -5  -8   23.97   10.31
   8   5  -8   -3.14    7.33
   8  -5  -8   -3.18    8.30
   9   5  -8   20.07    8.58
   9  -5  -8   27.08   10.07
  10   5  -8   13.85    8.45
  10  -5  -8    7.02    8.23
  11   5  -8   -3.63   10.38
  11  -5  -8    3.68    9.61
  -5   6  -8   32.54   11.61
  -4   6  -8   18.25    9.48
  -3   6  -8   36.88   10.30
  -3  -6  -8   42.38   10.94
  -2   6  -8   55.44   10.67
  -2  -6  -8   47.64   10.84
  -1   6  -8   31.90    9.10
  -1  -6  -8   42.16    9.64
   0  -6  -8   62.98   11.17
   0   6  -8   38.81    9.31
   1   6  -8   61.26   11.88
   1  -6  -8   54.31   11.18
  -2   6   8  156.07   16.44
   2   6  -8  105.63   16.40
   2  -6  -8  128.33   17.59
  -3   6   8  158.27   16.35
   3   6  -8  129.89   16.55
   3  -6  -8  132.16   16.88
  -3   6   8  104.39   13.66
  -4   6   8   99.77   12.94
   4  -6  -8   76.99   15.71
   4   6  -8   77.09   13.88
   4  -6  -8   98.00   14.30
  -4   6   8  104.23   11.65
   5   6  -8   68.86   12.98
   5  -6  -8   95.55   14.02
  -5   6   8   97.87   12.85
   5  -6  -8  109.78   16.59
   6   6  -8   73.59   12.37
   6  -6  -8   49.40   12.00
  -6   6   8   72.05   11.32
   6  -6  -8   52.53   12.25
   7   6  -8  116.18   15.62
   7  -6  -8   74.10   13.39
   8   6  -8   61.79   13.16
   8  -6  -8   40.89   12.15
   9   6  -8   27.42    9.76
   9  -6  -8   18.23    9.52
  10   6  -8   28.83    9.37
  11   6  -8   27.17   11.37
   0   7  -8   20.05    9.04
   1   7  -8    7.08    6.58
   2   7  -8   33.51    8.91
   2  -7  -8   26.79   12.95
   3  -7  -8    4.26   10.35
   3   7  -8   -2.17    6.37
   4   7  -8    8.67    6.24
   4  -7  -8   20.08   12.13
   5   7  -8   -2.21    6.67
   5  -7  -8   -7.34    9.90
   6   7  -8    4.63    5.84
   7   7  -8   12.18    6.82
   2  -8  -8   24.79   15.04
   3  -8  -8   37.78   14.81
   4  -8  -8   17.75   14.70
   5  -8  -8   76.12   17.44
  -5   0  -9   16.13   11.26
  -4   0  -9   30.36   11.34
  -3   0  -9  142.36   19.70
  -2   0  -9  197.51   23.75
  -1   0  -9  190.21   22.31
   0   0  -9   66.88   12.63
  -1   0   9   10.33    7.40
   1   0  -9    5.88    6.59
  -2   0   9  407.65   36.20
   2   0  -9  409.13   37.02
   3   0  -9  100.69   14.84
  -3   0   9   90.62   13.87
   4   0  -9  201.44   23.60
  -4   0   9  195.52   21.13
   5   0  -9   13.62    8.09
  -5   0   9   29.84    8.00
   6   0  -9   55.41   13.78
  -6   0   9  113.87   14.64
   7   0  -9  139.82   19.88
   8   0  -9  322.38   31.08
   8   0  -9  269.38   29.62
   8   0  -9  233.46   22.41
   9   0  -9  247.52   27.68
   9   0  -9  203.10   26.08
  10   0  -9  124.78   19.29
  10   0  -9   72.60   16.92
  11   0  -9    3.42   11.10
  11   0  -9   30.87   11.56
  -5   1  -9   16.11   10.56
  -5  -1  -9   12.08    9.83
  -4   1  -9   22.73   10.14
  -4  -1  -9   49.27   12.72
  -3   1  -9   35.52   10.47
  -3  -1  -9   39.11   11.27
  -2   1  -9   33.39   11.36
  -2  -1  -9   46.82   11.60
  -1  -1  -9   50.62   11.61
   0  -1  -9   27.31    8.39
  -1   1   9  132.34   17.59
  -1  -1   9   64.07   12.90
  -1   1   9  116.12   14.71
   1  -1  -9   87.67   14.28
  -2  -1   9   24.96    8.42
  -2   1   9   25.04    8.94
   2  -1  -9   25.63    8.96
   3  -1  -9    2.78    7.04
  -3  -1   9   19.57    7.40
  -3   1   9   12.24    7.22
   4  -1  -9   36.71   11.30
  -4  -1   9   43.96    9.51
  -4   1   9   31.73    8.28
   5  -1  -9   37.22   10.90
  -5  -1   9   47.17   10.12
  -5   1   9   17.38    7.77
   6  -1  -9   -3.44    7.70
  -6  -1   9    7.73    6.28
  -6   1   9   12.91    6.53
   7   1  -9   -7.43   11.22
   7  -1  -9   -7.12    8.67
   8  -1  -9    3.74    8.39
   8   1  -9    3.75   10.73
   8   1  -9    7.77    5.88
   8  -1  -9    7.33    3.91
   9  -1  -9    3.92    7.94
   9  -1  -9    6.33   11.49
  10  -1  -9   16.62    9.75
  10  -1  -9   12.44    9.66
  11   1  -9   26.32   12.21
  11  -1  -9   -4.41    9.87
  -5   2  -9   32.06   12.47
  -5  -2  -9   16.02   10.22
  -4   2  -9   18.83    9.93
  -4  -2  -9   22.59   10.56
  -3   2  -9   60.00   13.72
  -3  -2  -9   28.27   10.18
  -2   2  -9   36.51   10.37
  -2  -2  -9   43.19   11.30
  -1   2  -9   37.84   11.25
  -1  -2  -9   78.71   13.59
   0   2  -9   93.83   14.60
   0  -2  -9   78.31   13.97
  -1   2   9  165.02   21.43
  -1   2   9  200.92   21.29
  -1  -2   9  162.84   20.43
   1  -2  -9  192.01   22.01
  -2   2   9  132.96   17.66
  -2  -2   9  124.67   16.33
  -2   2   9  135.41   16.74
   2  -2  -9  141.19   17.77
   2   2  -9  122.85   17.08
   3  -2  -9  170.86   20.20
   3   2  -9  211.64   21.68
  -3  -2   9  170.50   19.71
  -3   2   9  163.39   19.24
   4  -2  -9  260.33   26.66
  -4  -2   9  211.79   23.35
  -4   2   9  252.91   23.91
   4   2  -9  208.83   25.67
   5   2  -9  323.96   32.84
   5  -2  -9  392.59   34.25
  -5  -2   9  301.08   29.96
  -5   2   9  321.03   30.47
   6   2  -9  130.60   18.46
   6  -2  -9  102.34   16.85
   7   2  -9  103.46   15.79
   7   2  -9   99.21   16.81
   7  -2  -9  124.02   18.11
   8   2  -9   51.87   13.10
   8  -2  -9   52.11   12.91
   8   2  -9   66.69   11.73
   9   2  -9   61.99   14.02
   9  -2  -9   66.35   14.36
  10  -2  -9   41.32   12.87
  10  -2  -9   64.70   13.15
  11   2  -9   78.11   16.60
  11  -2  -9  100.68   18.70
  -4   3  -9   11.17    9.14
  -4  -3  -9   29.71   11.27
  -3   3  -9   17.47   10.32
  -3  -3  -9   13.97    9.18
  -2   3  -9   26.31    9.71
  -2  -3  -9    6.58    7.75
  -1   3  -9   28.16    9.44
  -1  -3  -9   34.42   10.12
   0   3  -9   41.80    9.77
   0  -3  -9   32.78    9.33
  -1   3   9   42.73   11.61
   1   3  -9   48.99   10.51
   1  -3  -9   37.17    9.69
   2  -3  -9   33.23    9.49
   2   3  -9   13.97    7.00
  -2   3   9   33.06   10.29
  -2  -3   9   22.26    8.18
  -2   3   9   34.90    9.06
  -3   3   9   23.97    9.76
   3   3  -9   23.06    9.75
   3  -3  -9   19.22    8.71
  -3  -3   9   12.08    7.19
  -3   3   9   12.09    7.01
  -4   3   9   27.70    9.50
   4   3  -9   36.53   10.88
   4  -3  -9   35.76   11.10
  -4  -3   9   29.04    8.18
  -4   3   9   14.48    6.74
   5   3  -9   36.50   10.96
   5  -3  -9   39.37   11.06
  -5  -3   9   31.80    9.30
  -5   3   9   26.87    8.84
   6   3  -9    6.76    8.82
   6  -3  -9   10.08    8.17
   6   3  -9   -9.70    9.75
   7   3  -9   27.79   11.29
   7  -3  -9   24.42    9.48
   7   3  -9    3.14    9.55
   8   3  -9   -3.62    8.10
   8  -3  -9   -3.66    8.91
   8   3  -9    2.98    7.77
   9   3  -9    7.61    8.90
   9  -3  -9    7.72    8.64
  10   3  -9    8.02    8.11
  10  -3  -9   -4.08    9.91
  11   3  -9    4.24    9.06
  11  -3  -9   12.92    9.64
  -4   4  -9   40.13   12.89
  -4  -4  -9   47.12   12.58
  -3   4  -9    6.86    8.37
  -3  -4  -9   13.66    8.94
  -2   4  -9   -3.24    7.87
  -2  -4  -9   -3.24    8.17
  -1   4  -9   43.05   10.75
  -1  -4  -9   18.41    9.23
   0   4  -9   82.37   14.21
   0  -4  -9  120.31   16.71
   1  -4  -9  121.05   16.06
   1   4  -9   93.03   15.27
   2  -4  -9   84.02   14.09
   2   4  -9   62.16   12.02
  -2   4   9   87.73   14.08
  -2  -4   9   86.82   13.67
  -2   4   9   75.79   12.92
  -3   4   9  202.59   22.42
  -3  -4   9  184.26   21.45
  -3   4   9  263.63   23.33
   3   4  -9  185.48   23.47
   3  -4  -9  190.67   23.21
  -4   4   9   54.73   11.93
   4   4  -9   45.21   12.75
  -4  -4   9   73.68   12.60
   4  -4  -9   69.78   14.41
  -4   4   9   88.00   12.61
   5   4  -9  257.99   25.88
   5  -4  -9  240.59   24.77
  -5   4   9  205.71   21.48
   6   4  -9  147.26   19.21
   6  -4  -9  112.13   18.14
   7   4  -9   74.64   14.49
   7  -4  -9   55.03   13.33
   7  -4  -9   39.06    8.22
   8   4  -9   38.70   10.88
   8  -4  -9   32.20   11.82
   9   4  -9   40.70   11.41
   9  -4  -9   30.18   11.35
  10   4  -9   50.82   14.03
  10  -4  -9   39.89   12.11
  11   4  -9   77.19   16.19
  11  -4  -9   41.46   13.36
  -4   5  -9    3.52    9.56
  -4  -5  -9   34.89   11.34
  -3   5  -9    6.66   10.56
  -3  -5  -9   13.24    8.67
  -2   5  -9   37.63   10.11
  -2  -5  -9   21.92    9.42
  -1   5  -9    8.91    8.12
  -1  -5  -9   35.68   10.11
   0   5  -9    8.44    6.04
   0  -5  -9   14.14    7.66
   1  -5  -9   35.12    9.64
   1   5  -9   21.34    8.05
  -2   5   9   20.90    8.21
   2   5  -9    6.31    8.03
   2  -5  -9   24.57    9.33
  -3   5   9   17.07    7.50
  -3  -5   9   27.76    8.96
   3   5  -9   21.80    8.80
   3  -5  -9   30.63   10.03
  -4   5   9    3.93    7.14
  -4  -5   9   -2.30    6.20
   4   5  -9   -3.07    9.01
   4  -5  -9    6.07    7.65
  -5   5   9   25.69    8.07
   5   5  -9   24.63    8.45
   5  -5  -9   18.47    8.19
   6   5  -9    6.27    9.22
   6  -5  -9    3.16    8.25
  -6   5   9   10.31    6.25
   6  -5  -9    2.56    7.34
   7   5  -9    3.23    8.17
   7  -5  -9    9.82    8.84
   7  -5  -9   11.71    6.73
   8   5  -9   -3.38    8.22
   8  -5  -9    3.42    8.32
   9   5  -9   -7.10    9.30
   9  -5  -9  -14.43   10.35
  10  -5  -9   -3.77    8.81
  10   5  -9   -3.71    9.03
  -3   6  -9   28.19    9.86
  -2   6  -9   56.33   11.65
  -2  -6  -9   44.44   11.47
  -1   6  -9   80.66   13.14
  -1  -6  -9   39.15   10.84
   0  -6  -9   55.55   11.53
   0   6  -9   46.95   10.39
   1   6  -9   24.41    9.84
   1  -6  -9   32.39   10.30
   2   6  -9   56.57   12.30
   2  -6  -9   37.52   11.79
  -2   6   9   47.40   10.36
   3   6  -9   20.20    8.61
   3  -6  -9   22.52    9.02
   4   6  -9   91.42   15.22
   4  -6  -9  117.74   16.26
   5   6  -9   34.41   10.33
   5  -6  -9   36.82   10.39
   5  -6  -9   33.84   11.43
   6   6  -9   38.16   10.36
   6  -6  -9   49.25   11.80
   6  -6  -9   50.54   12.25
   7   6  -9   72.95   13.50
   7  -6  -9   66.30   13.24
   8   6  -9   98.40   15.94
   8  -6  -9   85.18   15.13
   9   6  -9   23.35   10.43
  10   6  -9   30.75    9.99
   2   7  -9    7.89    7.53
   2  -7  -9   -4.59   11.16
   3  -7  -9    4.34   12.09
   3   7  -9   10.23    7.14
   4   7  -9    2.53    6.61
   4  -7  -9   12.38   11.80
   5   7  -9    2.55    6.20
   5  -7  -9  -11.43   10.90
   3  -8  -9   38.28   14.30
   4  -8  -9   36.17   14.83
  -4   0 -10   -8.21    9.99
  -3   0 -10   62.29   14.04
  -2   0 -10   96.30   16.93
  -1   0 -10  315.20   32.42
   0   0 -10  184.53   22.92
   1   0 -10  139.39   18.87
   2   0 -10    6.45    6.89
   3   0 -10   -3.14    6.70
   4   0 -10   44.96   12.24
   5   0 -10   60.58   14.13
   6   0 -10   64.82   13.83
   7   0 -10  214.37   26.42
   8   0 -10  301.80   31.34
   8   0 -10  241.99   23.85
   9   0 -10  239.90   27.45
   9   0 -10  167.39   16.27
  10   0 -10   70.16   17.40
  11   0 -10   50.57   14.94
  -4   1 -10   12.28    9.23
  -4  -1 -10   24.58   11.11
  -3   1 -10    3.88    9.44
  -3  -1 -10    3.89    8.70
  -2   1 -10   22.17    8.90
  -2  -1 -10   55.46   13.60
  -1   1 -10   53.21   12.65
  -1  -1 -10   46.11   11.21
   0   1 -10   81.87   14.67
   0  -1 -10   78.29   15.17
   1   1 -10   76.33   14.44
   1  -1 -10   52.85   12.34
   2  -1 -10   51.35   11.78
   3  -1 -10   77.98   14.17
   4  -1 -10   11.14    8.70
   5  -1 -10   18.72   10.18
   6  -1 -10   56.82   14.06
   7  -1 -10   15.52   11.15
   8  -1 -10   12.04    9.81
   8   1 -10   18.02    8.25
   9  -1 -10   -8.36   10.54
   9   1 -10   12.89    7.02
  10  -1 -10    8.76    9.81
  11   1 -10   18.30   10.76
  11  -1 -10   18.36   11.64
  -3   2 -10   23.17   10.48
  -3  -2 -10   11.61    9.48
  -2   2 -10   11.02    8.23
  -2  -2 -10    3.68    8.60
  -1   2 -10   38.82   11.14
  -1  -2 -10   28.20   11.13
   0   2 -10   77.82   14.46
   0  -2 -10   60.68   13.30
   1   2 -10  128.19   18.02
   1  -2 -10   94.59   15.44
   2  -2 -10  129.90   17.21
   2   2 -10   70.48   14.11
   3  -2 -10   98.82   16.32
   3   2 -10  159.44   18.86
   4   2 -10  158.47   21.37
   4  -2 -10  136.11   20.65
   5   2 -10  124.61   18.87
   5  -2 -10  122.08   18.73
   6   2 -10  215.90   26.12
   6  -2 -10  197.99   25.74
   7   2 -10  112.45   19.70
   7   2 -10  104.53   16.91
   7  -2 -10  126.98   19.74
   8   2 -10   35.82   12.58
   8  -2 -10   39.72   13.39
   8   2 -10   41.12   11.25
   9   2 -10   20.67   10.94
   9  -2 -10   29.00   11.32
   9   2 -10   29.04    9.55
  10   2 -10   47.50   12.75
  10  -2 -10   39.09   14.69
  10  -2 -10   51.91   13.68
  11   2 -10   18.09   11.84
  11  -2 -10    9.11   11.11
  -3   3 -10   -3.82    9.65
  -3  -3 -10   15.26    8.92
  -2   3 -10   10.93    8.22
  -2  -3 -10   21.92    9.91
  -1   3 -10    3.49    7.80
  -1  -3 -10   -3.48    7.79
   0   3 -10   23.47   10.13
   0  -3 -10    3.35    7.17
   1   3 -10   64.79   13.03
   1  -3 -10   41.79   11.18
   2  -3 -10   18.65    7.99
   2   3 -10   28.27    9.82
   3   3 -10   -3.70    9.33
   3  -3 -10   14.33    8.71
  -4   3  10   49.32   12.59
   4   3 -10   89.05   15.88
   4  -3 -10   72.24   14.51
   5   3 -10   18.51   10.03
   5  -3 -10   10.89    9.53
   6   3 -10   26.09   11.33
   6  -3 -10   18.43   10.05
   7   3 -10    3.39   10.22
   7   3 -10    3.81    8.90
   7  -3 -10   15.14   10.22
   8   3 -10   11.79   10.62
   8  -3 -10   11.84    8.45
   8  -3 -10    9.69    4.30
   8   3 -10    9.65    8.43
   9   3 -10    8.11    9.47
   9  -3 -10   -4.09    8.72
   9   3 -10    5.91    8.45
  10   3 -10    4.24    9.03
  10  -3 -10   -8.57    9.14
  11   3 -10   -4.44    9.92
  11  -3 -10   -4.50   10.52
  -3   4 -10   -3.76    8.41
  -3  -4 -10   -3.74    8.74
  -2   4 -10   43.01   12.93
  -2  -4 -10   21.44    9.22
  -1   4 -10   34.21   10.14
  -1  -4 -10    6.82    9.29
   0   4 -10    3.27    7.97
   0  -4 -10   16.32    9.09
   1  -4 -10   91.23   15.35
   1   4 -10   88.36   15.24
   2  -4 -10  142.66   18.84
   2   4 -10  130.74   18.30
   3   4 -10  138.25   20.03
   3  -4 -10  127.63   19.33
  -4   4  10   99.81   15.64
   4   4 -10   93.87   17.01
   4  -4 -10  106.03   17.86
  -5   4  10  210.67   22.00
   5   4 -10  197.55   24.17
   5  -4 -10  159.04   22.93
  -6   4  10   77.69   14.18
   6   4 -10   72.36   15.01
   7   4 -10   70.07   14.86
   7  -4 -10   70.35   15.12
   8   4 -10   22.78   11.55
   8  -4 -10   23.06   10.15
   9   4 -10    3.95    9.63
   9  -4 -10   24.01   10.82
  10   4 -10   24.64   12.23
  10  -4 -10   33.44   11.79
  -2   5 -10   48.42   12.46
  -2  -5 -10   37.90   11.03
  -1   5 -10   16.49    9.46
  -1  -5 -10    6.58    8.34
   0   5 -10    6.31    7.97
   0  -5 -10    6.32    7.69
   1  -5 -10   45.22   10.83
   1   5 -10   26.97    9.98
   2   5 -10   28.33   10.84
   2  -5 -10   27.50    9.74
   3   5 -10   21.02    9.52
   3  -5 -10   13.69    9.01
  -4   5  10    4.54    8.80
   4   5 -10    6.89    8.69
   4  -5 -10    6.76    8.22
  -5   5  10   21.43    9.23
   5   5 -10   51.40   12.03
   5  -5 -10   44.28   11.96
   6   5 -10   17.33    9.98
   6  -5 -10   17.32    9.98
   7   5 -10    3.56    8.99
   7  -5 -10    7.15    8.71
   7  -5 -10   13.41    8.00
   8   5 -10   10.92   10.43
   8  -5 -10    7.36    9.63
   9   5 -10   -3.78    8.84
   9  -5 -10    7.67    8.17
  10   5 -10   -7.90    8.86
  10  -5 -10  -12.04    9.00
  -2   6 -10   71.35   13.82
  -1   6 -10   58.77   12.63
   0  -6 -10   29.40   10.51
   0   6 -10   61.20   12.75
   1   6 -10   -3.43    9.25
   1  -6 -10   19.79   10.67
   2   6 -10   36.92   11.44
   2  -6 -10   12.97   11.48
   3   6 -10   62.06   13.11
   3  -6 -10   41.18   11.81
   4   6 -10   22.49    9.31
   4  -6 -10   22.03    9.84
   5  -6 -10   28.13   10.63
   5   6 -10   19.26    9.22
   5  -6 -10   -3.16    8.29
   6   6 -10   16.29   10.22
   6  -6 -10   25.82   10.13
   6  -6 -10   41.00   11.97
   7   6 -10   13.26    9.03
   7  -6 -10   29.58   11.80
   8   6 -10   71.90   14.14
   9   6 -10   92.61   16.63
   3  -7 -10   -4.46   12.41
   4  -7 -10    8.43   11.38
   5  -7 -10   -3.93   10.25
  -2   0 -11   69.10   15.25
  -1   0 -11   90.15   16.80
   0   0 -11   90.80   16.51
   1   0 -11   80.78   14.85
   2   0 -11   14.36    7.72
   3   0 -11   97.68   16.47
   4   0 -11   95.05   17.72
   5   0 -11    4.17   10.53
   6   0 -11   50.22   14.79
   7   0 -11  152.38   22.53
   8   0 -11  112.80   19.82
   9   0 -11   85.39   18.85
  10   0 -11   55.56   15.44
  -2   1 -11   60.77   14.83
  -2  -1 -11   64.88   14.59
  -1   1 -11   -3.91    9.14
  -1  -1 -11   19.57   10.88
   0   1 -11   15.10    9.26
   0  -1 -11   22.62    9.60
   1   1 -11   54.95   12.57
   1  -1 -11   21.90   10.13
   2  -1 -11   32.03   10.95
   2   1 -11   32.22   11.01
   3  -1 -11   48.51   11.79
   3   1 -11   34.92   11.40
   4  -1 -11    4.10    9.59
   5  -1 -11   37.11   12.99
   6  -1 -11   16.53   10.85
   7  -1 -11   -4.20    8.97
   8   1 -11   20.31    9.08
   8  -1 -11    4.32   10.91
   9  -1 -11   -4.48   10.01
  10   1 -11   18.47   12.14
  10  -1 -11   23.05   12.12
  -2   2 -11   24.20    9.48
  -2  -2 -11    8.09    8.69
  -1   2 -11    7.78    8.70
  -1  -2 -11    3.89    8.30
   0   2 -11   11.30    8.44
   0  -2 -11    3.75    9.14
   1   2 -11   83.73   14.87
   1  -2 -11   72.36   14.59
   2  -2 -11   66.79   13.64
   2   2 -11   74.52   14.75
   3  -2 -11   72.01   14.81
   3   2 -11   79.82   15.14
   4   2 -11   37.56   13.28
   4  -2 -11   56.88   14.06
   5   2 -11  124.93   20.82
   5  -2 -11  121.89   20.03
   6   2 -11   87.46   17.56
   6  -2 -11  118.32   18.93
   7   2 -11   75.94   15.91
   7  -2 -11   54.07   13.55
   8   2 -11   51.16   13.02
   8   2 -11   43.11   14.26
   8  -2 -11   38.45   12.25
   9   2 -11   40.02   12.79
   9  -2 -11    8.86   10.43
  10   2 -11   18.28   13.17
  10  -2 -11   27.41   12.03
  -2   3 -11   -3.99    9.70
  -2  -3 -11   11.97   10.06
  -1   3 -11    7.68   10.10
  -1  -3 -11   30.67   12.18
   0   3 -11    3.71    9.08
   0  -3 -11   36.95   11.47
   1   3 -11    3.59    8.40
   1  -3 -11   10.70    8.68
   2  -3 -11   13.76    8.54
   2   3 -11   45.17   11.36
   3   3 -11   32.77   11.79
   3  -3 -11   11.90    8.97
   4   3 -11   36.98   12.63
   4  -3 -11   35.86   13.66
   5   3 -11   -4.09    8.72
   5  -3 -11   15.95   12.60
   6   3 -11   40.90   12.46
   6  -3 -11   16.04   10.27
   7   3 -11  -12.43   10.08
   7  -3 -11    4.09    9.96
   8   3 -11   16.89   10.26
   8  -3 -11   -4.20   10.60
   9   3 -11   -4.34    9.71
   9  -3 -11   21.73   12.08
  10   3 -11   58.21   15.69
  10  -3 -11   -4.50   10.95
  -1   4 -11   11.28    8.84
  -1  -4 -11   18.80    9.53
   0   4 -11   68.55   13.91
   0  -4 -11   68.33   13.87
   1  -4 -11   66.00   13.02
   1   4 -11   34.87   11.00
   2  -4 -11   47.04   11.84
   2   4 -11   53.97   12.10
   3   4 -11   44.34   12.98
   3  -4 -11  121.39   19.57
   4   4 -11   60.00   14.04
   4  -4 -11   54.50   14.43
   5   4 -11   91.00   16.64
   5  -4 -11   50.38   13.83
   6   4 -11   83.31   16.32
   6  -4 -11   78.37   15.48
   7   4 -11   20.08   11.41
   7  -4 -11   52.06   12.59
   8   4 -11   45.29   13.26
   8  -4 -11   28.93   13.31
   9   4 -11   41.99   13.88
   9  -4 -11   42.34   13.39
  -1   5 -11   28.82   11.89
  -1  -5 -11   43.10   13.47
   0  -5 -11   24.23   10.34
   0   5 -11   31.17   11.11
   1  -5 -11   13.29    8.69
   1   5 -11    3.31   10.01
   2   5 -11   19.62   11.62
   2  -5 -11   22.77   11.81
   3   5 -11   34.91   12.31
   3  -5 -11    3.77    9.90
   4   5 -11   22.86   11.49
   4  -5 -11   -3.73    9.40
   5   5 -11   -3.78    9.19
   5  -5 -11    3.73    9.06
   6   5 -11    7.59   10.54
   6  -5 -11   -3.77    9.17
   7   5 -11    7.67   10.02
   7  -5 -11    3.84    8.97
   8   5 -11   15.64    9.88
   8  -5 -11    3.93    9.94
   9   5 -11   -4.03   10.51
   9  -5 -11   -4.06    9.49
   0   6 -11   25.65   11.37
   1   6 -11   18.95    9.98
   2   6 -11   29.70   11.38
   3   6 -11    3.63    9.79
   4   6 -11   21.37   10.83
   5   6 -11   38.95   12.46
   6   6 -11    3.55    9.58
   7   6 -11   14.41    8.81
   8   6 -11   62.58   14.46
   4  -7 -11    4.32   12.36
   0   0 -12   37.34   12.76
   1   0 -12   24.15   11.63
   2   0 -12   27.48   11.98
   3   0 -12   72.81   14.55
   4   0 -12   36.39   13.94
   5   0 -12  155.01   23.58
   6   0 -12   40.83   12.92
   7   0 -12   -4.59   11.59
   8   0 -12   41.94   13.99
   9   0 -12   33.28   13.41
   0   1 -12   49.79   12.96
   0  -1 -12   49.76   13.25
   1   1 -12   -4.02    8.59
   1  -1 -12   28.09   10.84
   2  -1 -12   19.52   10.23
   2   1 -12    7.85    8.81
   3  -1 -12   30.47   10.90
   3   1 -12   -3.84    8.59
   4  -1 -12    9.00    9.62
   5  -1 -12   49.64   14.35
   6  -1 -12   22.47   12.59
   7  -1 -12   36.26   13.20
   8  -1 -12    4.63    9.36
   9   1 -12   -4.76   11.13
   9  -1 -12   -4.72   10.07
   0   2 -12   16.41   10.43
   0  -2 -12   20.48   10.41
   1   2 -12   19.96   10.62
   1  -2 -12   43.73   12.73
   2  -2 -12   34.66   11.82
   2   2 -12   31.05   11.92
   3  -2 -12   82.91   14.98
   3   2 -12   80.06   14.93
   3   2 -12   22.72   12.71
   3  -2 -12   31.06   12.79
   4   2 -12   45.69   15.02
   4  -2 -12   35.61   13.36
   5   2 -12   63.81   15.77
   5  -2 -12   44.24   12.80
   6   2 -12   40.80   14.18
   6  -2 -12   75.21   16.23
   7   2 -12   31.93   14.42
   7  -2 -12   58.07   14.76
   8   2 -12   37.10   14.01
   8  -2 -12   59.14   14.75
   9   2 -12   37.89   13.70
   9  -2 -12   23.42   12.79
   0   3 -12    4.03    9.02
   1  -3 -12   23.40   10.64
   1   3 -12   23.53   11.63
   2  -3 -12   22.60   10.85
   2   3 -12   15.19   10.32
   3   3 -12   -4.49   10.05
   3  -3 -12   -4.36   10.18
   4   3 -12   13.48   10.94
   4  -3 -12    4.36   10.19
   5   3 -12   26.87   13.19
   5  -3 -12    4.33   11.70
   6   3 -12   13.34   10.42
   6  -3 -12   13.00   10.57
   7   3 -12   -4.47   11.29
   7  -3 -12   -4.38   10.66
   8   3 -12    4.55   12.26
   8  -3 -12    4.48   12.47
   1  -4 -12   11.34    9.95
   1   4 -12   26.56   10.31
   2  -4 -12   36.79   11.21
   2   4 -12   18.47   10.40
   2  -4 -12   17.19   11.70
   3   4 -12   13.27   13.37
   3  -4 -12   12.85   10.84
   4   4 -12   69.90   17.01
   4  -4 -12   38.13   13.84
   5   4 -12   21.60   11.81
   5  -4 -12   37.71   13.97
   6   4 -12   64.62   16.17
   6  -4 -12   84.41   17.34
   7   4 -12   52.14   14.45
   7  -4 -12   47.00   13.93
   8   4 -12   43.88   14.16
   8  -4 -12   82.90   16.63
   2   5 -12   -4.28    9.58
   2  -5 -12   12.46   10.48
   3   5 -12   12.72   11.09
   3  -5 -12    8.20   11.08
   4   5 -12   -4.17   10.15
   4  -5 -12   -4.04   10.19
   5   5 -12  -20.59   11.81
   5  -5 -12   -4.03    9.46
   6   5 -12   12.36   10.46
   6  -5 -12   24.30   10.99
   7   5 -12   -4.13   10.06
   7  -5 -12  -12.30   10.36
   3   6 -12   15.83   10.72
   4   6 -12   11.65    9.83
   5   6 -12   23.08   11.11
   3   0 -13   75.14   16.00
   4   0 -13   64.24   17.22
   5   0 -13   93.80   19.89
   6   0 -13   49.08   15.88
   7   0 -13   39.44   13.97
   3  -1 -13   29.03   10.86
   3   1 -13   -4.17    8.48
   3   1 -13    4.96   10.60
   3  -1 -13   39.17   12.81
   4   1 -13   -4.98   14.23
   4  -1 -13    9.81   12.81
   5   1 -13    9.92   11.58
   5  -1 -13   -9.77   11.41
   6   1 -13   39.32   15.02
   6  -1 -13   33.88   13.28
   7   1 -13   19.76   14.31
   7  -1 -13   48.65   14.85
   3  -2 -13   33.77   13.61
   4   2 -13   24.70   14.19
   4  -2 -13   14.45   13.84
   5   2 -13   -4.93   11.99
   5  -2 -13   19.13   11.63
   6   2 -13    9.76   12.92
   6  -2 -13   61.78   15.18
   0   0   0    0.00    0.00
;
_shelx_hkl_checksum              91983
loop_
_space_group_symop_operation_xyz
'x, y, z'
'-x, y+1/2, -z'
loop_
_atom_site_label
_atom_site_type_symbol
_atom_site_fract_x
_atom_site_fract_y
_atom_site_fract_z
_atom_site_U_iso_or_equiv
_atom_site_adp_type
_atom_site_occupancy
_atom_site_site_symmetry_order
_atom_site_calc_flag
_atom_site_refinement_flags_posn
_atom_site_refinement_flags_adp
_atom_site_refinement_flags_occupancy
_atom_site_disorder_assembly
_atom_site_disorder_group
Ni1 Ni 0.00844(9) 0.54333(19) 0.00896(9) 0.0239(2) Uani 1 1 d . . . . .
C1 C 0.5396(9) 0.7114(11) 0.9053(9) 0.0451(19) Uani 1 1 d . . . . .
H1A H 0.6138 0.6141 0.9230 0.068 Uiso 1 1 d R U . . .
H1B H 0.4959 0.7025 0.9748 0.068 Uiso 1 1 d R U . . .
H1C H 0.5845 0.8347 0.9113 0.068 Uiso 1 1 d R U . . .
C2 C 0.1722(9) 0.7850(17) 0.5968(9) 0.056(2) Uani 1 1 d . . . . .
H2A H 0.0915 0.7343 0.6194 0.067 Uiso 1 1 d R U . . .
H2B H 0.1373 0.8991 0.5397 0.067 Uiso 1 1 d R U . . .
C3 C 0.3042(10) 0.8342(10) 0.7341(9) 0.048(2) Uani 1 1 d . . . . .
H3A H 0.3433 0.9588 0.7254 0.058 Uiso 1 1 d R U . . .
H3B H 0.2725 0.8381 0.8133 0.058 Uiso 1 1 d R U . . .
C4 C 0.2478(10) 0.4508(11) 0.5982(9) 0.0438(19) Uani 1 1 d . . . . .
H4 H 0.1538 0.4018 0.5981 0.053 Uiso 1 1 d R U . . .
C5 C 0.3547(9) 0.4908(9) 0.7495(8) 0.0364(18) Uani 1 1 d . . . . .
H5A H 0.3019 0.4831 0.8127 0.044 Uiso 1 1 d R U . . .
H5B H 0.4325 0.3950 0.7788 0.044 Uiso 1 1 d R U . . .
C6 C 0.2216(10) 0.6385(12) 0.5154(10) 0.049(2) Uani 1 1 d . . . . .
H6A H 0.1437 0.6209 0.4207 0.059 Uiso 1 1 d R U . . .
C7 C 0.3627(12) 0.7033(15) 0.5021(10) 0.061(3) Uani 1 1 d . . . . .
H7A H 0.3499 0.8309 0.4621 0.073 Uiso 1 1 d R U . . .
H7B H 0.3878 0.6181 0.4397 0.073 Uiso 1 1 d R U . . .
C8 C 0.4861(10) 0.7032(13) 0.6496(10) 0.052(2) Uani 1 1 d . . . . .
H8A H 0.5529 0.5974 0.6576 0.062 Uiso 1 1 d R U . . .
H8B H 0.5425 0.8208 0.6641 0.062 Uiso 1 1 d R U . . .
N1 N 0.4224(6) 0.6850(8) 0.7604(6) 0.0300(12) Uani 1 1 d . . . . .
N2 N 0.1979(6) 0.7146(8) 0.0739(7) 0.0290(13) Uani 1 1 d . . . . .
N3 N -0.0860(6) 0.7116(8) 0.1197(6) 0.0280(13) Uani 1 1 d . . . . .
N4 N -0.0922(6) 0.7023(8) -0.1788(6) 0.0292(13) Uani 1 1 d . . . . .
O1 O 0.3173(7) 0.3088(11) 0.5437(6) 0.0625(17) Uani 1 1 d . . . . .
H1 H 0.2588 0.2724 0.4659 0.094 Uiso 1 1 d R U . . .
O2 O 0.3226(6) 0.6503(7) 0.1214(7) 0.0518(16) Uani 1 1 d . . . . .
O3 O 0.1038(6) 0.3805(7) 0.1879(6) 0.0349(13) Uani 1 1 d . . . . .
O4 O 0.1048(6) 0.3900(7) -0.1014(6) 0.0347(12) Uani 1 1 d . . . . .
O5 O -0.1865(6) 0.3939(7) -0.0597(6) 0.0355(13) Uani 1 1 d . . . . .
O6 O -0.1355(7) 0.6410(6) 0.2015(7) 0.0456(14) Uani 1 1 d . . . . .
O7 O -0.1446(7) 0.6148(7) -0.2925(6) 0.0471(14) Uani 1 1 d . . . . .
loop_
_atom_site_aniso_label
_atom_site_aniso_U_11
_atom_site_aniso_U_22
_atom_site_aniso_U_33
_atom_site_aniso_U_23
_atom_site_aniso_U_13
_atom_site_aniso_U_12
Ni1 0.0280(4) 0.0158(3) 0.0276(4) -0.0003(4) 0.0102(3) 0.0000(4)
C1 0.043(5) 0.042(4) 0.039(5) -0.010(3) 0.003(4) -0.006(3)
C2 0.041(4) 0.064(5) 0.055(5) 0.015(5) 0.010(4) 0.018(5)
C3 0.056(5) 0.039(5) 0.051(5) -0.001(3) 0.022(4) 0.021(3)
C4 0.040(5) 0.054(4) 0.034(5) -0.009(3) 0.010(4) -0.007(3)
C5 0.044(4) 0.028(4) 0.033(4) -0.002(2) 0.010(3) -0.009(3)
C6 0.040(5) 0.069(5) 0.028(5) 0.004(4) 0.001(4) 0.015(4)
C7 0.083(7) 0.072(6) 0.029(5) 0.007(4) 0.025(5) 0.009(5)
C8 0.049(5) 0.052(4) 0.066(6) -0.001(4) 0.036(5) -0.006(4)
N1 0.027(3) 0.029(3) 0.035(3) -0.006(2) 0.012(3) 0.001(2)
N2 0.024(3) 0.025(3) 0.035(3) 0.001(2) 0.008(3) 0.001(2)
N3 0.028(3) 0.023(3) 0.029(3) -0.001(2) 0.007(3) -0.003(2)
N4 0.035(3) 0.026(3) 0.023(3) -0.002(2) 0.007(3) -0.004(2)
O1 0.065(4) 0.058(3) 0.050(4) -0.024(3) 0.005(3) 0.007(4)
O2 0.031(3) 0.036(3) 0.079(5) 0.004(3) 0.011(3) 0.009(2)
O3 0.049(3) 0.018(3) 0.030(3) -0.0039(19) 0.007(2) 0.001(2)
O4 0.045(3) 0.020(3) 0.047(3) 0.002(2) 0.027(3) 0.001(2)
O5 0.036(3) 0.017(2) 0.051(3) 0.001(2) 0.013(3) 0.0037(19)
O6 0.068(4) 0.031(3) 0.057(4) 0.005(2) 0.046(3) -0.005(2)
O7 0.069(4) 0.034(3) 0.026(3) -0.0054(19) 0.004(3) 0.003(2)
loop_
_atom_type_symbol
_atom_type_description
_atom_type_scat_dispersion_real
_atom_type_scat_dispersion_imag
_atom_type_scat_source
C C 0.0033 0.0016 'International Tables Vol C Tables 4.2.6.8 and 6.1.1.4'
H H 0.0000 0.0000 'International Tables Vol C Tables 4.2.6.8 and 6.1.1.4'
N N 0.0061 0.0033 'International Tables Vol C Tables 4.2.6.8 and 6.1.1.4'
O O 0.0106 0.0060 'International Tables Vol C Tables 4.2.6.8 and 6.1.1.4'
Ni Ni 0.3393 1.1124 'International Tables Vol C Tables 4.2.6.8 and 6.1.1.4'
loop_
_geom_angle_atom_site_label_1
_geom_angle_atom_site_label_2
_geom_angle_atom_site_label_3
_geom_angle
_geom_angle_site_symmetry_1
_geom_angle_site_symmetry_3
_geom_angle_publ_flag
O4 Ni1 O3 92.9(2) . . ?
O4 Ni1 O5 96.3(2) . . ?
O3 Ni1 O5 93.7(2) . . ?
O4 Ni1 N3 177.4(3) . . ?
O3 Ni1 N3 88.6(2) . . ?
O5 Ni1 N3 85.8(2) . . ?
O4 Ni1 N2 86.3(2) . . ?
O3 Ni1 N2 89.7(2) . . ?
O5 Ni1 N2 175.7(3) . . ?
N3 Ni1 N2 91.5(2) . . ?
O4 Ni1 N4 85.9(2) . . ?
O3 Ni1 N4 178.1(3) . . ?
O5 Ni1 N4 84.9(2) . . ?
N3 Ni1 N4 92.6(2) . . ?
N2 Ni1 N4 91.8(2) . . ?
C6 C2 C3 108.7(6) . . ?
N1 C3 C2 109.0(7) . . ?
O1 C4 C5 106.2(7) . . ?
O1 C4 C6 112.7(7) . . ?
C5 C4 C6 107.8(6) . . ?
N1 C5 C4 110.7(6) . . ?
C7 C6 C2 110.0(8) . . ?
C7 C6 C4 110.1(7) . . ?
C2 C6 C4 107.5(7) . . ?
C6 C7 C8 108.3(7) . . ?
N1 C8 C7 110.3(7) . . ?
C1 N1 C8 110.8(6) . . ?
C1 N1 C5 109.5(6) . . ?
C8 N1 C5 108.8(6) . . ?
C1 N1 C3 109.5(6) . . ?
C8 N1 C3 108.8(6) . . ?
C5 N1 C3 109.3(5) . . ?
O2 N2 O5 116.5(6) . 2 ?
O2 N2 Ni1 123.0(5) . . ?
O5 N2 Ni1 120.4(5) 2 . ?
O6 N3 O4 115.4(7) . 2 ?
O6 N3 Ni1 121.2(5) . . ?
O4 N3 Ni1 123.3(6) 2 . ?
O7 N4 O3 115.6(6) . 2 ?
O7 N4 Ni1 118.1(5) . . ?
O3 N4 Ni1 126.3(5) 2 . ?
N4 O3 Ni1 119.4(5) 2_545 . ?
N3 O4 Ni1 122.1(5) 2_545 . ?
N2 O5 Ni1 125.2(5) 2_545 . ?
loop_
_geom_bond_atom_site_label_1
_geom_bond_atom_site_label_2
_geom_bond_distance
_geom_bond_site_symmetry_2
_geom_bond_publ_flag
Ni1 O4 2.030(6) . ?
Ni1 O3 2.046(5) . ?
Ni1 O5 2.045(5) . ?
Ni1 N3 2.078(6) . ?
Ni1 N2 2.088(6) . ?
Ni1 N4 2.103(6) . ?
C1 N1 1.492(9) . ?
C2 C6 1.511(13) . ?
C2 C3 1.533(12) . ?
C3 N1 1.502(8) . ?
C4 O1 1.432(10) . ?
C4 C5 1.519(11) . ?
C4 C6 1.529(11) . ?
C5 N1 1.497(8) . ?
C6 C7 1.506(14) . ?
C7 C8 1.523(14) . ?
C8 N1 1.490(10) . ?
N2 O2 1.210(8) . ?
N2 O5 1.264(6) 2 ?
N3 O6 1.218(8) . ?
N3 O4 1.266(6) 2 ?
N4 O7 1.235(8) . ?
N4 O3 1.254(6) 2 ?
O3 N4 1.254(6) 2_545 ?
O4 N3 1.266(6) 2_545 ?
O5 N2 1.264(6) 2_545 ?
loop_
_geom_hbond_atom_site_label_D
_geom_hbond_atom_site_label_H
_geom_hbond_atom_site_label_A
_geom_hbond_distance_DH
_geom_hbond_distance_HA
_geom_hbond_distance_DA
_geom_hbond_angle_DHA
_geom_hbond_site_symmetry_A
C1 H1A O5 0.96 2.44 3.389(10) 170.9 1_656
C1 H1C O2 0.96 2.46 3.408(9) 169.4 2_656
C5 H5A O4 0.97 2.49 3.410(9) 158.4 1_556
O1 H1 O7 0.82 2.02 2.816(8) 164.3 2_545
loop_
_geom_torsion_atom_site_label_1
_geom_torsion_atom_site_label_2
_geom_torsion_atom_site_label_3
_geom_torsion_atom_site_label_4
_geom_torsion
_geom_torsion_site_symmetry_1
_geom_torsion_site_symmetry_2
_geom_torsion_site_symmetry_3
_geom_torsion_site_symmetry_4
_geom_torsion_publ_flag
C6 C2 C3 N1 -15.3(10) . . . . ?
O1 C4 C5 N1 109.5(7) . . . . ?
C6 C4 C5 N1 -11.6(9) . . . . ?
C3 C2 C6 C7 -50.1(10) . . . . ?
C3 C2 C6 C4 69.8(10) . . . . ?
O1 C4 C6 C7 -50.9(9) . . . . ?
C5 C4 C6 C7 66.0(9) . . . . ?
O1 C4 C6 C2 -170.8(7) . . . . ?
C5 C4 C6 C2 -53.9(9) . . . . ?
C2 C6 C7 C8 66.8(9) . . . . ?
C4 C6 C7 C8 -51.5(10) . . . . ?
C6 C7 C8 N1 -13.3(10) . . . . ?
C7 C8 N1 C1 -172.2(7) . . . . ?
C7 C8 N1 C5 67.3(8) . . . . ?
C7 C8 N1 C3 -51.8(9) . . . . ?
C4 C5 N1 C1 -173.4(7) . . . . ?
C4 C5 N1 C8 -52.1(8) . . . . ?
C4 C5 N1 C3 66.6(8) . . . . ?
C2 C3 N1 C1 -170.2(7) . . . . ?
C2 C3 N1 C8 68.5(8) . . . . ?
C2 C3 N1 C5 -50.2(8) . . . . ?
