#------------------------------------------------------------------------------
#$Date: 2020-04-04 07:10:10 +0300 (Sat, 04 Apr 2020) $
#$Revision: 250060 $
#$URL: file:///home/coder/svn-repositories/cod/cif/4/13/45/4134534.cif $
#------------------------------------------------------------------------------
#
# This file is available in the Crystallography Open Database (COD),
# http://www.crystallography.net/
#
# All data on this site have been placed in the public domain by the
# contributors.
#
data_4134534
loop_
_publ_author_name
'Khoury, Jason F.'
'Rettie, Alexander J. E.'
'Robredo, I\~nigo'
'Krogstad, Matthew J.'
'Malliakas, Christos D.'
'Bergara, Aitor'
'Vergniory, Maia G.'
'Osborn, Raymond'
'Rosenkranz, Stephan'
'Chung, Duck Young'
'Kanatzidis, Mercouri G.'
_publ_section_title
;
 The Subchalcogenides Ir<sub>2</sub>In<sub>8</sub>Q (Q = S, Se, Te): Dirac
 Semimetal Candidates with Re-entrant Structural Modulation.
;
_journal_issue                   13
_journal_name_full               'Journal of the American Chemical Society'
_journal_page_first              6312
_journal_page_last               6323
_journal_paper_doi               10.1021/jacs.0c00809
_journal_volume                  142
_journal_year                    2020
_chemical_formula_moiety         '0.25(In32 Ir8 Te4)'
_chemical_formula_sum            'In8 Ir2 Te'
_chemical_formula_weight         1430.56
_space_group_crystal_system      tetragonal
_space_group_IT_number           136
_space_group_name_Hall           '-P 4n 2n'
_space_group_name_H-M_alt        'P 42/m n m'
_atom_sites_solution_primary     dual
_audit_creation_date             2020-01-17
_audit_creation_method
;
Olex2 1.2
(compiled 2018.05.29 svn.r3508 for OlexSys, GUI svn.r5506)
;
_cell_angle_alpha                90
_cell_angle_beta                 90
_cell_angle_gamma                90
_cell_formula_units_Z            4
_cell_length_a                   10.124(8)
_cell_length_b                   10.124(8)
_cell_length_c                   10.291(9)
_cell_measurement_reflns_used    2159
_cell_measurement_temperature    299.0
_cell_measurement_theta_max      34.99
_cell_measurement_theta_min      4.03
_cell_volume                     1054.8(15)
_computing_molecular_graphics    'Olex2 (Dolomanov et al., 2009)'
_computing_publication_material  'Olex2 (Dolomanov et al., 2009)'
_computing_structure_refinement  'ShelXL (Sheldrick, 2015)'
_computing_structure_solution    'ShelXT (Sheldrick, 2015)'
_diffrn_ambient_temperature      299.0
_diffrn_measured_fraction_theta_full 0.998
_diffrn_measured_fraction_theta_max 0.993
_diffrn_measurement_device_type  'Bruker APEX-II CCD'
_diffrn_measurement_method       '\f and \w scans'
_diffrn_radiation_monochromator  graphite
_diffrn_radiation_type           MoK\a
_diffrn_radiation_wavelength     0.71073
_diffrn_reflns_av_R_equivalents  0.0694
_diffrn_reflns_av_unetI/netI     0.0353
_diffrn_reflns_Laue_measured_fraction_full 0.998
_diffrn_reflns_Laue_measured_fraction_max 0.993
_diffrn_reflns_limit_h_max       16
_diffrn_reflns_limit_h_min       -16
_diffrn_reflns_limit_k_max       15
_diffrn_reflns_limit_k_min       -12
_diffrn_reflns_limit_l_max       16
_diffrn_reflns_limit_l_min       -16
_diffrn_reflns_number            13504
_diffrn_reflns_point_group_measured_fraction_full 0.998
_diffrn_reflns_point_group_measured_fraction_max 0.993
_diffrn_reflns_theta_full        25.242
_diffrn_reflns_theta_max         35.504
_diffrn_reflns_theta_min         2.822
_diffrn_standards_number         0
_exptl_absorpt_coefficient_mu    44.903
_exptl_absorpt_correction_T_max  0.7470
_exptl_absorpt_correction_T_min  0.5004
_exptl_absorpt_correction_type   multi-scan
_exptl_crystal_colour            black
_exptl_crystal_colour_primary    black
_exptl_crystal_density_diffrn    9.009
_exptl_crystal_description       Cube
_exptl_crystal_F_000             2392
_exptl_crystal_size_max          0.14
_exptl_crystal_size_mid          0.03
_exptl_crystal_size_min          0.025
_refine_diff_density_max         2.624
_refine_diff_density_min         -2.279
_refine_diff_density_rms         0.452
_refine_ls_extinction_coef       0.00027(3)
_refine_ls_extinction_expression Fc^*^=kFc[1+0.001xFc^2^\l^3^/sin(2\q)]^-1/4^
_refine_ls_extinction_method     'SHELXL-2014/7 (Sheldrick 2014'
_refine_ls_goodness_of_fit_ref   1.081
_refine_ls_hydrogen_treatment    undef
_refine_ls_matrix_type           full
_refine_ls_number_parameters     37
_refine_ls_number_reflns         1332
_refine_ls_number_restraints     0
_refine_ls_restrained_S_all      1.081
_refine_ls_R_factor_all          0.0383
_refine_ls_R_factor_gt           0.0254
_refine_ls_shift/su_max          0.001
_refine_ls_shift/su_mean         0.000
_refine_ls_structure_factor_coef Fsqd
_refine_ls_weighting_details
'w=1/[\s^2^(Fo^2^)+(0.0160P)^2^+4.9396P] where P=(Fo^2^+2Fc^2^)/3'
_refine_ls_weighting_scheme      calc
_refine_ls_wR_factor_gt          0.0472
_refine_ls_wR_factor_ref         0.0511
_reflns_Friedel_coverage         0.000
_reflns_number_gt                1095
_reflns_number_total             1332
_reflns_threshold_expression     'I > 2\s(I)'
_cod_data_source_file            ja0c00809_si_004.cif
_cod_data_source_block           jfk_1_282c
_cod_depositor_comments
'Adding full bibliography for 4134530--4134534.cif.'
_cod_original_cell_volume        1054.7(19)
_cod_database_code               4134534
_shelx_shelxl_version_number     2014/7
_shelx_space_group_comment
;
The symmetry employed for this shelxl refinement is uniquely defined
by the following loop, which should always be used as a source of
symmetry information in preference to the above space-group names.
They are only intended as comments.
;
_shelx_estimated_absorpt_t_max   0.400
_shelx_estimated_absorpt_t_min   0.062
_olex2_refinement_description
;
;
_shelx_res_file
;
    jfk_1_282c.res created by SHELXL-2014/7

TITL jfk_1_282c_a.res in P4(2)/mnm
REM Old TITL JFK_1_282c in P4(2)/mnm
REM SHELXT solution in P4(2)/mnm
REM R1 0.098, Rweak 0.003, Alpha 0.013, Orientation as input
REM Formula found by SHELXT: Te9 Ir2
CELL 0.71073 10.1236 10.1236 10.2912 90 90 90
ZERR 4 0.0079 0.0079 0.0085 0 0 0
LATT 1
SYMM -X,-Y,+Z
SYMM 0.5-Y,0.5+X,0.5+Z
SYMM 0.5+Y,0.5-X,0.5+Z
SYMM 0.5-X,0.5+Y,0.5-Z
SYMM 0.5+X,0.5-Y,0.5-Z
SYMM +Y,+X,-Z
SYMM -Y,-X,-Z
SFAC In Ir Te
UNIT 32 8 4

L.S. 10
PLAN  20
SIZE 0.025 0.03 0.14
TEMP 25.85
list 4
fmap 2
acta
REM <olex2.extras>
REM <HklSrc "%.\\JFK_1_282c.hkl">
REM </olex2.extras>

WGHT    0.016000    4.939600
EXTI    0.000272
FVAR       0.08061
IR1   2    0.684391    0.315609    0.758195    10.50000    0.00436    0.00436 =
         0.00631   -0.00027    0.00027   -0.00001
IN2   1    0.500000    0.500000    0.659819    10.25000    0.01131    0.01131 =
         0.01465    0.00000    0.00000    0.00503
TE1   3    1.000000    0.500000    1.000000    10.25000    0.00968    0.03808 =
         0.01073    0.00000    0.00000    0.00674
IN3   1    0.789544    0.555692    0.788414    11.00000    0.01369    0.00530 =
         0.02806    0.00142   -0.00407   -0.00230
IN1   1    0.594705    0.405295    1.000000    10.25000    0.01710    0.01710 =
         0.00830    0.00000    0.00000    0.00891
IN4   1    0.691954    0.308046    0.500000    10.25000    0.02337    0.02337 =
         0.00576    0.00000    0.00000    0.00848
IN5   1    0.796223    0.203777    1.000000    10.25000    0.02938    0.02938 =
         0.01101    0.00000    0.00000    0.02140
HKLF 4

REM  jfk_1_282c_a.res in P4(2)/mnm
REM R1 =  0.0254 for    1095 Fo > 4sig(Fo)  and  0.0383 for all    1332 data
REM     37 parameters refined using      0 restraints

END

WGHT      0.0160      4.9247

REM Highest difference peak  2.624,  deepest hole -2.279,  1-sigma level  0.452
Q1    1   0.7783  0.5516  0.7273  11.00000  0.05    2.62
Q2    1   0.6160  0.3840  0.7611  10.50000  0.05    2.26
Q3    1   0.5000  0.5000  0.5713  10.25000  0.05    2.12
Q4    1   0.6989  0.3393  0.8227  11.00000  0.05    2.01
Q5    1   0.6827  0.3173  0.6792  10.50000  0.05    1.81
Q6    1   0.7319  0.2681  0.5000  10.25000  0.05    1.71
Q7    1   0.5284  0.4716  1.0000  10.25000  0.05    1.70
Q8    1   0.7474  0.1973  1.0000  10.50000  0.05    1.59
Q9    1   0.5946  0.3817  1.0728  11.00000  0.05    1.58
Q10   1   1.1014  0.4656  1.0000  10.50000  0.05    1.54
Q11   1   0.6411  0.3589  1.0000  10.25000  0.05    1.51
Q12   1   0.6867  0.2839  1.0000  10.50000  0.05    1.46
Q13   1   0.6980  0.3020  0.4297  10.50000  0.05    1.45
Q14   1   0.5435  0.3220  1.0926  11.00000  0.05    1.43
Q15   1   0.5963  0.2177  0.5000  10.50000  0.05    1.42
Q16   1   0.4073  0.4568  0.7171  11.00000  0.05    1.41
Q17   1   0.8210  0.6655  0.7254  11.00000  0.05    1.41
Q18   1   0.5062  0.5406  0.7206  11.00000  0.05    1.41
Q19   1   0.8853  0.6113  0.7725  11.00000  0.05    1.39
Q20   1   0.8764  0.4874  0.7986  11.00000  0.05    1.38
;
_shelx_res_checksum              55871
_shelx_hkl_file
;
  -1   0   0    3.90    2.20
  -1  -1   0   45.00    3.20
  -1   1   0   48.40    4.00
  -2  -1   0  701.03   30.20
  -1   2   0  707.03   29.60
   2   1   0  658.73   30.10
   2   0   0  398.56   19.60
  -2   0   0  466.75   20.50
  -2   1   0  682.13   30.90
  -1  -2   0  668.93   28.70
   1   2   0  705.13   28.80
  -2   1   0  695.33   30.70
  -2  -2   0  888.61   37.50
   2   2   0  846.22   37.70
  -2   2   0  884.61   38.60
  -2   2   0  911.91   38.70
  -2   3   0  645.84   27.20
  -3  -2   0  586.54   27.10
  -2   3   0  591.04   27.30
   3   2   0  567.24   27.00
   3   1   0  155.78   10.30
  -3  -1   0  158.98   11.30
  -1   3   0  167.28    8.90
   3   0   0    0.90    3.70
   0   3   0   -0.50    1.50
  -3   0   0    0.40    4.20
  -3   0   0   -2.00    4.80
  -3   1   0  151.38   11.40
   1   3   0  158.28    7.00
  -1  -3   0  157.58    7.20
  -3   1   0  143.89   11.70
   3  -1   0  150.48   10.60
  -3   2   0  569.84   27.60
  -2  -3   0  582.04   24.70
   3  -2   0  564.94   27.80
  -3   2   0  582.04   27.30
   2   3   0  572.14   25.00
  -3   3   0 4249.17  171.38
  -3   3   0 4058.59  171.18
   3   3   0 3913.01  169.98
  -3  -3   0 4185.38  169.88
   4   3   0  315.67   17.00
  -3   4   0  314.17   17.50
  -4  -3   0  338.97   17.20
  -4  -2   0  625.44   28.40
  -2   4   0  584.64   27.40
   4   2   0  581.34   27.90
  -4  -1   0 3728.73  154.48
  -1   4   0 3604.14  152.28
   4   1   0 3723.43  154.08
  -4   0   0 1190.38   54.09
  -4   0   0 1249.07   54.29
   4   0   0 1247.98   53.79
   0   4   0 1212.88   50.59
  -4   1   0 3414.16  151.78
  -1  -4   0 3714.13  148.49
   4  -1   0 3628.74  151.38
  -4   1   0 3669.73  151.88
  -2  -4   0  583.54   25.10
  -4   2   0  608.34   28.90
   2   4   0  612.04   25.10
   4  -2   0  544.45   27.80
  -4   2   0  568.94   29.20
   4  -3   0  307.87   17.60
  -4   3   0  342.47   19.20
  -4   3   0  333.97   18.80
  -3  -4   0  339.07   15.60
   3   4   0  319.07   15.70
  -4   4   0  881.41   40.60
  -4   4   0  955.60   41.00
   4   4   0  821.12   38.60
  -4  -4   0  846.62   38.60
   5   4   0   11.40    5.10
  -4   5   0    7.80    5.80
  -5  -4   0   12.70    5.10
  -3   5   0 2852.01  122.49
  -5  -3   0 2965.50  122.69
   5   3   0 2867.51  122.39
  -5  -2   0   81.59    8.50
   5   2   0   69.79    8.10
  -2   5   0   82.99    7.70
  -5  -2   0   73.49    8.60
   5   1   0   59.59    7.40
  -5  -1   0   50.89    7.50
  -1   5   0   40.40    5.10
  -5  -1   0   66.79    8.50
  -5   0   0    4.20    5.50
   5   0   0   -5.20    4.60
   0   5   0    0.00    1.20
   0   5   0   -2.10    2.30
  -5   0   0    3.40    5.50
  -1  -5   0   49.30    3.50
  -5   1   0   51.19    8.60
   5  -1   0   55.99    7.80
  -5   1   0   80.49    9.10
   2   5   0   79.89    4.40
  -5   2   0   72.29    9.40
   5  -2   0   85.29    8.80
  -5   2   0   61.29    9.00
  -2  -5   0   71.89    4.70
   3   5   0 3004.40  118.59
  -5   3   0 2738.73  122.19
  -5   3   0 2744.83  122.59
  -3  -5   0 2866.71  118.59
   5  -3   0 2900.11  121.69
  -5   4   0    7.20    6.40
   5  -4   0    9.90    5.00
  -4  -5   0    9.20    4.00
   4   5   0   12.90    3.90
  -5   4   0    5.40    6.40
  -5   5   0 3001.20  123.69
   5   5   0 2796.02  120.89
  -5  -5   0 3002.40  121.39
   5  -5   0 2683.53  122.09
  -5   6   0    1.10    6.70
   6   5   0   -1.30    4.80
  -6  -5   0   10.30    5.50
  -6  -4   0  367.76   20.00
  -4   6   0  329.17   20.50
   6   4   0  337.77   19.60
  -6  -3   0  386.66   21.40
  -6  -3   0  396.26   24.20
  -3   6   0  364.06   21.00
   6   3   0  394.96   21.20
  -2   6   0    7.90    5.00
  -6  -2   0    8.30    5.80
   6   2   0    1.10    4.80
  -6  -2   0    7.00    5.30
   6   1   0   46.80    7.40
  -6  -1   0   31.60    6.90
  -6  -1   0   47.70    8.10
  -1   6   0   35.60    5.00
   6   0   0 1175.08   52.29
   0   6   0 1163.88   48.00
  -6   0   0 1255.77   53.29
   0   6   0 1024.10   47.40
  -6   0   0 1195.78   53.09
  -6   1   0   35.20    7.30
   6  -1   0   51.59    7.50
  -1  -6   0   38.10    3.10
  -6   1   0   41.20    8.50
  -6   2   0    0.50    5.00
   6  -2   0    5.10    5.60
  -2  -6   0    5.80    1.90
  -6   2   0   -1.60    6.60
   3   6   0  350.16   17.00
   3   6   0  383.46   16.70
  -6   3   0  357.96   22.10
  -6   3   0  383.86   23.00
   6  -3   0  378.76   21.30
  -3  -6   0  375.16   17.00
  -4  -6   0  349.57   17.00
  -6   4   0  300.37   21.80
   4   6   0  359.96   16.60
  -6   4   0  318.77   21.20
   4   6   0  317.67   16.70
   6  -4   0  341.47   19.70
  -6   5   0   13.70    7.50
   5   6   0    2.90    4.20
   6  -5   0   -0.60    5.60
  -5  -6   0    1.20    4.50
  -6   5   0    4.30    7.10
  -6   6   0 1832.42   78.29
  -6  -6   0 1777.72   74.99
   6   6   0 1578.04   74.69
   7   6   0  654.03   35.40
  -6   7   0  752.82   38.30
  -7  -6   0  801.12   36.00
  -5   7   0    1.40    7.40
   7   5   0    7.80    5.80
  -7  -5   0   17.10    6.70
  -4   7   0 2438.96  108.49
   7   4   0 2529.25  108.49
  -7  -4   0 2567.74  108.49
   7   3   0  328.47   18.90
  -7  -3   0  299.17   18.80
  -3   7   0  271.17   18.00
  -7  -3   0  279.37   18.40
  -7  -2   0  597.84   29.80
  -2   7   0  560.74   26.90
  -7  -2   0  491.25   28.70
  -2   7   0  541.95   24.80
   7   2   0  612.24   29.60
  -1   7   0  103.29    7.40
  -7  -1   0   95.19   11.10
   7   1   0   91.19   10.40
  -7  -1   0   91.69   11.00
  -1   7   0   78.79    5.30
   7   0   0    0.30    5.70
  -7   0   0   -2.40    4.90
  -7   0   0    6.00    6.90
  -7   1   0   87.09   11.20
   7  -1   0   83.89    9.90
  -7   1   0   82.49   11.30
  -1  -7   0   82.49    4.80
  -2  -7   0  551.74   23.90
  -7   2   0  573.24   31.00
   7  -2   0  557.94   29.40
  -7   2   0  577.94   30.80
  -7   3   0  283.17   20.20
   3   7   0  311.77   13.90
   3   7   0  305.47   13.80
  -3  -7   0  317.77   14.50
  -7   3   0  300.47   21.40
   7  -3   0  313.17   19.60
   4   7   0 2285.37  102.89
   4   7   0 2580.74  102.79
  -7   4   0 2524.75  108.59
   7  -4   0 2538.55  107.49
  -7   4   0 2286.47  108.39
  -4  -7   0 2557.04  103.39
  -7   5   0    7.90    8.30
   7  -5   0   16.90    6.50
   5   7   0    6.90    3.90
  -7   5   0    5.40    8.40
  -5  -7   0    6.00    4.50
  -7   6   0  742.33   39.10
  -6  -7   0  784.82   35.00
   6   7   0  698.53   34.50
   7   7   0  158.58   13.00
  -7  -7   0  184.38   13.90
  -7   7   0  160.38   17.00
  -7   8   0    1.90    8.30
  -8  -7   0    8.30    6.60
   8   7   0    3.80    6.40
  -6   8   0   85.69   12.40
  -8  -6   0   85.19   10.40
   8   6   0   57.59    9.80
  -8  -5   0  292.87   19.60
  -5   8   0  307.27   21.10
   8   5   0  264.77   18.90
  -8  -4   0   -1.70    6.50
   8   4   0   17.40    7.30
  -4   8   0   15.90    7.40
  -8  -3   0  398.46   23.80
  -8  -3   0  380.86   23.10
   8   3   0  382.16   22.70
  -3   8   0  329.37   20.80
  -8  -2   0 2887.11  128.59
  -8  -2   0 2977.70  128.39
  -2   8   0 2958.20  124.89
   8   2   0 3043.00  128.09
   8   1   0   59.79    9.80
  -1   8   0   74.09    6.00
  -8  -1   0   60.59   10.10
  -8  -1   0   57.89   10.20
  -1   8   0   55.49    4.30
  -8   0   0 2487.05  106.09
  -8   0   0 2452.35  105.99
   8   0   0 2280.57  104.79
  -8   1   0   65.89   10.80
   8  -1   0   44.20    9.10
  -8   1   0   45.40    9.50
  -8   2   0 2989.80  128.39
   8  -2   0 2849.01  127.09
  -8   2   0 2992.80  128.69
   8  -3   0  406.06   23.50
  -8   3   0  343.97   24.20
  -8   3   0  375.26   24.90
   8  -4   0   19.00    7.80
   4   8   0   17.50    2.80
  -8   4   0    5.00    8.50
  -8   4   0   11.10    7.30
   4   8   0   16.80    3.20
   5   8   0  283.77   14.20
   8  -5   0  270.37   19.30
  -8   5   0  260.67   22.40
  -8   5   0  268.57   21.00
   6   8   0   75.19    7.70
  -8   6   0   74.79   12.60
   7   8   0    4.80    5.50
  -8   7   0   -3.50    8.30
  -8   8   0 2336.37   97.29
   8   8   0 1936.21   91.39
  -8   9   0   -1.40    9.70
   9   8   0    7.30    6.90
  -7   9   0    4.20   10.10
   9   7   0   11.80    7.30
  -6   9   0   27.20   10.00
  -9  -6   0   24.80    8.00
   9   6   0   24.90    8.50
   9   5   0   -5.70    6.60
  -9  -5   0   19.00    7.90
  -5   9   0    3.70    8.20
  -4   9   0  825.82   41.40
  -9  -4   0  825.12   42.40
   9   4   0  890.01   42.40
  -3   9   0   -1.00    6.10
  -9  -3   0   33.70    8.80
   9   3   0   14.20    7.70
  -2   9   0  416.36   21.00
  -9  -2   0  471.05   26.60
  -9  -2   0  388.26   25.70
   9   2   0  393.16   25.00
  -9  -1   0   63.09   11.00
  -9  -1   0   85.69   12.30
  -1   9   0   62.19    4.90
   9   1   0   57.89    9.80
  -9   0   0   11.50    7.90
   9   0   0    0.20    6.90
  -9   0   0   11.20    8.20
  -9   1   0   58.39   11.00
  -9   1   0   66.19   10.70
   9  -1   0   67.69   11.00
   9  -2   0  353.16   23.10
  -9   2   0  412.46   25.50
  -9   2   0  346.37   24.10
  -9   3   0    2.40    8.30
   9  -3   0   18.00    7.80
  -9   3   0    1.60    8.30
  -9   4   0  785.42   44.60
   9  -4   0  857.11   43.10
  -9   4   0  912.91   45.20
  -9   5   0    5.30    9.40
   5   9   0    2.20    2.90
  -9   6   0   25.30   10.50
   6   9   0   25.00    4.70
  -9   7   0  -14.10    8.30
   7   9   0    8.40    4.80
   8   9   0   13.30    6.20
  -9   8   0    8.60   10.90
  -9   9   0  584.54   33.90
   9   9   0  424.76   25.70
  10   9   0  227.28   17.50
  -9  10   0  232.48   22.90
  10   8   0  136.19   13.90
  -8  10   0  113.79   16.70
  10   7   0  317.47   21.90
  -7  10   0  316.57   24.80
  10   6   0  247.78   19.30
  -6  10   0  219.48   20.30
 -10  -6   0  265.17   19.40
  -5  10   0  382.76   25.70
  10   5   0  396.26   25.30
 -10  -5   0  446.56   26.00
 -10  -4   0    7.50    8.10
  10   4   0   10.70    7.90
  -4  10   0   28.00    8.50
 -10  -3   0   97.49   12.90
  10   3   0   88.59   12.10
  -3  10   0   95.79    9.70
  -2  10   0  276.77   14.60
  10   2   0  274.37   20.60
 -10  -2   0  285.47   21.70
  10   1   0  297.67   22.10
 -10  -1   0  349.96   23.90
 -10  -1   0  322.67   22.80
  10   0   0 1502.55   67.69
 -10   0   0 1436.66   68.19
 -10   0   0 1366.36   68.09
  10  -1   0  295.47   22.00
 -10   1   0  321.47   23.30
 -10   1   0  349.17   24.10
 -10   2   0  215.68   20.50
 -10   2   0  277.67   21.80
  10  -2   0  297.17   20.90
  10  -3   0  102.69   13.50
 -10   3   0   73.79   13.10
 -10   3   0   82.29   12.90
 -10   4   0    8.70    9.90
 -10   4   0    8.70    8.70
  10  -4   0    7.50    8.40
 -10   5   0  411.26   28.10
   6  10   0  235.38   12.30
   6  10   0  249.38   12.00
 -10   6   0  290.57   24.10
 -10   7   0  301.57   25.40
   7  10   0  279.07   15.00
   8  10   0  137.39   10.90
 -10   8   0  125.59   18.00
 -10   9   0  247.38   24.20
   9  10   0  204.28   15.10
 -10  10   0   40.80   13.90
  10  10   0   44.50    8.50
  11  10   0   52.89    9.70
 -10  11   0   77.59   15.40
  11   9   0   22.40    8.30
  -9  11   0    3.40   11.80
  11   8   0   32.80    9.40
  -8  11   0   13.90   11.60
  11   7   0  366.16   24.60
  -7  11   0  374.76   27.50
 -11  -6   0  226.78   19.20
  -6  11   0  213.78   19.40
  11   6   0  198.18   18.10
 -11  -5   0  742.93   40.50
  11   5   0  797.62   41.50
  -5  11   0  772.62   39.60
 -11  -4   0   35.80   10.10
  11   4   0   24.90    9.20
  -4  11   0   24.90    7.50
 -11  -3   0  875.51   47.50
  -3  11   0  960.00   42.10
  11   3   0  950.00   47.50
  11   2   0   36.50   10.70
 -11  -2   0   40.10   10.50
  -2  11   0   40.70    4.20
  11   1   0  549.15   31.70
 -11  -1   0  460.85   42.20
 -11  -1   0  521.35   31.50
 -11   0   0   13.20   10.20
 -11   0   0    3.90    8.30
  11   0   0   16.40    8.90
  11  -1   0  501.95   30.50
 -11   1   0  474.05   30.60
 -11   1   0  529.05   32.20
 -11   2   0   31.80   11.50
 -11   2   0   34.80   11.20
  11  -2   0   45.00   11.60
  11  -3   0  923.81   44.70
 -11   3   0  879.31   45.70
 -11   3   0  702.83   44.10
 -11   4   0   27.80   10.50
  11  -4   0   21.20    9.90
 -11   5   0  765.92   44.00
 -11   6   0  234.38   22.80
 -11   7   0  397.06   29.90
   8  11   0   15.30    4.40
 -11   8   0   20.30   12.50
 -11   9   0   27.60   13.00
   9  11   0    3.20    4.90
  10  11   0   51.79    7.90
 -11  10   0   74.99   16.00
 -11  11   0  217.38   22.80
  11  11   0  200.88   15.30
  12  11   0   70.69   10.00
 -11  12   0   94.69   17.80
  12  10   0  116.29   12.90
 -10  12   0   73.39   16.20
  12   9   0  536.45   31.70
  -9  12   0  589.14   36.90
  -8  12   0  236.58   22.60
  12   8   0  244.68   20.30
  12   7   0  403.86   26.80
  -7  12   0  355.56   27.10
  12   6   0  132.59   15.40
  -6  12   0  129.19   14.70
  -5  12   0  107.39   11.90
  12   5   0   58.39   12.50
 -12  -5   0  121.09   14.90
 -12  -4   0    3.60    8.80
  -4  12   0   -3.60    5.60
  12   4   0   11.00    8.70
 -12  -3   0  183.38   18.50
  -3  12   0  178.18   10.80
  12   3   0  179.38   17.90
  12   2   0   40.40   10.80
 -12  -2   0   60.39   12.30
  12   1   0 1252.67   59.49
 -12  -1   0 1147.49   59.19
 -12   0   0   14.20    9.50
  12   0   0    2.90    8.80
 -12   0   0   -1.50    8.80
 -12   1   0  981.70   55.99
 -12   1   0 1148.49   56.49
  12  -1   0 1176.18   55.89
 -12   2   0   58.89   13.80
  12  -2   0   61.49   12.50
 -12   2   0   79.49   14.00
 -12   3   0  169.98   19.80
 -12   3   0  228.08   22.50
  12  -3   0  202.88   19.30
 -12   4   0  -13.50    9.90
 -12   5   0   68.49   15.00
 -12   6   0  118.79   18.60
 -12   7   0  412.36   31.40
 -12   8   0  318.87   28.60
 -12   9   0  627.04   39.80
 -12  10   0  138.09   18.70
 -12  11   0  115.49   19.30
  13  10   0  244.38   19.40
 -10  13   0  226.28   23.80
  13   9   0   66.49   12.00
  -9  13   0   36.40   13.50
  13   8   0   40.10   10.80
  -8  13   0   44.90   13.00
  -7  13   0   53.39   12.20
  13   7   0   56.69   12.10
  -6  13   0   17.60    8.80
  13   6   0   25.60   10.30
  -5  13   0  256.47   16.90
  13   5   0  219.98   21.00
 -13  -5   0  273.77   21.90
 -13  -4   0   20.70    9.90
  13   4   0   28.20   10.80
  -4  13   0   22.80    5.20
 -13  -3   0  384.56   26.70
  13   3   0  344.27   26.40
  13   2   0  198.38   20.10
 -13  -2   0  206.28   20.50
  13   1   0   33.00   11.10
 -13  -1   0   29.20   10.90
  13   0   0   16.20    9.90
 -13   0   0  -11.30    8.40
 -13   1   0   25.30   12.40
 -13   1   0   12.80    9.90
  13  -1   0   15.90   10.10
 -13   2   0  176.58   20.80
  13  -2   0  219.38   21.60
 -13   2   0  231.88   22.80
  13  -3   0  364.06   27.20
 -13   3   0  397.96   29.60
 -13   4   0   18.00   12.30
 -13   5   0  184.98   21.60
 -13   6   0   20.30   11.90
 -13   7   0   40.90   14.40
 -13   8   0   48.00   14.40
 -13   9   0   75.79   15.70
  -8  14   0  182.18   18.50
  14   8   0  197.08   19.10
  -7  14   0  184.48   16.50
  14   7   0  202.98   19.70
  -6  14   0   68.39    9.30
  14   6   0   68.69   13.70
  -5  14   0   27.60    6.40
  14   5   0   28.10   11.20
  14   4   0   93.99   14.90
 -14  -4   0  117.39   16.40
 -14  -3   0   37.70   11.60
  14   3   0   32.00   11.90
  14   2   0  512.65   32.90
 -14  -2   0  435.66   31.30
 -14  -1   0   -1.00    9.50
  14   1   0    5.10    9.90
 -14   0   0   14.40   10.80
  14   0   0   23.50   11.50
  14  -1   0  -10.30    9.00
  14  -2   0  488.25   32.70
 -14   2   0  478.65   33.60
 -14   3   0   -1.50   11.20
  14  -3   0   25.00   11.60
 -14   4   0  122.79   18.40
 -14   5   0   42.60   14.60
 -14   6   0   69.89   15.00
 -14   7   0  230.18   25.20
 -14   8   0  192.98   22.90
  15   6   0  624.24   37.70
  15   5   0    9.80   10.70
  15   4   0  451.35   31.80
  15   3   0   28.40   11.00
  15   2   0  516.05   34.80
  15   1   0   19.20   11.50
  15   0   0   18.00   11.60
  15  -1   0   20.80   11.50
  15  -2   0  456.25   32.90
 -15   3   0   -7.70    9.40
 -15   4   0  412.56   31.70
 -15   5   0   24.70   13.20
 -15   6   0  589.54   40.00
  16   3   0   22.50   12.00
  16   2   0  265.27   24.90
  16   1   0  -19.80    9.00
  16  -1   0   12.30   11.10
   0  -1  -1    1.50    1.10
   0   1   1    0.00    1.10
  -1   0   1    1.00    1.60
   1   1  -1    7.50    1.90
  -1   1  -1    7.70    2.30
  -1  -1   1    4.30    2.10
  -1   1   1    9.80    2.40
   1   1   1    6.10    2.10
  -1   1   1    7.20    2.50
   2   1  -1   13.70    2.90
  -2  -1  -1   14.40    3.30
  -1   2  -1   10.30    2.70
   2   1   1    8.10    2.70
  -1   2   1   17.70    4.20
  -2  -1   1    9.90    3.10
  -1   2   1   11.30    2.40
   0   2  -1    0.00    1.50
   0  -2  -1   -0.40    1.20
   2   0  -1    0.00    2.20
   0   2   1   -0.30    1.80
  -2   0   1    0.70    2.80
   2   0   1    0.90    3.10
   0   2   1   -3.10    1.80
   1   2  -1   15.50    1.90
  -2   1  -1    9.30    3.80
  -2   1   1   19.90    3.60
   1   2   1   14.20    2.10
   1   2   1   12.10    2.20
  -1  -2   1   12.10    2.50
  -2   1   1   22.10    4.50
   2   2  -1  212.98   10.00
  -2  -2  -1  211.18   10.20
  -2   2  -1  219.18   11.80
   2   2   1  203.58   10.30
  -2  -2   1  199.98   10.40
  -2   2   1  209.58   12.80
  -2   2   1  190.68   10.70
   3   2  -1  501.25   22.30
  -2   3  -1  521.15   22.90
  -3  -2  -1  463.55   22.50
   3   2   1  499.55   22.40
  -2   3   1  485.35   22.10
  -3  -2   1  474.65   22.20
  -2   3   1  462.15   23.30
  -3  -1  -1   -3.50    4.00
   3   1  -1   -1.60    3.20
  -1   3  -1   -1.40    2.60
  -1   3   1   -0.30    3.50
  -1   3   1    1.80    2.50
  -3  -1   1    0.40    3.30
   3   1   1   -0.60    3.40
   0  -3  -1  243.48   11.20
   3   0  -1  265.77   13.40
   0   3  -1  272.17   11.20
  -3   0  -1  262.17   14.50
  -3   0  -1  265.67   14.20
   0   3   1  266.07   11.60
  -3   0   1  230.58   13.40
   3   0   1  247.08   13.70
  -3   0   1  260.67   14.10
  -3   1  -1   -3.10    3.90
   3  -1  -1   -0.80    3.00
   1   3  -1   -0.30    1.30
  -3   1  -1    0.60    4.20
  -3   1   1   -6.10    3.90
  -1  -3   1    1.90    2.10
  -3   1   1   -4.40    4.90
   3  -1   1   -4.40    3.80
   1   3   1   -1.50    1.80
   2   3  -1  506.65   21.30
   3  -2  -1  483.15   22.80
  -2  -3  -1  491.65   21.10
  -3   2  -1  486.25   23.70
  -2  -3   1  496.45   21.60
   2   3   1  483.55   21.40
   3  -2   1  462.05   23.60
  -3   2   1  484.65   22.90
  -3   2   1  480.25   24.50
   3   3  -1  439.46   20.00
  -3   3  -1  399.06   21.20
  -3  -3  -1  440.96   19.90
  -3  -3   1  442.06   19.80
   3   3   1  414.86   19.60
  -3   3   1  451.35   20.70
  -3   3   1  384.86   21.90
  -4  -3  -1    6.60    4.20
  -3   4  -1   -0.90    4.40
   4   3  -1    7.40    4.20
  -3   4   1   16.20    4.50
  -3   4   1    5.00    5.10
   4   3   1    1.20    3.70
  -4  -3   1    6.90    3.70
  -2   4  -1   55.19    6.10
  -4  -2  -1   53.79    6.60
   4   2  -1   59.19    6.70
  -4  -2   1   58.69    6.10
  -2   4   1   67.39    5.90
  -2   4   1   49.60    6.10
   4   2   1   52.49    6.00
  -4  -1  -1  144.89   11.30
   4   1  -1  151.48   10.00
  -1   4  -1  160.68    8.60
  -4  -1  -1  146.49   11.10
  -4  -1   1  152.78   11.00
  -1   4   1  155.78    8.30
  -1   4   1  164.48    8.70
  -4  -1   1  143.79   10.90
   4   1   1  156.28   10.60
  -4   0  -1    2.20    4.80
   0   4  -1   -0.20    1.70
  -4   0  -1    2.60    4.40
   0   4  -1   -1.40    1.40
   4   0  -1   -4.80    3.80
  -4   0   1    7.30    5.00
   4   0   1    5.80    4.80
   0   4   1   -0.40    1.90
  -4   0   1    0.90    3.70
  -4   1  -1  143.79   11.60
  -4   1  -1  159.48   11.60
   4  -1  -1  147.99   10.00
   4  -1   1  144.19   10.70
  -4   1   1  138.49   10.30
   1   4   1  149.79    7.30
  -4   1   1  128.99   11.20
  -1  -4   1  155.18    7.80
  -4   2  -1   60.59    7.90
   4  -2  -1   51.49    6.70
  -4   2  -1   66.99    8.10
   2   4  -1   58.19    4.60
   2   4  -1   62.69    4.60
   2   4   1   58.59    4.30
  -4   2   1   73.99    7.50
  -2  -4   1   58.79    4.60
   4  -2   1   71.19    7.60
  -4   2   1   47.70    7.90
   4  -3  -1    9.20    4.60
  -4   3  -1    2.50    4.80
   3   4  -1    7.30    3.40
  -3  -4  -1    6.10    3.00
  -4   3   1    7.10    5.00
  -4   3   1    5.40    6.30
   4  -3   1    8.70    4.40
  -3  -4   1    4.80    2.80
   3   4   1    9.90    2.90
   4  -4  -1   17.50    5.40
   4   4  -1   16.70    4.70
  -4   4  -1    5.70    5.40
  -4  -4  -1   13.20    4.10
   4   4   1   14.50    4.00
  -4   4   1   17.80    6.60
  -4  -4   1   13.10    3.80
  -4   4   1    7.50    5.00
   5   4  -1   31.30    5.80
  -4   5  -1    8.30    5.90
  -5  -4  -1   24.90    5.40
  -5  -4   1   20.70    5.20
   5   4   1   18.30    5.20
  -4   5   1   22.90    6.80
  -4   5   1   23.00    6.20
  -5  -3  -1   10.90    5.10
  -3   5  -1   14.80    5.30
   5   3  -1    9.80    4.90
  -3   5   1   15.00    4.80
  -5  -3   1   15.30    4.90
  -3   5   1   21.80    5.30
   5   3   1    3.10    4.40
  -5  -2  -1    2.10    4.80
  -2   5  -1   -0.10    3.90
  -5  -2  -1    2.60    4.40
   5   2  -1   -0.90    4.00
  -2   5   1    4.70    3.60
  -5  -2   1    1.80    5.20
  -5  -2   1    2.70    4.60
   5   2   1    0.20    4.40
   5   1  -1    2.30    4.60
  -5  -1  -1    2.60    5.50
  -1   5  -1    5.20    2.70
  -5  -1  -1    4.80    5.20
  -5  -1   1    1.70    4.30
   5   1   1    0.70    4.30
  -5  -1   1    6.80    5.00
  -1   5   1    5.60    2.90
  -5   0  -1 1545.75   69.99
   0   5  -1 1623.64   66.09
   0   5  -1 1693.23   65.89
   5   0  -1 1562.24   69.49
  -5   0  -1 1306.77   69.49
   0   5   1 1633.04   66.39
  -5   0   1 1727.23   70.29
   5   0   1 1584.54   69.59
  -5   0   1 1641.44   70.39
  -5   1  -1    2.30    5.70
   5  -1  -1    8.50    4.70
  -5   1  -1    7.10    5.20
  -1  -5   1   -0.70    2.00
  -5   1   1   -7.60    5.20
   1   5   1    3.90    1.80
  -5   1   1    4.20    4.40
   1   5   1    2.70    1.80
   5  -1   1    5.90    4.70
  -5   2  -1    2.40    5.20
   5  -2  -1    3.70    5.10
   2   5  -1    3.20    1.50
   2   5  -1    1.50    2.20
  -5   2  -1   -6.60    5.30
   2   5   1   -1.80    1.80
  -2  -5   1    4.50    2.30
   2   5   1    0.70    2.00
  -5   2   1    5.30    6.10
   5  -2   1   -6.40    4.80
  -5   2   1   11.30    5.20
  -3  -5  -1    6.50    2.60
   3   5  -1   12.20    2.70
  -5   3  -1   13.90    6.60
   5  -3  -1   10.20    4.80
   3   5  -1   11.80    3.60
  -3  -5   1    5.80    2.90
   5  -3   1   14.70    5.30
   3   5   1    7.50    2.70
  -5   3   1   19.50    5.90
  -5   3   1   12.30    6.90
   5  -4  -1   27.00    6.20
   4   5  -1   26.50    5.00
  -5   4  -1   35.60    7.10
  -4  -5  -1   30.60    4.50
  -4  -5   1   19.20    4.00
  -5   4   1   24.50    7.80
   4   5   1   15.20    3.90
  -5   4   1   18.20    6.40
   5  -4   1   18.60    5.30
  -5   5  -1    5.40    6.60
   5   5  -1   12.30    4.90
   5  -5  -1   15.80    6.10
  -5  -5  -1   17.30    4.80
  -5   5   1   18.80    6.40
  -5   5   1    8.80    6.80
  -5  -5   1   13.60    4.70
   5  -5   1   15.20    5.60
   5   5   1   16.70    4.80
  -5   6  -1    4.10    6.60
  -6  -5  -1    6.70    4.90
   6   5  -1   -5.50    4.80
  -5   6   1    3.50    6.40
   6   5   1    5.30    5.00
  -5   6   1   -4.00    6.30
  -6  -5   1   -2.60    4.80
  -4   6  -1   17.30    6.70
   6   4  -1   19.00    5.90
  -6  -4  -1    6.40    5.50
   6   4   1   16.70    5.90
  -4   6   1   24.50    6.80
  -6  -4   1   24.00    6.10
  -6  -3  -1    3.50    4.30
   6   3  -1   -4.00    4.60
  -3   6  -1   -0.50    5.00
  -6  -3  -1   -3.80    5.20
  -6  -3   1    2.10    5.10
   6   3   1   -1.10    4.90
  -3   6   1   -0.70    4.80
  -6  -2  -1    7.30    5.70
   6   2  -1   -0.80    5.20
  -2   6  -1    4.00    3.80
  -6  -2  -1    1.30    5.20
  -2   6   1    5.20    4.30
   6   2   1    2.40    4.70
  -6  -2   1    5.00    4.80
  -6  -2   1    3.00    5.70
   6   1  -1  152.68   12.90
  -6  -1  -1  150.68   13.20
  -1   6  -1  173.88    8.70
  -1   6  -1  169.18    8.80
  -6  -1  -1  171.68   13.90
  -6  -1   1  157.48   13.40
  -1   6   1  171.58    9.60
   6   1   1  156.48   12.50
  -6  -1   1  150.68   13.20
  -6   0  -1    1.80    5.90
   6   0  -1   -2.20    4.50
  -6   0  -1   11.30    6.30
   6   0   1   -5.70    5.30
   0   6   1    1.90    2.20
   0   6   1   -1.10    1.60
  -6   0   1   -9.20    4.80
  -6   0   1   -4.50    5.80
  -6   1  -1  164.28   13.80
  -6   1  -1  163.78   13.80
   6  -1  -1  165.48   13.50
   1   6   1  153.78    7.60
  -6   1   1  155.08   13.70
   6  -1   1  158.28   13.30
  -1  -6   1  157.18    8.40
  -6   1   1  170.08   14.00
   1   6   1  159.38    7.70
  -6   2  -1    5.00    5.50
  -6   2  -1    4.40    6.40
   6  -2  -1   -1.30    4.60
   2   6   1    1.90    2.00
  -6   2   1    0.10    5.90
   6  -2   1   10.60    5.50
  -6   2   1   10.70    7.10
   2   6   1    1.30    1.90
  -2  -6   1    5.50    2.50
   6  -3  -1    7.90    5.50
  -6   3  -1   10.00    7.00
   3   6  -1   -0.10    1.90
   3   6  -1    1.50    2.50
  -6   3  -1    1.20    6.40
  -6   3   1    6.60    5.80
  -3  -6   1    1.50    2.70
   6  -3   1   -3.20    5.30
   3   6   1    0.20    2.30
   3   6   1    0.70    3.00
  -6   3   1   -2.80    6.90
   4   6  -1   12.00    4.10
   4   6  -1   19.00    3.60
  -6   4  -1   15.70    7.60
   6  -4  -1   14.20    5.90
  -4  -6  -1   11.40    3.30
   6  -4   1   12.50    6.10
  -4  -6   1   11.20    3.60
   4   6   1   10.60    3.40
  -6   4   1   18.70    6.90
  -6   4   1   11.00    7.70
   5   6  -1    3.70    4.50
  -5  -6  -1   10.80    4.20
   6  -5  -1    8.30    5.90
  -6   5  -1   -4.80    6.30
  -5  -6   1    7.00    4.20
   5   6   1   -0.10    3.80
   6  -5   1    7.40    5.70
  -6   5   1    9.70    7.60
  -6   5   1    2.20    6.30
  -6  -6  -1  102.49    9.00
  -6   6  -1   81.49   12.00
   6   6  -1   85.59    9.00
   6   6   1   82.59    8.90
  -6  -6   1   97.09    9.70
  -6   6   1   78.09   11.50
  -6   6   1   61.79   11.20
   7   6  -1    7.70    5.90
  -6   7  -1    7.00    8.00
  -7  -6  -1    9.00    5.80
  -6   7   1  -10.20    7.00
  -7  -6   1   -9.40    5.80
   7   6   1   -2.80    5.80
  -7  -5  -1    4.20    5.50
   7   5  -1    8.20    6.10
  -5   7  -1    0.50    7.10
  -5   7   1   -8.30    6.90
   7   5   1   -4.10    5.30
  -7  -5   1   -1.30    5.70
  -7  -4  -1   -5.10    5.30
   7   4  -1   -3.00    5.30
  -4   7  -1   -1.10    6.20
  -4   7   1    2.80    6.50
   7   4   1    3.60    6.10
  -7  -4   1    3.80    6.00
  -7  -3  -1   24.30    6.80
   7   3  -1   19.90    6.70
  -3   7  -1   13.20    6.00
  -7  -3  -1   20.40    6.60
  -7  -3   1   22.10    7.40
   7   3   1   29.50    7.00
  -3   7   1   30.30    6.80
  -7  -3   1   17.20    6.30
  -2   7  -1   83.29    7.00
  -7  -2  -1   70.59    9.80
   7   2  -1   71.99    9.30
  -7  -2  -1   75.09   10.10
  -2   7  -1   75.39    6.10
   7   2   1   83.69   10.20
  -2   7   1   82.69    8.00
  -7  -2   1   67.59    9.80
  -7  -2   1   74.69   10.40
   7   1  -1   54.49    8.60
  -1   7  -1   66.09    4.60
  -1   7  -1   68.49    5.10
  -7  -1  -1   70.79    9.80
  -7  -1  -1   43.40    8.60
  -1   7   1   66.79    6.20
   7   1   1   59.69    8.80
  -7  -1   1   52.99    9.30
  -7  -1   1   58.79    9.60
  -1   7   1   61.79    4.70
  -7   0  -1    1.10    6.40
   7   0  -1    8.40    6.20
  -7   0  -1   -1.80    5.70
   0   7   1    2.00    2.80
  -7   0   1   -2.50    5.50
   7   0   1    1.50    5.80
   0   7   1    2.30    1.80
  -7   0   1   -9.60    6.40
   7  -1  -1   85.89    9.90
  -7   1  -1   56.39    9.80
  -7   1  -1   68.89   10.50
   1   7   1   65.69    4.40
  -1  -7   1   62.79    5.00
   7  -1   1   64.29    9.20
  -7   1   1   74.59   10.40
   1   7   1   60.59    3.90
  -7   1   1   55.19    9.80
   7  -2  -1   76.19    9.90
  -7   2  -1   94.29   11.40
  -7   2  -1   69.39   10.60
   2   7   1   86.99    4.90
  -7   2   1   74.49   10.70
  -2  -7   1   73.09    5.70
   7  -2   1   97.49   11.00
  -7   2   1   75.29   11.30
   2   7   1   81.09    5.30
  -7   3  -1   26.00    9.10
  -7   3  -1   29.00    8.20
   7  -3  -1   25.30    7.50
  -3  -7   1   27.30    3.80
  -7   3   1   23.90    7.90
  -7   3   1   26.10    9.20
   3   7   1   29.10    3.30
   7  -3   1   25.10    7.10
   4   7  -1    5.50    2.60
   4   7  -1   -0.70    3.00
  -7   4  -1    7.40    7.40
   7  -4  -1   11.50    6.60
  -4  -7   1   -1.30    3.10
   4   7   1    1.70    2.90
  -7   4   1    3.00    5.90
   7  -4   1    9.60    6.60
  -7   4   1   10.20    8.10
   7  -5  -1   -6.80    5.50
  -5  -7  -1    1.00    3.30
   5   7  -1    1.50    4.10
  -7   5  -1    4.00    7.80
   7  -5   1   -4.90    5.70
  -7   5   1   -6.20    7.60
   5   7   1   -0.30    3.50
  -5  -7   1    0.60    4.20
  -7   5   1   -1.60    7.50
  -7   6  -1   11.20    9.20
  -6  -7  -1   -2.30    4.40
   6   7  -1   -1.20    4.60
   6   7   1    6.40    4.90
  -6  -7   1    2.10    5.40
  -7   6   1   21.60    8.70
  -7   6   1   -1.40    8.30
  -7   7  -1    5.00    9.20
   7   7  -1    5.80    5.70
   7   7   1    4.50    5.60
  -7   7   1    7.70    8.30
  -7  -7   1   -1.20    5.90
   8   7  -1  117.59   12.20
  -7   8  -1  118.49   15.00
  -8  -7   1  143.39   13.40
  -7   8   1  113.09   15.50
   8   7   1  145.89   13.20
  -6   8  -1   -4.90    8.20
  -8  -6  -1   -1.30    6.10
   8   6  -1    6.80    6.60
  -6   8   1    1.60    8.80
  -8  -6   1   -9.10    6.30
   8   6   1   -7.70    6.30
  -5   8  -1   64.19   10.60
  -8  -5  -1   57.89    9.50
   8   5  -1   65.69    9.70
  -5   8   1   66.49   10.80
  -8  -5   1   50.69    9.40
   8   5   1   50.59    8.90
  -8  -4  -1   45.60    8.80
   8   4  -1   46.30    8.40
  -4   8  -1   67.69    9.20
  -4   8   1   50.19    9.40
  -8  -4   1   31.50    8.60
   8   4   1   38.10    8.70
  -8  -3  -1  154.18   14.60
  -3   8  -1  158.68   12.00
  -8  -3  -1  143.89   14.00
   8   3  -1  146.09   13.90
   8   3   1  178.68   15.00
  -3   8   1  149.69   13.20
  -8  -3   1  161.68   14.80
  -8  -2  -1  111.19   12.60
  -2   8  -1  100.49    8.00
  -8  -2  -1  102.79   12.00
   8   2  -1   83.09   10.70
  -2   8   1  122.89   10.30
   8   2   1  109.09   12.00
  -8  -2   1   96.79   11.90
  -8  -2   1   89.99   11.80
   8   1  -1    5.80    6.30
  -8  -1  -1   -4.70    5.20
  -1   8  -1    3.10    2.10
  -1   8  -1   -1.80    1.80
  -8  -1  -1   -4.30    6.80
  -1   8   1    1.20    2.10
  -8  -1   1   -0.60    6.30
  -8  -1   1    1.50    7.20
   8   1   1    6.10    6.80
  -1   8   1   -5.20    4.20
   8   0  -1    2.30    5.50
  -8   0  -1    1.90    7.20
  -8   0  -1    8.30    7.30
  -8   0   1   -5.60    6.70
   8   0   1   -5.30    6.00
   0   8   1    0.90    3.40
  -8   0   1   -1.30    7.00
   0   8   1   -0.90    1.80
   8  -1  -1   -2.30    6.20
  -8   1  -1    6.70    7.50
  -8   1  -1   10.90    7.70
  -1  -8   1   -1.00    2.30
  -8   1   1    3.70    6.00
   8  -1   1    4.50    6.70
  -8   1   1    0.60    7.00
   8  -2  -1   77.09   10.90
  -8   2  -1   98.59   12.80
  -8   2  -1  102.19   12.70
  -8   2   1  109.69   13.90
   8  -2   1   99.59   11.30
  -2  -8   1   96.39    6.30
  -8   2   1   77.69   11.50
   8  -3  -1  163.28   14.40
  -8   3  -1  161.28   16.00
  -8   3  -1  124.79   15.20
  -8   3   1  162.28   16.10
  -3  -8   1  152.28    9.00
   8  -3   1  153.98   14.40
  -8   3   1  195.28   17.80
   3   8   1  151.08    7.80
   8  -4  -1   34.90    8.90
   4   8  -1   41.30    3.70
  -8   4  -1   42.80   10.20
  -4  -8   1   41.90    5.20
  -8   4   1   27.30   10.50
   4   8   1   44.50    4.50
   8  -4   1   53.49    9.70
   4   8   1   50.69    4.50
  -8   4   1   46.80   10.20
   8  -5  -1  100.09   11.70
  -8   5  -1   38.20   10.80
   5   8  -1   55.59    5.90
  -8   5   1   42.30   11.40
   8  -5   1   49.50   10.00
   5   8   1   58.49    5.80
  -5  -8   1   59.69    7.30
  -8   5   1   50.99   11.40
  -8   6  -1   -1.90    8.80
   6   8  -1    2.00    4.40
  -8   6   1   18.00    9.70
   6   8   1    8.20    4.50
  -8   6   1   -8.30    7.20
  -8   7  -1  144.59   16.50
   7   8  -1  135.99   11.70
   7   8   1  171.58   12.20
  -8   7   1  141.09   16.40
   8   8  -1   21.10    6.70
  -8   8  -1   23.30   10.80
   8   8   1   10.10    6.70
  -8   8   1   19.60   10.10
  -8   9  -1    9.50   10.30
   9   8  -1    5.70    6.50
  -8   9   1   -6.20    8.90
   9   8   1    3.40    7.00
   9   7  -1   63.29   10.10
  -7   9  -1   66.89   12.80
  -7   9   1   72.79   13.00
   9   7   1   61.99   10.40
  -9  -7   1   52.69   10.10
  -9  -6  -1   70.09   10.50
  -6   9  -1   91.49   12.60
   9   6  -1   56.99    9.90
  -6   9   1   74.19   12.70
   9   6   1   57.89   10.50
  -9  -6   1   69.39   11.00
  -5   9  -1    3.00    7.30
   9   5  -1   -4.50    7.00
  -9  -5  -1    6.20    7.00
   9   5   1    1.60    7.20
  -9  -5   1    0.30    7.00
  -5   9   1    6.80    8.60
   9   4  -1   56.29   10.10
  -9  -4  -1   70.79   10.90
  -4   9  -1   81.49    9.60
  -9  -4   1   63.59   10.90
   9   4   1   81.89   11.70
  -4   9   1   60.69   10.90
  -9  -3  -1   -0.30    6.80
   9   3  -1   -1.60    6.70
  -3   9  -1    6.00    4.90
  -9  -3   1    1.90    7.30
  -3   9   1    3.50    7.00
   9   3   1    3.50    7.40
  -9  -2  -1   -6.70    6.40
  -2   9  -1   -5.20    3.10
   9   2  -1   -1.70    7.00
  -9  -2  -1    0.00    7.10
  -2   9   1   -4.60    5.80
  -9  -2   1  -14.60    5.10
   9   2   1    7.20    7.40
  -9  -2   1   10.70    8.00
   9   1  -1   -1.00    6.90
  -9  -1  -1   20.00    8.20
  -9  -1  -1    3.60    7.10
  -9  -1   1   -2.00    7.00
  -1   9   1    0.90    4.80
   9   1   1   11.00    6.70
  -9  -1   1    1.40    6.20
  -9   0  -1  104.79   13.50
  -9   0  -1  144.39   15.30
   9   0  -1  120.49   13.20
  -9   0   1  142.69   15.50
  -9   0   1  132.89   15.10
   9   0   1  106.29   12.80
  -9   1  -1   16.40    9.00
  -9   1  -1    0.90    7.20
   9  -1  -1    6.20    7.40
  -9   1   1    9.70    8.40
  -1  -9   1   -4.10    2.80
  -9   1   1    1.90    6.80
   9  -1   1    0.20    7.30
   9  -2  -1   -9.80    5.50
  -9   2  -1    3.90    8.00
  -9   2  -1   -1.50    8.10
  -9   2   1   -8.20    7.90
  -9   2   1    4.00    8.10
   9  -2   1   -6.40    7.10
   9  -3  -1    1.40    7.30
  -9   3  -1    0.50    8.40
  -9   3   1   -1.00    8.20
  -9   3   1    6.90    7.40
   9  -3   1   -3.50    6.90
   9  -4  -1   77.99   11.80
  -9   4  -1   80.59   13.50
   4   9   1   58.49    4.70
  -9   4   1   66.79   12.20
  -9   4   1   63.49   12.40
   9  -4   1   81.69   11.70
   9  -5  -1   -7.10    6.80
  -9   5  -1  -12.50    8.50
   5   9  -1   -0.60    2.50
   5   9   1    3.70    3.20
   5   9   1    0.90    3.00
  -9   5   1   -7.90    8.50
  -9   5   1   -0.60    8.70
  -9   6  -1   57.49   12.30
   6   9  -1   66.89    6.40
  -9   6   1   66.59   13.30
  -9   6   1   57.99   12.90
   6   9   1   68.89    6.70
  -9   7  -1   59.69   13.20
   7   9  -1   55.89    7.10
  -9   7   1   50.99   12.10
   7   9   1   51.09    7.00
  -9   8  -1    9.20   10.20
   8   9  -1    1.20    5.30
   8   9   1    8.50    6.30
  -9   8   1    4.30    8.70
  -9   9  -1   11.60   10.90
   9   9  -1   21.50    7.00
   9   9   1    2.90    6.70
  -9   9   1   12.60   11.00
  -9  10  -1  -10.50    9.80
  10   9  -1    8.00    7.10
  -9  10   1    7.20   11.60
  10   9   1    6.50    7.20
  -8  10  -1   10.00   10.20
  10   8  -1    2.20    7.10
  -8  10   1   18.50   11.20
  10   8   1    4.10    7.30
  10   7  -1   24.30    8.50
  -7  10  -1   12.30    9.70
  10   7   1   11.10    8.30
  -7  10   1   11.50   10.70
  10   6  -1   10.20    7.40
  -6  10  -1   11.20    8.90
 -10  -6  -1    9.60    7.50
  -6  10   1    6.00    9.80
  10   6   1   30.80    9.20
 -10  -6   1    6.90    8.10
 -10  -5  -1  122.59   14.00
  -5  10  -1  125.59   13.10
  10   5  -1  119.39   13.70
  -5  10   1  142.09   15.40
 -10  -5   1  146.19   15.30
  10   5   1  120.29   13.90
  10   4  -1    3.20    7.70
  -4  10  -1    1.70    5.90
 -10  -4  -1   -1.30    7.00
  -4  10   1   -4.40    7.90
 -10  -4   1    6.10    7.90
  10   4   1    8.60    8.00
 -10  -3  -1   15.10    8.10
  10   3  -1    4.10    7.70
  -3  10  -1    7.40    4.50
  -3  10   1   10.10    7.40
 -10  -3   1    1.30    7.40
  10   3   1   -2.40    7.10
  -2  10  -1   -0.90    2.70
  10   2  -1   -6.90    6.70
 -10  -2  -1   -0.80    7.40
  -2  10   1    4.00    5.70
  10   2   1   11.90    8.40
 -10  -2   1   17.10    9.00
  10   1  -1    0.50    7.70
 -10  -1  -1   14.30    8.00
 -10  -1  -1    6.10    8.10
  -1  10   1   13.10    4.20
 -10  -1   1   -5.10    7.50
  10   1   1   -3.50    6.40
 -10  -1   1  -10.60    7.50
  10   0  -1   -7.70    7.40
 -10   0  -1   -2.10    8.10
 -10   0  -1   -2.70    7.60
 -10   0   1   -3.70    7.00
  10   0   1   18.90    8.40
 -10   0   1   -0.20    8.30
  10  -1  -1   10.00    7.60
 -10   1  -1   -7.80    8.10
 -10   1  -1    8.50    8.30
 -10   1   1   13.10    9.60
  10  -1   1    9.70    8.00
 -10   1   1   19.90   10.10
 -10   2  -1   16.90    8.90
  10  -2  -1    1.20    7.60
 -10   2  -1    1.40    7.20
  10  -2   1    6.30    8.00
 -10   2   1    4.40    8.70
 -10   2   1   -5.20    7.60
 -10   3  -1    3.90    8.10
  10  -3  -1   23.10    9.50
 -10   3   1    2.00    9.50
  10  -3   1   -3.60    7.20
 -10   3   1    2.90    9.10
 -10   4  -1   -2.00    7.90
  10  -4  -1   16.20    8.70
 -10   4   1    9.50   10.20
  10  -4   1    6.30    8.00
 -10   4   1   -5.60    8.60
 -10   5  -1  115.79   16.40
 -10   5   1  116.39   16.20
 -10   5   1  104.49   14.70
 -10   6  -1  -11.20    8.90
   6  10   1    7.90    3.50
 -10   6   1   19.30   10.50
 -10   6   1   17.10   11.30
 -10   7  -1    8.60   10.90
   7  10  -1   18.50    4.60
   7  10   1   17.80    4.90
 -10   7   1   17.70   10.80
   8  10  -1    4.30    5.00
 -10   8  -1   -1.70    9.10
   8  10   1    5.30    5.10
 -10   8   1   -7.40   10.10
 -10   9  -1   12.00   11.40
   9  10  -1   -0.50    5.50
   9  10   1   -4.60    5.50
 -10   9   1   11.70   11.70
  10  10  -1   12.50    6.40
 -10  10  -1   14.50   11.60
 -10  10   1    7.30   11.50
  10  10   1   23.00    7.60
  11  10  -1   12.00    7.30
 -10  11  -1   -3.60   11.70
 -10  11   1    5.70   12.10
  11  10   1   14.20    7.60
  -9  11  -1  -10.60   10.60
  11   9  -1    4.00    7.50
  -9  11   1    9.50   11.90
  11   9   1   -0.50    7.20
  -8  11  -1  -16.70    9.00
  11   8  -1    6.40    8.20
  11   8   1   15.80    8.60
  -8  11   1   19.30   11.70
  -7  11  -1   29.20   10.50
  11   7  -1   10.90    8.20
  11   7   1  -18.50    7.10
  -7  11   1  -21.10    9.70
  -6  11  -1   44.40   10.40
  11   6  -1   57.49   11.00
  -6  11   1   44.40   12.00
 -11  -6   1   36.00   10.10
  11   6   1   40.60   10.70
  -5  11  -1    8.30    7.50
  11   5  -1    0.50    7.40
 -11  -5  -1    6.50    7.80
 -11  -5   1    3.40    8.10
  -5  11   1    7.50    9.40
  11   5   1    9.50    8.30
  -4  11  -1  127.19   10.70
  11   4  -1  121.79   14.40
 -11  -4  -1  129.59   14.70
  11   4   1   90.09   13.20
 -11  -4   1   98.19   14.30
  -4  11   1  124.79   13.30
  -3  11  -1    7.50    3.90
 -11  -3  -1    5.60    8.00
  11   3  -1   15.20    8.80
 -11  -3   1    6.60    8.70
  -3  11   1   10.30    7.20
  11   3   1    3.70    8.80
 -11  -2  -1    7.50    8.30
  11   2  -1    3.40    8.30
  11   2   1    4.30    8.40
 -11  -2   1    4.40    8.40
  -2  11   1   10.00    5.00
  11   1  -1    3.80    8.10
 -11  -1  -1   19.00    9.00
 -11  -1  -1   20.60    9.60
  11   1   1   11.70    8.80
 -11  -1   1   12.10    9.20
 -11   0  -1    8.20    8.90
  11   0  -1   11.40    8.30
 -11   0  -1   11.80    8.10
 -11   0   1    1.20    8.90
  11   0   1   17.50    9.40
 -11   0   1   26.30   10.30
 -11   1  -1   -1.00    8.40
 -11   1  -1   23.40   10.10
  11  -1  -1    3.10    8.50
 -11   1   1   12.10    9.50
  11  -1   1   23.60    9.00
 -11   1   1   13.40    9.40
 -11   2  -1    8.60    9.90
  11  -2  -1   15.70    9.40
  11  -2   1    6.10    7.90
 -11   2   1   -1.20    8.40
 -11   2   1    2.30    7.50
  11  -3  -1    9.00    8.20
 -11   3  -1   -2.70    8.20
  11  -3   1   13.80    8.30
 -11   3   1   -4.10    9.20
 -11   3   1   -2.00    8.40
 -11   4  -1  123.79   17.20
  11  -4  -1  131.69   15.90
  11  -4   1  147.29   16.70
 -11   4   1  121.79   16.50
 -11   4   1  117.39   16.30
 -11   5  -1   -6.30    9.40
 -11   5   1   11.30   10.60
 -11   5   1   -0.10   10.00
 -11   6  -1   43.80   12.30
 -11   6   1   34.10   11.50
 -11   7  -1   -8.50    9.30
 -11   7   1   13.50   11.30
   7  11   1    2.00    3.20
   8  11  -1    1.50    3.70
 -11   8  -1   22.40   11.20
   8  11   1    6.60    4.30
 -11   8   1    7.90   10.90
   8  11   1    9.00    4.40
   9  11  -1   10.50    4.90
 -11   9  -1   -5.40   10.60
   9  11   1    2.10    5.20
 -11   9   1   -5.50   10.50
  10  11  -1    0.20    5.40
 -11  10  -1   18.50   12.00
  10  11   1    3.40    5.70
 -11  10   1   12.40   13.00
 -11  11  -1    9.00   12.70
  11  11  -1    7.00    6.50
 -11  11   1    8.60   11.70
  11  11   1    1.00    5.90
  12  11  -1    9.30    7.10
 -11  12  -1   12.40   13.60
 -11  12   1    2.30   11.80
  12  11   1    5.60    6.60
 -10  12  -1   -2.60   11.60
  12  10  -1   -0.60    7.10
  12  10   1    1.00    7.40
 -10  12   1   15.10   12.40
  12   9  -1   11.90    8.20
  -9  12  -1   23.70   12.30
  12   9   1   14.70    8.30
  -9  12   1   -2.00   11.60
  12   8  -1    0.90    8.10
  -8  12  -1    5.30   10.60
  -8  12   1   -3.30   11.30
  12   8   1    9.50    8.50
  12   7  -1    4.40    7.80
  -7  12  -1   10.70   10.00
  12   7   1   20.60    9.90
  -7  12   1   -2.50   10.70
  12   6  -1   15.90    8.80
  -6  12  -1    3.70    8.10
  -6  12   1   15.10   10.40
 -12  -6   1   19.10    9.50
  12   6   1   12.90    9.80
  -5  12  -1   -5.10    5.70
  12   5  -1  -13.70    7.00
  12   5   1    0.00    8.80
 -12  -5   1  -15.70    7.50
  -5  12   1    2.70    8.50
 -12  -4  -1   28.90   10.10
  12   4  -1   28.50    9.90
  -4  12  -1   24.90    5.50
 -12  -4   1   31.30   10.60
  12   4   1   50.49   11.30
  -4  12   1   24.00    8.20
 -12  -3  -1   79.79   13.00
  12   3  -1   74.69   12.70
  -3  12  -1   63.69    5.40
  -3  12   1   61.79    7.70
  12   3   1   47.00   11.30
 -12  -3   1   49.10   12.40
 -12  -2  -1    3.00    8.60
  12   2  -1   -3.80    8.80
 -12  -2   1    7.10    8.90
  12   2   1    6.80    8.90
 -12  -1  -1    6.10    8.70
  12   1  -1   -4.30    8.50
  12   1   1   -0.90    8.70
 -12  -1   1    1.50    9.70
 -12   0  -1    3.40    9.50
  12   0  -1   -3.60    9.10
  12   0   1   10.00    9.20
 -12   0   1  -10.20    8.00
 -12   0   1   -4.70    8.80
 -12   1  -1   14.60    9.60
  12  -1  -1   -0.50    8.80
  12  -1   1    1.10    8.90
 -12   1   1    0.60    7.70
 -12   1   1    2.00    9.70
 -12   2  -1  -16.80    8.50
  12  -2  -1   -2.90    8.20
  12  -2   1   -7.20    8.50
 -12   2   1   -0.50    8.80
 -12   2   1    5.90    9.70
 -12   3  -1   67.99   14.00
  12  -3  -1   46.60   11.80
 -12   3   1   56.29   13.20
  12  -3   1   65.79   13.10
 -12   3   1   39.50   13.00
  12  -4  -1   34.30   16.40
 -12   4  -1   29.80   12.70
 -12   4   1   20.50   11.00
 -12   4   1   35.30   12.70
 -12   5  -1    9.20   10.90
 -12   5   1   -1.70   11.10
 -12   6  -1   17.30   11.70
 -12   6   1    9.60   11.00
 -12   7  -1   -1.20   10.10
 -12   7   1    9.50   12.10
 -12   8  -1    1.30   10.40
 -12   8   1  -17.90    9.90
 -12   9  -1   30.30   13.00
 -12   9   1    3.80   12.60
 -12  10  -1   -3.50   10.90
 -12  10   1   -4.40   10.50
 -12  11  -1  -19.60   11.50
  11  12   1   -4.20    5.70
 -12  11   1   -1.60   11.00
  13  10  -1   -5.70    7.10
  13  10   1    8.00    8.10
  -9  13  -1   25.10   11.90
  13   9  -1    1.40    8.10
  13   9   1   -5.70    7.80
  -9  13   1    0.50   11.10
  -8  13  -1   18.50   10.50
  13   8  -1   12.50    9.10
  -8  13   1   29.50   12.00
  13   8   1   -6.00    8.30
  13   7  -1   -1.60    8.30
  -7  13  -1  -16.20    7.60
  13   7   1   12.90    9.30
  -7  13   1   20.90   10.50
  -6  13  -1   19.80    7.80
  13   6  -1   17.50    9.80
  -6  13   1    4.00    8.70
  13   6   1  -12.20    8.00
  -5  13  -1   22.20    6.10
  13   5  -1   22.40   10.40
  -5  13   1   27.60    8.50
 -13  -5   1    8.80   10.00
  13   5   1   17.40   10.70
  13   4  -1   14.00    9.40
  -4  13  -1    2.40    3.90
 -13  -4   1    9.90    9.70
  13   4   1    9.50   10.10
  -4  13   1    5.80    5.90
  13   3  -1   14.60    9.70
  13   3   1   22.80   10.20
 -13  -3   1   18.60   10.30
  13   2  -1   26.10   11.50
  13   2   1   38.10   12.00
 -13  -2   1   46.90   12.90
  13   1  -1   22.40   10.80
 -13  -1   1   12.10   10.20
  13   1   1   34.80   11.80
  13   0  -1    2.70    9.80
 -13   0   1   15.10    9.50
  13   0   1   -1.60    9.10
  13  -1  -1   36.90   10.90
 -13   1  -1   12.10   10.50
 -13   1   1   10.40   10.30
 -13   1   1    0.80    9.30
  13  -1   1   21.20   10.80
  13  -2  -1   54.89   12.70
 -13   2  -1   65.19   14.50
  13  -2   1   67.79   14.20
 -13   2   1   34.90   11.40
 -13   2   1   42.70   12.70
  13  -3  -1   35.90   11.30
 -13   3  -1   15.00   10.00
  13  -3   1   26.50   11.40
 -13   3   1   18.20   11.30
 -13   3   1   28.90   11.80
 -13   4  -1   11.70   11.30
 -13   4   1   18.80   12.10
 -13   4   1    7.30   11.30
 -13   5  -1   -3.20    9.90
 -13   5   1   24.90   11.50
 -13   6  -1    4.40   11.20
 -13   6   1    2.20   11.40
 -13   7  -1   -8.90   10.50
 -13   7   1   -3.40   11.80
 -13   8  -1   22.20   11.90
 -13   8   1   14.60   11.30
 -13   9  -1   19.50   12.60
 -13   9   1   12.20   12.40
  -8  14  -1  -14.10    7.90
  14   8  -1    9.40    9.50
  14   8   1  -11.10    8.00
  -8  14   1   27.60   11.40
  14   7  -1   -1.20    8.90
  -7  14  -1    2.10    7.60
  -7  14   1   -5.00    8.80
  14   7   1  -14.90    8.00
  -6  14  -1   28.00    9.10
  14   6  -1    9.20    9.50
  -6  14   1   19.70    8.90
  14   6   1   25.10   10.70
  14   5  -1    0.90    9.40
  -5  14   1    8.10    6.10
  14   5   1  -11.90    8.30
 -14  -5   1   -7.30    8.70
  14   4  -1    7.30    9.70
  14   4   1   14.50   11.20
 -14  -4   1   -2.80    9.20
  14   3  -1   -1.40    9.50
 -14  -3   1   -2.80    9.10
  14   3   1    1.50    9.70
  14   2  -1   -7.00    8.70
  14   2   1    3.30    9.50
 -14  -2   1   -8.80    8.70
  14   1  -1    0.60    9.10
  14   1   1   -9.30    9.10
 -14  -1   1   -1.10    9.50
  14   0  -1    3.40    9.70
  14   0   1   -1.30    9.10
 -14   0   1    6.00    9.50
  14  -1  -1   -0.70    9.90
 -14   1   1   -5.20    9.40
  14  -1   1    4.20    9.80
 -14   2  -1   -2.00    9.20
  14  -2  -1    7.40   10.00
 -14   2   1    0.60   11.40
  14  -2   1   19.50   10.80
 -14   2   1    8.30   10.50
 -14   3  -1   11.10   11.10
  14  -3  -1    8.20   10.00
 -14   3   1   19.60   11.60
 -14   3   1  -10.60   11.50
 -14   4  -1   15.40   11.20
 -14   4   1   -5.80   11.60
 -14   5  -1    3.50   10.80
 -14   5   1    1.50   11.60
 -14   6  -1   36.60   13.80
 -14   6   1    4.70   12.00
 -14   7  -1  -21.50    9.60
 -14   7   1    6.10   12.10
 -14   8  -1  -12.60    9.40
 -14   8   1    3.40   10.90
  15   6  -1   -9.10    8.90
  15   6   1   -9.80    8.70
  15   5  -1   16.60   10.40
  15   5   1   -9.40    9.50
  15   4  -1   11.60   10.60
 -15  -4   1   -6.80    9.70
  15   4   1    3.60   10.70
  15   3  -1   -5.70    9.90
 -15  -3   1   -6.70    8.90
  15   3   1    9.80   10.80
  15   2  -1   12.30   10.90
 -15  -2   1    2.10   10.50
  15   2   1   14.80   11.40
  15   1  -1    0.00   10.00
 -15  -1   1   15.10   11.20
  15   1   1   -0.30    9.20
  15   0  -1   66.09   14.50
  15   0   1   66.69   14.50
 -15   0   1   75.79   15.20
  15  -1  -1   11.10   11.20
 -15   1   1   -0.70   10.20
  15  -1   1   25.10   11.10
  15  -2  -1   25.90   12.00
  15  -2   1   38.70   12.30
 -15   3  -1  -18.50   10.40
 -15   3   1   16.40   11.80
 -15   4  -1   18.60   12.90
 -15   4   1    5.70   11.30
 -15   5  -1   -3.70   10.80
 -15   5   1    5.80   12.10
 -15   6  -1    6.30   11.60
 -15   6   1   -6.90   11.80
  16   3  -1    7.60    9.90
  16   3   1   -2.80   10.30
  16   2  -1  -22.60   10.40
  16   2   1   18.90   11.80
  16   1  -1   43.00   14.00
  16   1   1   11.70   11.50
  16   0  -1    3.00   11.00
  16   0   1    8.10   11.00
  16  -1  -1    3.80   11.50
  16  -1   1   17.60   11.60
  16  -2  -1   -2.60   11.30
  -1   0  -2    1.80    2.20
   0   1  -2   -0.40    2.10
   1   0  -2    2.10    2.40
   0   1   2   -1.80    2.10
  -1   0   2    1.30    2.60
   0   1   2   -3.40    1.80
   1   0   2    2.70    2.60
  -1   1  -2   21.80    3.00
   1   1  -2   20.20    2.80
  -1  -1   2   14.00    2.90
  -1   1   2   20.50    3.10
   1   1   2   15.70    2.90
  -1   1   2   22.70    3.40
   2   1  -2  100.39    6.70
  -1   2  -2  102.49    6.60
   2   1   2  111.09    6.90
  -1   2   2  115.19    6.90
  -2  -1   2  102.99    7.10
  -1   2   2  110.39    6.80
   0   2  -2  642.64   25.90
  -2   0  -2  587.74   26.60
   2   0  -2  615.24   26.60
   0   2   2  582.84   25.60
   0   2   2  586.14   26.10
  -2   0   2  621.54   26.60
  -2   0   2  594.24   26.70
   2   0   2  602.04   26.50
   2  -1  -2  108.49    6.90
   1   2  -2  111.59    6.00
  -2   1  -2  112.79    7.50
   2  -1   2  103.09    7.60
   1   2   2  102.39    6.40
  -1  -2   2  108.09    7.00
   1   2   2  118.79    6.70
  -2   1   2  108.69    7.30
  -2   1   2   98.79    7.50
   2   2  -2 1261.67   52.49
  -2   2  -2 1253.27   53.09
  -2  -2   2 1269.47   52.99
  -2   2   2 1234.18   52.99
  -2   2   2 1230.98   53.19
   2   2   2 1229.58   52.69
  -2   3  -2    9.90    3.50
   3   2  -2    5.40    2.80
  -2   3   2   12.20    3.30
   3   2   2    0.70    3.10
  -3  -2   2   15.30    3.70
  -2   3   2   13.80    4.80
  -3  -1  -2  479.45   22.80
  -1   3  -2  502.55   21.80
   3   1  -2  497.35   22.50
  -1   3   2  515.65   22.40
  -1   3   2  485.25   22.00
   3   1   2  495.05   22.80
  -3  -1   2  473.95   22.70
  -3   0  -2    0.60    3.30
   3   0  -2    0.10    2.80
   0   3  -2    1.50    2.00
   0   3   2    2.40    2.00
  -3   0   2    1.50    3.60
  -3   0   2    0.30    3.60
   0   3   2    0.80    2.30
   3   0   2    2.10    3.50
   1   3  -2  495.25   20.90
   3  -1  -2  468.65   22.20
  -3   1   2  490.85   22.60
   1   3   2  495.45   21.40
  -3   1   2  479.35   22.90
   1   3   2  476.75   20.40
   3  -1   2  493.25   22.60
  -1  -3   2  488.25   21.80
   2   3  -2    7.00    2.40
   3  -2  -2    8.20    3.50
  -3   2  -2    4.80    3.80
  -3   2   2   12.70    4.80
  -3   2   2    3.50    3.70
   2   3   2    8.10    2.60
   3  -2   2   10.70    3.40
  -2  -3   2    9.20    3.10
   3   3  -2 2372.06   99.59
  -3   3  -2 2424.36  100.79
   3  -3  -2 2318.97  100.29
  -3   3   2 2392.16  100.49
  -3  -3   2 2442.86  100.09
  -3   3   2 2448.06  101.89
   3   3   2 2329.97   99.89
  -3   4  -2   45.80    5.90
   4   3  -2   49.30    5.50
  -3   4   2   53.29    6.00
   4   3   2   49.30    5.60
  -3   4   2   35.80    7.30
  -4  -3   2   36.10    5.20
  -4  -2  -2   62.19    6.40
  -2   4  -2   64.39    5.70
   4   2  -2   49.99    5.50
   4   2   2   58.99    6.40
  -4  -2   2   67.39    6.60
  -2   4   2   59.69    7.30
  -2   4   2   60.69    5.50
   4   1  -2 3822.42  156.18
  -4  -1  -2 3450.45  156.48
  -1   4  -2 3914.71  154.88
  -4  -1   2 3778.02  156.48
  -4  -1   2 4133.59  156.68
  -1   4   2 3755.02  155.18
   4   1   2 3931.21  156.58
  -1   4   2 3222.58  155.48
   0   4  -2   53.09    3.90
  -4   0  -2   68.09    7.40
   4   0  -2   45.10    5.40
   0   4   2   60.79    4.50
  -4   0   2   43.30    5.60
   0   4   2   47.00    4.10
  -4   0   2   41.20    5.90
   4   0   2   51.49    5.80
  -4   1  -2 3981.40  163.88
   4  -1  -2 3685.83  162.88
   1   4  -2 3931.21  160.98
  -4   1   2 3912.51  163.78
   4  -1   2 3846.72  163.18
  -4   1   2 4008.20  163.28
   1   4   2 3968.30  161.48
  -1  -4   2 3960.80  161.98
  -4   2  -2   59.59    7.50
   2   4  -2   59.19    4.40
   4  -2  -2   53.49    5.90
   2   4   2   51.59    4.60
  -2  -4   2   63.79    5.40
   4  -2   2   53.59    6.10
  -4   2   2   53.29    7.80
  -4   2   2   74.69    7.30
   4  -3  -2   43.70    5.80
  -4   3  -2   46.20    6.90
   3   4  -2   46.30    4.50
   4  -3   2   55.29    6.10
  -4   3   2   45.80    7.90
  -3  -4   2   43.70    4.90
  -4   3   2   37.00    6.10
   3   4   2   45.00    4.60
  -4   4  -2   64.59    7.90
   4  -4  -2   68.39    7.20
   4   4  -2   58.99    6.00
  -4   4   2   61.39    9.20
   4   4   2   62.59    6.10
  -4   4   2   62.59    7.10
  -4  -4   2   65.09    6.50
   5   4  -2   59.69    7.10
  -4   5  -2   52.29    7.60
  -4   5   2   48.80    8.70
  -4   5   2   62.99    7.40
  -5  -4   2   49.10    6.40
   5   4   2   60.79    6.80
   5   3  -2  157.28   11.20
  -3   5  -2  184.58   11.20
   5   3   2  156.78   11.60
  -3   5   2  161.08   10.90
  -5  -3   2  168.08   11.40
  -3   5   2  161.08   12.90
   5   2  -2   42.30    5.90
  -5  -2  -2   59.89    7.40
  -2   5  -2   58.79    5.30
  -2   5   2   46.40    6.20
   5   2   2   47.90    6.20
  -5  -2   2   41.40    6.30
  -5  -2   2   44.10    6.80
  -2   5   2   48.20    5.30
  -1   5  -2  221.18   10.70
  -5  -1  -2  218.08   13.90
   5   1  -2  208.38   13.00
  -1   5   2  238.58   11.50
  -1   5   2  216.08   11.20
   5   1   2  221.78   13.70
  -5  -1   2  177.08   13.00
  -5  -1   2  208.08   13.60
   0   5  -2   -1.60    1.60
  -5   0  -2    3.90    4.80
   5   0  -2   -0.50    3.40
   0   5  -2   -0.50    1.80
  -5   0   2    4.70    5.00
   5   0   2    2.40    4.50
  -5   0   2   -3.20    4.40
   0   5   2    0.60    2.40
   5  -1  -2  219.28   13.40
  -5   1  -2  219.48   14.50
   1   5  -2  221.88    9.70
   1   5  -2  232.98    9.70
   5  -1   2  196.58   13.20
   1   5   2  213.78   10.60
  -5   1   2  222.88   15.00
  -5   1   2  147.09   12.60
  -1  -5   2  212.68   11.10
   2   5  -2   48.50    3.70
   2   5  -2   49.50    3.90
   5  -2  -2   44.70    6.50
  -5   2  -2   41.40    7.00
   2   5   2   46.40    4.20
  -2  -5   2   44.30    4.70
   5  -2   2   45.20    6.80
  -5   2   2   53.89    7.20
   2   5   2   47.10    4.30
  -5   2   2   37.60    7.50
   5  -3  -2  163.88   12.20
   3   5  -2  170.78    9.50
  -5   3  -2  175.68   13.70
   3   5  -2  182.98    9.80
  -5   3   2  208.38   15.20
   3   5   2  177.28    9.80
   5  -3   2  177.38   12.50
  -5   3   2  170.78   12.70
  -3  -5   2  180.08   10.30
   5  -4  -2   58.79    7.60
  -5   4  -2   50.79    8.30
   4   5  -2   61.09    6.30
   5  -4   2   77.99    8.10
  -5   4   2   69.29    8.40
  -4  -5   2   72.79    6.70
  -5   4   2   53.69    9.40
   4   5   2   56.09    6.00
  -5   5  -2  387.86   22.40
   5   5  -2  377.06   20.30
   5  -5  -2  394.66   21.70
   5  -5   2  395.66   20.70
   5   5   2  399.56   20.00
  -5   5   2  371.36   23.30
  -5  -5   2  365.56   19.80
  -5   5   2  412.36   21.80
  -5   6  -2   21.40    7.40
   6   5  -2   29.20    6.50
  -5   6   2   26.10    8.00
  -5   6   2   33.60    7.50
  -6  -5   2   28.80    6.50
   6   5   2   23.80    6.20
   6   4  -2  360.36   20.30
  -4   6  -2  396.96   20.50
  -4   6   2  327.17   21.00
   6   4   2  345.87   20.10
  -4   6   2  378.16   20.20
  -6  -4   2  359.76   19.90
   6   3  -2  322.07   19.10
  -6  -3  -2  320.77   18.90
  -6  -3  -2  313.37   18.90
  -3   6  -2  365.16   18.20
  -3   6   2  335.67   18.80
  -6  -3   2  356.86   19.40
   6   3   2  347.97   19.50
  -3   6   2  355.76   18.10
  -6  -2  -2   57.59    8.20
  -2   6  -2   81.49    6.30
   6   2  -2   60.39    8.00
  -6  -2  -2   60.99    7.90
  -2   6   2   74.79    6.60
  -6  -2   2   63.69    8.30
   6   2   2   57.99    7.70
  -6  -2   2   75.39    9.20
  -2   6   2   77.19    6.90
  -6  -1  -2  200.18   14.30
   6   1  -2  183.98   13.40
  -6  -1  -2  173.08   13.90
  -1   6  -2  209.98    9.80
  -6  -1   2  185.98   14.40
  -6  -1   2  197.38   13.90
  -1   6   2  182.38   10.50
   6   1   2  181.88   13.60
   6   0  -2  186.28   13.50
   0   6  -2  190.08    8.80
  -6   0  -2  145.69   13.50
  -6   0   2  201.88   14.80
  -6   0   2  184.28   13.50
   6   0   2  179.48   13.80
   0   6   2  201.58    9.90
  -6   1  -2  188.38   14.50
   1   6  -2  190.88    8.30
   6  -1  -2  198.28   13.60
  -6   1   2  206.18   15.40
   6  -1   2  186.68   13.70
   1   6   2  196.48    9.70
  -1  -6   2  184.78   10.20
  -6   1   2  118.39   12.40
  -6   2  -2   48.90    8.60
   2   6  -2   69.19    4.10
   6  -2  -2   77.29    9.20
   2   6  -2   77.89    4.60
  -6   2   2   56.59    8.60
   2   6   2   62.09    5.00
   2   6   2   69.89    5.50
  -2  -6   2   74.89    5.90
   6  -2   2   79.09    9.20
  -6   2   2   55.69    9.70
   3   6  -2  368.66   16.50
   6  -3  -2  324.57   19.90
  -6   3  -2  330.87   21.10
   6  -3   2  333.97   20.00
  -6   3   2  349.77   20.40
  -6   3   2  331.47   21.80
  -3  -6   2  341.17   16.90
   3   6   2  338.37   16.40
  -6   4  -2  382.76   22.90
   4   6  -2  382.46   17.70
   4   6  -2  404.86   19.10
   6  -4  -2  374.36   21.80
   6  -4   2  388.36   21.60
  -6   4   2  324.27   21.40
  -4  -6   2  392.16   19.00
   4   6   2  360.76   18.30
  -6   4   2  392.26   24.20
  -6   5  -2   23.60    7.80
   6  -5  -2   26.70    7.10
   5   6  -2   26.80    5.80
  -5  -6   2   19.70    5.00
   5   6   2   19.60    4.70
  -6   5   2   14.20    8.30
   6  -5   2   22.20    6.10
  -6   5   2   27.90    7.80
   6   6  -2  142.39   11.30
  -6   6  -2  107.29   12.90
   6   6   2  122.49   10.40
  -6   6   2   84.39   12.70
  -6   6   2  112.09   13.00
  -6  -6   2  113.99   10.40
  -6   7  -2  338.37   22.90
   7   6  -2  354.46   20.90
  -7  -6   2  356.36   21.40
   7   6   2  383.36   21.00
  -6   7   2  321.77   23.40
  -6   7   2  361.86   22.90
  -5   7  -2  249.88   17.60
   7   5  -2  257.57   17.10
  -7  -5   2  243.58   17.00
  -5   7   2  256.97   18.30
   7   5   2  250.17   16.80
  -5   7   2  243.68   17.80
   7   4  -2  978.20   47.00
  -4   7  -2 1012.50   46.10
   7   4   2  954.80   46.80
  -4   7   2 1035.20   46.40
  -4   7   2 1013.70   46.50
  -7  -4   2 1006.50   47.20
   7   3  -2   57.19    8.60
  -3   7  -2   67.39    7.20
  -7  -3  -2   58.69    9.00
  -7  -3  -2   45.40    8.20
  -7  -3   2   68.29    9.50
  -3   7   2   60.19    7.60
   7   3   2   57.89    8.40
  -7  -3   2   67.29    9.20
  -7  -2  -2  786.02   39.90
  -2   7  -2  839.22   35.90
  -7  -2  -2  774.52   39.50
  -2   7  -2  751.22   38.20
   7   2  -2  850.91   39.90
  -2   7   2  859.71   37.00
  -7  -2   2  852.91   40.40
   7   2   2  835.32   39.80
  -1   7  -2 1018.70   42.90
   7   1  -2  951.10   47.30
  -7  -1  -2 1026.20   48.00
  -7  -1  -2  928.21   47.50
  -1   7   2 1049.70   44.00
   7   1   2 1048.40   47.70
  -7  -1   2 1048.80   48.20
  -7  -1   2 1014.90   48.30
  -7   0  -2    2.10    5.20
   7   0  -2    2.80    4.90
  -7   0   2    6.50    7.00
   7   0   2   -6.90    5.60
   0   7   2    2.60    2.90
  -7   0   2   -3.00    5.60
   0   7   2    1.90    2.20
  -7   1  -2 1031.00   48.20
   7  -1  -2  971.60   47.00
  -1  -7   2  984.40   43.30
   1   7   2 1033.70   42.60
  -7   1   2 1036.60   48.60
  -7   1   2  905.71   47.20
   7  -1   2 1030.50   47.40
   7  -2  -2  837.72   40.40
  -7   2  -2  754.02   40.50
   7  -2   2  836.22   40.30
  -7   2   2  851.61   41.80
  -2  -7   2  807.42   36.10
   2   7   2  865.01   35.50
   2   7   2  810.42   35.40
   3   7  -2   67.99    5.00
  -7   3  -2   33.70    9.60
   3   7  -2   57.89    4.00
   7  -3  -2   66.59    9.80
  -3  -7   2   61.29    6.00
   3   7   2   63.09    5.30
  -7   3   2   58.19    9.90
   7  -3   2   68.99    9.20
  -7   3   2   65.39   10.80
   4   7  -2 1054.29   44.20
   7  -4  -2  981.10   48.30
  -7   4  -2  994.50   49.60
  -7   4   2 1081.29   50.89
   4   7   2  998.10   44.10
   7  -4   2  975.90   48.00
  -4  -7   2 1033.90   44.80
  -7   4   2  981.60   49.00
  -7   5  -2  235.88   19.70
   5   7  -2  276.07   14.80
   7  -5  -2  251.47   17.80
  -7   5   2  246.88   20.20
  -7   5   2  249.38   19.10
   7  -5   2  224.28   17.20
  -5  -7   2  253.27   14.70
   5   7   2  252.47   14.20
  -7   6  -2  346.87   24.10
   6   7  -2  383.66   20.20
   6   7   2  363.16   19.80
  -6  -7   2  379.76   20.40
  -7   6   2  351.76   23.90
  -7   6   2  366.96   25.00
   7   7  -2  191.78   14.10
  -7   7  -2  146.79   16.30
  -7  -7   2  188.38   15.00
   7   7   2  187.08   13.80
  -7   7   2  144.79   16.60
  -7   7   2  166.38   16.70
  -7   8  -2   75.79   13.20
   8   7  -2  106.59   11.30
  -7   8   2   71.09   12.30
  -8  -7   2  109.79   12.50
   8   7   2   99.99   11.60
   8   6  -2  319.57   20.70
  -6   8  -2  328.07   22.20
   8   6   2  306.47   20.90
  -8  -6   2  321.77   21.60
  -6   8   2  344.47   23.20
   8   5  -2  168.28   14.60
  -5   8  -2  193.78   15.20
  -8  -5   2  192.08   16.40
  -5   8   2  149.88   15.10
   8   5   2  147.29   14.60
  -4   8  -2   52.79    8.00
   8   4  -2   44.20    8.80
  -4   8   2   35.30    8.10
  -8  -4   2   52.29    9.50
   8   4   2   29.50    8.30
  -3   8  -2   -1.10    4.00
  -8  -3  -2   -5.70    6.20
   8   3  -2    2.10    6.70
  -8  -3  -2   10.10    7.40
   8   3   2    1.00    6.70
  -8  -3   2    2.80    7.00
  -3   8   2    4.20    5.70
  -2   8  -2  218.98   11.50
  -8  -2  -2  218.58   17.20
   8   2  -2  212.68   16.90
  -8  -2  -2  219.68   17.40
  -8  -2   2  220.68   18.10
   8   2   2  217.48   16.90
  -2   8   2  201.08   13.50
  -8  -2   2  228.18   18.10
  -8  -1  -2    5.40    7.30
  -1   8  -2   10.70    2.60
  -8  -1  -2    7.40    6.40
   8   1  -2    8.90    6.70
  -1   8  -2   16.90    3.00
   8   1   2   18.50    7.20
  -8  -1   2   12.60    7.80
  -8  -1   2   17.60    7.30
  -1   8   2   16.50    4.80
   8   0  -2 1756.22   80.19
  -8   0  -2 1824.22   81.09
  -8   0   2 1839.12   81.19
  -8   0   2 1735.23   80.99
   0   8   2 1795.82   75.29
   8   0   2 1793.12   80.29
   8  -1  -2   18.40    7.90
  -8   1  -2   15.30    7.50
  -1  -8   2   13.20    3.60
   8  -1   2   10.20    6.30
  -8   1   2   21.40    8.30
  -8   1   2   15.40    7.40
   1   8   2   10.50    3.10
   1   8   2   16.40    2.90
  -8   2  -2  233.38   18.90
   8  -2  -2  225.28   17.50
  -8   2   2  154.08   16.40
  -2  -8   2  214.18   11.70
  -8   2   2  194.88   18.20
   8  -2   2  210.48   16.70
   2   8   2  214.28   10.70
   2   8   2  224.78   11.30
  -8   3  -2   -9.40    5.90
   8  -3  -2   -2.30    6.80
   3   8   2    2.60    2.90
  -8   3   2   -0.50    7.90
  -8   3   2   -7.00    7.80
  -3  -8   2    0.20    3.20
   8  -3   2   -8.70    5.90
   4   8  -2   44.50    4.50
   4   8  -2   54.49    4.00
  -8   4  -2   49.00   11.30
   8  -4  -2   55.89   10.10
   4   8   2   41.00    4.80
  -4  -8   2   50.49    6.00
  -8   4   2   49.30   11.40
  -8   4   2   34.00    9.80
   8  -4   2   47.10    9.40
  -8   5  -2  181.48   17.70
   8  -5  -2  165.48   15.50
   5   8  -2  171.78   10.70
   5   8   2  164.58   10.80
  -8   5   2  171.98   18.40
  -8   5   2  148.99   16.30
  -5  -8   2  167.88   11.60
   6   8  -2  319.17   17.30
  -8   6  -2  322.17   23.40
  -6  -8   2  308.27   18.40
  -8   6   2  302.37   23.00
  -8   6   2  307.47   23.50
   6   8   2  303.97   17.10
  -8   7  -2   74.39   12.40
   7   8  -2   90.49    9.40
  -7  -8   2   77.69   10.60
  -8   7   2   79.99   13.70
   7   8   2   90.09    9.40
  -8   7   2   83.29   13.80
  -8   8  -2  676.33   37.70
   8   8  -2  639.24   32.40
   8   8   2  635.24   32.80
  -8   8   2  665.63   37.50
   9   8  -2   -0.30    6.60
  -8   9  -2   11.90   10.10
  -8   9   2    2.50    9.50
   9   8   2   -5.70    6.70
  -7   9  -2   56.49   12.10
   9   7  -2   71.19   10.40
   9   7   2   74.49   10.90
  -9  -7   2   54.19   10.80
  -7   9   2   72.19   13.10
  -6   9  -2  111.69   13.40
   9   6  -2  100.99   11.90
   9   6   2   91.39   12.20
  -6   9   2   99.89   13.60
  -9  -6   2   90.29   12.50
  -5   9  -2  114.59   12.20
   9   5  -2   89.89   11.70
  -5   9   2  116.19   13.90
  -9  -5   2  104.49   13.20
   9   5   2  102.99   12.80
  -4   9  -2 1020.90   43.40
   9   4  -2  913.11   45.80
   9   4   2  869.81   46.10
  -9  -4   2  887.91   46.50
  -4   9   2  940.41   45.40
   9   3  -2  166.68   15.30
  -3   9  -2  141.59   10.50
   9   3   2  162.88   15.70
  -9  -3   2  162.48   16.30
  -3   9   2  170.78   14.10
   9   2  -2   33.30    9.50
  -2   9  -2   43.80    4.70
  -9  -2  -2   41.10    9.50
  -9  -2   2   41.40   10.00
  -2   9   2   48.60    7.80
   9   2   2   43.40    9.80
  -9  -2   2   42.60    9.20
  -1   9  -2   42.60    3.30
   9   1  -2   44.60    9.80
  -9  -1  -2   29.20    8.80
  -9  -1   2   34.20    9.50
  -9  -1   2   38.70   10.30
  -1   9   2   56.79    6.80
   9   1   2   29.60    8.60
  -9   0  -2   -2.60    6.00
   9   0  -2    5.40    7.20
  -9   0   2    5.00    7.70
  -9   0   2   -1.00    5.90
   0   9   2   -3.70    3.60
   9   0   2    4.50    7.30
   9  -1  -2   36.10    8.90
  -9   1  -2   33.10    9.10
   1   9   2   47.30    4.50
  -1  -9   2   38.10    4.90
  -9   1   2   31.10   10.10
   9  -1   2   48.60   10.10
  -9   1   2   34.10   10.30
   9  -2  -2   36.30    9.90
  -9   2  -2   27.10    8.60
  -9   2   2   39.40   10.10
  -2  -9   2   39.90    5.00
   9  -2   2   51.49   10.10
   2   9   2   48.40    4.20
  -9   2   2   42.20   10.90
   9  -3  -2  157.28   15.80
  -9   3  -2  151.88   16.30
   3   9   2  153.48    8.30
   9  -3   2  164.78   16.00
  -9   3   2  112.09   14.70
  -9   3   2  124.69   15.90
  -9   4  -2 1012.40   49.20
   9  -4  -2  920.81   47.00
   4   9   2  896.91   40.40
  -9   4   2  932.61   48.70
   9  -4   2  952.20   47.10
  -9   4   2  976.60   49.20
   9  -5  -2   93.89   13.10
   5   9  -2  116.49    7.10
  -9   5  -2   90.49   14.20
   5   9   2  100.19    8.20
  -9   5   2  123.79   16.00
  -9   5   2  112.29   15.70
  -9   6  -2   89.69   13.70
   6   9  -2  105.79    8.20
   6   9   2   92.89    8.30
  -9   6   2   84.79   14.40
  -9   6   2   90.49   13.80
   7   9  -2   62.09    7.40
  -9   7  -2   74.79   13.20
   7   9   2   61.09    7.60
  -9   7   2   83.59   13.70
  -9   7   2   68.99   13.70
  -9   8  -2    9.90   10.00
   8   9  -2    6.70    5.80
  -9   8   2    8.80   10.70
   8   9   2   -2.20    5.60
  -9   9  -2  618.64   38.20
   9   9  -2  633.14   32.40
  -9   9   2  656.23   39.10
   9   9   2  669.53   33.50
  -9  10  -2   64.69   14.30
  10   9  -2   72.29   10.20
  10   9   2   59.29   10.40
  -9  10   2   67.59   15.00
  -8  10  -2  120.69   16.80
  10   8  -2  136.99   13.90
  10   8   2  106.99   13.40
  -8  10   2  140.69   17.40
  10   7  -2  220.08   17.50
  -7  10  -2  170.88   18.30
  10   7   2  179.28   17.50
 -10  -7   2  194.88   18.60
  -7  10   2  257.87   22.00
  -6  10  -2   69.19   11.70
  10   6  -2   49.70   10.10
  10   6   2   50.39   10.80
 -10  -6   2   45.00   10.50
  -6  10   2   54.19   12.40
  -5  10  -2  222.18   16.40
  10   5  -2  206.68   17.90
 -10  -5   2  195.48   18.70
  10   5   2  225.68   19.00
  -5  10   2  224.08   19.40
  -4  10  -2   45.20    6.90
  10   4  -2   47.50   10.00
  10   4   2   64.69   11.30
  -4  10   2   48.00   10.70
 -10  -4   2   28.90   10.10
  10   3  -2   92.79   12.80
  -3  10  -2   90.99    7.80
  -3  10   2   99.89   12.00
  10   3   2   92.49   12.70
 -10  -3   2   92.69   13.50
  10   2  -2   95.19   12.40
  -2  10  -2   69.79    5.60
  10   2   2   75.09   12.20
  -2  10   2   81.69    9.90
 -10  -2   2   69.09   12.40
  10   1  -2   80.19   12.00
 -10  -1  -2   91.79   13.90
  -1  10   2  106.49    9.50
 -10  -1   2   80.79   12.50
  10   1   2  110.39   14.20
 -10  -1   2   89.39   13.40
  10   0  -2   42.00    9.70
 -10   0  -2   32.10    9.30
  10   0   2   26.00    9.00
 -10   0   2   39.70   10.70
 -10   0   2   59.39   12.30
   0  10   2   41.40    5.90
 -10   1  -2   76.59   12.50
  10  -1  -2   86.29   13.20
  10  -1   2  116.49   14.00
 -10   1   2  133.49   15.90
 -10   1   2   90.19   14.10
  10  -2  -2   85.59   12.30
 -10   2  -2   82.09   12.80
  10  -2   2   86.69   12.70
 -10   2   2   64.29   12.80
 -10   2   2   66.99   12.90
 -10   3  -2   90.99   13.40
  10  -3  -2   94.19   13.50
 -10   3   2   77.29   13.50
  10  -3   2   92.49   13.00
 -10   3   2   83.39   14.10
 -10   4  -2   37.80   10.70
  10  -4  -2   58.89   12.00
   4  10   2   43.20    4.10
 -10   4   2   37.40   11.70
  10  -4   2   78.19   12.10
 -10   4   2   37.70   11.30
 -10   5  -2  244.48   22.20
   5  10   2  225.48   12.10
 -10   5   2  246.58   22.80
 -10   5   2  227.68   22.00
 -10   6  -2   49.70   11.90
   6  10   2   46.70    5.70
 -10   6   2   33.60   11.60
 -10   6   2   57.79   13.70
 -10   7  -2  189.88   19.90
   7  10  -2  174.18   11.50
 -10   7   2  218.68   21.70
 -10   7   2  182.18   20.80
   7  10   2  191.38   12.60
   7  10   2  204.98   12.70
 -10   8  -2   87.89   15.90
   8  10  -2  112.49    9.80
   8  10   2  115.39   10.60
 -10   8   2   91.89   16.20
   9  10  -2   56.69    8.30
 -10   9  -2   70.29   14.90
   9  10   2   79.19    9.70
 -10   9   2   92.69   16.00
 -10  10  -2  131.69   19.00
  10  10  -2  171.68   13.90
 -10  10   2  205.58   21.70
  10  10   2  152.28   14.00
  11  10  -2    2.60    6.60
 -10  11  -2    8.80   12.10
  11  10   2   -1.90    6.70
 -10  11   2   19.60   13.50
  -9  11  -2   77.19   14.90
  11   9  -2   63.19   10.60
  11   9   2   51.99   10.80
  -9  11   2   84.29   15.50
  11   8  -2    2.50    7.90
  -8  11  -2    2.90   10.10
  -8  11   2    4.20   11.60
  11   8   2    3.10    8.40
  -7  11  -2   24.50    9.90
  11   7  -2   30.60    9.20
  11   7   2   30.50   10.10
  -7  11   2   35.60   12.40
  -6  11  -2   86.89   11.80
  11   6  -2   96.49   13.10
  11   6   2   72.49   13.20
  -6  11   2  116.99   15.60
 -11  -6   2  142.79   15.90
  -5  11  -2 1190.88   53.69
  11   5  -2 1091.19   56.49
  -5  11   2 1204.78   57.79
  11   5   2 1205.18   57.89
 -11  -5   2 1170.38   58.09
  11   4  -2   93.69   13.00
  -4  11  -2   79.49    8.10
  -4  11   2   93.09   13.00
 -11  -4   2   78.59   13.20
  11   4   2   73.59   12.70
  -3  11  -2  255.77   13.90
  11   3  -2  275.17   21.50
 -11  -3   2  275.57   22.30
  11   3   2  302.87   22.00
  -3  11   2  256.17   19.60
  11   2  -2   39.60   11.10
 -11  -2   2   64.09   12.70
  11   2   2   60.49   12.00
  -2  11   2   68.59    9.30
 -11  -1  -2  261.77   23.80
  11   1  -2  301.17   23.10
  -1  11   2  328.37   17.30
  11   1   2  322.07   23.10
 -11  -1   2  279.57   23.20
 -11   0  -2  -14.30    8.20
  11   0  -2  -11.90    7.80
 -11   0   2   10.40    8.80
 -11   0   2  -14.30    7.70
  11   0   2   -6.60    8.40
  11  -1  -2  312.67   23.30
 -11   1  -2  344.97   24.90
 -11   1   2  254.47   23.90
 -11   1   2  320.77   26.40
  11  -1   2  350.66   24.50
  11  -2  -2   37.60   11.50
 -11   2  -2   42.90   11.20
 -11   2   2   45.80   12.20
  11  -2   2   54.09   11.90
 -11   2   2   70.59   14.20
 -11   3  -2  261.77   23.40
  11  -3  -2  263.27   23.20
  11  -3   2  305.77   24.20
 -11   3   2  284.47   25.20
 -11   3   2  296.47   23.90
  11  -4  -2   61.59   12.60
 -11   4  -2   76.19   13.10
 -11   4   2   78.49   14.90
  11  -4   2   61.69   13.40
 -11   4   2   85.69   14.70
 -11   5  -2 1166.58   59.19
 -11   5   2 1117.19   59.09
 -11   5   2 1190.08   60.19
 -11   6  -2  103.79   15.50
 -11   6   2   93.89   16.10
 -11   6   2  113.59   16.90
 -11   7  -2   23.90   11.00
 -11   7   2   27.70   12.20
   7  11   2   21.70    4.60
   8  11  -2    2.50    3.70
 -11   8  -2   -7.20   10.80
   8  11   2    8.20    5.00
 -11   8   2  -12.30   10.60
   9  11  -2   62.99    7.30
 -11   9  -2   77.39   16.10
   9  11   2   65.69    8.40
 -11   9   2   66.79   16.00
   9  11   2   75.69    8.60
 -11  10  -2   -8.40   11.10
  10  11  -2   -1.80    5.30
 -11  10   2   -0.80   11.40
  10  11   2   -6.70    5.60
  11  11  -2  175.58   14.50
 -11  11  -2  229.48   23.70
  11  11   2  192.28   15.60
 -11  11   2  242.28   25.40
  12  11  -2   41.60    8.50
 -11  12  -2   62.09   15.70
  12  11   2   36.70    9.30
 -11  12   2   74.89   16.50
 -10  12  -2   15.90   12.70
  12  10  -2   20.60    8.10
 -10  12   2   -3.70   11.80
  12  10   2   21.10    8.30
  -9  12  -2  147.09   19.20
  12   9  -2  203.08   17.50
  -9  12   2  202.28   22.60
  12   9   2  188.38   18.40
  12   8  -2    4.60    7.50
  -8  12  -2  -10.10    9.10
  12   8   2   -4.10    8.30
  -8  12   2   -6.50   11.50
  -7  12  -2  361.66   24.60
  12   7  -2  346.97   24.20
  -7  12   2  331.47   27.30
  12   7   2  354.66   25.50
  -6  12  -2  104.79   11.90
  12   6  -2   90.49   13.10
 -12  -6   2   99.89   15.00
  12   6   2   89.19   13.90
  -6  12   2   96.19   14.70
  -5  12  -2   58.49    8.10
  12   5  -2   43.30   11.00
  12   5   2   64.89   12.60
  -5  12   2   54.19   12.00
 -12  -5   2   60.99   12.70
  12   4  -2   -9.90    7.50
  -4  12  -2    5.60    4.30
  -4  12   2   23.30    9.20
 -12  -4   2   17.70   10.30
  12   4   2   16.90    9.50
  12   3  -2  316.17   23.70
  -3  12  -2  310.77   15.10
  -3  12   2  326.77   20.40
 -12  -3   2  303.17   25.90
  12   3   2  350.56   24.90
  12   2  -2   91.79   15.00
  12   2   2  118.09   15.20
 -12  -2   2  116.79   16.60
  -2  12   2  145.09   10.80
  12   1  -2  653.63   37.20
 -12  -1   2  614.84   37.80
  12   1   2  613.54   36.20
  12   0  -2  112.89   15.70
 -12   0  -2   67.29   13.60
  12   0   2   74.59   13.10
 -12   0   2   83.89   14.40
  12  -1  -2  639.14   37.30
 -12   1   2  636.24   38.30
 -12   1   2  602.34   37.60
  12  -1   2  665.23   37.20
 -12   2  -2  134.59   17.20
  12  -2  -2  108.69   15.70
  12  -2   2  123.59   16.20
 -12   2   2   99.99   16.00
 -12   2   2   96.79   15.00
 -12   3  -2  326.07   27.10
  12  -3  -2  325.27   27.00
  12  -3   2  332.97   24.70
 -12   3   2  305.27   27.00
 -12   3   2  351.66   27.20
 -12   4  -2    7.30    9.70
  12  -4  -2   -8.70    8.70
 -12   4   2   30.50   12.20
 -12   4   2    9.80   10.30
 -12   5  -2   48.90   13.80
 -12   5   2   43.50   12.90
 -12   5   2   66.69   14.40
 -12   6  -2   80.19   15.30
 -12   6   2  118.59   17.40
 -12   6   2   65.89   14.30
 -12   7  -2  382.86   29.90
 -12   7   2  327.17   29.00
 -12   8  -2   13.30   11.70
 -12   8   2   -9.10   10.30
 -12   9  -2  180.68   22.80
 -12   9   2  173.88   22.60
 -12  10  -2   39.10   14.80
 -12  10   2   18.90   12.60
 -12  11  -2   78.99   16.90
 -12  11   2   85.59   17.20
  11  12   2   50.59    9.20
  -9  13  -2  104.39   15.90
  13   9  -2  117.19   14.10
  -9  13   2  130.49   18.40
  13   9   2   85.89   13.60
  -8  13  -2  193.58   18.60
  13   8  -2  191.98   18.30
  13   8   2  162.78   18.40
  -8  13   2  253.67   23.20
  13   7  -2    6.30    9.20
  -7  13  -2   10.60    8.40
  13   7   2   -4.80    8.60
  -7  13   2    0.90   10.80
  -6  13  -2   13.60    6.90
  13   6  -2    7.70    8.70
  13   6   2   -4.60    9.20
 -13  -6   2    6.60   10.70
  -6  13   2    3.50   10.10
  -5  13  -2   14.60    5.40
  13   5  -2    5.40    8.80
 -13  -5   2   18.20   10.70
  13   5   2   26.10   10.50
  -5  13   2    6.90    9.20
  13   4  -2    7.60    9.40
  -4  13  -2    6.80    3.70
 -13  -4   2    7.40   10.50
  13   4   2    2.30    8.70
  -4  13   2   12.30    7.80
  13   3  -2  324.47   25.40
 -13  -3   2  335.27   26.10
  13   3   2  341.07   26.40
  -3  13   2  327.17   18.20
  13   2  -2   25.40   11.40
  13   2   2   23.00   11.00
 -13  -2   2    5.60   10.00
  13   1  -2   22.30   11.10
 -13  -1   2   -5.70    9.50
  13   1   2   -5.30    8.90
  13   0  -2   -7.60    9.00
 -13   0   2   -2.00    8.80
  13   0   2   -6.90    8.50
 -13   1  -2    7.70   10.40
  13  -1  -2    2.70    8.60
  13  -1   2    6.50    9.20
 -13   1   2   23.10   11.20
 -13   1   2  -16.50   11.50
  13  -2  -2    3.60    9.90
 -13   2  -2    6.80   11.70
  13  -2   2   26.40   11.10
 -13   2   2   10.00   10.60
 -13   2   2   26.60   11.70
 -13   3  -2  325.27   28.00
  13  -3  -2  265.27   24.10
  13  -3   2  330.17   24.90
 -13   3   2  254.87   25.10
 -13   3   2  296.47   26.90
 -13   4  -2    1.90   10.60
 -13   4   2   -6.90   11.30
 -13   4   2   -0.60    9.80
 -13   5  -2   -3.60    9.20
 -13   5   2    7.50   10.70
 -13   5   2   10.80   11.50
 -13   6  -2    7.50   11.20
 -13   6   2   31.50   13.90
 -13   7  -2   11.90   11.20
 -13   7   2    7.10   12.10
 -13   8  -2  212.98   24.20
 -13   8   2  229.18   25.60
 -13   9  -2  106.99   19.50
 -13   9   2  110.49   19.20
  14   8  -2   89.79   14.10
  -8  14  -2   68.69   11.70
  -8  14   2   43.10   12.90
  14   8   2   51.79   12.90
  14   7  -2   28.40   10.40
  -7  14  -2   33.80    8.40
  -7  14   2   30.30   11.20
  14   7   2   10.50    9.70
  14   6  -2  394.56   27.90
  -6  14  -2  386.66   21.40
  14   6   2  347.57   26.80
  -6  14   2  391.06   25.40
  14   5  -2    0.30    9.50
 -14  -5   2   21.30   10.70
  14   5   2   -4.80    9.70
  -5  14   2    4.50    7.10
  14   4  -2    3.30    8.80
  14   4   2    8.10   10.20
  -4  14   2    6.10    7.30
 -14  -4   2   13.60   10.40
  14   3  -2   54.09   12.70
 -14  -3   2   67.59   14.10
  14   3   2   32.20   12.30
  14   2  -2  215.98   22.10
 -14  -2   2  207.08   22.40
  14   2   2  191.88   20.80
  14   1  -2    4.70   10.40
  14   1   2   12.80   10.40
 -14  -1   2    3.40   10.30
  14   0  -2  105.89   17.30
 -14   0   2  115.09   17.10
  14   0   2  118.99   16.60
  14  -1  -2    1.80   10.40
  14  -1   2   11.70   10.30
 -14   1   2    1.10   10.50
 -14   2  -2  187.48   22.20
  14  -2  -2  179.88   20.20
 -14   2   2  169.78   20.30
 -14   2   2  184.08   23.20
  14  -2   2  162.18   19.10
  14  -3  -2   37.30   12.90
 -14   3  -2   70.69   15.70
 -14   3   2   49.20   13.70
 -14   3   2   63.49   16.40
 -14   4  -2   28.20   12.80
 -14   4   2   15.50   11.40
 -14   4   2   19.80   13.50
 -14   5  -2   -3.30   11.70
 -14   5   2   -6.90   11.00
 -14   6  -2  415.86   32.50
 -14   6   2  365.06   32.80
 -14   7  -2   17.90   12.70
 -14   7   2   23.00   13.50
 -14   8  -2  104.39   19.10
 -14   8   2  131.59   20.70
  15   6  -2  313.27   26.60
  15   6   2  321.17   25.50
  15   5  -2    3.40   10.10
  15   5   2   -1.40   10.00
 -15  -5   2   12.20   17.80
  15   4  -2  214.08   22.20
 -15  -4   2  251.47   23.90
  15   4   2  218.88   22.30
  15   3  -2   19.10   11.40
  15   3   2   39.90   12.30
 -15  -3   2   -2.50    9.90
  15   2  -2  435.36   31.00
 -15  -2   2  427.36   32.00
  15   1  -2    8.00   10.90
  15   1   2   -7.40    9.70
 -15  -1   2   15.90   11.30
  15   0  -2   11.90   11.10
  15   0   2  -14.00    9.30
 -15   0   2  -25.60    9.20
  15  -1  -2    1.30   10.60
 -15   1   2    1.20   11.10
  15  -1   2   15.90   11.10
  15  -2  -2  332.87   29.80
 -15   2   2  375.26   30.00
  15  -2   2  427.56   30.50
 -15   3  -2   32.10   13.50
 -15   3   2   14.10   14.40
 -15   3   2   50.09   14.40
 -15   4  -2  222.38   24.40
 -15   4   2  225.18   25.70
 -15   5  -2   16.40   13.20
 -15   5   2   13.60   12.80
 -15   6  -2  277.07   27.60
 -15   6   2  251.67   27.80
  16   3  -2    1.70   10.50
 -16  -3   2  -10.20    9.80
  16   3   2   -2.90   10.30
  16   2  -2  215.98   23.70
 -16  -2   2  265.07   25.40
  16   2   2  289.07   25.70
  16   1  -2   -4.30    9.90
 -16  -1   2   -8.80   10.40
  16   1   2   -0.90    9.90
  16   0  -2  349.27   30.20
  16   0   2  342.27   29.90
 -16   0   2  412.36   31.30
  16  -1  -2    9.00   11.40
  16  -1   2   -0.40    9.60
 -16   1   2   16.90   12.20
  16  -2  -2  286.87   27.80
   0   0  -3    2.60    2.80
   0   0   3    1.10    2.40
   0  -1  -3   -0.30    2.50
   0   1  -3   -1.50    2.50
  -1   0  -3   -0.60    3.00
   1   0  -3    1.80    2.90
  -1   0   3    1.10    2.80
   1   0   3    4.40    2.70
   0   1   3    2.70    2.90
   1   0   3   -2.00    2.90
  -1   0   3    0.60    2.80
   0   1   3    2.40    3.00
   1  -1  -3  114.29    7.20
   1   1  -3  104.39    6.80
  -1  -1  -3   90.69    6.70
  -1   1  -3  100.69    7.10
  -1  -1   3  112.49    7.50
   1  -1   3  116.09    7.60
   1   1   3  118.49    7.30
  -1   1   3   99.69    7.20
  -1   1   3  102.89    7.30
   1   1   3  111.09    7.20
   1  -2  -3 1637.64   66.69
  -2  -1  -3 1423.06   66.59
   2   1  -3 1613.04   66.59
  -1   2  -3 1584.94   66.49
  -1   2   3 1573.24   66.59
   2   1   3 1626.04   66.69
  -2  -1   3 1608.74   66.99
  -1   2   3 1565.84   66.29
  -2   0  -3    4.40    3.30
   2   0  -3   -0.40    3.00
   0   2  -3    0.70    2.30
  -2   0   3   -2.20    3.20
   2   0   3    4.40    2.90
  -2   0   3    2.30    2.60
   0   2   3    2.90    2.80
   0   2   3    0.20    2.50
   1   2  -3 1623.04   66.49
   2  -1  -3 1600.94   67.09
  -2   1  -3 1554.24   67.09
  -2   1   3 1512.65   67.09
  -2   1   3 1605.54   67.09
   1   2   3 1627.54   66.79
   2  -1   3 1556.04   66.89
  -1  -2   3 1603.64   67.09
  -2   2  -3   19.20    3.80
   2   2  -3   23.80    3.60
   2  -2  -3   16.90    3.50
  -2  -2   3   22.90    3.90
  -2   2   3   21.80    4.30
   2   2   3   16.70    3.50
  -2   2   3   23.60    4.20
   3   2  -3   90.39    6.80
  -2   3  -3   90.49    6.90
   2  -3  -3   95.59    7.00
  -3  -2  -3   94.19    7.10
  -2   3   3   92.79    7.00
   3   2   3   78.99    6.70
  -2   3   3   90.09    7.20
  -3  -2   3  109.29    8.00
  -1   3  -3  219.58   11.30
   3   1  -3  223.08   11.80
  -3  -1  -3  222.18   12.30
  -1   3   3  228.08   11.50
  -3  -1   3  234.58   12.60
   3   1   3  213.78   11.80
  -3  -1   3  221.48   12.00
  -1   3   3  221.58   11.70
  -3   0  -3  289.27   14.20
   0   3  -3  279.07   12.70
   3   0  -3  262.67   13.70
  -3   0   3  259.77   13.80
  -3   0   3  263.07   14.10
   3   0   3  257.07   13.70
   0   3   3  236.88   13.00
   0   3   3  262.67   12.40
   1   3  -3  240.58   11.40
   3  -1  -3  233.58   12.40
  -3   1  -3  234.48   12.90
   1   3   3  225.88   11.90
   1   3   3  226.08   10.90
   3  -1   3  221.38   12.40
  -1  -3   3  248.48   12.50
  -3   1   3  230.08   13.00
  -3   1   3  237.08   12.90
   3  -2  -3   83.79    7.10
  -3   2  -3  100.09    7.80
   2   3  -3  100.09    6.30
  -3   2   3   90.29    7.60
   2   3   3   79.79    6.50
  -2  -3   3   89.49    7.00
  -3   2   3   89.79    8.00
   3  -2   3   95.39    7.10
   3  -3  -3   38.80    4.90
   3   3  -3   40.40    4.50
  -3   3  -3   43.30    5.10
   3   3   3   43.40    4.90
  -3   3   3   34.20    6.10
  -3  -3   3   43.10    5.30
  -3   3   3   53.19    6.10
   4   3  -3  113.29    8.00
  -3   4  -3   87.99    7.90
   3  -4  -3  107.79    8.30
   4   3   3  106.69    8.40
  -4  -3   3  107.19    8.60
  -3   4   3  142.99   11.20
  -3   4   3  118.69    8.60
  -4  -2  -3  183.78   11.20
  -2   4  -3  171.48   10.00
   4   2  -3  187.08   10.70
   4   2   3  173.78   11.00
  -4  -2   3  173.08   11.20
  -2   4   3  165.98   10.50
  -2   4   3  180.68   11.60
  -1   4  -3   14.40    3.10
   4   1  -3    9.90    3.50
  -4  -1  -3   11.80    4.20
  -4  -1   3   31.50    4.80
   4   1   3   10.40    4.00
  -4  -1   3    7.10    4.10
  -1   4   3   19.20    3.80
  -1   4   3   16.40    3.80
   0   4  -3    2.00    2.10
   4   0  -3   -1.00    3.40
  -4   0  -3    7.10    4.40
   4   0   3   -4.40    3.40
   0   4   3   -0.10    2.60
  -4   0   3    0.70    3.20
  -4   0   3   -0.10    3.90
   0   4   3    0.00    2.30
   4  -1  -3   15.30    4.30
  -4   1  -3   12.50    4.30
   1   4  -3   18.00    2.70
   1   4   3   10.00    3.30
   1   4   3   20.80    2.30
  -1  -4   3    9.70    3.50
  -4   1   3   16.10    4.70
  -4   1   3   15.10    4.50
   4  -1   3   16.40    4.50
   2   4  -3  174.88    9.20
   4  -2  -3  165.98   10.80
  -4   2  -3  192.78   12.00
   2   4   3  173.08    9.80
  -2  -4   3  171.58   10.30
   4  -2   3  181.48   11.10
  -4   2   3  178.68   11.50
  -4   2   3  176.88   12.10
   2   4   3  165.78    9.80
   4  -3  -3   97.79    8.50
   3   4  -3  125.39    7.40
  -4   3  -3  116.99    9.90
   3   4   3  115.39    7.80
  -3  -4   3   99.89    8.30
  -4   3   3  113.79    9.30
  -4   3   3  123.29   11.00
   4  -3   3  116.19    8.80
   4  -4  -3  278.87   15.40
  -4   4  -3  267.67   16.00
   4   4  -3  274.97   14.30
   4  -4   3  267.97   14.80
  -4   4   3  281.87   15.60
  -4   4   3  279.57   18.00
   4   4   3  263.97   14.80
  -4  -4   3  286.37   15.20
   4  -5  -3  195.88   12.50
  -4   5  -3  201.18   13.30
   5   4  -3  196.98   12.40
   5   4   3  212.58   13.00
  -4   5   3  192.38   15.60
  -5  -4   3  219.68   13.40
  -4   5   3  200.38   13.10
  -5  -3  -3   35.80    5.60
   5   3  -3   34.20    5.40
  -3   5  -3   35.30    5.30
   5   3   3   33.80    5.80
  -3   5   3   34.20    5.50
  -3   5   3   41.00    7.40
  -5  -3   3   47.60    6.50
   5   2  -3  895.01   39.50
  -5  -2  -3  915.11   40.00
  -2   5  -3  875.11   38.20
  -5  -2   3  933.01   39.80
  -2   5   3  808.82   39.70
   5   2   3  866.01   39.70
  -2   5   3  840.72   38.60
  -5  -2   3  845.32   39.80
  -1   5  -3  460.05   19.80
  -5  -1  -3  470.05   22.50
   5   1  -3  404.26   21.40
  -1   5   3  400.66   20.90
  -1   5   3  428.86   20.40
   5   1   3  432.86   22.10
  -5  -1   3  425.16   22.10
  -5  -1   3  431.76   21.80
   5   0  -3   85.09    7.80
   0   5  -3   89.09    5.70
  -5   0  -3   78.09    8.60
   5   0   3   84.59    8.30
   0   5   3   83.99    6.60
  -5   0   3   74.89    8.50
   0   5   3  101.29    7.00
  -5   0   3   90.79    8.60
   5  -1  -3  444.76   21.50
  -5   1  -3  442.46   22.30
   1   5  -3  421.96   18.60
  -5   1   3  421.26   22.30
  -5   1   3  327.47   20.70
  -1  -5   3  425.06   20.00
   1   5   3  428.46   19.50
   5  -1   3  451.35   21.90
   5  -2  -3  840.12   39.70
  -5   2  -3  887.01   41.00
   2   5  -3  901.31   37.40
  -5   2   3  853.51   41.10
  -2  -5   3  860.61   38.50
   5  -2   3  891.11   40.20
   2   5   3  867.31   38.10
  -5   2   3  885.61   40.20
  -5   3  -3   23.40    5.90
   3   5  -3   33.90    4.00
   5  -3  -3   36.40    6.20
  -3  -5   3   37.10    5.00
   5  -3   3   33.00    5.90
  -5   3   3   41.90    8.20
   3   5   3   33.20    4.70
  -5   3   3   25.60    5.80
   5  -4  -3  174.08   13.00
   4   5  -3  203.78   11.50
  -5   4  -3  200.98   14.60
  -4  -5   3  203.98   12.40
  -5   4   3  211.38   14.00
  -5   4   3  216.28   16.80
   4   5   3  206.98   12.00
   5  -4   3  211.18   13.20
   5   5  -3   22.00    5.10
  -5   5  -3   38.90    7.50
   5  -5  -3   24.50    6.10
  -5  -5   3   25.00    5.50
   5  -5   3   22.20    5.30
  -5   5   3   25.90    6.70
   5   5   3   34.70    5.70
  -5   5   3   25.70    8.30
   6   5  -3   -1.00    5.10
  -5   6  -3    5.00    5.80
  -5   6   3    9.00    5.60
   6   5   3    9.00    5.00
  -6  -5   3    0.50    4.90
  -5   6   3    2.20    6.80
  -6  -4  -3   20.40    5.60
   6   4  -3    2.30    5.10
  -4   6  -3    9.40    5.20
  -4   6   3   11.00    6.90
  -4   6   3   16.00    5.80
  -6  -4   3   20.40    5.90
   6   4   3   12.50    5.60
  -3   6  -3  512.85   25.10
  -6  -3  -3  582.64   27.00
   6   3  -3  526.65   26.40
  -6  -3   3  550.34   27.00
  -3   6   3  530.95   25.70
   6   3   3  509.95   26.70
  -3   6   3  498.45   27.10
  -6  -3   3  528.85   26.80
  -2   6  -3  341.37   16.60
   6   2  -3  333.17   18.60
  -6  -2  -3  354.76   19.50
   6   2   3  358.46   19.50
  -6  -2   3  307.07   18.50
  -2   6   3  344.27   18.40
  -2   6   3  345.47   17.30
  -6  -2   3  314.37   19.10
  -6  -1  -3   13.40    5.80
  -1   6  -3   -1.70    2.40
   6   1  -3    0.80    4.40
  -6  -1   3   -7.60    4.90
  -1   6   3   -3.90    3.10
  -1   6   3    2.60    3.40
   6   1   3   -0.40    4.30
  -6  -1   3   -0.70    4.10
   0   6  -3   -1.30    2.30
  -6   0  -3   -4.20    4.60
   0   6  -3    0.10    2.00
   6   0  -3    0.60    4.60
   6   0   3   -1.20    4.80
  -6   0   3   -7.30    4.50
   0   6   3   -0.30    3.00
  -6   0   3    1.90    5.30
   1   6  -3   -1.50    1.90
   1   6  -3    1.60    1.90
  -6   1  -3    3.90    4.90
   6  -1  -3    2.00    4.70
   1   6   3    4.20    3.00
  -6   1   3   -1.20    5.30
  -1  -6   3   -0.30    3.10
   6  -1   3   -1.60    4.30
  -6   1   3   -8.10    4.50
   2   6  -3  341.67   15.60
   6  -2  -3  356.16   19.50
  -6   2  -3  323.67   20.40
   2   6  -3  364.36   15.60
  -6   2   3  323.37   21.10
   6  -2   3  338.17   19.70
   2   6   3  331.87   16.60
  -6   2   3  322.67   19.50
  -2  -6   3  347.77   17.20
   6  -3  -3  524.05   26.80
  -6   3  -3  498.75   27.90
   3   6  -3  542.05   23.40
   6  -3   3  505.65   26.70
  -3  -6   3  533.95   24.70
   3   6   3  515.85   24.10
   3   6   3  505.55   24.00
  -6   3   3  512.05   27.10
  -6   3   3  533.95   29.40
  -6   4  -3   18.70    7.00
   4   6  -3   11.40    3.80
   6  -4  -3   14.50    6.30
   4   6   3   10.30    3.90
  -4  -6   3   17.20    4.40
   6  -4   3   11.80    5.80
  -6   4   3   12.00    8.00
  -6   4   3   15.70    5.80
   5   6  -3   -3.70    4.30
   6  -5  -3    2.80    5.70
  -6   5  -3    4.60    6.20
   6  -5   3    0.00    4.90
   5   6   3   -0.20    4.00
  -6   5   3   -3.50    6.00
  -6   5   3    3.20    7.80
  -5  -6   3   -1.70    4.30
   6   6  -3  272.97   17.50
  -6   6  -3  286.47   20.30
  -6   6   3  334.27   19.90
  -6   6   3  265.97   21.30
   6   6   3  292.77   17.50
  -6  -6   3  284.27   17.20
   7   6  -3  302.57   19.00
  -6   7  -3  308.57   21.00
   7   6   3  294.67   18.90
  -6   7   3  295.37   21.70
  -6   7   3  245.88   19.70
  -7  -6   3  305.97   18.80
   7   5  -3   42.60    8.30
  -5   7  -3   54.49    8.80
  -7  -5   3   39.60    7.90
  -5   7   3   44.50    8.70
   7   5   3   42.80    8.20
  -5   7   3   31.70    8.90
  -4   7  -3  213.98   13.90
   7   4  -3  209.68   15.30
  -4   7   3  200.98   15.70
  -4   7   3  204.78   14.20
  -7  -4   3  194.78   15.00
   7   4   3  217.88   15.90
  -3   7  -3   70.49    7.00
   7   3  -3   62.29    9.10
  -7  -3  -3   72.29    9.20
   7   3   3   57.19    9.00
  -7  -3   3   60.49    9.20
  -3   7   3   76.39    8.60
  -7  -3   3   86.59   10.40
  -3   7   3   69.39    8.10
  -7  -2  -3  345.57   20.40
   7   2  -3  324.67   19.80
  -2   7  -3  307.97   16.20
  -2   7   3  360.46   17.40
  -2   7   3  321.77   17.40
   7   2   3  321.37   20.10
  -7  -2   3  335.37   20.30
  -7  -2   3  337.47   20.60
  -1   7  -3   14.00    3.90
  -1   7  -3   11.20    2.90
  -7  -1  -3   25.60    7.30
   7   1  -3    5.50    5.70
  -1   7   3   12.20    4.20
   7   1   3    9.30    6.70
  -7  -1   3   10.90    5.20
  -7  -1   3    2.30    6.10
  -7   0  -3  177.28   15.20
   0   7  -3  184.38    9.10
   7   0  -3  187.78   14.30
  -7   0   3  183.58   14.20
   0   7   3  175.38   10.60
   7   0   3  182.48   14.60
  -7   0   3  180.08   15.60
  -7   1  -3    9.80    6.10
   1   7  -3   16.30    2.60
   1   7  -3   11.70    2.20
   7  -1  -3    7.40    5.20
   1   7   3    7.20    3.60
  -1  -7   3   15.50    4.10
  -7   1   3    8.90    7.10
   7  -1   3   20.00    6.40
  -7   1   3    5.60    5.50
  -7   2  -3  322.07   21.30
   2   7  -3  329.27   15.00
   7  -2  -3  332.27   20.30
   2   7  -3  354.56   14.90
   7  -2   3  321.87   20.20
  -2  -7   3  327.57   16.90
  -7   2   3  322.57   20.40
   2   7   3  332.87   16.30
  -7   2   3  318.87   22.30
   3   7  -3   75.29    5.50
  -7   3  -3   54.19    9.50
   7  -3  -3   62.49    9.10
   3   7  -3   75.79    5.30
  -7   3   3   68.69   10.10
  -3  -7   3   64.19    7.00
  -7   3   3   57.09   10.70
   7  -3   3   62.29    9.00
   3   7   3   69.29    6.30
  -7   4  -3  156.38   16.30
   4   7  -3  191.68   12.00
   7  -4  -3  219.68   16.40
   4   7   3  206.68   12.10
   4   7   3  198.58   12.00
  -7   4   3  256.27   19.90
  -7   4   3  225.48   16.90
   7  -4   3  205.78   15.70
  -4  -7   3  221.58   12.90
   7  -5  -3   63.49   10.10
   5   7  -3   45.50    6.80
  -7   5  -3   38.70    9.70
   7  -5   3   47.50   11.50
  -7   5   3   41.90   10.30
   5   7   3   39.00    6.00
  -5  -7   3   63.29    7.70
  -7   5   3   39.90    8.60
   6   7  -3  312.17   18.20
  -7   6  -3  312.37   22.00
  -7   6   3  339.27   23.60
   6   7   3  298.17   17.60
  -7   6   3  264.47   20.60
  -6  -7   3  317.07   18.20
   7   7  -3   -4.00    5.40
  -7   7  -3   -9.90    8.00
  -7   7   3   11.70    8.80
   7   7   3    1.50    5.60
  -7  -7   3    4.10    6.10
  -7   7   3   15.70    9.00
  -7   8  -3   19.90    9.70
   8   7  -3   19.50    7.10
  -8  -7   3   15.00    7.70
  -7   8   3   10.30    9.20
   8   7   3    5.40    7.10
  -7   8   3    7.90    8.80
  -6   8  -3   -3.70    6.90
   8   6  -3    4.70    6.30
  -6   8   3   -3.40    7.30
  -6   8   3    7.10    7.40
  -8  -6   3   -1.40    6.60
   8   6   3   13.60    7.00
  -5   8  -3  115.69   11.70
   8   5  -3  117.49   12.60
  -5   8   3  117.89   12.60
  -8  -5   3  119.29   13.20
   8   5   3  125.49   13.20
  -5   8   3  135.59   13.70
   8   4  -3   84.69   11.00
  -4   8  -3   78.09    8.50
  -8  -4   3   95.09   11.90
  -4   8   3   68.39    9.60
  -4   8   3   89.79   10.30
   8   4   3   55.99   10.10
  -3   8  -3   17.80    4.70
  -8  -3  -3   24.10    7.50
   8   3  -3   26.40    8.50
  -8  -3   3   14.30    7.70
  -3   8   3   20.00    6.50
   8   3   3   16.20    7.80
   8   2  -3   37.30    9.00
  -8  -2  -3   16.50    7.50
  -2   8  -3   23.40    4.10
  -8  -2   3   15.50    7.90
  -8  -2   3   19.00    7.90
   8   2   3   15.80    7.70
  -2   8   3   27.50    5.80
  -8  -1  -3  235.88   18.00
   8   1  -3  228.78   18.40
  -1   8  -3  232.78   11.30
  -8  -1   3  191.58   17.40
   8   1   3  226.18   17.40
  -8  -1   3  209.88   17.90
  -1   8   3  213.68   13.00
  -8   0  -3    4.20    6.70
   8   0  -3   10.50    6.60
   0   8  -3   -1.40    3.00
   0   8  -3    0.80    1.80
   8   0   3    0.00    6.20
  -8   0   3    6.20    5.80
   0   8   3    0.30    3.50
  -8   0   3   -5.00    6.70
  -8   1  -3  213.98   18.10
   8  -1  -3  222.48   17.20
  -1  -8   3  214.08   12.40
  -8   1   3  244.58   17.90
   8  -1   3  210.78   16.60
   1   8   3  203.78   11.70
  -8   1   3  197.78   18.10
   8  -2  -3   25.50    8.10
  -8   2  -3   22.50    7.90
  -8   2   3   27.20    9.00
   2   8   3   30.30    4.50
  -2  -8   3   32.10    4.80
  -8   2   3   17.30    9.20
   8  -2   3   16.30    7.10
   3   8  -3   25.80    3.60
  -8   3  -3   14.30    8.80
   8  -3  -3   18.50    8.20
   3   8  -3   26.40    2.80
  -3  -8   3   30.30    5.20
   8  -3   3   16.10    7.10
  -8   3   3   23.00    9.70
  -8   3   3    8.60    8.30
   3   8   3   21.10    4.20
  -8   4  -3   47.30   10.90
   4   8  -3   82.59    6.90
   8  -4  -3   88.79   11.50
   4   8   3   78.79    7.20
   8  -4   3   74.09   11.00
  -4  -8   3   91.09    8.20
  -8   4   3   73.79   11.90
  -8   4   3   91.19   13.60
   8  -5  -3   99.59   13.10
   5   8  -3  125.39    9.40
  -8   5  -3  106.79   14.00
  -8   5   3  104.89   13.80
   5   8   3  114.79    9.30
  -5  -8   3  126.89   10.50
  -8   5   3  146.59   16.50
   5   8   3  122.79    9.60
  -8   6  -3    3.10    8.90
   6   8  -3  -10.70    4.60
  -6  -8   3    5.80    5.30
   6   8   3   -3.50    4.60
  -8   6   3  -10.20    8.80
  -8   6   3    0.10    7.20
   7   8  -3   11.90    6.30
  -8   7  -3   16.60    9.60
  -7  -8   3   21.40    6.90
  -8   7   3   35.70   11.10
   7   8   3   18.00    6.20
  -8   7   3    0.70    9.30
   8   8  -3  101.39   10.80
  -8   8  -3   80.99   14.10
   8   8   3   73.89   10.20
  -8  -8   3   85.59   11.50
  -8   8   3   76.89   14.00
  -8   8   3   98.69   15.20
  -8   9  -3   15.90   10.40
   9   8  -3   12.10    7.30
   9   8   3   16.30    7.30
  -8   9   3   11.10   10.70
   9   7  -3   41.00    9.20
  -7   9  -3   74.69   12.00
   9   7   3   50.79    9.90
  -9  -7   3   53.89   10.90
  -7   9   3   44.80   12.00
  -6   9  -3    0.80    7.20
   9   6  -3    9.90    7.60
  -9  -6   3   15.30    8.00
  -6   9   3   10.80    9.10
   9   6   3    9.40    8.10
   9   5  -3   68.09   10.80
  -5   9  -3   79.19   10.10
  -5   9   3   87.79   11.90
  -9  -5   3   77.49   12.50
   9   5   3   75.39   11.50
   9   4  -3   92.29   12.40
  -4   9  -3  101.39    9.50
  -9  -4   3   82.19   12.60
   9   4   3   99.09   12.70
  -4   9   3   99.39   11.50
   9   3  -3   83.39   11.90
  -3   9  -3   73.29    7.30
  -3   9   3   88.89    9.80
   9   3   3   81.89   12.10
  -9  -3   3   71.39   11.90
   9   2  -3    1.10    7.40
  -2   9  -3   10.50    3.50
  -9  -2  -3   11.00    8.40
  -9  -2   3   12.60    8.60
  -2   9   3   20.40    6.00
   9   2   3    8.60    8.30
  -1   9  -3   -0.50    2.20
   9   1  -3    1.50    7.60
  -9  -1  -3    7.70    8.20
  -9  -1   3   -5.60    6.90
   9   1   3   14.60    7.30
  -9  -1   3    3.30    8.50
  -1   9   3    0.50    4.30
   9   0  -3  705.63   36.80
  -9   0  -3  705.73   37.20
  -9   0   3  683.83   37.40
   9   0   3  631.44   35.50
   0   9   3  651.63   30.40
  -9   0   3  684.73   36.90
  -9   1  -3    1.60    7.90
   9  -1  -3   -0.60    7.40
  -9   1   3   15.40    9.10
  -9   1   3   -3.10    7.00
   1   9   3    2.20    3.50
   9  -1   3    3.90    6.80
  -1  -9   3    3.40    3.90
  -9   2  -3   18.30    8.80
   9  -2  -3   20.20    8.50
  -9   2   3   13.90    9.30
   2   9   3   16.00    3.70
  -2  -9   3   11.80    4.20
   9  -2   3   10.30    7.20
  -9   2   3    4.10    7.20
  -9   3  -3   66.89   11.90
   9  -3  -3   81.89   12.10
  -9   3   3   76.99   12.90
  -9   3   3   56.39   11.10
   9  -3   3   55.69   10.30
  -3  -9   3   75.99    7.40
   3   9   3   71.69    6.20
  -9   4  -3   61.59   12.30
   9  -4  -3  113.99   14.40
  -9   4   3  108.79   15.20
  -4  -9   3  101.89    9.00
   9  -4   3  116.19   13.90
  -9   4   3  109.69   15.10
   4   9   3  101.99    7.90
  -9   5  -3   47.40   12.40
   9  -5  -3   84.89   14.40
   5   9  -3   83.79    6.60
  -9   5   3   83.59   13.20
  -9   5   3   60.49   13.30
   5   9   3   85.99    7.60
  -9   6  -3    4.80    8.90
   6   9  -3    8.40    4.70
  -9   6   3    2.70    9.20
  -9   6   3   10.20    9.50
   6   9   3    5.80    4.80
   6   9   3    8.30    4.80
  -9   7  -3   36.00   12.00
   7   9  -3   62.09    7.50
   7   9   3   39.90    7.30
  -9   7   3   67.69   13.50
  -9   7   3   46.60   12.70
   8   9  -3   14.20    6.30
  -9   8  -3   24.80   11.30
  -9   8   3    8.00   10.50
   8   9   3   14.10    6.60
  -9   8   3   24.40   11.20
  -9   9  -3   19.50   11.30
   9   9  -3    2.20    6.20
  -9   9   3   21.30   12.00
   9   9   3    8.20    7.00
  -9  10  -3   38.60   12.90
  10   9  -3   41.40    8.70
  -9  10   3   77.79   15.20
  10   9   3   46.60    9.50
  -8  10  -3   20.50   10.40
  10   8  -3   -1.20    7.30
  -8  10   3   10.60   11.30
  10   8   3   -3.80    7.90
  10   7  -3  307.87   21.00
  -7  10  -3  314.67   22.80
 -10  -7   3  324.87   23.60
  10   7   3  278.27   21.90
  -7  10   3  311.77   25.30
  -6  10  -3    7.60    7.30
  10   6  -3   12.40    8.00
 -10  -6   3   11.20    9.20
  -6  10   3   13.20   10.50
  10   6   3   24.90    9.30
  10   5  -3  154.68   15.50
  -5  10  -3  188.58   13.90
 -10  -5   3  151.28   17.20
  10   5   3  155.98   16.20
  -5  10   3  152.98   16.30
  10   4  -3  200.18   18.20
  -4  10  -3  207.78   13.90
  -4  10   3  231.48   18.10
 -10  -4   3  195.88   19.70
  10   4   3  215.08   19.00
  -3  10  -3  278.27   15.50
  10   3  -3  306.67   22.80
  -3  10   3  327.87   20.00
  10   3   3  309.47   22.40
 -10  -3   3  294.77   23.20
  -2  10  -3    2.90    2.90
  10   2  -3    0.40    8.10
 -10  -2   3   -7.10    8.30
  -2  10   3    0.90    6.00
  10   2   3    6.90    8.30
  10   1  -3   11.50    8.70
 -10  -1  -3   -1.70    7.80
 -10  -1   3  -14.30    7.50
  -1  10   3    6.40    5.50
 -10  -1   3   -4.90    6.70
  10   1   3    2.30    8.50
 -10   0  -3   -4.50    7.60
  10   0  -3    2.30    7.70
 -10   0   3   -2.20    8.30
   0  10   3    0.50    4.40
   0 -10   3    2.20    4.20
  10   0   3  -14.50    7.20
 -10   0   3   -9.40    7.00
  10  -1  -3    4.00    7.40
 -10   1  -3   -2.90    8.60
  10  -1   3   -5.50    6.80
 -10   1   3    2.30    8.80
 -10   1   3    2.90    8.00
   1  10   3    8.50    3.90
  10  -2  -3    1.10    8.60
 -10   2  -3   -8.40    8.40
   2  10   3    4.20    3.40
 -10   2   3   -1.50    8.40
  10  -2   3    3.90    8.30
 -10   2   3    4.60    7.80
 -10   3  -3  272.57   24.00
  10  -3  -3  317.47   23.30
  10  -3   3  348.87   23.30
 -10   3   3  281.77   25.00
 -10   3   3  299.67   23.90
   3  10   3  295.47   14.90
  10  -4  -3  207.98   19.90
 -10   4  -3  188.68   19.90
  10  -4   3  193.08   18.70
 -10   4   3  210.78   21.30
 -10   4   3  219.48   21.40
   4  10   3  219.68   12.00
 -10   5  -3  165.38   18.30
 -10   5   3  166.98   19.10
 -10   5   3  197.28   20.30
   5  10   3  159.38   10.80
 -10   6  -3   16.90   10.90
 -10   6   3    4.90   10.50
   6  10   3   11.60    4.80
 -10   6   3   14.10   10.30
   7  10  -3  278.17   16.10
 -10   7  -3  249.28   24.20
   7  10   3  325.27   17.60
 -10   7   3  362.76   26.40
 -10   7   3  344.47   26.40
   8  10  -3   20.10    5.60
 -10   8  -3    9.50   10.60
 -10   8   3   -2.70   10.50
   8  10   3   17.10    6.30
 -10   8   3   19.40   12.20
   8  10   3   18.10    6.30
 -10   9  -3   33.40   12.10
   9  10  -3   27.40    7.00
   9  10   3   37.60    8.20
 -10   9   3   27.00   13.30
  10  10  -3   -5.00    6.00
 -10  10  -3   21.80   12.10
 -10  10   3  -15.00   11.10
  10  10   3   -2.10    6.70
  11  10  -3   74.19   10.50
 -10  11  -3   54.99   14.70
 -10  11   3   46.20   14.00
  11  10   3   63.99   10.40
  11   9  -3    2.00    7.50
  -9  11  -3  -26.50    8.90
  -9  11   3   -2.50   12.10
  11   9   3    1.00    7.80
  -8  11  -3   67.59   13.20
  11   8  -3   78.79   11.40
  11   8   3   64.39   12.30
  -8  11   3   73.39   15.40
  11   7  -3   -2.60    7.70
  -7  11  -3   -2.70    8.10
 -11  -7   3    0.70    8.70
  11   7   3   12.10    9.10
  -7  11   3   10.70   11.10
  11   6  -3    0.40    7.60
  -6  11  -3   -2.50    6.40
  11   6   3  -14.30    7.70
 -11  -6   3    1.20    8.70
  -6  11   3   10.10   10.80
  11   5  -3   37.60   10.30
  -5  11  -3   41.80    7.80
  -5  11   3   54.29   12.10
  11   5   3   46.90   11.80
 -11  -5   3   52.49   12.10
  11   4  -3  -14.40    7.80
  -4  11  -3    3.70    4.50
  11   4   3    8.30    9.50
 -11  -4   3   -7.10    8.80
  -4  11   3    7.90    9.30
  -3  11  -3  100.59    7.60
  11   3  -3   76.29   12.70
 -11  -3   3   71.29   13.70
  11   3   3  108.29   15.00
  -3  11   3   95.79   12.50
  11   2  -3   25.70    9.90
  -2  11  -3   14.40    2.90
  -2  11   3   10.30    7.50
  11   2   3    1.90    8.90
 -11  -2   3   18.30   10.70
 -11  -1  -3   -1.80    9.10
  11   1  -3    8.50    9.50
  11   1   3    3.50    8.90
  -1  11   3   -4.60    5.70
 -11  -1   3    4.90    9.50
  11   0  -3   17.90    9.80
 -11   0  -3   18.70    9.40
 -11   0   3   -9.00    8.60
  11   0   3   14.80    9.50
 -11   0   3   30.80   11.10
   0  11   3   24.20    6.00
 -11   1  -3    6.40    8.90
  11  -1  -3    4.30    8.50
  11  -1   3   16.10    9.50
 -11   1   3   17.60    9.70
   1  11   3    7.50    4.40
 -11   1   3   15.40   10.60
  11  -2  -3   18.50   10.20
 -11   2  -3   22.70   10.80
 -11   2   3    1.40    9.60
  11  -2   3   10.80    9.10
 -11   2   3   15.90    9.90
 -11   3  -3  103.89   15.80
  11  -3  -3   70.39   12.80
 -11   3   3   68.19   14.70
  11  -3   3   63.99   12.10
 -11   3   3   81.89   14.80
  11  -4  -3   20.30    9.20
 -11   4  -3   12.40   10.40
   4  11   3    3.10    3.00
 -11   4   3   11.60    9.80
 -11   4   3   13.20   10.90
 -11   5  -3    6.90   11.30
   5  11   3   39.60    4.80
 -11   5   3   35.60   12.40
 -11   5   3   28.70   11.50
 -11   6  -3   -8.00    9.10
 -11   6   3    1.60   10.70
   6  11   3   -4.80    3.80
 -11   6   3    1.80   10.50
 -11   7  -3   -2.40    9.50
   7  11   3    2.90    4.60
 -11   7   3    0.60   10.90
 -11   7   3   -4.90   11.20
   8  11  -3   66.09    7.00
 -11   8  -3   41.40   14.50
 -11   8   3   76.19   16.20
   8  11   3   62.89    8.00
 -11   9  -3   -4.30   10.90
   9  11  -3   -2.80    4.50
 -11   9   3    0.70   11.80
   9  11   3    0.00    5.60
 -11  10  -3   76.19   16.70
  10  11  -3   67.59    8.50
  10  11   3   67.09    9.70
 -11  10   3   64.89   16.20
  10  11   3   66.79    9.60
  11  11  -3   10.30    6.60
 -11  11  -3   30.50   13.90
 -11  11   3   25.50   13.70
  11  11   3   15.10    7.40
  11  11   3   28.30    8.20
  12  10  -3   16.80    7.70
 -10  12  -3    8.40   11.70
 -10  12   3   25.10   13.40
  12  10   3   14.90    8.40
  12   9  -3    4.40    7.50
  -9  12  -3    5.80   10.40
  -9  12   3   -8.20   11.90
  12   9   3    6.70    8.80
  -8  12  -3   75.09   13.40
  12   8  -3  124.29   14.10
  -8  12   3  109.39   16.70
  12   8   3  114.09   15.30
  -7  12  -3    9.80    8.20
  12   7  -3    6.10    8.40
  -7  12   3   -4.80   10.90
  12   7   3    9.70    9.20
  12   6  -3    1.90    8.50
  -6  12  -3   10.10    7.00
 -12  -6   3  -10.00    8.90
  12   6   3   15.50   10.20
  -6  12   3   16.00   11.20
  12   5  -3   20.00    9.50
  -5  12  -3    1.60    5.30
 -12  -5   3   15.60    9.80
  -5  12   3   11.60   10.10
  12   5   3    0.40    9.50
  -4  12  -3   18.50    4.90
  12   4  -3   -3.10    8.70
  12   4   3    1.70    9.30
 -12  -4   3   13.30   10.30
  -4  12   3   18.70    9.80
  12   3  -3   54.19   12.10
  -3  12  -3   59.39    5.20
  -3  12   3   57.19   10.90
 -12  -3   3   51.79   12.50
  12   3   3   43.70   12.20
  12   2  -3    8.30    8.70
  12   2   3   -1.20    8.40
  -2  12   3    3.60    7.60
 -12  -2   3   19.40   10.30
  12   1  -3  220.18   20.80
  -1  12   3  182.48   14.40
 -12  -1   3  179.68   20.10
  12   1   3  261.07   22.50
  12   0  -3   18.40   10.10
 -12   0  -3   -1.10    8.80
 -12   0   3    7.00    9.90
  12   0   3    1.30    8.60
  12  -1  -3  205.28   21.10
 -12   1  -3  250.77   23.50
 -12   1   3  230.68   23.20
  12  -1   3  272.07   23.20
 -12   1   3  220.68   23.10
 -12   2  -3    4.40   10.60
  12  -2  -3    7.30    9.80
 -12   2   3   -5.60    9.30
  12  -2   3  -14.60    8.00
 -12   2   3   -4.10    9.80
 -12   3  -3   52.69   14.30
  12  -3  -3   54.99   13.60
 -12   3   3   73.09   15.40
 -12   3   3   56.49   13.10
  12  -3   3   48.20   12.00
 -12   4  -3   15.00   12.10
  12  -4  -3   -3.10   10.80
 -12   4   3    8.70   11.20
 -12   4   3   -6.50    9.00
 -12   5  -3    0.70    9.70
 -12   5   3   10.30   10.40
 -12   5   3    1.20    9.60
 -12   6  -3   12.50   11.20
 -12   6   3    7.60   11.10
 -12   6   3    8.70   11.90
 -12   7  -3   -1.00   10.80
 -12   7   3   -6.40   11.40
 -12   7   3    5.40   10.80
 -12   8  -3  128.69   19.90
 -12   8   3  119.99   18.70
   8  12   3  101.99   11.00
 -12   9  -3   -4.80   10.50
 -12   9   3   22.90   13.20
   9  12   3   11.40    5.10
 -12  10  -3   41.60   13.90
 -12  10   3   30.80   14.70
  10  12   3   16.40    6.10
  -9  13  -3    3.10   10.50
  13   9  -3    2.70    8.20
  -9  13   3   15.00   13.40
  13   9   3   13.70    9.70
  -8  13  -3    7.80    9.00
  13   8  -3   -0.50    8.10
  13   8   3   -3.40    9.40
  -8  13   3    3.50   12.10
  13   7  -3   57.99   12.00
  -7  13  -3   96.59   12.00
  13   7   3  106.99   15.00
  -7  13   3   83.59   15.30
  13   6  -3   30.10   10.40
  -6  13  -3   43.50    7.90
 -13  -6   3   22.80   11.30
  13   6   3   33.10   11.30
  -6  13   3   26.40   11.90
  -5  13  -3   33.00    6.20
  13   5  -3   24.00   10.00
  13   5   3   16.90   10.90
 -13  -5   3   45.90   13.10
  -5  13   3   45.40   11.80
  13   4  -3    6.90    9.60
  -4  13  -3   14.20    4.10
  -4  13   3   16.20    9.30
 -13  -4   3    7.60   10.60
  13   4   3   26.30   11.10
  13   3  -3   26.90   11.20
  13   3   3   50.69   12.50
 -13  -3   3   50.49   13.00
  -3  13   3   37.90    9.00
  13   2  -3    7.60   10.60
 -13  -2   3   15.90   11.10
  13   2   3   16.10   10.70
  -2  13   3   12.00    6.20
  13   1  -3  110.59   17.20
  13   1   3   87.69   14.80
 -13  -1   3   96.79   16.80
  13   0  -3  132.89   18.10
 -13   0   3  103.49   16.70
  13   0   3  164.08   18.60
 -13   1  -3  111.69   16.80
  13  -1  -3  143.09   18.30
  13  -1   3  102.99   16.10
 -13   1   3  117.79   17.20
 -13   2  -3   16.50   11.50
  13  -2  -3   18.90   11.20
  13  -2   3   11.60   10.20
 -13   2   3   31.30   12.40
 -13   2   3   11.50   12.20
  13  -3  -3   21.90   12.10
 -13   3  -3   68.89   15.20
 -13   3   3   45.60   13.20
 -13   3   3   39.20   13.30
  13  -3   3   44.30   14.60
 -13   4  -3   14.60   11.70
 -13   4   3   19.60   12.10
 -13   4   3   11.20   12.60
 -13   5  -3   14.60   12.30
 -13   5   3   12.30   11.70
 -13   5   3   29.40   12.70
 -13   6  -3   47.60   14.60
 -13   6   3   17.70   13.30
 -13   6   3    9.60   10.30
 -13   7  -3   86.29   17.10
 -13   7   3   94.99   18.90
 -13   8  -3    1.80   11.20
 -13   8   3   -9.60   11.40
 -13   9  -3   12.00   12.60
 -13   9   3   21.60   13.60
  -8  14  -3   37.00    9.80
  14   8  -3   30.10    9.70
  14   8   3   23.90   10.80
  -8  14   3   35.40   13.40
  -7  14  -3   47.70    9.00
  14   7  -3   31.90   11.20
  -7  14   3   27.70   12.00
  14   7   3   53.39   12.50
  -6  14  -3   20.00    6.10
  14   6  -3   18.90   10.20
  14   6   3   15.90   10.00
  -6  14   3   35.40   11.80
  14   5  -3   72.09   14.20
  -5  14   3   89.29   13.00
  14   5   3  108.49   16.20
 -14  -5   3   80.99   15.40
  14   4  -3   37.70   12.10
 -14  -4   3   55.29   14.10
  14   4   3   29.40   11.70
  -4  14   3   39.20    8.70
  14   3  -3   -3.20   10.10
 -14  -3   3   14.30   11.40
  14   3   3    5.30    9.40
  14   2  -3   57.09   13.20
 -14  -2   3   56.49   14.30
  14   2   3   67.59   14.30
  14   1  -3    2.70   10.40
  14   1   3   -4.60    9.00
 -14  -1   3  -13.40    9.50
  14   0  -3   -1.50   10.20
 -14   0   3   -5.00   10.10
  14   0   3    3.10    9.60
  14  -1  -3   -6.00   10.20
  14  -1   3  -10.40    9.00
 -14   1   3   -6.50   10.20
 -14   2  -3   72.19   16.30
  14  -2  -3   61.99   14.00
 -14   2   3   60.79   14.50
  14  -2   3   54.79   13.90
  14  -3  -3   -2.30    9.10
 -14   3  -3    6.60   12.10
 -14   3   3   -9.70   11.60
 -14   3   3  -18.20    9.60
 -14   4  -3   31.50   13.50
 -14   4   3   27.30   12.60
 -14   4   3   16.00   14.10
 -14   5  -3   99.29   17.20
 -14   5   3   59.79   16.20
 -14   5   3   80.89   16.80
 -14   6  -3   31.80   12.50
 -14   6   3   12.20   12.80
 -14   7  -3   65.79   16.40
 -14   7   3   32.70   14.20
 -14   8  -3   32.20   13.70
 -14   8   3   28.90   15.00
  15   6  -3    9.90   10.30
  -6  15   3    5.40    8.20
  15   6   3   17.90   10.20
  15   5  -3    0.00    9.30
 -15  -5   3    4.10   11.10
  15   5   3    7.20   10.60
  15   4  -3   16.10   10.20
 -15  -4   3  -12.10   10.40
  15   4   3    3.50   10.30
  15   3  -3   46.20   13.70
  15   3   3   45.20   12.60
 -15  -3   3   24.80   12.20
  15   2  -3   74.29   15.10
 -15  -2   3   59.19   14.80
  15   2   3   55.69   14.00
  15   1  -3   -0.40   10.90
  15   1   3    5.30   10.00
 -15  -1   3   -5.00   11.40
  15   0  -3   33.30   13.90
 -15   0   3   27.90   12.80
  15   0   3   22.80   12.00
  15  -1  -3  -11.80   10.20
  15  -1   3    4.10    9.90
 -15   1   3    7.00   11.30
  15  -2  -3   68.09   16.00
  15  -2   3   63.49   15.10
 -15   2   3   79.79   16.50
 -15   3  -3   26.30   13.10
 -15   3   3   60.59   15.00
 -15   4  -3    5.50   10.30
 -15   4   3    6.70   11.70
 -15   4   3   12.50   14.00
 -15   5  -3   12.80   12.30
 -15   5   3   13.40   15.20
 -15   5   3   -2.90   11.60
 -15   6  -3   11.70   12.30
 -15   6   3  -13.50   12.10
  16   2  -3   22.90   12.10
  16   2   3    1.80   10.70
 -16  -2   3    4.50   11.80
  16   1  -3   21.60   12.40
 -16  -1   3   13.50   12.60
  16   1   3   16.90   12.10
  16   0  -3   -3.70   11.70
 -16   0   3    3.00   13.10
  16   0   3    2.00   10.70
  16  -1  -3   32.10   14.30
  16  -1   3    9.80   11.10
  16  -2  -3  -19.00   10.90
   0   0  -4 9556.04  402.36
   0   0   4 9999.00  402.36
   0   1  -4    4.70    3.00
  -1   0  -4   -0.50    2.90
   1   0  -4    1.90    3.10
   0  -1  -4   -1.30    2.90
  -1   0   4    3.10    3.30
   0   1   4    6.30    3.30
   0   1   4   -4.30    3.00
   0  -1   4   -0.10    2.40
   1   0   4   -2.60    2.50
  -1   0   4    2.40    2.70
   1  -1  -4   99.49    6.80
  -1   1  -4   90.89    7.10
   1   1  -4   83.59    6.70
  -1  -1  -4   88.99    7.10
  -1   1   4   86.49    6.70
  -1  -1   4  101.39    7.50
   1   1   4   86.69    6.60
  -1  -1   4   89.69    6.60
   1  -1   4   85.39    6.60
  -1   1   4   89.19    7.10
   2   1  -4  713.23   32.40
  -2  -1  -4  738.03   32.80
   1  -2  -4  716.53   32.50
  -1   2  -4  762.82   32.50
  -1   2   4  723.53   32.30
  -2  -1   4  754.62   32.50
   1  -2   4  770.82   32.40
  -1   2   4  694.43   32.40
  -2  -1   4  710.73   32.80
   2   1   4  735.23   32.70
   0  -2  -4 1224.18   55.19
  -2   0  -4 1295.47   55.59
   0   2  -4 1284.47   55.09
   2   0  -4 1306.97   55.49
   0   2   4 1286.77   55.29
  -2   0   4 1295.87   55.49
   2   0   4 1356.66   55.59
   0   2   4 1324.67   54.99
  -2   0   4 1273.37   55.79
  -2   1  -4  728.53   32.70
   1   2  -4  732.63   32.10
   2  -1  -4  709.53   32.60
  -1  -2  -4  764.62   32.50
  -2   1   4  698.43   32.60
   2  -1   4  724.53   32.50
   1   2   4  726.33   32.40
  -1  -2   4  743.93   32.70
  -2   1   4  741.93   32.70
  -2   2  -4  403.56   19.60
   2  -2  -4  396.56   19.50
   2   2  -4  396.66   19.10
  -2  -2  -4  412.86   19.60
   2   2   4  397.36   19.60
  -2  -2   4  410.16   19.80
  -2   2   4  418.06   19.70
  -2   2   4  401.16   19.60
   2   2   4  405.36   19.60
   2  -2   4  435.16   19.50
  -2   3  -4  150.18    9.10
   3   2  -4  134.49    9.00
  -3  -2  -4  117.29    8.70
   2  -3  -4  144.29    9.20
  -3  -2   4  141.49    9.70
  -3  -2   4  147.59    9.90
  -2   3   4  138.99    9.30
  -2   3   4  146.59    9.40
   3   2   4  135.89    9.10
  -1   3  -4 1104.09   47.30
   1  -3  -4 1114.39   47.60
  -3  -1  -4 1104.79   48.10
   3   1  -4 1133.79   47.80
  -1   3   4 1075.09   47.10
   3   1   4 1050.99   47.70
  -3  -1   4 1157.08   47.90
  -3  -1   4 1069.09   48.10
  -1   3   4 1073.49   47.60
  -3   0  -4   -1.70    3.10
   0  -3  -4   -3.10    2.70
   0   3  -4    3.50    2.70
   3   0  -4    2.40    3.00
   0   3   4   -1.10    2.80
  -3   0   4   -0.40    3.10
   0   3   4   -0.90    2.50
   3   0   4    1.20    2.90
  -3   0   4    7.10    3.80
   1   3  -4 1093.69   46.90
   3  -1  -4 1086.89   47.90
  -3   1  -4 1119.39   48.20
  -1  -3   4 1168.88   48.00
  -3   1   4 1066.79   48.10
  -3   1   4 1101.89   48.00
   1   3   4 1076.49   46.60
   3  -1   4 1085.89   47.80
   1   3   4 1081.19   47.40
  -3   2  -4  139.19    9.60
   2   3  -4  150.58    8.60
  -2  -3  -4  144.19    9.00
   3  -2  -4  136.69    9.50
  -3   2   4  132.49    9.70
  -3   2   4  142.79   10.00
   2   3   4  136.79    9.20
   2   3   4  134.69    8.90
   3  -2   4  144.19    9.20
  -2  -3   4  137.99    9.50
   3   3  -4 1236.48   53.39
  -3  -3  -4 1214.68   53.79
  -3   3  -4 1206.98   54.09
   3  -3  -4 1293.07   54.19
  -3  -3   4 1264.47   54.29
   3  -3   4 1235.68   53.59
  -3   3   4 1241.88   54.39
   3   3   4 1227.08   53.79
  -3   3   4 1262.97   54.39
   3  -4  -4  246.38   13.70
   4   3  -4  236.58   13.30
  -4  -3  -4  233.08   13.70
  -3   4  -4  247.78   14.00
   4   3   4  248.98   13.90
  -4  -3   4  248.08   14.30
  -3   4   4  262.77   14.40
  -3   4   4  237.68   14.70
  -4  -2  -4    4.40    3.60
  -2   4  -4    0.00    2.90
   4   2  -4    5.70    3.40
   2  -4  -4    2.60    3.40
  -2   4   4    4.70    3.50
   4   2   4   -2.40    3.60
  -4  -2   4    8.40    4.40
  -4  -2   4    5.80    3.20
  -2   4   4   12.10    4.10
  -4  -1  -4 1502.75   75.59
   4   1  -4 1791.22   75.79
  -1   4  -4 1803.22   74.79
  -4  -1   4 1896.71   76.09
  -1   4   4 1817.02   75.39
  -4  -1   4 1772.42   76.19
  -1   4   4 1754.02   74.69
   4   1   4 1835.82   75.99
   4   0  -4   36.30    5.50
  -4   0  -4   40.60    5.90
   0   4  -4   50.79    4.60
  -4   0   4   34.10    5.70
  -4   0   4   38.30    5.40
   0   4   4   41.50    4.90
   0   4   4   45.80    4.30
   4   0   4   48.10    6.10
   4  -1  -4 1772.12   76.69
  -4   1  -4 1745.73   76.89
   1   4  -4 1805.52   75.19
   4  -1   4 1820.62   76.69
  -1  -4   4 1867.41   76.49
   1   4   4 1756.92   74.69
   1   4   4 1729.43   75.79
  -4   1   4 1869.41   76.99
  -4   1   4 1748.03   77.09
  -4   2  -4    8.00    4.10
   2   4  -4    2.90    2.60
   4  -2  -4   14.30    4.40
  -2  -4   4   -1.60    3.30
   4  -2   4    0.60    3.60
   2   4   4    3.00    3.20
  -4   2   4   -1.90    4.10
  -4   2   4   13.90    4.60
   3   4  -4  260.67   13.20
  -4   3  -4  251.67   14.80
   4  -3  -4  242.68   14.40
  -3  -4   4  245.88   14.30
   3   4   4  246.18   13.90
  -4   3   4  264.27   15.90
  -4   3   4  251.77   14.90
   4  -3   4  264.57   14.20
  -4   4  -4   90.69    8.70
   4  -4  -4   88.99    8.30
   4   4  -4   94.99    7.80
   4  -4   4  113.59    8.70
  -4   4   4   90.99    9.80
   4   4   4   93.89    8.00
  -4   4   4   97.39    9.50
  -4  -4   4   91.99    8.50
  -5  -4  -4   74.79    7.70
   4  -5  -4   72.49    7.30
   5   4  -4   59.29    6.80
  -4   5  -4   46.00    6.70
   5   4   4   56.39    7.20
  -4   5   4   86.09   10.30
  -5  -4   4   50.89    7.10
  -4   5   4   68.79    7.80
   3  -5  -4 3223.68  137.39
   5   3  -4 3250.77  137.59
  -5  -3  -4 3356.66  138.19
  -3   5  -4 3178.78  137.29
   5   3   4 3348.57  138.19
  -3   5   4 3251.97  138.79
  -5  -3   4 3252.87  138.39
  -3   5   4 3330.37  137.99
  -2   5  -4   92.59    7.20
  -5  -2  -4   91.79    8.80
   5   2  -4   76.49    7.80
  -2   5   4   94.09    8.10
  -5  -2   4   68.19    8.30
  -5  -2   4  105.09    8.80
  -2   5   4   87.69    8.50
   5   2   4   73.29    7.80
  -1   5  -4  228.98   11.70
  -5  -1  -4  202.38   13.40
   5   1  -4  203.48   13.20
   5   1   4  234.08   13.90
  -1   5   4  220.78   12.30
  -5  -1   4  222.88   14.20
  -5  -1   4  234.98   13.60
  -1   5   4  208.18   12.20
   0   5  -4   -1.30    2.40
   5   0  -4   -2.60    3.90
  -5   0  -4    0.20    3.90
   5   0   4   -1.80    3.40
  -5   0   4   -2.80    4.40
   0   5   4   -0.80    3.30
  -5   0   4    4.30    4.10
   0   5   4   -1.70    2.70
  -5   1  -4  214.18   14.10
   1   5  -4  211.68   11.00
   5  -1  -4  216.08   13.40
  -5   1   4  205.88   14.10
   5  -1   4  224.68   13.60
  -1  -5   4  207.08   12.50
   1   5   4  203.38   10.20
  -5   1   4  247.28   13.90
   1   5   4  208.18   11.90
   5  -2  -4   76.29    8.00
  -5   2  -4   77.19    8.60
   2   5  -4   91.19    6.30
   2   5   4   73.59    6.80
   5  -2   4   87.19    8.30
  -5   2   4   77.49    8.50
  -2  -5   4   83.69    7.40
   2   5   4   77.79    4.90
  -5   2   4   83.09    9.30
   3   5  -4 3415.16  138.49
  -5   3  -4 3335.07  140.99
   5  -3  -4 3237.28  140.39
  -3  -5   4 3403.26  139.69
   3   5   4 3283.57  139.19
  -5   3   4 3317.57  141.69
   5  -3   4 3297.67  140.29
   3   5   4 3342.17  139.09
  -5   3   4 3285.97  140.69
   5  -4  -4   73.59    8.40
   4   5  -4   70.99    6.60
  -5   4  -4   86.29    9.20
   4   5   4   62.99    7.00
  -5   4   4   66.19    8.60
  -4  -5   4   72.19    7.60
  -5   4   4   67.59   10.00
   5  -4   4   69.29    7.80
  -5   5  -4 1136.19   51.69
   5   5  -4 1131.99   49.99
   5  -5  -4 1094.49   51.19
  -5   5   4 1177.58   51.99
   5   5   4 1082.29   50.39
  -5  -5   4 1174.28   51.09
   5  -5   4 1121.09   50.49
  -5   5   4 1157.58   54.09
   6   5  -4   25.20    6.10
  -5   6  -4   40.20    7.40
   6   5   4   25.90    6.50
  -5   6   4   21.20    6.90
  -5   6   4   20.00    8.30
  -6  -5   4   16.60    6.30
  -6  -4  -4   41.90    7.30
   6   4  -4   34.00    6.50
  -4   6  -4   33.70    6.00
  -6  -4   4   43.50    7.50
  -4   6   4   34.90    6.60
  -4   6   4   50.49    9.10
   6   4   4   34.20    6.90
  -6  -3  -4   41.00    7.20
   6   3  -4   39.40    6.70
  -3   6  -4   38.50    5.70
  -3   6   4   42.60    8.00
  -6  -3   4   24.10    6.60
  -6  -3   4   47.00    7.20
   6   3   4   38.20    7.00
  -3   6   4   34.50    5.90
  -6  -2  -4  319.27   18.30
  -2   6  -4  308.37   15.60
   6   2  -4  297.97   17.40
  -6  -2   4  297.07   18.40
  -6  -2   4  308.37   17.30
  -2   6   4  295.07   16.30
  -2   6   4  273.57   17.50
   6   2   4  292.27   17.80
  -1   6  -4  111.89    7.40
  -6  -1  -4   87.19    9.60
   6   1  -4   87.39    9.20
  -6  -1   4   92.39    9.40
   6   1   4   93.59    9.40
  -1   6   4  102.99    8.70
  -1   6   4   91.99    8.00
  -6  -1   4  107.79   10.60
   0   6  -4  461.75   20.10
  -6   0  -4  393.56   23.20
   6   0  -4  469.85   23.30
   6   0   4  470.95   23.70
   0   6   4  383.16   20.20
  -6   0   4  417.06   23.00
   0   6   4  459.55   21.30
  -6   0   4  469.95   24.10
   1   6  -4  114.89    6.60
   6  -1  -4   73.79    9.00
   1   6  -4   86.59    6.40
  -6   1  -4  100.29   10.50
  -1  -6   4  111.49    8.90
   6  -1   4  105.69    9.70
  -6   1   4  105.29   10.10
  -6   1   4  102.29   10.90
   1   6   4   96.89    7.80
   6  -2  -4  294.57   17.60
  -6   2  -4  278.07   17.90
   2   6  -4  308.57   14.20
  -6   2   4  298.57   19.10
   6  -2   4  295.17   17.20
  -6   2   4  276.17   17.60
   2   6   4  271.27   15.10
  -2  -6   4  302.07   15.80
   3   6  -4   45.30    4.80
   6  -3  -4   39.60    7.30
  -6   3  -4   27.90    7.50
  -6   3   4   33.30    8.50
  -3  -6   4   41.80    5.90
   3   6   4   34.40    5.30
   6  -3   4   29.40    6.10
  -6   3   4   48.00    7.70
   4   6  -4   46.60    5.50
   6  -4  -4   45.20    7.70
  -6   4  -4   37.80    7.90
   4   6   4   32.30    5.70
  -6   4   4   45.20    9.90
  -6   4   4   41.00    8.30
   6  -4   4   41.50    6.90
  -4  -6   4   50.69    6.70
   4   6   4   47.90    6.10
  -6   5  -4   31.60    8.10
   5   6  -4   36.10    5.60
   6  -5  -4   16.50    6.80
  -5  -6   4   22.90    5.80
  -6   5   4   36.20    9.70
   5   6   4   22.70    5.50
  -6   5   4   26.70    7.70
   6   6  -4  591.04   30.10
  -6   6  -4  684.63   32.80
   6   6   4  596.84   30.30
  -6   6   4  590.64   31.90
  -6  -6   4  620.34   30.90
  -6   6   4  627.24   34.30
  -6   7  -4  513.45   27.90
   7   6  -4  474.75   26.70
  -6   7   4  504.65   30.00
  -6   7   4  506.35   28.50
  -7  -6   4  497.65   26.90
   7   6   4  505.65   26.80
  -5   7  -4  286.07   18.30
   7   5  -4  292.27   18.70
  -5   7   4  292.97   19.20
  -5   7   4  291.07   21.00
  -7  -5   4  300.67   18.80
   7   5   4  283.37   18.90
  -4   7  -4 1571.04   69.19
   7   4  -4 1568.34   70.29
  -4   7   4 1643.94   70.09
  -4   7   4 1380.06   70.79
  -7  -4   4 1671.23   70.99
   7   4   4 1659.93   71.09
  -3   7  -4   12.90    4.60
  -7  -3  -4   11.40    6.10
   7   3  -4   23.90    6.50
  -7  -3   4   27.60    7.20
  -3   7   4   10.50    5.50
  -3   7   4   21.30    6.80
   7   3   4    9.70    6.50
  -2   7  -4  379.16   18.80
  -7  -2  -4  381.96   22.40
   7   2  -4  397.46   21.80
   7   2   4  409.06   22.70
  -2   7   4  375.96   20.40
  -7  -2   4  379.16   22.50
  -2   7   4  381.06   20.10
  -7  -2   4  373.06   21.60
  -7  -1  -4  177.58   15.00
  -1   7  -4  169.08    9.70
   7   1  -4  169.28   13.50
  -1   7   4  163.88   11.10
  -1   7   4  178.48   10.30
  -7  -1   4  131.59   12.90
   7   1   4  179.48   14.60
  -7  -1   4  148.79   13.60
   0   7  -4   -0.80    2.50
  -7   0  -4  -10.20    4.30
   7   0  -4   -2.20    4.70
  -7   0   4    2.60    4.60
   0   7   4    1.60    3.80
   7   0   4    0.20    5.30
  -7   0   4   -6.10    5.70
  -7   1  -4  141.39   14.00
   7  -1  -4  201.08   15.30
   1   7  -4  176.28    9.00
   1   7   4  153.78   10.40
  -7   1   4  174.68   13.80
  -1  -7   4  158.58   11.10
   7  -1   4  152.38   13.20
  -7   1   4  143.19   14.00
  -7   2  -4  419.66   24.30
   7  -2  -4  361.66   22.30
   2   7  -4  407.06   18.10
   2   7   4  364.46   19.30
   7  -2   4  403.46   22.50
  -7   2   4  383.36   24.40
  -2  -7   4  381.16   19.90
  -7   2   4  437.96   23.40
   3   7  -4   21.30    3.60
   7  -3  -4   13.30    5.80
  -7   3  -4    9.50    7.20
  -7   3   4   16.80    6.50
  -7   3   4   14.40    8.50
   7  -3   4   12.70    6.20
   3   7   4   14.30    4.60
  -3  -7   4   11.80    4.60
  -7   4  -4 1572.14   73.99
   4   7  -4 1621.54   69.29
   7  -4  -4 1627.34   73.19
  -7   4   4 1654.63   75.59
   4   7   4 1636.14   70.09
  -7   4   4 1637.64   73.69
   7  -4   4 1591.54   72.69
  -4  -7   4 1663.83   70.89
   5   7  -4  270.67   16.00
   7  -5  -4  294.67   19.20
  -7   5  -4  268.57   20.50
   5   7   4  287.17   16.40
  -7   5   4  281.87   22.40
  -5  -7   4  311.07   17.20
   5   7   4  286.57   16.60
  -7   5   4  279.17   20.20
  -7   6  -4  507.35   29.20
   6   7  -4  530.75   26.10
   6   7   4  470.35   25.70
  -7   6   4  501.35   30.90
  -7   6   4  506.85   29.40
  -6  -7   4  504.45   26.50
  -7   7  -4  174.78   16.50
   7   7  -4  168.18   13.70
  -7  -7   4  161.58   13.70
  -7   7   4  158.88   17.20
   7   7   4  143.19   12.90
  -7   7   4  134.19   15.20
   8   7  -4   21.40    7.70
  -7   8  -4    5.80    7.80
  -7   8   4   17.40    9.60
  -8  -7   4   27.00    7.90
   8   7   4   33.30    8.30
  -7   8   4   14.70    9.20
  -6   8  -4  368.26   22.10
   8   6  -4  320.67   21.70
  -6   8   4  342.17   22.40
  -6   8   4  278.77   22.80
   8   6   4  362.76   22.40
  -8  -6   4  365.86   22.10
  -5   8  -4   84.09    9.70
   8   5  -4   56.39   10.20
  -8  -5   4   85.59   11.30
  -5   8   4   83.39   11.60
   8   5   4   76.39   10.90
  -5   8   4   93.89   10.70
   8   4  -4   -0.90    6.70
  -4   8  -4   12.70    5.40
  -4   8   4   17.50    6.70
   8   4   4   10.70    7.20
  -8  -4   4    1.00    7.00
  -4   8   4   24.70    7.10
  -8  -3  -4  183.28   21.80
  -3   8  -4  165.58   11.30
   8   3  -4  156.18   14.60
  -8  -3   4  168.48   15.70
   8   3   4  154.38   14.70
  -3   8   4  172.78   13.20
  -3   8   4  184.28   13.00
  -8  -2  -4 1086.49   52.09
   8   2  -4 1164.88   51.99
  -2   8  -4 1061.29   47.30
  -2   8   4 1077.49   48.70
   8   2   4 1103.99   51.89
  -8  -2   4 1061.19   51.69
  -8  -2   4 1082.99   52.29
  -8  -1  -4    5.70    6.40
   8   1  -4   -4.70    5.60
  -1   8  -4    7.30    3.20
   8   1   4    2.60    6.90
  -8  -1   4    9.40    7.60
  -1   8   4    6.20    4.60
  -8  -1   4    4.20    6.40
   0   8  -4 2082.99   88.49
  -8   0  -4 2058.29   94.49
   8   0  -4 2099.59   93.79
   8   0   4 2073.39   93.89
  -8   0   4 2257.17   94.39
  -8   0   4 2146.39   94.89
   0   8   4 2141.39   90.09
  -8   1  -4    9.20    7.30
   8  -1  -4    7.10    6.40
   1   8  -4   10.90    2.70
  -8   1   4    1.70    7.60
   1   8   4   13.40    4.30
  -1  -8   4   13.20    4.60
   8  -1   4    9.60    7.00
  -8   1   4   17.10    7.30
   2   8  -4 1082.69   45.10
  -8   2  -4 1073.99   52.19
   8  -2  -4 1064.49   50.99
  -2  -8   4 1057.99   47.40
  -8   2   4  998.40   52.39
   2   8   4 1103.39   46.80
   8  -2   4 1042.00   50.99
   8  -3  -4  159.18   15.20
   3   8  -4  178.38    9.50
  -8   3  -4  157.38   16.70
  -8   3   4  173.18   16.00
  -3  -8   4  168.88   11.60
   8  -3   4  182.58   16.00
  -8   3   4  128.89   15.80
   3   8   4  165.08   11.10
  -8   4  -4   14.30    8.80
   4   8  -4   11.80    4.10
   8  -4  -4   15.90    7.90
   4   8   4   14.20    4.90
   8  -4   4   10.50    6.80
  -8   4   4   14.60    7.30
  -4  -8   4   15.70    5.40
  -8   4   4    8.10    9.10
   5   8  -4   90.69    8.60
   8  -5  -4   84.39   12.10
  -8   5  -4   72.79   12.40
   5   8   4   91.89    8.70
  -8   5   4   70.69   11.50
  -8   5   4   86.49   13.40
  -5  -8   4  104.49   10.10
  -8   6  -4  314.47   24.60
   6   8  -4  366.16   20.20
  -6  -8   4  370.96   21.10
  -8   6   4  364.86   25.20
  -8   6   4  397.26   27.40
   6   8   4  362.66   20.30
   6   8   4  370.36   20.30
   7   8  -4   35.80    7.50
  -8   7  -4   44.30   11.10
  -8   7   4    7.20   10.00
  -8   7   4   19.40    9.50
   7   8   4   29.00    7.20
  -7  -8   4   19.70    7.10
   8   8  -4  996.60   46.00
  -8   8  -4  915.41   49.30
   8   8   4  991.50   46.50
  -8  -8   4  950.70   47.40
  -8   8   4 1015.00   51.19
  -8   8   4  943.51   50.49
  -8   9  -4   -5.60    8.10
   9   8  -4   -7.00    6.30
  -8   9   4    4.60    9.20
  -9  -8   4   -2.20    7.70
  -8   9   4   -4.60    9.80
   9   8   4    4.00    7.30
   9   7  -4   90.39   11.50
  -7   9  -4   71.99   12.20
  -7   9   4   92.09   14.00
  -7   9   4   58.59   12.00
   9   7   4   77.99   11.50
  -9  -7   4   85.29   13.00
  -6   9  -4   26.70    8.10
   9   6  -4   37.70    9.30
  -6   9   4   28.40    9.00
  -6   9   4   32.00    9.80
   9   6   4   40.10    9.60
  -9  -6   4   30.20    9.90
  -5   9  -4  220.18   15.60
   9   5  -4  184.68   17.10
  -5   9   4  180.78   16.40
  -9  -5   4  204.78   18.50
  -5   9   4  205.98   17.70
   9   5   4  231.58   18.00
   9   4  -4  545.65   32.10
  -4   9  -4  577.64   28.10
  -9  -4   4  580.04   32.60
   9   4   4  549.15   32.10
  -4   9   4  587.54   30.20
   9   3  -4   43.20   10.20
  -3   9  -4   47.50    6.20
  -3   9   4   61.09    8.80
  -9  -3   4   41.40   10.00
   9   3   4   39.00    9.60
   9   2  -4  342.77   23.40
  -2   9  -4  338.37   17.10
  -9  -2  -4  343.87   23.50
   9   2   4  370.46   23.60
  -9  -2   4  316.27   23.50
  -2   9   4  366.56   19.50
  -1   9  -4  208.98   11.20
   9   1  -4  180.48   18.00
  -9  -1  -4  256.27   19.20
  -1   9   4  211.98   13.60
  -9  -1   4  221.88   19.80
  -9  -1   4  195.78   18.50
   9   1   4  251.67   19.00
   0   9  -4   -4.00    2.10
  -9   0  -4   -3.90    7.80
   9   0  -4   -0.50    7.90
   9   0   4    4.50    7.80
   0   9   4    1.10    4.30
  -9   0   4    4.30    8.40
  -9   0   4   -1.70    8.30
  -9   1  -4  156.78   17.30
   9  -1  -4  212.68   18.60
  -1  -9   4  204.98   13.10
   1   9   4  226.58   12.60
  -9   1   4  169.38   18.40
  -9   1   4  161.98   16.90
   9  -1   4  229.28   18.90
   9  -2  -4  309.07   22.40
  -9   2  -4  343.47   24.20
  -9   2   4  346.17   24.80
   2   9   4  357.76   17.60
  -9   2   4  319.27   23.10
  -2  -9   4  333.47   18.10
   9  -2   4  309.87   22.60
  -9   3  -4   43.30   11.10
   9  -3  -4   76.79   12.60
   3   9   4   45.40    6.00
  -3  -9   4   56.49    7.40
  -9   3   4   40.60   11.40
  -9   3   4   51.19   10.70
   9  -3   4   36.00    9.40
   9  -4  -4  620.34   34.90
  -9   4  -4  538.75   34.40
   4   9  -4  611.14   27.10
  -9   4   4  619.94   35.50
   4   9   4  619.94   28.50
  -9   4   4  579.44   35.40
   9  -4   4  603.14   33.70
  -4  -9   4  598.84   29.30
  -9   5  -4  160.58   18.70
   5   9  -4  214.78   12.60
   5   9   4  213.58   13.30
  -5  -9   4  195.48   14.30
  -9   5   4  197.68   19.90
  -9   5   4  220.38   21.10
  -9   6  -4   48.10   12.40
   6   9  -4   48.50    6.60
  -9   6   4   46.10   12.00
  -9   6   4   33.00   11.60
   6   9   4   32.00    6.70
  -6  -9   4   36.00    9.20
  -9   7  -4   53.89   12.20
   7   9  -4   83.19    9.20
  -9   7   4   78.99   13.80
   7   9   4   83.09    9.60
   7   9   4   78.59    9.30
  -9   7   4   88.49   15.10
  -9   8  -4    1.00    9.00
   8   9  -4   -7.30    5.40
  -9   8   4  -11.10    8.90
  -9   8   4  -13.50    9.80
   8   9   4  -11.30    5.80
  -9   9  -4   35.90   11.60
   9   9  -4   45.40    8.50
  -9   9   4   43.80   12.30
  -9   9   4   18.40   12.50
   9   9   4   43.20    9.30
  10   9  -4  259.77   18.20
  -9  10  -4  229.58   22.70
  -9  10   4  269.57   25.20
  10   9   4  220.28   18.90
  -8  10  -4  238.38   21.60
  10   8  -4  269.07   19.30
  -8  10   4  278.17   25.10
  10   8   4  251.67   20.20
  -7  10  -4  276.97   21.20
  10   7  -4  272.67   19.90
  -7  10   4  233.18   22.20
 -10  -7   4  275.17   23.30
  10   7   4  244.68   20.80
  -6  10  -4   43.70    9.20
  10   6  -4   59.79   10.50
  -6  10   4   31.40   11.20
  10   6   4   67.99   11.80
 -10  -6   4   34.50   10.80
  10   5  -4  210.98   19.10
  -5  10  -4  239.88   16.30
  -5  10   4  228.48   19.10
 -10  -5   4  220.28   20.90
  10   5   4  222.78   19.50
  -4  10  -4    9.80    5.20
  10   4  -4   16.00    8.70
  -4  10   4   21.50    8.10
  10   4   4   -1.20    8.20
 -10  -4   4    9.80    9.60
  -3  10  -4   65.09    6.70
  10   3  -4   61.09   12.00
  -3  10   4   64.79    9.60
  10   3   4   47.20   11.00
 -10  -3   4   58.09   13.00
  -2  10  -4    9.10    3.60
  10   2  -4    8.30    9.10
  -2  10   4    8.60    6.20
  10   2   4    4.50    8.90
 -10  -2   4   -1.10    8.90
 -10  -1  -4  353.36   25.30
  10   1  -4  374.36   25.80
  -1  10  -4  376.36   16.90
 -10  -1   4  398.26   27.20
  10   1   4  339.57   24.80
  -1  10   4  372.16   20.00
  10   0  -4  767.22   40.20
 -10   0  -4  695.63   39.50
  10   0   4  745.83   39.30
 -10   0   4  740.73   40.90
 -10   0   4  658.83   39.40
   0  10   4  728.33   33.20
   0 -10   4  684.73   34.00
 -10   1  -4  397.86   26.70
  10  -1  -4  346.37   25.60
  -1 -10   4  368.16   19.70
   1  10   4  387.06   19.00
 -10   1   4  393.66   26.70
 -10   1   4  327.97   26.20
  10  -1   4  326.37   24.60
 -10   2  -4   15.10   10.30
  10  -2  -4   14.90    9.30
 -10   2   4   -4.80    9.10
   2  10   4   12.00    4.30
  -2 -10   4    6.00    4.70
  10  -2   4    6.70    8.10
 -10   2   4   -6.50    8.70
  10  -3  -4   70.79   13.30
 -10   3  -4   38.80   12.40
   3  10   4   51.59    6.20
  10  -3   4   40.60   10.10
 -10   3   4   64.19   13.00
 -10   3   4   43.30   12.70
 -10   4  -4   27.30   10.60
  10  -4  -4   11.60    9.10
 -10   4   4   10.40   10.00
 -10   4   4    7.80    9.00
   4  10   4   13.10    4.70
 -10   5  -4  169.88   20.40
 -10   5   4  217.08   22.10
 -10   5   4  268.37   24.00
   5  10   4  236.98   14.00
   6  10  -4   46.00    5.60
 -10   6  -4   49.80   12.60
 -10   6   4   55.39   13.90
   6  10   4   50.59    7.20
 -10   6   4   66.49   14.30
   7  10  -4  258.57   15.00
 -10   7  -4  245.08   23.50
 -10   7   4  288.77   25.10
 -10   7   4  240.48   24.00
   7  10   4  265.17   16.90
 -10   8  -4  261.97   24.90
   8  10  -4  291.57   16.90
   8  10   4  272.77   18.10
 -10   8   4  292.47   26.20
 -10   8   4  243.68   25.60
   9  10  -4  265.97   17.20
 -10   9  -4  248.18   24.50
   9  10   4  248.08   18.00
 -10   9   4  239.68   24.40
   9  10   4  276.47   18.60
 -10  10  -4   19.20   12.10
  10  10  -4   24.40    7.60
  10  10   4   22.20    8.50
 -10  10   4   26.50   12.40
 -10  11  -4   35.50   13.10
  11  10  -4   13.40    7.20
 -10  11   4   44.00   14.90
  11  10   4   17.00    8.90
  11   9  -4   95.89   11.90
  -9  11  -4   87.49   15.40
  11   9   4   73.69   12.50
  -9  11   4   93.49   16.30
  -8  11  -4   13.30    9.80
  11   8  -4    6.40    8.00
  11   8   4   12.10    9.20
  -8  11   4   16.60   11.70
  -7  11  -4  437.36   27.10
  11   7  -4  402.06   26.50
  -7  11   4  449.86   30.80
  11   7   4  416.46   28.40
 -11  -7   4  427.46   29.80
  -6  11  -4   38.60    8.70
  11   6  -4   38.60   10.50
  -6  11   4   35.80   11.90
 -11  -6   4   23.00   10.90
  11   6   4   51.69   11.60
  11   5  -4  193.48   18.80
  -5  11  -4  220.28   15.40
 -11  -5   4  245.28   23.10
  11   5   4  185.88   19.10
  -5  11   4  256.47   20.60
  -4  11  -4    7.30    4.90
  11   4  -4   19.20    9.70
  -4  11   4   20.00    9.30
  11   4   4   30.70   11.00
 -11  -4   4    5.90   10.40
  -3  11  -4 1167.48   51.89
  11   3  -4 1202.28   59.59
 -11  -3   4 1157.98   60.59
  11   3   4 1231.88   59.69
  -3  11   4 1230.78   56.09
  -2  11  -4    0.00    2.80
  11   2  -4    6.50    9.00
 -11  -2   4    6.20   10.10
  -2  11   4   11.50    6.80
  11   2   4  -16.90    8.00
  11   1  -4   64.89   12.70
 -11  -1  -4   85.59   18.70
  11   1   4   97.79   14.80
  -1  11   4   81.79    9.20
 -11  -1   4   69.49   13.70
 -11   0  -4  -15.90    7.60
  11   0  -4    1.20    8.90
 -11   0   4  -10.80    8.90
  11   0   4    6.20    8.80
   0  11   4    0.10    4.90
 -11   0   4    7.60    9.90
  11  -1  -4   82.19   13.70
 -11   1  -4   66.39   14.10
 -11   1   4   98.19   15.40
 -11   1   4   58.79   13.20
   1  11   4   80.19    7.70
  11  -1   4   78.29   12.50
  11  -2  -4    2.50    9.60
 -11   2  -4   19.90   10.90
 -11   2   4   -2.10    9.60
  11  -2   4    9.00    8.60
 -11   2   4   -4.70    9.00
   2  11   4    3.00    4.20
 -11   3  -4 1139.49   58.19
  11  -3  -4 1165.68   57.79
 -11   3   4 1068.79   58.29
  11  -3   4 1117.19   56.49
 -11   3   4 1076.99   57.79
   3  11   4 1136.49   48.70
  11  -4  -4    5.10    9.90
 -11   4  -4    9.10   10.80
   4  11   4   14.30    4.50
 -11   4   4   14.00   11.00
 -11   4   4   25.90   12.40
 -11   5  -4  238.58   22.30
   5  11   4  190.88   12.70
 -11   5   4  199.78   21.60
 -11   5   4  223.38   23.40
 -11   6  -4   30.80   12.10
 -11   6   4   25.70   13.20
   6  11   4   55.69    6.90
 -11   6   4   43.20   12.90
 -11   7  -4  411.46   30.90
 -11   7   4  442.36   32.50
 -11   7   4  432.06   31.50
   7  11   4  423.26   22.30
   8  11  -4   11.30    4.50
 -11   8  -4   26.80   12.80
   8  11   4   18.80    6.40
 -11   8   4   -1.50   11.60
 -11   8   4    0.70   11.30
 -11   9  -4   61.79   14.90
   9  11  -4   94.79    8.80
   9  11   4  100.09   10.90
 -11   9   4  118.09   18.80
 -11  10  -4   32.50   14.00
  10  11  -4   27.40    7.20
  10  11   4   28.10    8.40
 -11  10   4   28.70   13.20
  11  11  -4  157.08   12.70
 -11  11  -4  120.79   19.20
 -11  11   4  172.08   21.60
  11  11   4  136.89   13.90
  11  11   4  119.19   13.50
  12  10  -4   13.60    7.10
 -10  12  -4   16.40   12.50
  12  10   4    6.20    9.10
 -10  12   4    7.20   12.80
  12   9  -4  410.16   25.90
  -9  12  -4  427.06   30.40
  -9  12   4  496.95   33.10
  12   9   4  337.27   26.30
  12   8  -4   10.00    8.90
  -8  12  -4   -0.10    9.20
  -8  12   4   49.90   14.70
  12   8   4   19.40   10.00
  -7  12  -4  387.76   25.00
  12   7  -4  416.76   27.10
  12   7   4  359.16   27.60
 -12  -7   4  419.46   44.10
  -7  12   4  403.86   30.70
  -6  12  -4    7.00    6.50
  12   6  -4   -1.70    8.10
  12   6   4    9.60    9.90
 -12  -6   4   20.40   11.30
  -6  12   4  -11.70   10.00
  -5  12  -4   86.79    9.20
  12   5  -4   97.89   14.20
  -5  12   4   54.99   13.60
 -12  -5   4   93.59   15.80
  12   5   4   89.49   14.70
  12   4  -4   30.70   10.70
  -4  12  -4   23.90    5.20
  -4  12   4   10.40    9.90
  12   4   4   29.20   11.70
 -12  -4   4   24.00   11.30
  -3  12  -4   64.79    5.90
  12   3  -4   45.20   12.30
 -12  -3   4   69.29   14.30
  12   3   4   58.19   12.80
  -3  12   4   49.00   11.00
  12   2  -4   -6.50    8.90
  12   2   4   16.10   10.30
  -2  12   4   -0.60    7.40
 -12  -2   4  -11.60    9.50
  12   1  -4  799.82   45.30
  -1  12   4  811.72   38.90
  12   1   4  848.62   45.20
 -12  -1   4  798.02   45.90
 -12   0  -4   35.10   12.20
  12   0  -4   12.60   10.60
 -12   0   4   17.60   10.60
   0  12   4    8.70    6.20
  12   0   4   21.30   10.30
 -12   1  -4  846.02   44.90
  12  -1  -4  797.62   44.40
   1  12   4  761.22   34.90
  12  -1   4  823.12   43.60
 -12   1   4  612.04   43.20
 -12   1   4  832.92   45.10
 -12   2  -4    2.80   10.00
  12  -2  -4    7.80    9.40
 -12   2   4   -8.70    9.00
 -12   2   4   -8.80    8.30
  12  -2   4   -0.90    8.90
   2  12   4   -1.30    4.10
  12  -3  -4   48.20   12.70
 -12   3  -4   63.39   14.70
 -12   3   4   56.29   15.40
 -12   3   4   91.09   16.20
  12  -3   4   62.49   13.30
 -12   4  -4   34.20   11.90
 -12   4   4   30.20   13.90
 -12   4   4   49.80   13.60
 -12   5  -4   81.89   15.80
 -12   5   4   80.79   15.80
 -12   5   4   73.49   15.60
   5  12   4   82.19    6.70
 -12   6  -4   17.50   11.70
 -12   6   4   26.70   12.20
 -12   6   4   25.80   13.20
   6  12   4    3.90    4.20
 -12   7  -4  369.36   30.00
 -12   7   4  332.77   31.00
 -12   7   4  425.76   31.20
   7  12   4  383.16   19.40
 -12   8  -4   27.70   12.20
 -12   8   4   12.80   12.50
 -12   8   4   25.80   12.80
   8  12   4   24.00    5.90
 -12   9  -4  442.56   32.90
   9  12   4  390.26   21.60
 -12   9   4  383.86   33.30
 -12  10  -4   17.40   12.80
 -12  10   4   13.80   12.70
  10  12   4    5.60    6.30
  -9  13  -4    1.20    9.60
  13   9  -4   13.30    8.60
  -9  13   4    6.70   13.10
  13   9   4    2.70    8.90
  13   8  -4    3.40    8.40
  -8  13  -4   22.50    9.50
  -8  13   4   -9.30   11.20
  13   8   4   13.60   10.20
  13   7  -4    5.90    9.00
  -7  13  -4    8.40    7.60
  13   7   4    8.90    9.40
  -7  13   4    3.50   11.60
  -6  13  -4   36.20    7.70
  13   6  -4   42.70   11.40
  13   6   4   40.50   12.00
  -6  13   4   22.60   11.80
 -13  -6   4   51.29   13.50
  13   5  -4  482.75   31.20
  -5  13  -4  483.05   23.90
 -13  -5   4  456.85   32.70
  13   5   4  416.86   31.40
  -5  13   4  500.85   31.60
  13   4  -4    4.20    9.70
  -4  13  -4    8.70    4.10
 -13  -4   4    3.80   10.50
  -4  13   4    6.60    9.90
  13   4   4    6.40    9.80
  13   3  -4  106.29   16.70
  13   3   4  157.68   19.20
 -13  -3   4  160.38   20.10
  -3  13   4  121.19   14.60
  13   2  -4  232.68   22.40
  13   2   4  180.28   20.50
 -13  -2   4  195.18   21.80
  -2  13   4  171.28   15.60
  13   1  -4  165.28   19.90
  -1  13   4  142.49   12.30
  13   1   4  162.38   19.00
 -13  -1   4  117.19   18.00
  13   0  -4   14.00   11.50
  13   0   4   -3.70    9.10
 -13   0   4   10.90   10.90
 -13   1  -4  141.29   18.50
  13  -1  -4  191.08   21.10
  13  -1   4  136.29   17.30
 -13   1   4  125.49   18.60
  13  -2  -4  182.98   21.00
 -13   2  -4  213.08   22.60
  13  -2   4  169.68   18.90
 -13   2   4  210.88   23.20
 -13   2   4  160.58   21.30
 -13   3  -4  125.19   18.90
  13  -3  -4  144.59   19.00
 -13   3   4  131.39   20.30
 -13   3   4  123.79   18.50
 -13   4  -4   30.20   12.30
 -13   4   4    3.30   12.60
 -13   4   4  -12.00   11.00
 -13   5  -4  495.55   35.00
 -13   5   4  427.96   35.50
 -13   5   4  524.35   35.50
 -13   6  -4   30.50   13.60
 -13   6   4   12.20   12.20
 -13   6   4   43.90   15.10
 -13   7  -4  -11.50   10.60
 -13   7   4   -5.90   11.00
 -13   7   4    3.80   12.50
 -13   8  -4   16.10   13.40
 -13   8   4    0.60   11.80
 -13   9  -4    4.70   11.90
 -13   9   4   -1.60   13.50
  -7  14  -4  122.99   12.60
  14   7  -4  145.59   17.00
  -7  14   4  164.08   19.00
  14   7   4  113.09   16.50
  14   6  -4  115.89   16.60
  -6  14  -4  101.39    9.90
  -6  14   4  103.49   16.20
 -14  -6   4  129.99   25.40
  14   6   4  137.59   17.60
  14   5  -4   38.50   11.90
 -14  -5   4   25.90   13.40
  14   5   4   31.90   11.50
  -5  14   4    6.10   10.20
  14   4  -4    3.90   10.10
  -4  14   4    3.60    8.80
 -14  -4   4    2.20   11.70
  14   4   4   -1.60   10.30
  14   3  -4   -6.80    9.90
  -3  14   4    1.60    7.50
  14   3   4   -9.80   10.10
 -14  -3   4   10.50   11.10
  14   2  -4  162.48   20.80
 -14  -2   4  147.79   21.00
  14   2   4  195.18   21.50
  14   1  -4   -2.70   10.40
  14   1   4   11.10   10.70
 -14  -1   4   13.30   12.20
  14   0  -4  185.58   21.90
  14   0   4  159.48   19.20
 -14   0   4  158.98   21.50
  14  -1  -4   24.80   12.10
 -14   1   4   -0.70   10.50
  14  -1   4    9.10   11.10
 -14   2  -4  174.88   21.40
  14  -2  -4  201.88   22.90
  14  -2   4  120.59   18.40
 -14   2   4  139.89   20.20
  14  -3  -4   -1.20   11.30
 -14   3  -4  -10.30    9.40
 -14   3   4    3.60   12.20
 -14   3   4  -21.40    9.10
 -14   4  -4    0.60    9.90
 -14   4   4    2.60   13.30
 -14   4   4   14.30   12.20
 -14   5  -4   40.80   13.70
 -14   5   4   28.30   13.80
 -14   5   4   36.60   15.20
 -14   6  -4  117.09   18.50
 -14   6   4   94.49   17.60
 -14   6   4  111.99   19.90
 -14   7  -4  131.69   19.80
 -14   7   4  131.59   21.70
  15   5  -4  -13.90    9.00
  -5  15   4    4.60    9.30
  15   5   4   -8.80    9.30
 -15  -5   4    2.10   11.80
  15   4  -4  431.46   32.20
  15   4   4  457.95   32.00
 -15  -4   4  431.56   33.40
  15   3  -4   74.19   15.70
  15   3   4   74.79   15.50
 -15  -3   4   44.40   14.20
  15   2  -4  251.87   24.90
 -15  -2   4  269.27   27.50
  15   1  -4   51.69   14.70
  15   1   4   59.39   14.60
 -15  -1   4   54.19   15.30
  15   0  -4   -4.20   10.80
 -15   0   4   10.30   11.50
  15   0   4   -0.30    9.30
  15  -1  -4   57.59   14.50
 -15   1   4   71.29   16.90
  15  -1   4   30.90   12.40
  15  -2  -4  257.27   26.50
 -15   2   4  293.27   28.60
 -15   3  -4   44.60   14.50
 -15   3   4   46.70   14.60
 -15   4  -4  420.66   32.40
 -15   4   4  403.96   34.40
 -15   5  -4    0.70   11.50
 -15   5   4    1.00   12.10
  16   0  -4  302.37   27.90
  16   0   4  210.28   23.30
   0   0  -5    2.50    2.90
   0   0   5    0.50    3.10
   0   1  -5  264.07   13.30
   1   0  -5  236.28   13.20
   0  -1  -5  257.87   13.30
  -1   0  -5  250.17   13.50
  -1   0   5  234.98   13.40
   0   1   5  244.88   13.30
   0  -1   5  240.38   13.00
   0   1   5  236.38   13.00
  -1   0   5  251.17   13.10
   1   0   5  235.38   13.30
   1   1  -5   -2.60    2.70
  -1  -1  -5   -2.40    3.10
  -1   1  -5   -0.80    3.20
   1  -1  -5    2.40    3.30
   1  -1   5    4.40    2.80
  -1   1   5    0.40    3.00
  -1  -1   5    1.20    3.80
   1   1   5    7.20    3.60
  -1   1   5    2.90    3.40
  -1  -1   5    4.60    3.00
  -1   2  -5  224.88   12.60
   2   1  -5  222.08   12.50
  -2  -1  -5  211.08   12.50
   1  -2  -5  234.38   12.60
   1  -2   5  231.38   12.40
   2   1   5  227.18   12.90
  -2  -1   5  228.18   13.10
   2   1   5  230.28   12.90
  -1   2   5  228.38   12.80
  -2  -1   5  232.08   12.50
  -1   2   5  222.88   12.70
   2   0  -5    0.60    3.40
   0   2  -5   -4.90    2.80
   0  -2  -5   -3.00    3.10
  -2   0  -5   -2.90    2.90
   2   0   5    0.10    3.30
  -2   0   5   -4.30    3.50
   0   2   5    2.70    3.40
   2   0   5   -5.50    2.70
   0  -2   5    0.50    2.70
  -2   0   5    0.50    3.20
   0   2   5    0.20    3.00
  -2   1  -5  218.68   12.50
   2  -1  -5  232.78   12.60
  -1  -2  -5  220.18   12.50
   1   2  -5  225.98   12.10
  -2   1   5  219.98   12.80
  -1  -2   5  236.48   13.10
   1   2   5  226.98   12.50
   2  -1   5  253.17   12.80
  -1  -2   5  174.28   11.50
   2  -1   5  242.98   12.80
  -2   1   5  215.88   12.60
  -2  -2  -5  445.96   23.60
  -2   2  -5  504.45   24.00
   2  -2  -5  523.25   24.30
   2   2  -5  489.15   23.50
  -2   2   5  503.45   24.10
   2   2   5  480.85   23.90
   2  -2   5  527.75   23.80
   2  -2   5  525.25   23.80
  -2  -2   5  549.25   24.60
  -2   2   5  499.05   24.10
  -2  -2   5  512.55   23.50
   3   2  -5  101.49    7.90
   2  -3  -5   93.29    8.00
  -3  -2  -5   98.89    8.20
  -2   3  -5   88.69    7.80
   3   2   5  103.89    8.70
  -3  -2   5   97.59    8.40
  -2   3   5   91.99    8.00
   2  -3   5  104.69    7.60
  -3  -2   5  102.19    8.00
   2  -3   5   93.29    7.40
  -2   3   5   91.29    8.20
   1  -3  -5   86.99    7.30
   3   1  -5   85.79    7.40
  -3  -1  -5   79.59    7.70
  -1   3  -5   89.79    7.40
  -1   3   5   82.39    7.10
   3   1   5   90.49    7.70
   1  -3   5   88.69    7.90
  -3  -1   5   84.89    7.50
  -3  -1   5   94.79    8.40
  -1   3   5   70.99    7.00
   0   3  -5  534.65   24.60
   3   0  -5  515.75   25.30
  -3   0  -5  533.05   25.40
   0  -3  -5  540.95   25.00
   0   3   5  537.05   24.30
   3   0   5  551.64   25.30
  -3   0   5  515.85   25.60
   0   3   5  531.15   25.00
  -3   0   5  521.45   25.20
  -3   1  -5   67.29    7.20
  -1  -3  -5   92.59    7.50
   3  -1  -5   92.99    8.00
   1   3  -5   86.39    6.90
  -1  -3   5   92.49    8.10
   1   3   5   91.39    6.80
   1   3   5   78.09    7.10
   3  -1   5   84.89    7.40
  -3   1   5   85.39    8.10
  -3   1   5   83.29    7.70
  -3   2  -5   94.69    8.30
  -2  -3  -5   93.79    7.90
   2   3  -5   94.09    7.20
   3  -2  -5   91.69    8.10
  -2  -3   5  115.99    9.00
   3  -2   5  105.79    8.30
   2   3   5  102.29    8.10
  -3   2   5   86.29    8.20
  -3   2   5   84.39    8.00
   3  -3  -5 1086.59   47.30
  -3   3  -5 1042.80   47.10
  -3  -3  -5 1108.89   47.10
   3   3  -5 1062.39   46.50
  -3   3   5 1028.90   47.20
   3  -3   5 1062.89   46.70
   3   3   5 1061.89   47.00
   3   3   5 1062.59   47.00
  -3  -3   5 1068.49   47.40
  -3   3   5 1027.20   47.20
  -4  -3  -5   88.49    8.10
   3  -4  -5   83.69    8.10
   4   3  -5   80.09    7.40
  -3   4  -5   78.09    7.80
   4   3   5   98.59    8.70
  -3   4   5   85.29    8.40
  -4  -3   5   96.99    8.90
  -3   4   5   73.59    8.30
  -4  -3   5   98.59    9.20
   3  -4   5   87.59    7.50
  -2   4  -5    2.70    3.50
   2  -4  -5    2.50    3.30
  -4  -2  -5   -3.00    3.70
   4   2  -5    0.40    3.50
   4   2   5    1.60    3.60
  -4  -2   5   -0.80    4.20
  -2   4   5    4.60    3.80
  -2   4   5    0.00    3.70
  -4  -2   5   -0.20    3.50
  -1   4  -5   12.70    3.60
   1  -4  -5   10.50    3.90
  -4  -1  -5    7.40    4.40
   4   1  -5    6.90    4.10
  -4  -1   5   10.60    4.60
  -4  -1   5    3.30    3.30
  -1   4   5    8.00    3.60
   4   1   5   -0.10    3.40
  -1   4   5   -1.10    3.80
   4   0  -5    0.70    3.90
   0  -4  -5    2.30    3.00
  -4   0  -5   10.60    4.50
   0   4  -5    2.00    2.80
   4   0   5    8.00    3.90
  -4   0   5    4.70    3.40
   0   4   5   -3.30    2.90
   0   4   5    2.30    2.90
  -4   0   5    2.70    4.20
  -1  -4  -5    5.30    3.40
   1   4  -5    0.00    2.80
   4  -1  -5    5.80    3.90
  -4   1  -5    6.20    3.90
   4  -1   5    5.00    4.00
   1   4   5   -0.80    3.40
   1   4   5    8.80    3.10
  -4   1   5   10.40    4.80
  -1  -4   5    8.00    4.10
  -4   1   5    2.50    4.20
  -4   2  -5    3.70    4.40
  -2  -4  -5   -2.50    2.80
   4  -2  -5    2.50    4.20
   2   4  -5   -0.80    2.90
   4  -2   5   -8.50    3.30
   2   4   5    3.50    2.80
  -2  -4   5   -2.50    3.60
  -4   2   5   -3.40    3.80
  -4   2   5    6.30    4.90
   2   4   5    3.40    3.90
  -4   3  -5   95.99    9.10
   4  -3  -5   74.69    7.90
  -3  -4  -5   79.99    7.40
   3   4  -5   94.59    7.40
  -4   3   5   89.89    9.30
   4  -3   5   90.99    8.10
  -4   3   5   78.89    8.60
  -3  -4   5   94.19    8.70
   3   4   5   75.49    7.60
   3   4   5   92.29    8.10
   4   4  -5  203.48   12.50
  -4   4  -5  218.78   13.60
  -4  -4  -5  221.18   13.20
   4  -4  -5  216.18   13.60
   4  -4   5  229.88   12.80
   4   4   5  207.78   13.20
  -4   4   5  197.08   14.00
  -4   4   5  201.68   14.50
  -4  -4   5  206.18   13.90
   5   4  -5   26.20    5.20
  -4   5  -5   22.00    5.90
   4  -5  -5   30.80    6.00
  -5  -4  -5   23.30    5.80
  -4   5   5   16.50    6.10
  -5  -4   5   20.30    6.10
   5   4   5   19.70    5.50
  -4   5   5   30.20    7.30
   5   3  -5   71.19    7.70
   3  -5  -5   62.09    7.30
  -3   5  -5   72.89    7.40
  -5  -3  -5   70.19    8.10
  -3   5   5   83.69    8.80
  -5  -3   5   73.29    8.70
  -5  -3   5   63.79    7.30
   5   3   5   61.29    7.70
  -3   5   5   74.69    8.30
  -5  -2  -5   53.59    7.10
   2  -5  -5   53.69    6.20
   5   2  -5   51.59    6.80
  -2   5  -5   42.50    5.50
  -2   5   5   48.70    6.40
  -2   5   5   38.70    6.00
  -5  -2   5   52.69    6.60
  -5  -2   5   31.70    6.20
   5   2   5   45.10    6.80
   1  -5  -5  254.67   14.60
   5   1  -5  264.17   15.10
  -1   5  -5  263.67   14.00
  -5  -1  -5  286.27   16.10
  -1   5   5  254.07   14.00
  -1   5   5  277.47   15.10
  -5  -1   5  228.08   15.90
  -5  -1   5  262.97   15.50
   5   1   5  269.17   15.50
   0   5  -5 1412.26   61.09
   5   0  -5 1412.36   62.89
  -5   0  -5 1407.76   63.39
   0   5   5 1436.66   62.09
  -5   0   5 1489.95   63.69
  -5   0   5 1470.15   63.29
   5   0   5 1462.25   63.19
   0   5   5 1376.86   60.69
   5  -1  -5  251.17   15.60
  -5   1  -5  251.47   15.80
   1   5  -5  272.27   13.70
   5  -1   5  270.47   15.50
   1   5   5  245.58   14.50
  -5   1   5  275.47   16.10
   1   5   5  270.67   13.00
  -5   1   5  270.37   16.60
  -1  -5   5  265.27   15.30
   5  -2  -5   50.59    6.90
   2   5  -5   50.09    5.20
  -5   2  -5   43.00    6.90
  -5   2   5   46.30    7.30
  -5   2   5   37.20    7.30
  -2  -5   5   44.20    6.30
   2   5   5   46.50    6.20
   5  -2   5   40.30    6.70
   2   5   5   46.70    4.40
   5  -3  -5   69.19    7.80
   3   5  -5   65.29    6.30
  -5   3  -5   57.79    7.90
   5  -3   5   65.39    7.80
  -5   3   5   74.29    8.40
  -5   3   5   67.69    9.10
   3   5   5   63.39    6.90
  -3  -5   5   77.39    8.00
  -5   4  -5   25.10    6.70
   4   5  -5   36.00    5.20
   5  -4  -5   29.40    6.50
  -4  -5   5   25.40    5.90
   5  -4   5   29.60    5.90
   4   5   5   19.70    5.40
  -5   4   5   32.60    7.90
   4   5   5   22.70    5.40
  -5   4   5   24.00    6.50
  -5   5  -5   58.79    8.10
   5  -5  -5   56.39    8.00
   5   5  -5   66.79    7.20
   5   5   5   63.59    7.90
  -5  -5   5   61.09    8.10
  -5   5   5   76.39   11.00
  -5   5   5   71.69    9.40
  -5   6  -5  129.09   11.80
   6   5  -5  118.29   10.50
   6   5   5  113.89   10.90
  -5   6   5  126.09   14.30
  -6  -5   5  112.59   11.40
  -5   6   5  119.39   11.50
   6   4  -5   15.40    5.20
  -4   6  -5   24.50    5.90
  -6  -4   5   26.20    6.60
  -4   6   5   16.00    6.40
  -4   6   5   23.80    8.40
   6   4   5   18.50    6.40
  -3   6  -5   58.99    6.90
  -6  -3  -5   45.80    8.00
   6   3  -5   50.19    7.20
  -6  -3   5   64.89    9.40
  -3   6   5   51.09    9.00
   6   3   5   47.40    8.10
  -6  -3   5   58.69    8.80
  -3   6   5   54.09    7.70
  -2   6  -5  196.08   12.30
   6   2  -5  211.48   14.10
  -6  -2  -5  243.38   15.20
  -2   6   5  202.28   13.20
  -6  -2   5  225.38   15.40
  -2   6   5  212.18   14.20
  -6  -2   5  226.68   14.20
   6   2   5  193.08   14.10
  -6  -1  -5   44.90    7.50
   6   1  -5   35.30    6.50
  -1   6  -5   44.50    5.20
  -1   6   5   39.50    5.90
  -6  -1   5   30.90    6.50
  -6  -1   5   33.00    7.10
   6   1   5   48.40    7.80
  -1   6   5   35.80    6.10
  -6   0  -5   -0.80    4.60
   0   6  -5   -4.40    2.80
   6   0  -5    5.00    4.90
  -6   0   5   -3.30    3.90
   6   0   5   -8.80    4.20
   0   6   5    2.20    3.30
  -6   0   5   -0.70    5.50
   0   6   5   -0.10    4.00
   6  -1  -5   54.19    7.90
  -6   1  -5   24.80    6.80
   1   6  -5   43.20    4.70
   1   6   5   40.80    4.10
  -6   1   5   40.40    8.00
   6  -1   5   37.50    7.20
  -1  -6   5   36.60    6.00
   1   6   5   45.00    6.00
  -6   1   5   34.10    6.30
  -6   2  -5  266.87   16.60
   6  -2  -5  199.18   14.40
   2   6  -5  233.38   12.20
   6  -2   5  231.08   15.40
  -6   2   5  258.07   16.00
   2   6   5  209.48   10.70
   2   6   5  229.38   13.50
  -2  -6   5  227.68   13.90
  -6   2   5  232.98   16.60
   3   6  -5   58.09    5.80
  -6   3  -5   30.60    7.20
   6  -3  -5   49.70    7.70
   3   6   5   62.19    6.80
   6  -3   5   52.49    8.00
  -6   3   5   52.09    8.90
  -6   3   5   56.29    9.60
  -3  -6   5   51.59    7.00
  -6   4  -5   22.00    7.20
   4   6  -5   17.20    4.60
   6  -4  -5   19.60    6.20
  -4  -6   5   22.40    5.80
   4   6   5   26.60    5.70
  -6   4   5   23.50    8.40
  -6   4   5   11.30    7.20
   6  -4   5   20.20    6.30
  -6   5  -5  107.89   11.60
   6  -5  -5  126.59   11.80
   5   6  -5  122.89    9.90
  -6   5   5  124.09   12.70
  -6   5   5  125.49   14.80
   5   6   5  113.29   10.70
  -5  -6   5  134.89   11.50
  -6   6  -5  571.14   31.10
   6   6  -5  570.44   28.90
  -6   6   5  593.04   31.40
  -6   6   5  631.34   34.00
   6   6   5  589.74   29.70
  -6  -6   5  588.44   30.30
   7   6  -5    4.70    5.90
  -6   7  -5   -1.00    5.90
  -6   7   5   14.30    8.20
  -7  -6   5    6.00    6.20
  -6   7   5    2.10    7.80
   7   6   5   -2.30    6.00
  -5   7  -5   24.90    7.00
   7   5  -5   31.20    7.10
  -5   7   5   40.90    8.40
  -7  -5   5   25.50    7.30
   7   5   5   28.00    7.50
  -5   7   5   32.30    9.10
   7   4  -5    3.70    5.70
  -4   7  -5    8.50    5.10
   7   4   5    4.60    6.70
  -4   7   5   -7.50    6.60
  -4   7   5    0.60    5.80
  -7  -4   5    5.80    6.10
   7   3  -5    9.30    6.00
  -3   7  -5    9.20    4.40
  -7  -3  -5   10.80    6.30
  -3   7   5    2.00    6.40
  -3   7   5   12.70    5.90
   7   3   5    3.10    6.30
  -7  -3   5    8.60    6.40
   7   2  -5   79.49    9.30
  -7  -2  -5   76.99   10.30
  -2   7  -5   73.89    7.10
  -2   7   5   73.59    8.20
  -7  -2   5   75.69    9.70
  -7  -2   5   70.69    9.90
  -2   7   5   75.49    9.10
   7   2   5   82.79   10.30
  -1   7  -5   76.29    6.60
   7   1  -5   69.39    9.40
  -7  -1  -5   59.19    9.20
  -1   7   5   62.19    7.30
   7   1   5   65.39    9.00
  -7  -1   5   69.49   10.00
  -7  -1   5   54.59    8.30
  -1   7   5   56.59    7.30
   7   0  -5    3.10    5.70
   0   7  -5    7.80    3.30
  -7   0  -5    5.40    6.30
   0   7   5    4.60    4.40
  -7   0   5   12.20    6.00
   7   0   5    7.40    5.60
  -7   0   5   16.90    7.20
   1   7  -5   60.59    5.60
   7  -1  -5   74.79    9.70
  -7   1  -5   79.79   10.20
  -7   1   5   69.39   10.30
   7  -1   5   56.49    9.00
  -1  -7   5   75.89    7.90
   1   7   5   76.89    7.70
  -7   1   5   71.89    9.40
   7  -2  -5   61.79    9.30
  -7   2  -5   75.49   10.70
   2   7  -5   80.29    6.40
  -2  -7   5   73.89    8.20
   2   7   5   82.79    7.90
  -7   2   5   69.99   10.90
   7  -2   5   82.99   10.40
  -7   2   5   73.19   10.30
   3   7  -5    6.30    3.40
   7  -3  -5    1.90    5.20
  -7   3  -5    2.30    6.20
  -7   3   5   15.30    7.90
   3   7   5    7.50    4.60
  -3  -7   5    9.40    4.80
  -7   3   5   15.30    7.10
   7  -3   5   11.40    6.20
   7  -4  -5    7.40    6.70
  -7   4  -5   -3.20    6.80
   4   7  -5    3.70    3.80
  -4  -7   5    4.90    5.10
  -7   4   5   13.30    8.30
   7  -4   5   13.70    6.40
   4   7   5    1.90    4.50
  -7   4   5    1.80    6.80
   7  -5  -5   41.40    8.80
   5   7  -5   23.20    5.50
  -7   5  -5    8.10    7.30
  -7   5   5   27.70    8.10
  -5  -7   5   27.50    6.60
   5   7   5   21.70    6.10
  -7   5   5   20.20    9.40
   5   7   5   15.50    5.80
   6   7  -5    1.40    5.00
  -7   6  -5   -3.60    6.80
  -6  -7   5   -1.90    5.60
  -7   6   5   24.50    9.70
   6   7   5   15.60    6.20
  -7   6   5   14.40    7.80
  -7   7  -5    9.00    7.80
   7   7  -5   16.80    7.10
  -7  -7   5   22.30    7.60
  -7   7   5   32.40   10.30
  -7   7   5   19.10    9.00
   7   7   5   18.60    7.10
   8   7  -5  151.28   14.40
  -7   8  -5  132.39   15.00
  -8  -7   5  161.28   15.30
  -7   8   5  146.39   17.20
   8   7   5  155.68   14.40
  -7   8   5  151.08   16.00
  -6   8  -5   18.60    7.30
   8   6  -5   24.20    8.40
  -8  -6   5   27.80    8.30
  -6   8   5   21.60    8.00
   8   6   5   26.80    7.70
  -6   8   5   18.60    8.70
   8   5  -5  106.29   12.10
  -5   8  -5  117.09   11.40
  -5   8   5  108.79   13.20
   8   5   5  112.79   12.80
  -8  -5   5  108.69   12.70
  -5   8   5  120.99   12.80
   8   4  -5  270.97   18.00
  -4   8  -5  240.98   15.40
  -4   8   5  253.17   16.90
  -8  -4   5  234.18   18.60
  -4   8   5  224.48   18.00
   8   4   5  242.28   18.70
  -3   8  -5  129.69   10.40
   8   3  -5  135.79   13.40
   8   3   5  120.99   13.70
  -3   8   5  144.89   12.30
  -8  -3   5  141.79   14.30
  -3   8   5  126.09   12.30
  -8  -2  -5  125.59   13.80
  -2   8  -5  128.29    9.40
   8   2  -5  109.59   12.20
   8   2   5  159.58   15.20
  -8  -2   5  129.49   13.60
  -2   8   5  124.59   11.00
  -8  -1  -5    5.90    7.10
  -1   8  -5    1.00    3.30
   8   1  -5   17.50    7.20
  -1   8   5   -1.30    4.60
  -8  -1   5   -1.30    4.90
   8   1   5   -4.10    6.30
  -8  -1   5   -6.10    6.80
  -8   0  -5    0.60    6.60
   8   0  -5   -4.50    6.20
   0   8  -5   -3.60    2.70
  -8   0   5   -0.90    7.10
  -8   0   5    4.70    6.80
   0   8   5    0.30    4.50
   8   0   5   -3.00    6.50
  -8   1  -5    4.50    6.10
   8  -1  -5   -5.50    5.50
   1   8  -5    5.20    3.00
  -1  -8   5    6.10    4.70
   8  -1   5   -0.70    6.60
   1   8   5    8.00    4.80
  -8   1   5   -1.50    5.10
  -8   1   5    7.00    7.70
   2   8  -5  127.29    8.40
   8  -2  -5  128.99   13.60
  -8   2  -5  127.39   14.60
   8  -2   5  129.89   13.90
   2   8   5  125.09   10.10
  -8   2   5  144.79   14.20
  -2  -8   5  144.79   11.40
  -8   2   5  134.79   15.70
   8  -3  -5  169.28   15.10
  -8   3  -5  120.89   14.50
   3   8  -5  131.49    8.80
  -8   3   5  120.79   14.20
  -3  -8   5  146.79   11.60
   8  -3   5  129.79   13.60
   3   8   5  136.09   10.70
  -8   3   5  137.39   15.90
   8  -4  -5  247.58   19.00
   4   8  -5  240.78   13.50
  -8   4  -5  233.78   20.10
  -4  -8   5  260.17   15.80
  -8   4   5  230.28   19.50
   8  -4   5  252.27   18.40
   4   8   5  250.57   15.20
  -8   4   5  215.38   20.90
   5   8  -5  123.99    9.90
   8  -5  -5  140.59   15.00
  -8   5  -5  110.39   14.60
  -8   5   5  117.59   15.70
  -8   5   5  151.78   16.30
  -5  -8   5  130.09   11.30
   5   8   5  111.49   10.60
   6   8  -5   31.60    6.80
  -8   6  -5   20.30    9.30
   6   8   5   21.60    6.70
   6   8   5   14.40    6.20
  -8   6   5   23.60   10.10
  -6  -8   5   23.20    7.00
  -8   6   5   22.30   10.30
   7   8  -5  161.28   14.00
  -8   7  -5  158.68   16.60
  -8   7   5  187.48   18.40
   7   8   5  157.08   13.90
  -7  -8   5  210.58   16.30
  -8   7   5  176.68   19.30
   7   8   5  156.38   14.00
   8   8  -5   -4.70    6.30
  -8   8  -5   11.20    8.70
  -8  -8   5   12.40    7.30
   8   8   5   -3.20    6.60
  -8   8   5    7.30    9.40
  -8   8   5    6.80    9.50
   9   8  -5  180.28   15.20
  -8   9  -5  135.59   16.60
  -8   9   5  135.79   17.50
  -8   9   5  137.89   17.20
  -9  -8   5  134.39   16.00
   9   8   5  143.29   14.90
   9   7  -5   25.30    9.00
  -7   9  -5   24.40    9.30
  -9  -7   5   27.90    9.30
   9   7   5   15.30    8.50
  -7   9   5   39.30   11.00
  -7   9   5   32.70   10.20
  -6   9  -5   21.50    8.20
   9   6  -5   25.20    9.00
  -6   9   5   10.50   13.10
   9   6   5   20.90    8.70
  -6   9   5   10.90    8.60
  -9  -6   5   33.20    9.70
   9   5  -5   34.00    9.60
  -5   9  -5   61.79    8.60
  -5   9   5   53.79    9.80
   9   5   5   52.49   10.90
  -9  -5   5   58.29   11.20
  -4   9  -5  142.69   11.30
   9   4  -5  109.99   13.70
  -9  -4   5  118.29   14.60
  -4   9   5  114.69   12.40
   9   4   5  114.59   13.90
   9   3  -5   18.40    8.60
  -3   9  -5    4.50    4.50
  -9  -3   5   13.70    8.60
   9   3   5   20.80    8.80
  -3   9   5    5.70    6.20
  -2   9  -5   38.20    5.50
  -9  -2  -5   29.30    9.50
   9   2  -5   33.30    9.30
  -2   9   5   32.70    7.20
  -9  -2   5   34.10    9.80
   9   2   5   28.80    9.00
  -9  -1  -5   23.00    8.90
   9   1  -5   11.70    8.50
  -1   9  -5   21.20    4.20
  -9  -1   5   22.20    8.00
  -9  -1   5   23.30    9.00
  -1   9   5   16.10    5.80
   9   1   5   28.40    9.20
  -9   0  -5  626.34   34.80
   0   9  -5  617.74   27.40
   9   0  -5  630.44   34.30
  -9   0   5  646.64   34.50
   9   0   5  611.84   34.20
   0  -9   5  584.44   30.40
  -9   0   5  572.74   34.80
   0   9   5  628.74   29.80
  -9   1  -5    1.50    8.30
   1   9  -5   20.30    3.50
   9  -1  -5   16.20    9.00
   9  -1   5   19.80    9.10
  -9   1   5    8.50    9.20
   1   9   5   24.80    5.70
  -9   1   5   33.40    9.70
  -1  -9   5   18.40    5.80
  -9   2  -5   24.20    9.70
   2   9  -5   37.40    4.00
   9  -2  -5   38.00   10.50
   2   9   5   29.70    6.10
  -2  -9   5   28.50    6.10
  -9   2   5   14.90    7.80
   9  -2   5   38.60   10.00
  -9   2   5   39.10   11.50
  -9   3  -5   12.70    8.80
   3   9  -5   17.80    3.60
   9  -3  -5    3.50    8.60
   9  -3   5   12.60    7.90
  -3  -9   5   15.50    5.70
  -9   3   5   26.90   10.80
   3   9   5   10.10    5.20
  -9   3   5   14.00    7.90
  -9   4  -5  113.19   15.50
   4   9  -5  115.99    8.60
   9  -4  -5  117.69   14.70
  -4  -9   5  118.19   11.00
  -9   4   5   95.89   15.40
   4   9   5  118.39   10.20
  -9   4   5  112.19   14.60
  -9   5  -5   52.89   11.70
   5   9  -5   53.69    7.10
   5   9   5   45.50    7.20
  -9   5   5   56.89   12.80
  -5  -9   5   51.89    7.90
  -9   5   5   30.80   11.40
  -9   6  -5   34.00   10.90
   6   9  -5   24.40    6.50
  -9   6   5   15.70   10.80
  -6  -9   5   14.30    6.70
  -9   6   5   41.20   11.20
   6   9   5   22.20    6.70
  -9   7  -5   31.40   11.00
   7   9  -5   30.00    7.10
   7   9   5   25.40    7.30
  -9   7   5   31.00   12.10
  -9   7   5   51.09   12.90
  -7  -9   5   35.30    9.40
   8   9  -5  146.49   12.80
  -9   8  -5  126.59   16.60
   8   9   5  113.79   12.70
  -9   8   5  159.08   19.10
  -9   8   5  155.78   18.80
   8   9   5  132.19   13.30
   9   9  -5   45.20    8.90
  -9   9  -5   32.10   11.60
  -9   9   5   50.09   13.00
  -9   9   5   36.30   13.70
   9   9   5   47.80    9.90
  10   9  -5    9.40    7.20
  -9  10  -5   13.10   11.00
  10   9   5   11.60    8.70
  -9  10   5   22.20   13.00
  10   8  -5    2.90    7.70
  -8  10  -5   20.00   10.80
 -10  -8   5   27.30   12.90
  -8  10   5   18.20   11.20
  10   8   5    4.40    8.20
  -7  10  -5  144.89   15.30
  10   7  -5  141.29   14.90
  10   7   5  153.48   16.20
  -7  10   5  127.19   16.70
 -10  -7   5  148.79   17.40
  10   6  -5   -8.20    7.70
  -6  10  -5    7.50    6.60
  10   6   5   -6.70    8.00
 -10  -6   5   -2.80    8.60
  -6  10   5    2.00    8.60
  10   5  -5    5.60    8.40
  -5  10  -5   -1.70    5.40
 -10  -5   5   -7.10    8.30
  -5  10   5    3.10    8.00
  10   5   5  -10.40    7.90
  -4  10  -5   86.09    9.00
  10   4  -5   71.39   12.90
 -10  -4   5   80.79   13.90
  -4  10   5   90.19   11.50
  10   4   5   98.39   14.00
  10   3  -5    7.60    8.50
  -3  10  -5   -0.50    4.10
  -3  10   5    6.30    6.60
 -10  -3   5    1.10    9.10
  10   3   5   -2.50    7.50
  -2  10  -5    2.50    3.70
  10   2  -5    3.30    8.90
 -10  -2   5   -6.40    8.70
  10   2   5    5.50    8.80
  -2  10   5   -3.30    5.60
  -1  10  -5  152.08    8.90
 -10  -1  -5  157.78   16.90
  10   1  -5  124.69   15.70
 -10  -1   5  136.39   16.90
  -1  10   5  129.59   11.40
  10   1   5  120.99   15.50
   0  10  -5    1.20    2.50
 -10   0  -5    4.10    9.10
  10   0  -5   -3.70    8.70
  10   0   5    4.00    8.40
   0  10   5   -4.90    4.90
 -10   0   5   11.40    9.30
   0 -10   5    0.00    5.20
 -10   0   5   -3.10    9.10
  10  -1  -5  156.08   17.70
 -10   1  -5  158.78   17.90
 -10   1   5  160.58   18.80
   1  10   5  138.19   11.30
  -1 -10   5  148.79   12.50
  10  -1   5  142.29   16.60
 -10   1   5  169.38   18.50
  10  -2  -5   -8.20    8.90
 -10   2  -5  -17.10    8.30
 -10   2   5    5.50   10.10
 -10   2   5   -5.00    7.50
   2  10   5   -5.00    4.50
  10  -2   5   -9.60    7.50
  -2 -10   5   -4.40    4.30
 -10   3  -5    0.10    9.50
  10  -3  -5   -6.20    8.20
  -3 -10   5    0.90    5.30
  10  -3   5    4.50    8.20
   3  10   5   -0.60    4.50
 -10   3   5    6.10    8.30
 -10   3   5  -13.30    8.80
 -10   4  -5   79.69   13.80
  10  -4  -5   93.59   15.10
   4  10   5   86.99    8.60
 -10   4   5   71.19   14.50
 -10   4   5   82.89   15.30
 -10   5  -5    4.90   10.60
   5  10  -5    0.40    3.80
 -10   5   5    1.10    9.40
   5  10   5   -1.40    5.10
 -10   5   5   -0.10   10.00
   6  10  -5    8.90    4.90
 -10   6  -5   -1.90    8.40
 -10   6   5  -16.40    8.90
 -10   6   5    3.60   10.70
   6  10   5    1.70    5.60
 -10   7  -5  160.48   19.10
   7  10  -5  145.79   11.60
   7  10   5  161.48   13.10
 -10   7   5  155.68   19.50
 -10   7   5  113.49   17.90
   8  10  -5   26.10    6.60
 -10   8  -5   -0.80   10.20
   8  10   5   12.90    7.30
 -10   8   5   27.00   12.30
 -10   8   5   10.90   12.60
 -10   9  -5    0.50   10.50
   9  10  -5    6.70    6.00
 -10   9   5   -0.70   10.60
   9  10   5   15.80    7.80
 -10   9   5   19.80   11.80
  10  10  -5   30.70    7.70
 -10  10  -5    8.10   12.30
  10  10   5    7.00    8.40
 -10  10   5    5.20   13.20
  10  10   5   32.20    8.70
  11  10  -5    8.20    7.40
 -10  11  -5   -1.90   11.20
  11  10   5   10.20    8.10
  11  10   5   26.20    9.70
 -10  11   5   11.00   13.50
  11   9  -5    9.70    7.90
  -9  11  -5   28.20   11.90
  -9  11   5   16.90   13.10
  11   9   5    0.10    8.70
  -8  11  -5   11.70    9.90
  11   8  -5   33.60   10.20
  11   8   5   39.30   10.50
  -8  11   5    1.40   12.50
  11   7  -5    4.30    8.30
  -7  11  -5  -11.00    7.10
  11   7   5    6.60    9.10
 -11  -7   5    0.90   10.40
  -7  11   5   -0.10   10.50
  -6  11  -5    1.70    6.50
  11   6  -5   -0.20    8.10
  11   6   5   12.40    9.50
  -6  11   5   28.00   11.40
 -11  -6   5   -0.80    9.70
  11   5  -5    0.60    8.40
  -5  11  -5   -1.50    5.50
 -11  -5   5    7.70    9.90
  -5  11   5   -0.60    8.50
  11   5   5    3.90    9.20
  11   4  -5  126.29   16.50
  -4  11  -5  139.79   11.10
  -4  11   5  137.39   14.70
 -11  -4   5  125.19   17.50
  11   4   5  133.09   16.60
  11   3  -5  161.28   18.30
  -3  11  -5  120.19    9.60
 -11  -3   5  114.29   17.70
  -3  11   5  155.38   14.00
  11   3   5  128.69   16.50
  11   2  -5   49.20   12.30
  -2  11  -5   49.30    5.50
  -2  11   5   48.10    8.90
  11   2   5   61.99   13.20
 -11  -2   5   52.39   13.50
  11   1  -5   55.39   12.90
  -1  11   5   58.09    8.30
 -11  -1   5   41.30   12.80
  11   1   5   26.90   10.30
 -11   0  -5  -15.70    8.90
  11   0  -5   10.00   10.60
 -11   0   5   18.70   11.20
  11   0   5    7.00    8.90
   0  11   5    2.20    5.30
 -11   1  -5   41.00   11.20
  11  -1  -5   25.60   11.80
 -11   1   5   44.80   13.80
 -11   1   5   28.00   11.50
   1  11   5   37.80    6.70
  11  -1   5   51.89   12.50
 -11   2  -5   52.29   12.50
  11  -2  -5   70.79   14.60
 -11   2   5   64.39   14.50
  11  -2   5   46.90   12.60
 -11   2   5   40.70   12.50
   2  11   5   53.49    7.10
 -11   3  -5  105.79   16.10
  11  -3  -5  153.18   18.60
 -11   3   5  102.09   17.00
 -11   3   5  124.69   18.20
  11  -3   5  117.39   15.60
   3  11   5  128.39   10.10
 -11   4  -5  124.49   18.20
  11  -4  -5  108.29   16.60
 -11   4   5  134.59   18.10
 -11   4   5  139.39   19.40
   4  11   5  126.99   10.30
 -11   5  -5   -2.60    9.40
 -11   5   5    6.40   11.00
 -11   5   5   11.10   10.90
   5  11   5   11.80    5.50
 -11   6  -5    6.30   10.20
 -11   6   5   12.00   11.90
   6  11   5   15.20    6.00
 -11   6   5   14.10   10.90
 -11   7  -5   13.70   10.60
 -11   7   5   -1.70   11.60
 -11   7   5   -3.40   10.30
   7  11   5   10.40    6.30
   8  11  -5   34.70    5.60
 -11   8  -5   45.40   13.90
   8  11   5   32.30    7.90
 -11   8   5   16.70   13.20
 -11   8   5   21.70   14.40
   9  11  -5   26.00    6.00
 -11   9  -5   13.10   11.30
   9  11   5   21.70    7.70
 -11   9   5   29.50   12.70
 -11   9   5   10.00   13.00
  10  11  -5   19.60    6.40
 -11  10  -5   -8.20   11.30
  10  11   5   -3.60    7.20
 -11  10   5   16.20   13.60
 -11  11  -5   86.59   17.90
  11  11  -5   67.09    9.30
  11  11   5   69.49   11.30
 -11  11   5   79.19   17.80
  12  10  -5   30.30    9.20
 -10  12  -5   27.30   12.80
 -10  12   5   32.80   14.70
  12  10   5   15.40   10.10
  12  10   5   28.10   10.00
  12   9  -5   52.29   10.80
  -9  12  -5   64.29   13.60
  12   9   5   52.29   12.20
  -9  12   5   57.89   16.30
  12   8  -5    3.40    8.80
  -8  12  -5    8.10    9.00
  12   8   5   13.90    9.80
  -8  12   5   10.60   12.90
  -7  12  -5    4.40    7.60
  12   7  -5  -11.00    8.20
 -12  -7   5   22.50   11.70
  12   7   5   -1.80    9.00
  -7  12   5   16.70   13.00
  -6  12  -5   50.89    9.10
  12   6  -5   52.99   12.10
 -12  -6   5   32.10   12.60
  -6  12   5   42.20   13.30
  12   6   5   51.79   12.90
  12   5  -5   54.39   12.10
  -5  12  -5   46.90    7.60
 -12  -5   5   40.20   12.80
  -5  12   5   36.70   12.40
  12   5   5   40.20   12.00
  -4  12  -5   25.80    5.70
  12   4  -5   26.50   11.40
  12   4   5   18.10   10.80
 -12  -4   5   30.20   12.20
  -4  12   5    8.70    9.30
  -3  12  -5  150.58   10.10
  12   3  -5  177.18   19.90
 -12  -3   5  156.28   20.10
  -3  12   5  174.28   15.70
  12   3   5  123.19   17.20
  12   2  -5   -7.00    9.00
  -2  12   5    1.00    7.30
 -12  -2   5   -1.70   10.50
  12   2   5    0.00    9.40
  12   1  -5    8.20   10.70
 -12  -1   5   10.60   10.80
  -1  12   5   -2.90    6.50
  12   1   5  -18.00    8.40
  12   0  -5    9.50   11.20
 -12   0  -5   -3.10    9.30
  12   0   5   -8.60    8.60
 -12   0   5   25.70   12.70
   0  12   5    4.70    6.00
  12  -1  -5    5.70   11.00
 -12   1  -5  -14.10    9.70
  12  -1   5   18.80   10.20
   1  12   5    6.50    5.30
 -12   1   5    0.10    9.90
 -12   2  -5   -9.50    8.90
  12  -2  -5   20.20   11.20
 -12   2   5   -7.50    9.80
  12  -2   5   -2.50    8.50
   2  12   5    3.00    4.70
 -12   2   5    0.10   10.10
 -12   3  -5  104.19   17.00
  12  -3  -5  166.78   20.30
   3  12   5  144.49   10.70
 -12   3   5  119.59   18.80
 -12   3   5  160.18   19.90
 -12   4  -5   44.80   13.80
   4  12   5   30.50    5.80
 -12   4   5   19.20   12.50
 -12   4   5   40.40   14.70
 -12   5  -5   50.99   13.60
 -12   5   5   64.19   16.20
 -12   5   5   56.59   14.50
   5  12   5   36.40    6.20
 -12   6  -5   41.70   13.80
 -12   6   5   55.69   15.40
   6  12   5   50.59    7.10
 -12   6   5   70.19   15.30
 -12   7  -5  -16.80    8.70
 -12   7   5   -2.20   11.10
   7  12   5    2.20    5.00
 -12   7   5   18.30   14.50
 -12   8  -5    1.10   11.40
 -12   8   5    9.70   12.00
 -12   8   5   -1.70   13.40
   8  12   5   10.50    6.10
 -12   9  -5   55.49   16.00
   9  12   5   69.39    9.50
 -12   9   5   91.89   18.50
 -12  10  -5    8.10   14.00
  10  12   5   27.60    7.80
 -12  10   5   19.90   14.70
  -8  13  -5   -5.30    8.10
  13   8  -5    4.20    8.40
  13   8   5   -2.60    9.20
  -8  13   5    8.90   13.30
  13   7  -5   24.30   10.70
  -7  13  -5   14.20    7.90
  13   7   5   25.40   11.40
  -7  13   5   22.10   12.70
  13   6  -5    7.90   10.40
  -6  13  -5   24.40    7.00
  -6  13   5   37.10   13.70
 -13  -6   5   13.70   11.90
  13   6   5    1.90   10.20
  13   5  -5   94.79   15.50
  -5  13  -5   79.69    8.70
 -13  -5   5   84.29   16.30
  13   5   5   74.09   14.80
  -5  13   5   73.49   14.20
  13   4  -5   16.00   10.90
  -4  13  -5    2.60    4.10
 -13  -4   5    4.40   11.30
  13   4   5   -5.50    9.50
  -4  13   5    3.60   10.50
  13   3  -5   10.40   10.90
 -13  -3   5   18.80   12.30
  13   3   5   18.30   10.80
  -3  13   5   11.50    9.70
  13   2  -5    2.60   10.30
  -2  13   5   -0.60    8.30
  13   2   5    9.50   10.30
 -13  -2   5    7.70   11.60
  13   1  -5  172.48   20.50
  13   1   5  195.28   21.70
 -13  -1   5  203.48   22.90
  -1  13   5  210.58   16.40
  13   0  -5   12.00   11.70
   0  13   5    1.00    6.50
 -13   0   5   15.10   11.90
  13   0   5   24.60   11.50
  13  -1  -5  211.78   22.10
 -13   1  -5  211.98   22.50
   1  13   5  169.98   13.00
  13  -1   5  196.18   21.40
 -13   1   5  186.28   21.70
  13  -2  -5   26.00   13.30
 -13   2  -5   18.00   11.70
  13  -2   5   24.90   11.40
 -13   2   5    8.00   11.40
 -13   2   5  -18.50    9.30
  13  -3  -5   43.60   14.10
 -13   3  -5   18.10   12.30
 -13   3   5   30.30   13.40
 -13   3   5   23.40   13.30
 -13   4  -5  -12.20    9.80
 -13   4   5   -8.70    9.80
 -13   4   5   15.00   12.00
 -13   5  -5   56.89   16.00
 -13   5   5   74.69   17.60
 -13   5   5   86.39   16.50
 -13   6  -5   57.39   15.60
 -13   6   5    4.60   13.40
 -13   6   5   14.20   12.30
 -13   7  -5   26.90   13.40
 -13   7   5    3.50   11.80
 -13   7   5   14.00   14.70
 -13   8  -5    8.10   12.30
 -13   8   5   -2.60   13.10
 -13   8   5   15.00   12.40
  14   7  -5    9.70    9.80
  -7  14  -5    9.50    6.80
  -7  14   5   -8.80   11.20
  14   7   5   13.20   11.00
  -6  14  -5  126.89   11.10
  14   6  -5  162.78   19.20
 -14  -6   5  170.28   21.50
  14   6   5  143.59   18.90
  -6  14   5  114.79   17.40
  14   5  -5   12.40   10.90
  14   5   5   18.80   11.80
 -14  -5   5   13.70   11.90
  -5  14   5   13.10   11.50
  14   4  -5   92.09   15.80
 -14  -4   5   36.50   13.50
  14   4   5   34.30   12.20
  -4  14   5   36.50   11.60
  14   3  -5   92.09   15.50
  -3  14   5   56.09   11.50
  14   3   5   49.99   13.80
 -14  -3   5   73.39   16.60
  14   2  -5   -4.40    9.90
  -2  14   5    0.30    8.00
 -14  -2   5  -11.60   10.40
  14   2   5   45.40   13.10
  14   1  -5    2.60   11.60
 -14  -1   5   21.30   12.20
  14   1   5   20.30   11.40
  14   0  -5   12.80   12.70
  14   0   5   -8.60    9.70
 -14   0   5   14.40   12.40
  14  -1  -5    0.80   11.70
  14  -1   5    0.20   10.50
 -14   1   5   -3.40   11.80
  14  -2  -5   27.30   13.50
 -14   2  -5   26.30   13.30
  14  -2   5   11.20   13.10
 -14   2   5   11.10   12.10
  14  -3  -5   34.20   15.40
 -14   3  -5   76.59   16.80
 -14   3   5   65.99   16.00
 -14   3   5   33.70   13.40
 -14   4  -5   36.30   14.30
 -14   4   5   51.79   15.30
 -14   4   5   49.00   14.80
 -14   5  -5   10.00   13.00
 -14   5   5   20.00   12.30
 -14   5   5   38.10   14.20
 -14   6  -5  131.99   20.90
 -14   6   5  122.49   21.10
 -14   6   5  117.69   19.70
 -14   7  -5   14.20   12.70
 -14   7   5  -16.40   11.80
  15   4  -5  -14.90    9.20
 -15  -4   5    5.30   11.90
  15   4   5  -18.00    9.20
  15   3  -5   43.10   13.60
 -15  -3   5   16.50   12.80
  15   3   5   37.40   13.60
  15   2  -5   44.40   15.00
  15   2   5   45.00   13.70
 -15  -2   5   63.09   16.60
  15   1  -5   -6.60   11.90
  15   1   5    5.00   10.80
 -15  -1   5    7.80   12.80
  15   0  -5   23.50   13.50
 -15   0   5   33.30   14.60
  15   0   5   41.40   13.00
  15  -1  -5   18.20   12.50
  15  -1   5    5.70   10.90
 -15   1   5    0.10   11.80
  15  -2  -5   44.30   16.10
 -15   2   5   76.39   17.10
 -15   3  -5   37.90   13.00
 -15   3   5   38.90   15.20
 -15   4  -5   -2.60    9.40
 -15   4   5    4.20   11.80
   0   0  -6  182.58   11.20
   0   0   6  180.48   11.20
   0   0   6  178.28   11.50
  -1   0  -6   -4.90    3.10
   0   1  -6   -4.70    2.90
   1   0  -6    2.60    3.70
   0  -1  -6    0.00    3.10
   1   0   6    1.80    3.30
   0   1   6    0.10    3.60
   0   1   6    3.50    3.90
  -1   0   6   -1.00    3.30
  -1   0   6   -4.50    3.50
   0  -1   6   -2.60    2.50
   1  -1  -6   18.50    4.20
  -1  -1  -6   11.40    3.70
  -1   1  -6   13.80    4.20
   1   1  -6   11.50    3.90
  -1  -1   6   11.40    4.40
  -1   1   6    9.40    4.00
  -1  -1   6   16.90    4.20
   1  -1   6    9.80    3.70
  -1   1   6   10.40    4.30
   1   1   6   17.20    4.70
   2   1  -6  209.58   12.60
  -2  -1  -6  231.78   13.30
  -1   2  -6  218.08   12.90
   1  -2  -6  218.98   13.00
   1  -2   6  219.48   12.60
  -1   2   6  190.28   12.50
   2   1   6  234.08   13.30
  -2  -1   6  229.68   13.00
  -2  -1   6  249.08   13.90
  -1   2   6  213.58   13.00
   2   0  -6  856.91   38.70
   0   2  -6  842.12   38.40
   0  -2  -6  876.41   38.70
  -2   0  -6  914.11   39.10
  -2   0   6  874.11   39.00
  -2   0   6  850.21   38.60
   2   0   6  805.02   38.40
   0   2   6  800.52   38.40
   0   2   6  848.82   38.40
   0  -2   6  889.41   38.30
   1   2  -6  228.28   12.60
  -1  -2  -6  227.18   13.20
  -2   1  -6  218.68   13.10
   2  -1  -6  220.78   13.10
   1   2   6  232.38   13.20
  -2   1   6  237.28   13.30
  -1  -2   6  187.68   11.90
  -1  -2   6  215.18   13.40
   2  -1   6  227.58   12.90
  -2   1   6  182.78   12.90
   1   2   6  230.98   12.90
  -2   2  -6  344.47   19.20
   2   2  -6  377.36   19.00
   2  -2  -6  393.96   19.60
  -2  -2  -6  381.06   19.40
   2  -2   6  375.16   19.00
  -2  -2   6  396.16   19.00
  -2  -2   6  383.26   19.90
   2   2   6  393.16   19.60
  -2   2   6  364.16   19.50
  -2   2   6  359.26   19.40
  -2   3  -6  208.78   12.60
   2  -3  -6  214.88   12.80
   3   2  -6  198.08   12.30
  -3  -2  -6  227.68   13.10
  -3  -2   6  196.58   12.10
   3   2   6  187.18   12.60
   2  -3   6  179.98   11.60
  -3  -2   6  196.78   13.50
  -2   3   6  190.98   12.50
  -2   3   6  191.68   12.70
   3   2   6  215.38   12.90
   1  -3  -6   17.90    4.50
  -1   3  -6   15.00    4.40
   3   1  -6   10.00    4.00
  -3  -1  -6   14.00    4.90
  -1   3   6   16.20    4.40
   3   1   6    8.20    4.20
  -1   3   6   12.40    4.10
  -3  -1   6    6.00    4.60
  -3  -1   6   13.70    4.00
   3   1   6   18.20    4.90
   1  -3   6   13.20    3.80
   0  -3  -6    3.70    3.20
   0   3  -6    2.60    3.40
  -3   0  -6   -1.00    3.60
   3   0  -6   -3.90    3.10
   0   3   6    2.00    3.90
   0  -3   6    3.20    2.80
   3   0   6   -4.70    3.50
  -3   0   6   -0.80    3.20
   0   3   6   -1.80    3.20
  -3   0   6   -6.30    3.70
   3   0   6    7.00    3.60
  -3   1  -6    8.80    3.90
  -1  -3  -6   12.70    4.20
   3  -1  -6   14.80    4.40
   1   3  -6    8.40    3.70
  -1  -3   6    9.40    3.30
  -3   1   6   13.10    4.50
   1   3   6   10.60    3.80
   3  -1   6   18.60    4.80
  -1  -3   6   15.50    4.40
   1   3   6   14.70    4.50
  -3   1   6   15.10    5.10
   2   3  -6  191.28   11.70
   3  -2  -6  197.28   12.60
  -3   2  -6  210.18   12.50
  -2  -3  -6  182.78   12.00
   3  -2   6  212.88   12.50
  -3   2   6  156.88   11.80
  -3   2   6  192.58   12.70
  -2  -3   6  205.28   13.00
   2   3   6  188.88   12.30
  -2  -3   6  200.88   11.40
   3  -3  -6  329.47   18.30
  -3   3  -6  337.37   18.20
   3   3  -6  342.87   17.50
  -3  -3  -6  340.67   18.10
  -3   3   6  317.67   18.20
   3   3   6  324.37   18.10
  -3   3   6  334.37   18.40
  -3  -3   6  347.27   17.50
   3  -3   6  326.07   17.50
  -3  -3   6  340.27   18.70
  -3   4  -6   22.00    5.40
  -4  -3  -6   17.30    5.40
   4   3  -6   25.60    5.20
   3  -4  -6   25.00    5.50
  -3   4   6   17.70    5.60
  -3   4   6   16.40    5.10
  -4  -3   6   21.00    5.90
  -4  -3   6   22.70    5.40
   3  -4   6   18.50    4.70
   4   3   6   25.40    5.80
   3  -4   6   20.70    4.50
   2  -4  -6  119.19    9.50
  -2   4  -6   96.39    8.50
   4   2  -6  101.39    8.70
  -4  -2  -6   85.29    8.70
  -4  -2   6  100.39    9.00
   4   2   6   91.29    9.20
  -2   4   6   99.39    9.10
  -2   4   6   97.99    8.80
  -4  -2   6  100.29    9.80
   2  -4   6  102.89    8.40
  -4  -1  -6 1108.49   48.50
   4   1  -6 1052.89   47.90
   1  -4  -6 1081.09   47.70
  -1   4  -6 1070.99   47.30
  -1   4   6 1073.09   47.10
   4   1   6 1078.69   48.20
  -4  -1   6 1109.69   48.10
  -1   4   6  969.70   47.60
  -4  -1   6 1084.29   48.70
   4   0  -6  269.37   15.70
   0   4  -6  281.07   15.20
   0  -4  -6  295.07   15.50
  -4   0  -6  296.07   16.70
   0   4   6  267.57   15.50
  -4   0   6  283.07   16.90
   0   4   6  282.77   14.80
  -4   0   6  283.07   16.20
   4   0   6  277.47   16.10
  -1  -4  -6 1102.29   47.10
   4  -1  -6 1050.09   47.70
   1   4  -6 1035.20   46.40
  -4   1  -6 1096.29   48.10
   1   4   6 1063.59   47.20
  -4   1   6  913.21   47.20
  -1  -4   6 1103.79   47.80
  -4   1   6 1101.79   48.30
   1   4   6 1034.40   45.90
   4  -1   6 1077.49   47.40
  -2  -4  -6  102.29    8.80
   4  -2  -6  112.79   10.10
  -4   2  -6   95.49    9.50
   2   4  -6   99.29    7.90
  -4   2   6  115.19   10.50
   2   4   6   92.69    7.70
   4  -2   6  102.99    9.10
   2   4   6  110.39    9.30
  -2  -4   6  106.09    9.80
  -4   2   6   85.49    8.90
   4  -3  -6   26.00    5.60
   3   4  -6   22.20    4.50
  -3  -4  -6   22.60    5.00
  -4   3  -6   18.10    5.90
  -4   3   6   31.10    6.60
   3   4   6   21.20    5.00
  -3  -4   6   26.80    5.90
   4  -3   6   24.70    5.30
  -4   3   6   26.40    5.70
  -4  -4  -6  345.27   19.00
   4   4  -6  336.97   18.10
   4  -4  -6  346.37   19.30
  -4   4  -6  349.27   19.40
  -4  -4   6  341.97   19.60
  -4   4   6  328.27   19.60
   4   4   6  345.37   19.30
   4   4   6  326.47   18.80
  -4   4   6  364.36   20.20
   4  -4   6  369.86   18.70
  -5  -4  -6   64.79    8.50
  -4   5  -6   63.99    8.40
   5   4  -6   72.39    7.80
   4  -5  -6   85.49    9.00
  -5  -4   6   69.19    8.90
  -4   5   6   77.99    9.70
  -4   5   6   62.49    8.90
   5   4   6   65.69    8.70
  -5  -3  -6  208.58   13.70
  -3   5  -6  187.28   12.60
   3  -5  -6  199.58   13.10
   5   3  -6  198.68   13.00
  -3   5   6  189.88   13.60
  -3   5   6  196.88   13.50
  -5  -3   6  176.68   12.70
   5   3   6  182.28   13.50
  -5  -3   6  213.88   14.30
   2  -5  -6   79.49    7.90
  -5  -2  -6   65.49    8.20
   5   2  -6   78.89    8.60
  -2   5  -6   64.49    7.10
  -5  -2   6   81.89    9.30
   5   2   6   84.59    8.80
  -2   5   6   73.79    7.70
  -5  -2   6   57.19    7.80
  -2   5   6   49.90    7.50
  -1   5  -6  125.89    9.30
  -5  -1  -6  123.69   11.10
   5   1  -6  108.69    9.90
   1  -5  -6  126.69    9.80
   5   1   6  101.89    9.80
  -5  -1   6  122.39   10.70
  -5  -1   6  107.99   10.80
  -1   5   6  128.69   10.10
  -1   5   6  121.99    9.30
   0   5  -6   -5.80    3.10
   0  -5  -6    0.00    3.70
   5   0  -6   -3.30    3.50
  -5   0  -6    1.20    4.40
  -5   0   6    5.50    5.00
   0   5   6    5.70    3.60
   0   5   6    3.20    4.50
   5   0   6    6.70    4.70
  -5   0   6   -0.10    4.60
  -5   1  -6  107.59   10.60
   1   5  -6  124.79    8.80
  -1  -5  -6  113.19    9.20
   5  -1  -6  132.29   11.10
  -5   1   6  100.99   10.90
  -5   1   6  105.79   10.40
   1   5   6  119.39   10.00
   5  -1   6  137.09   11.10
  -1  -5   6  132.19   10.90
   1   5   6  125.09    8.20
  -5   2  -6   65.29    8.50
   2   5  -6   67.09    6.60
  -2  -5  -6   66.09    7.10
   5  -2  -6   71.09    8.80
   5  -2   6   82.79    8.70
  -2  -5   6   66.09    7.80
   2   5   6   66.59    6.00
   2   5   6   51.29    7.00
  -5   2   6   63.09    8.40
  -5   2   6   74.19    9.50
   3   5  -6  197.68   12.20
   5  -3  -6  206.38   14.20
  -5   3  -6  201.48   14.20
   3   5   6  205.08   11.40
  -3  -5   6  216.48   13.80
  -5   3   6  183.48   14.80
   3   5   6  191.98   13.00
  -5   3   6  212.78   14.80
   5  -3   6  201.28   13.40
  -5   4  -6   67.49    8.90
   4   5  -6   69.89    7.40
   5  -4  -6   74.59    8.60
   5  -4   6   72.69    8.30
  -5   4   6   77.19    9.40
  -5   4   6   65.99    9.60
  -4  -5   6   51.59    7.90
   4   5   6   73.99    8.20
  -5   5  -6    7.60    5.50
   5  -5  -6   16.90    6.10
   5   5  -6   12.70    5.00
  -5   5   6   17.00    7.40
   5   5   6   10.70    5.60
   5   5   6    5.80    5.50
  -5   5   6   14.70    7.10
  -5  -5   6    9.30    5.90
  -5   6  -6    0.10    5.60
   6   5  -6    8.80    5.20
  -5   6   6   -3.50    7.20
  -5   6   6   -6.40    6.30
  -6  -5   6   10.00    6.20
   6   5   6   12.80    6.20
   6   4  -6  499.95   25.40
  -4   6  -6  440.46   24.80
  -4   6   6  507.85   27.10
   6   4   6  470.15   25.60
  -4   6   6  494.85   25.90
  -6  -4   6  469.75   26.00
   6   3  -6    8.50    5.40
  -6  -3  -6   -0.40    4.50
  -3   6  -6   -3.90    4.10
  -3   6   6   -0.80    4.90
  -3   6   6    4.60    5.90
   6   3   6    6.80    5.50
  -6  -3   6    4.40    5.70
   6   2  -6  481.25   24.50
  -2   6  -6  441.76   22.90
  -6  -2  -6  462.55   25.30
  -6  -2   6  471.95   24.50
   6   2   6  442.86   24.80
  -2   6   6  469.95   23.70
  -6  -2   6  468.15   25.60
  -2   6   6  460.05   24.10
   6   1  -6  285.87   17.70
  -6  -1  -6  319.17   18.80
  -1   6  -6  290.07   15.80
  -1   6   6  268.27   15.70
  -6  -1   6  321.77   19.10
  -6  -1   6  260.37   17.30
   6   1   6  314.37   18.50
  -1   6   6  296.57   16.90
  -6   0  -6   82.29    9.60
   6   0  -6   78.69    9.50
   0   6  -6   79.29    7.20
   0   6   6   79.59    7.00
   6   0   6   68.09    9.00
  -6   0   6   87.19   10.50
  -6   0   6   74.19    9.10
   0   6   6   79.19    8.50
  -6   1  -6  323.87   19.50
   1   6  -6  283.87   15.70
   6  -1  -6  292.97   18.10
   1   6   6  319.57   17.30
  -6   1   6  297.77   19.50
  -1  -6   6  303.37   17.60
  -6   1   6  311.37   18.60
   6  -1   6  301.47   18.50
   1   6   6  303.07   15.00
  -6   2  -6  444.96   24.50
   2   6  -6  425.06   21.10
   6  -2  -6  443.76   24.10
   6  -2   6  436.26   23.50
  -6   2   6  427.06   24.80
   2   6   6  426.76   20.10
  -6   2   6  459.65   24.50
  -2  -6   6  444.16   23.00
   2   6   6  445.56   22.60
   6  -3  -6   -4.10    5.10
   3   6  -6    6.80    3.90
  -6   3  -6   -6.00    5.70
  -6   3   6    8.90    6.50
   6  -3   6   10.60    5.40
   3   6   6   -1.20    4.70
  -3  -6   6    9.80    5.20
  -6   3   6    4.70    6.70
   6  -4  -6  492.15   26.00
  -6   4  -6  487.55   26.40
   4   6  -6  468.65   23.20
   6  -4   6  460.25   25.00
  -6   4   6  464.65   27.30
   4   6   6  445.76   24.30
  -4  -6   6  468.15   24.90
  -6   4   6  473.95   26.30
   5   6  -6    6.70    4.90
  -6   5  -6    2.30    6.60
   6  -5  -6   -7.20    5.00
  -6   5   6   -3.20    7.40
   5   6   6    0.20    5.00
  -6   5   6   -0.50    6.10
  -5  -6   6    4.60    5.50
   5   6   6    4.70    5.40
  -6   6  -6   14.20    7.50
   6   6  -6    2.00    5.10
   6   6   6    4.20    6.10
   6   6   6    3.30    5.60
  -6   6   6    8.00    6.50
  -6  -6   6   -0.10    5.40
  -6   6   6   26.60   10.00
   7   6  -6  138.89   12.80
  -6   7  -6  130.19   13.40
  -6   7   6  136.09   14.40
   7   6   6  138.49   13.40
  -7  -6   6  153.78   14.20
  -6   7   6  119.09   15.40
   7   5  -6    1.70    5.50
  -5   7  -6    8.10    5.90
   7   5   6  -11.60    5.30
  -7  -5   6   -0.10    6.10
  -5   7   6    4.00    7.00
  -5   7   6   -0.40    7.80
  -4   7  -6  408.26   21.50
   7   4  -6  377.66   22.10
   7   4   6  383.96   22.90
  -4   7   6  358.06   24.00
  -4   7   6  380.86   22.20
  -7  -4   6  367.96   23.30
   7   3  -6    4.60    6.10
  -7  -3  -6    8.00    6.90
  -3   7  -6   12.20    5.00
  -3   7   6   -3.10    6.40
  -7  -3   6    2.50    6.70
  -3   7   6   14.60    6.30
   7   3   6    1.00    6.50
  -2   7  -6  473.65   23.10
   7   2  -6  483.65   25.70
  -7  -2  -6  476.25   26.50
  -2   7   6  437.26   24.70
   7   2   6  478.65   26.40
  -2   7   6  452.15   24.50
  -7  -2   6  441.56   25.30
  -7  -2   6  478.85   26.60
  -1   7  -6   30.50    5.30
   7   1  -6   30.60    7.60
  -7  -1  -6   22.00    6.90
  -1   7   6   36.00    6.70
  -7  -1   6   34.60    8.40
   7   1   6   25.70    7.70
  -7  -1   6   30.90    6.60
  -1   7   6   19.00    6.20
  -7   0  -6   21.70    7.60
   7   0  -6   -0.20    5.90
   0   7  -6   -7.40    3.00
  -7   0   6    3.10    5.80
   7   0   6    6.90    6.50
   0   7   6    0.10    4.80
  -7   0   6    3.70    6.70
   1   7  -6   26.60    4.50
   7  -1  -6   49.00    8.70
  -7   1  -6   19.20    7.70
  -7   1   6   32.20    8.60
   7  -1   6   35.30    8.10
   1   7   6   25.30    5.90
  -7   1   6   11.30    6.60
  -1  -7   6   29.20    6.40
   2   7  -6  465.85   22.80
   7  -2  -6  505.25   26.90
  -7   2  -6  490.45   27.70
   7  -2   6  462.05   26.50
  -7   2   6  503.85   28.20
  -7   2   6  486.95   26.90
   2   7   6  477.35   24.40
  -2  -7   6  460.45   24.80
   7  -3  -6   10.90    6.70
  -7   3  -6   12.60    7.90
   3   7  -6    6.20    3.90
   7  -3   6   -4.00    6.10
  -7   3   6    5.70    5.80
  -7   3   6   12.90    7.90
   3   7   6    3.90    5.30
  -3  -7   6    0.20    4.90
   7  -4  -6  394.76   23.50
  -7   4  -6  370.36   23.90
   4   7  -6  371.36   19.60
  -7   4   6  393.76   24.10
   7  -4   6  391.16   23.30
  -7   4   6  389.56   25.40
  -4  -7   6  372.96   21.40
   4   7   6  369.76   20.70
   5   7  -6   -1.00    4.40
   7  -5  -6    2.40    6.30
  -7   5  -6    1.40    7.10
  -7   5   6    8.50    7.00
  -7   5   6    0.10    8.50
  -5  -7   6   -1.00    5.30
   5   7   6    8.60    6.00
   6   7  -6  147.09   12.10
  -7   6  -6  144.49   14.80
  -6  -7   6  147.49   13.30
   6   7   6  127.29   12.40
   6   7   6  136.99   12.70
  -7   6   6  159.18   17.50
  -7   6   6  144.59   15.00
  -7   7  -6   35.90    9.50
   7   7  -6   15.60    7.00
  -7  -7   6   34.70    8.40
  -7   7   6   25.40   11.00
   7   7   6   27.90    8.10
  -7   7   6   30.70    9.40
   7   7   6   25.90    7.70
   8   7  -6    0.70    7.10
  -7   8  -6    3.70    8.00
   8   7   6   17.40    8.00
  -7   8   6   18.50    9.00
  -8  -7   6   -0.50    7.10
  -7   8   6   -3.60    8.90
   8   6  -6  597.84   32.40
  -6   8  -6  617.14   32.60
  -8  -6   6  616.94   33.50
   8   6   6  598.24   33.00
  -6   8   6  614.74   33.80
  -6   8   6  619.44   35.30
  -5   8  -6   -5.10    5.30
   8   5  -6    6.40    6.30
  -8  -5   6  -13.70    5.90
  -5   8   6   -2.00    6.90
   8   5   6    4.30    6.70
  -5   8   6    2.80    7.80
  -4   8  -6   54.19    8.00
   8   4  -6   54.49    9.60
  -4   8   6   49.90    9.90
   8   4   6   67.29   10.90
  -4   8   6   70.09   10.00
  -8  -4   6   76.69   11.10
   8   3  -6   37.00    8.30
  -3   8  -6   25.00    5.90
  -8  -3   6   40.30    9.30
   8   3   6   47.60    9.50
  -3   8   6   24.10    7.10
  -8  -2  -6   21.80    8.30
  -2   8  -6    7.70    4.50
   8   2  -6   10.30    6.80
  -8  -2   6   21.00    8.30
   8   2   6    7.80    7.50
  -2   8   6   21.60    6.20
  -8  -1  -6   13.70    7.10
  -1   8  -6   21.10    5.00
   8   1  -6   13.30    7.00
  -8  -1   6   12.50    6.50
  -1   8   6    7.80    5.50
  -8  -1   6   14.70    8.30
   8   1   6   20.90    8.60
   0   8  -6  960.80   41.10
  -8   0  -6  970.00   46.80
   8   0  -6  969.60   45.70
  -8   0   6  734.93   44.30
   8   0   6  994.00   46.40
   0   8   6  954.00   43.00
  -8   0   6  916.31   46.30
   8  -1  -6   18.80    8.00
  -8   1  -6   13.60    7.40
   1   8  -6   16.40    4.10
   8  -1   6   12.10    7.60
   1   8   6   18.40    6.00
  -8   1   6   23.80    9.00
  -1  -8   6   28.10    6.40
  -8   1   6    5.00    6.90
   8  -2  -6    8.10    6.90
   2   8  -6   18.60    4.40
  -8   2  -6    9.80    8.60
  -2  -8   6   18.40    6.10
   2   8   6   13.20    5.50
  -8   2   6   21.80    9.20
  -8   2   6   12.80    7.30
   8  -2   6   22.70    8.10
   8  -3  -6   22.40    8.60
  -8   3  -6   31.70   10.00
   3   8  -6   34.30    5.20
  -8   3   6   40.00   10.90
  -8   3   6   24.70    9.10
  -3  -8   6   46.80    7.60
   8  -3   6   29.60    8.70
   3   8   6   49.20    7.30
   8  -4  -6   68.59   11.20
  -8   4  -6   42.90   10.10
   4   8  -6   46.60    6.30
   4   8   6   42.60    7.30
  -8   4   6   45.80   11.40
  -4  -8   6   70.29    8.90
  -8   4   6   51.59    9.70
  -8   5  -6    8.80    8.50
   5   8  -6    3.50    4.70
  -5  -8   6    2.80    5.40
   5   8   6   20.70    6.10
  -8   5   6    5.00    6.90
  -8   5   6   -5.00    8.70
   6   8  -6  606.24   30.60
  -8   6  -6  620.14   35.80
  -6  -8   6  624.04   32.30
   6   8   6  590.84   31.70
  -8   6   6  641.94   37.50
  -8   6   6  667.63   36.30
   7   8  -6    6.40    6.40
  -8   7  -6   14.80    9.60
   7   8   6    1.50    6.60
  -8   7   6    8.30    9.40
  -7  -8   6    8.60    6.80
  -8   7   6   -5.20    9.20
   7   8   6   13.50    7.30
   8   8  -6   88.79   11.90
  -8   8  -6  105.19   14.80
   8   8   6  105.59   12.80
  -8   8   6   82.39   14.70
   8   8   6  110.49   13.10
  -8   8   6  158.78   18.10
  -8  -8   6  117.79   13.30
   9   8  -6   15.20    8.30
  -8   9  -6    6.20    9.30
  -8   9   6    0.30    9.60
   9   8   6   -1.60    7.90
  -8   9   6   -0.90   10.40
  -9  -8   6   12.90    8.40
  -7   9  -6   16.30    8.90
   9   7  -6   23.20    9.10
  -9  -7   6    3.40    7.70
  -7   9   6   19.90   10.10
   9   7   6   10.10    8.60
  -6   9  -6  133.49   13.80
   9   6  -6  129.59   14.70
   9   6   6  110.89   14.00
  -6   9   6  133.39   15.20
  -9  -6   6  146.39   15.60
   9   5  -6   60.79   11.40
  -5   9  -6   73.79    9.50
   9   5   6   77.49   12.20
  -5   9   6   46.60   10.40
  -9  -5   6   73.69   11.80
  -4   9  -6  448.76   24.40
   9   4  -6  469.55   27.70
  -4   9   6  434.76   26.10
  -9  -4   6  485.45   28.70
   9   4   6  500.25   29.00
  -3   9  -6  143.19   11.20
   9   3  -6  145.39   15.00
   9   3   6  127.19   15.20
  -9  -3   6  152.58   16.40
  -3   9   6  150.78   13.20
   9   2  -6   73.59   11.60
  -9  -2  -6   78.99   13.10
  -2   9  -6   64.49    7.10
   9   2   6   70.59   12.10
  -9  -2   6   44.80   10.90
  -2   9   6   41.70    8.00
  -1   9  -6   68.59    7.00
  -9  -1  -6   88.79   12.80
   9   1  -6   75.89   11.70
  -1   9   6   79.39    9.30
   9   1   6   66.49   11.70
  -9  -1   6   67.09   12.20
   9   0  -6   13.30    7.80
   0   9  -6   -2.30    3.20
  -9   0  -6    3.00    8.60
  -9   0   6    3.30    8.30
   0   9   6    0.00    5.10
   9   0   6  -10.10    6.10
  -9   0   6   -0.90    6.80
   0  -9   6    0.10    5.10
  -9   1  -6   55.49   12.40
   9  -1  -6   92.19   12.90
   1   9  -6   80.99    6.70
  -9   1   6   75.69   12.70
   9  -1   6   55.99   10.50
   1   9   6   75.19    8.80
  -9   1   6   63.89   12.50
  -1  -9   6   70.79    9.00
   9  -2  -6   61.59   12.10
  -9   2  -6   39.00   11.20
   2   9  -6   54.59    5.70
  -2  -9   6   66.69    8.60
  -9   2   6   81.29   13.60
   9  -2   6   69.59   11.70
  -9   2   6   60.29   11.60
   2   9   6   71.49    8.50
   9  -3  -6  199.98   18.50
  -9   3  -6  151.38   17.10
   3   9  -6  143.09    9.90
   9  -3   6  170.18   17.00
  -3  -9   6  153.18   13.20
  -9   3   6  146.09   16.70
  -9   3   6  159.48   18.70
   3   9   6  164.38   12.70
   4   9  -6  474.25   22.50
   9  -4  -6  440.56   29.00
  -9   4  -6  439.16   29.30
  -9   4   6  446.86   31.10
  -4  -9   6  466.15   25.20
  -9   4   6  469.35   29.80
   4   9   6  473.25   24.50
   5   9  -6   67.09    7.50
  -9   5  -6   54.19   12.40
  -9   5   6   64.69   12.80
   5   9   6   63.19    8.70
  -9   5   6   73.29   14.20
  -5  -9   6   67.79    9.60
   6   9  -6  139.79   11.80
  -9   6  -6  141.99   17.80
  -9   6   6  146.69   18.50
  -9   6   6  140.09   17.80
  -6  -9   6  122.09   12.80
   6   9   6  120.49   12.00
  -9   7  -6   11.50   10.40
   7   9  -6    7.80    6.50
  -7  -9   6    4.60    6.90
   7   9   6   24.40    7.90
  -9   7   6    9.30   11.50
  -9   7   6   19.90    9.50
  -9   8  -6    9.00   10.30
   8   9  -6   18.80    7.70
  -9   8   6    3.50   10.10
   8   9   6    5.10    7.20
  -9   8   6    1.00   10.60
   9   9  -6   45.60    9.30
  -9   9  -6   40.10   12.10
  -9   9   6   60.59   13.50
   9   9   6   44.40    9.60
   9   9   6   20.80    9.20
  -9   9   6   39.50   13.30
  -9  10  -6   79.79   14.60
  10   9  -6  106.69   12.50
  -9  10   6  104.59   17.80
  10   9   6   87.29   13.00
  10   9   6  106.79   14.20
  -8  10  -6  156.58   17.90
  10   8  -6  175.38   17.10
 -10  -8   6  188.88   19.70
  -8  10   6  170.98   20.20
  10   8   6  175.58   17.90
  -7  10  -6  206.38   18.00
  10   7  -6  220.48   19.20
  -7  10   6  188.08   19.90
  10   7   6  161.98   17.40
 -10  -7   6  194.78   19.90
  -6  10  -6    0.40    6.80
  10   6  -6    7.20    8.70
  10   6   6   -0.20    8.20
  -6  10   6   -5.70    8.50
 -10  -6   6   -5.70    8.60
  -5  10  -6   46.60    8.40
  10   5  -6   35.50   10.40
  -5  10   6   58.59   10.90
  10   5   6   28.70   10.00
 -10  -5   6   69.99   13.50
  -4  10  -6   76.99    8.90
  10   4  -6   77.69   13.40
 -10  -4   6   58.29   13.00
  10   4   6   65.59   12.20
  -4  10   6   78.79   11.40
  -3  10  -6   41.90    6.70
  10   3  -6   28.80   10.50
  -3  10   6   44.00    8.60
 -10  -3   6   48.50   11.90
  10   3   6   47.90   11.60
  -2  10  -6  120.59    9.60
  10   2  -6  157.18   16.80
  10   2   6  115.09   15.70
 -10  -2   6  107.09   15.70
  -2  10   6  110.29   11.70
  10   1  -6  158.28   17.10
  -1  10  -6  171.38   10.60
 -10  -1  -6  156.08   18.10
  10   1   6  149.49   16.40
  -1  10   6  183.08   14.10
 -10  -1   6  168.98   18.90
   0  10  -6  109.09    8.10
 -10   0  -6  112.09   15.20
  10   0  -6  112.29   15.30
  10   0   6   99.79   14.80
 -10   0   6  102.49   15.50
   0  10   6  107.89   10.70
   0 -10   6  119.89   11.80
 -10   0   6  106.89   15.70
   1  10  -6  173.98    9.70
  10  -1  -6  188.18   19.30
 -10   1  -6  139.99   17.40
  10  -1   6  160.68   17.80
   1  10   6  159.88   12.70
 -10   1   6  174.98   18.60
  -1 -10   6  170.58   13.80
 -10   1   6  159.28   18.50
  10  -2  -6  154.88   18.20
 -10   2  -6  129.29   16.90
   2  10  -6  133.19    8.40
   2  10   6  157.08   12.20
 -10   2   6  126.89   16.60
 -10   2   6   96.49   16.60
  -2 -10   6  167.98   13.60
  10  -2   6  139.39   16.20
  10  -3  -6   44.80   12.30
 -10   3  -6   44.60   12.00
   3  10  -6   51.79    5.20
 -10   3   6   61.19   13.10
 -10   3   6   69.19   14.10
   3  10   6   38.40    7.50
  -3 -10   6   37.00    7.50
  10  -3   6   47.50   11.30
  10  -4  -6   88.89   14.40
 -10   4  -6   51.49   12.20
   4  10  -6   93.89    7.40
   4  10   6   72.99    9.00
 -10   4   6   65.59   14.70
  -4 -10   6   75.99    9.90
 -10   4   6   89.39   15.50
 -10   5  -6   51.59   13.20
   5  10  -6   50.69    6.80
 -10   5   6   48.40   13.20
   5  10   6   49.99    8.10
 -10   5   6   38.50   11.70
 -10   6  -6    0.40    9.90
   6  10  -6    1.50    5.30
 -10   6   6    0.30    9.60
   6  10   6    6.40    6.30
 -10   6   6    9.20   11.00
   7  10  -6  194.08   13.90
 -10   7  -6  174.78   21.10
 -10   7   6  194.58   21.60
 -10   7   6  164.48   20.60
   7  10   6  204.68   15.80
 -10   8  -6  166.98   19.80
   8  10  -6  182.88   14.10
   8  10   6  183.78   15.50
 -10   8   6  149.29   19.70
 -10   8   6  124.89   19.80
   9  10  -6  102.19   11.20
 -10   9  -6   78.19   16.30
 -10   9   6  106.39   17.20
   9  10   6  109.59   13.30
 -10   9   6  119.39   19.60
  10  10  -6   80.89   10.80
 -10  10  -6  104.39   17.30
  10  10   6   77.69   12.30
 -10  10   6   97.89   19.10
 -10  11  -6   12.70   11.70
  11  10  -6   -9.50    6.20
  11  10   6    3.60    8.70
 -10  11   6  -19.20   12.40
  -9  11  -6  184.98   20.30
  11   9  -6  189.98   16.80
  11   9   6  155.88   17.60
  11   9   6  150.98   17.70
  -9  11   6  197.58   23.40
  11   8  -6   -1.80    8.00
  -8  11  -6    7.60    9.20
  11   8   6   -3.90    9.00
  -8  11   6   18.00   12.30
  -7  11  -6    5.60    8.00
  11   7  -6    5.80    8.50
 -11  -7   6    7.90   11.00
  -7  11   6  -10.00   10.20
  11   7   6    6.00    8.90
  -6  11  -6   -0.70    6.50
  11   6  -6   -6.30    8.40
  -6  11   6    8.40    9.60
  11   6   6   10.30    9.90
 -11  -6   6    7.00   10.80
  -5  11  -6  332.37   19.90
  11   5  -6  293.47   25.20
  -5  11   6  325.57   24.10
  11   5   6  339.07   25.90
 -11  -5   6  339.97   26.70
  11   4  -6   28.60   11.60
  -4  11  -6   20.30    6.20
  11   4   6   46.20   12.90
 -11  -4   6   35.10   12.20
  -4  11   6   42.60   10.50
  -3  11  -6  306.87   17.60
  11   3  -6  344.17   25.90
  -3  11   6  325.07   21.80
 -11  -3   6  356.16   27.40
  11   3   6  310.37   26.60
  11   2  -6   31.90   12.00
  -2  11  -6   -0.70    3.80
  -2  11   6    1.00    6.40
  11   2   6    7.70   10.10
 -11  -2   6  -16.30    8.60
  11   1  -6   16.20   10.60
  -1  11  -6   22.50    4.10
  11   1   6    6.60    9.60
 -11  -1   6   10.60   10.90
   1 -11   6   12.20    6.80
  -1  11   6   14.10    7.00
  11   0  -6   -6.90   10.20
   0  11  -6    2.40    2.80
 -11   0  -6    2.00   10.30
 -11   0   6  -14.10    9.50
   0 -11   6    1.60    5.70
  11   0   6    0.80    9.00
   0  11   6    3.90    5.90
  11  -1  -6   23.00   11.90
 -11   1  -6    4.90    9.50
  11  -1   6   -0.80    8.60
 -11   1   6    4.70   10.50
 -11   1   6    9.20    9.90
   1  11   6    4.60    5.60
  11  -2  -6    1.60    9.70
 -11   2  -6   -2.70    9.00
 -11   2   6   -3.40    9.00
 -11   2   6   -1.20   10.40
  11  -2   6    3.80    9.00
   2  11   6   -3.80    5.20
  11  -3  -6  342.97   28.90
 -11   3  -6  253.57   25.20
   3  11   6  330.37   18.70
 -11   3   6  302.97   27.50
 -11   3   6  325.67   28.10
  11  -4  -6   57.29   13.20
 -11   4  -6   33.70   12.20
 -11   4   6   37.90   13.60
 -11   4   6   43.90   13.00
   4  11   6   16.00    6.50
 -11   5  -6  295.07   27.10
 -11   5   6  323.37   29.00
   5  11   6  366.36   20.40
 -11   5   6  384.86   31.60
 -11   6  -6   11.00   11.20
   6  11   6   -0.40    5.90
 -11   6   6   19.50   12.20
 -11   6   6    0.80   11.40
 -11   7  -6   24.30   12.30
   7  11  -6    5.30    4.50
 -11   7   6    7.60   13.00
 -11   7   6    3.20   11.40
   7  11   6    5.70    6.70
   8  11  -6    6.60    5.00
 -11   8  -6  -12.60   11.50
 -11   8   6    0.40   10.60
 -11   8   6    5.60   11.50
   8  11   6    3.50    6.80
 -11   9  -6  135.69   21.10
   9  11  -6  170.98   13.40
 -11   9   6  151.08   20.60
   9  11   6  146.39   14.60
 -11   9   6  177.58   23.90
  10  11  -6   12.00    6.60
 -11  10  -6   14.20   13.40
 -11  10   6    8.70   13.90
  10  11   6    7.70    7.80
  12   9  -6   56.59   11.40
  -9  12  -6   75.39   14.50
  -9  12   6   67.89   17.40
  12   9   6   52.09   12.40
  12   8  -6  120.49   15.20
  -8  12  -6  127.09   15.50
  -8  12   6   95.99   17.70
  12   8   6  106.19   15.90
  12   7  -6  285.07   23.70
  -7  12  -6  277.87   20.70
  12   7   6  233.58   22.80
  -7  12   6  265.07   25.30
 -12  -7   6  288.07   26.90
  12   6  -6    8.10    9.00
  -6  12  -6    3.80    6.70
 -12  -6   6   -8.30    9.80
  -6  12   6   -0.50   10.40
  12   6   6   -4.80    9.20
  -5  12  -6   41.10    7.70
  12   5  -6   42.10   12.20
 -12  -5   6   58.49   14.70
  12   5   6   45.90   12.60
  -5  12   6   51.99   12.30
  12   4  -6   44.20   12.80
  -4  12  -6   34.70    6.40
 -12  -4   6   46.80   14.40
  -4  12   6   23.80   10.20
  12   4   6   33.40   11.90
  12   3  -6   53.29   13.20
  -3  12  -6   75.69    7.30
 -12  -3   6   90.09   16.90
  12   3   6   49.40   13.30
  -3  12   6   73.59   11.40
  12   2  -6  206.88   22.30
  -2  12  -6  215.08   11.60
  12   2   6  186.18   20.90
 -12  -2   6  205.88   23.70
  -2  12   6  187.78   16.20
  12   1  -6  258.27   24.60
  12   1   6  199.68   21.10
  -1  12   6  235.98   17.20
 -12  -1   6  197.08   23.30
  12   0  -6   25.00   13.50
 -12   0   6    5.60   11.50
   0  12   6   17.10    7.00
  12   0   6   23.80   11.40
  12  -1  -6  249.58   25.30
 -12   1  -6  212.18   23.10
   1  12   6  245.98   15.90
  12  -1   6  197.78   21.30
 -12   1   6  228.38   24.60
 -12   2  -6  206.98   23.00
  12  -2  -6  164.38   21.40
 -12   2   6  136.39   20.80
  12  -2   6  215.68   21.90
   2  12   6  178.38   13.70
 -12   2   6  199.48   22.80
 -12   3  -6   72.09   15.50
  12  -3  -6   84.49   16.80
 -12   3   6   62.89   15.20
 -12   3   6   78.99   17.10
   3  12   6   65.59    8.10
 -12   4  -6   30.00   12.90
   4  12   6   34.50    7.00
 -12   4   6   40.10   15.00
 -12   4   6   31.20   13.30
 -12   5  -6   38.00   14.40
   5  12   6   48.90    7.50
 -12   5   6   23.10   12.70
 -12   5   6    5.70   11.20
 -12   6  -6    9.40   12.30
 -12   6   6  -14.90   12.60
   6  12   6    1.90    5.70
 -12   6   6   -6.20   11.00
 -12   7  -6  235.68   26.20
 -12   7   6  251.67   28.10
 -12   7   6  368.86   30.20
   7  12   6  267.07   17.30
 -12   8  -6  101.39   19.80
 -12   8   6  157.88   21.30
   8  12   6  122.39   11.80
 -12   8   6  147.89   22.00
 -12   9  -6   51.29   16.60
 -12   9   6   86.89   19.30
 -12   9   6   63.99   15.90
   9  12   6   60.59    9.80
  13   8  -6   46.50   11.80
  -8  13  -6   44.40   10.70
  13   8   6   33.10   12.20
  -8  13   6   70.99   16.50
  -7  13  -6    1.80    6.90
  13   7  -6    6.50    9.70
  13   7   6    6.70   10.20
  -7  13   6    1.30   12.10
  -6  13  -6   37.00    7.90
  13   6  -6   32.80   11.80
  13   6   6   47.30   13.00
  -6  13   6   44.50   14.10
 -13  -6   6   15.50   13.70
  -5  13  -6   90.19    9.40
  13   5  -6  113.99   16.10
  13   5   6   78.99   15.60
 -13  -5   6   78.99   16.70
  -5  13   6   71.39   14.60
  -4  13  -6   77.99    7.90
  13   4  -6   95.29   15.60
 -13  -4   6   94.19   17.70
  -4  13   6   74.89   13.60
  13   4   6  133.49   18.00
  13   3  -6   83.19   16.20
  -3  13   6   95.29   13.30
  13   3   6  114.69   17.40
 -13  -3   6  118.39   19.10
  13   2  -6   26.60   13.20
  -2  13   6    3.20    8.70
  13   2   6   17.40   10.70
 -13  -2   6   13.30   12.70
  13   1  -6   31.70   13.20
  13   1   6    2.50   10.60
 -13  -1   6   36.10   13.60
  -1  13   6   21.00    8.10
  13   0  -6    8.20   12.30
  13   0   6    7.50   10.40
   0  13   6    0.50    6.40
 -13   0   6   10.30   12.40
 -13   1  -6   21.30   12.20
  13  -1  -6   38.20   13.70
  13  -1   6   18.90   11.60
 -13   1   6   33.10   14.10
   1  13   6   26.30    7.10
  13  -2  -6   20.10   12.30
 -13   2  -6   41.20   14.30
   2  13   6   10.90    5.90
  13  -2   6   34.70   12.60
 -13   2   6   29.90   13.40
  13  -3  -6  110.19   18.70
 -13   3  -6  117.19   18.80
 -13   3   6   98.29   18.50
 -13   3   6   77.79   17.40
   3  13   6  101.39    9.20
 -13   4  -6   96.59   17.50
 -13   4   6   65.89   17.00
 -13   4   6   65.69   15.90
   4  13   6   79.39    8.20
 -13   5  -6   82.09   17.80
   5  13   6   55.39    7.20
 -13   5   6   65.79   17.20
 -13   5   6  104.79   18.30
 -13   6  -6   42.50   15.60
 -13   6   6   30.80   13.60
 -13   6   6   65.59   17.90
   6  13   6   22.80    7.10
 -13   7  -6   11.10   12.40
   7  13   6    7.30    8.00
 -13   7   6   -0.60   11.80
 -13   7   6   -9.50   13.10
 -13   8  -6   38.30   15.50
 -13   8   6    8.40   14.10
 -13   8   6   29.00   14.30
  14   6  -6  341.57   27.80
  -6  14  -6  359.86   20.80
 -14  -6   6  373.46   32.80
  14   6   6  414.36   30.30
  -6  14   6  403.26   30.50
  14   5  -6   -5.30   10.70
  -5  14   6    3.50   11.60
 -14  -5   6   -3.60   11.00
  14   5   6   13.30   11.00
  14   4  -6   19.50   12.60
  -4  14   6    7.10   11.30
  14   4   6   28.80   12.90
 -14  -4   6    4.20   11.80
  14   3  -6    7.70   11.00
  -3  14   6    8.00   10.10
  14   3   6   -7.20    9.70
 -14  -3   6  -14.10   10.60
  14   2  -6   38.50   13.20
 -14  -2   6   35.80   14.60
  14   2   6   32.80   13.10
  -2  14   6   28.90    9.90
  14   1  -6   87.09   16.40
 -14  -1   6   60.49   16.20
  14   1   6   87.39   16.20
  -1  14   6   48.10   10.10
  14   0  -6  470.45   33.80
 -14   0   6  464.85   34.20
  14   0   6  392.96   31.70
  14  -1  -6   75.99   16.70
 -14   1   6   77.59   17.10
  14  -1   6   46.30   13.80
 -14   2  -6   18.30   12.70
  14  -2  -6   22.60   12.80
 -14   2   6    7.60   11.90
 -14   3  -6    7.70   12.30
 -14   3   6   -7.40   12.30
 -14   4  -6   -7.80    9.80
 -14   4   6   -2.10   12.00
 -14   4   6    1.10   11.50
 -14   5  -6    0.80   12.00
 -14   5   6   14.30   12.50
 -14   5   6    3.00   12.70
 -14   6  -6  365.06   33.30
 -14   6   6  389.76   35.30
 -14   6   6  371.56   42.60
  15   3  -6    4.30   11.20
 -15  -3   6    0.90   12.50
  15   3   6  -14.40   10.10
  15   2  -6  124.49   19.30
  15   2   6  169.28   21.70
 -15  -2   6  146.89   21.40
  15   1  -6    0.60   11.80
  15   1   6   -7.70   10.50
 -15  -1   6    3.40   11.80
  15   0  -6   13.10   13.20
  15   0   6  -19.60   10.40
 -15   0   6   19.00   13.60
  15  -1  -6   -8.70   11.40
 -15   1   6   -6.30   13.30
  15  -1   6  -21.20    9.40
  15  -2  -6  140.39   21.40
 -15   3  -6    4.10   12.90
   0   0  -7    5.80    3.90
   0   0   7    7.70    4.30
   0   0   7    1.10    4.10
   0  -1  -7  417.56   20.50
  -1   0  -7  379.96   20.20
   1   0  -7  383.36   20.00
   0   1  -7  375.16   19.80
  -1   0   7  389.46   20.70
   0  -1   7  403.56   19.90
   0   1   7  391.66   20.20
  -1   0   7  350.76   19.70
   1   0   7  402.46   20.10
   0   1   7  369.16   20.00
   1  -1  -7   17.40    4.40
  -1   1  -7   10.30    4.70
  -1  -1  -7   16.70    4.50
   1   1  -7   18.00    4.50
   1  -1   7   17.80    4.50
  -1   1   7   18.40    4.70
  -1  -1   7    8.40    3.70
   1   1   7    9.80    4.20
  -1   1   7    2.90    4.20
  -1  -1   7   11.90    5.10
   2   1  -7  370.86   19.30
   1  -2  -7  360.66   19.40
  -1   2  -7  369.16   19.30
  -2  -1  -7  366.76   19.60
  -1   2   7  370.06   19.60
  -2  -1   7  354.36   19.10
  -2  -1   7  362.56   19.80
  -1   2   7  364.86   19.30
   2   1   7  351.46   19.30
   1  -2   7  358.06   18.90
   0   2  -7   -1.70    3.80
   0  -2  -7   -1.40    3.10
   2   0  -7   -2.00    3.90
  -2   0  -7    3.00    4.20
  -2   0   7   -0.60    4.00
   0   2   7   -1.20    4.00
  -2   0   7    2.70    3.70
   0   2   7   -3.20    3.80
   2   0   7    1.40    3.40
   0  -2   7   -1.00    2.90
   2  -1  -7  358.16   19.50
   1   2  -7  375.56   19.40
  -1  -2  -7  376.66   19.60
  -2   1  -7  384.06   19.90
  -1  -2   7  355.16   20.00
   1   2   7  353.66   19.10
   1   2   7  363.56   19.60
  -1  -2   7  375.06   19.00
  -2   1   7  360.16   19.40
   2  -1   7  347.17   19.10
  -2   1   7  390.96   20.10
  -2  -2  -7   91.09    8.60
   2   2  -7   63.29    7.40
   2  -2  -7   83.79    8.30
  -2   2  -7   79.49    8.10
  -2  -2   7   69.99    8.60
   2  -2   7   81.09    8.00
  -2   2   7   84.79    8.60
   2   2   7   92.39    8.60
  -2  -2   7   85.89    7.90
  -2   2   7   76.09    8.20
  -3  -2  -7  672.23   31.30
   3   2  -7  633.94   30.70
  -2   3  -7  660.73   31.10
   2  -3  -7  577.64   30.60
  -2   3   7  635.14   30.90
  -2   3   7  571.84   30.70
   3   2   7  683.03   31.30
  -3  -2   7  682.63   30.90
  -3  -2   7  654.73   31.70
   2  -3   7  669.63   30.50
  -1   3  -7  239.78   14.00
  -3  -1  -7  223.18   14.50
   1  -3  -7  241.88   14.50
   3   1  -7  237.98   14.30
   1  -3   7  242.08   13.60
  -3  -1   7  222.28   15.10
  -1   3   7  238.08   14.50
  -3  -1   7  246.98   14.40
  -1   3   7  218.18   13.90
   3   1   7  202.28   13.70
  -3   0  -7   11.30    5.10
   0  -3  -7   10.30    4.50
   3   0  -7    2.10    3.80
   0   3  -7    4.00    4.00
  -3   0   7    5.90    3.80
   3   0   7    8.80    4.50
  -3   0   7    1.80    4.80
   0   3   7    3.40    4.10
   0   3   7    0.90    3.90
   0  -3   7    3.70    3.20
  -3   1  -7  228.98   14.20
   3  -1  -7  200.08   13.70
  -1  -3  -7  242.38   14.10
   1   3  -7  212.48   13.70
  -1  -3   7  242.08   13.40
  -1  -3   7  222.48   14.50
   3  -1   7  224.08   14.10
  -3   1   7  252.27   15.10
   1   3   7  225.68   14.30
   3  -1   7  220.68   13.90
  -3   1   7  220.88   14.30
   1   3   7  224.08   13.60
   3  -2  -7  685.63   31.80
   2   3  -7  641.84   30.50
  -2  -3  -7  633.34   31.10
  -3   2  -7  635.54   31.40
   3  -2   7  655.13   31.10
   2   3   7  627.94   31.00
  -2  -3   7  663.83   30.50
  -3   2   7  635.14   31.50
  -2  -3   7  666.53   31.80
   3  -2   7  625.14   30.80
  -3   2   7  679.53   31.90
  -3  -3  -7   99.49    9.40
  -3   3  -7   92.99    9.40
   3  -3  -7   88.39    9.20
   3   3  -7   92.79    8.50
   3  -3   7  103.89    9.00
  -3   3   7   85.89    9.20
  -3   3   7   96.89    9.70
   3   3   7   81.99    9.10
  -3  -3   7   80.29    9.50
  -3  -3   7  105.09    8.80
   3  -4  -7   46.50    7.00
   4   3  -7   59.39    7.40
  -3   4  -7   44.50    6.90
  -4  -3  -7   42.80    7.20
   3  -4   7   43.50    6.40
  -4  -3   7   46.70    7.50
  -3   4   7   48.70    7.70
  -3   4   7   50.79    7.60
   4   3   7   41.00    6.80
   4   3   7   45.70    7.20
  -4  -3   7   46.00    7.70
  -2   4  -7  215.58   13.80
  -4  -2  -7  202.88   14.20
   4   2  -7  207.78   14.10
   2  -4  -7  212.58   13.90
  -4  -2   7  223.18   13.90
   4   2   7  247.48   14.80
  -4  -2   7  221.58   15.00
  -2   4   7  220.28   14.60
   2  -4   7  205.38   12.90
   4   2   7  231.28   14.70
  -2   4   7  213.38   13.90
   4   1  -7  306.87   17.60
  -4  -1  -7  320.77   18.20
   1  -4  -7  309.57   17.40
  -1   4  -7  304.77   17.20
  -1   4   7  324.07   18.10
  -4  -1   7  302.27   18.40
   4   1   7  288.07   17.40
   1  -4   7  317.87   16.60
  -1   4   7  296.47   16.90
   4   1   7  301.17   17.90
  -4  -1   7  314.97   17.70
   0  -4  -7   -0.10    4.00
  -4   0  -7   -1.30    4.60
   4   0  -7   -7.10    4.00
   0   4  -7    3.90    3.70
   4   0   7   -1.70    4.00
   0  -4   7    1.40    3.50
   0   4   7    1.80    3.80
  -4   0   7    2.20    4.50
  -4   0   7    0.20    4.80
   0   4   7    3.90    4.20
  -1  -4  -7  289.37   16.90
   1   4  -7  302.27   16.70
  -4   1  -7  296.67   17.80
   4  -1  -7  319.47   18.00
   4  -1   7  294.27   17.50
   1   4   7  287.57   16.10
  -4   1   7  291.37   18.10
  -1  -4   7  329.67   18.20
   1   4   7  315.77   17.60
  -4   1   7  314.47   17.90
  -4   2  -7  204.38   14.60
   4  -2  -7  229.08   14.30
   2   4  -7  206.08   13.10
  -2  -4  -7  177.98   13.10
  -2  -4   7  214.78   14.60
   2   4   7  224.48   13.00
  -4   2   7  231.58   15.10
   2   4   7  238.18   14.30
  -4   2   7  237.68   15.00
   4  -2   7  223.88   14.20
   3   4  -7   42.00    6.40
   4  -3  -7   37.30    6.50
  -4   3  -7   39.50    6.90
  -3  -4  -7   45.30    6.60
  -3  -4   7   40.60    7.40
   4  -3   7   35.10    6.40
  -4   3   7   28.40    6.80
   3   4   7   33.90    6.30
  -4   3   7   52.09    8.10
   4   4  -7  144.89   11.40
  -4  -4  -7  142.09   12.20
   4  -4  -7  126.39   12.10
  -4   4  -7  165.28   12.60
   4   4   7  159.88   12.70
   4  -4   7  139.29   11.80
   4  -4   7  166.28   11.60
  -4  -4   7  147.39   12.80
  -4   4   7  167.18   13.40
  -4   4   7  169.88   13.80
   5   4  -7    1.20    4.70
  -4   5  -7   -5.80    4.70
   4  -5  -7    1.20    5.20
   5   4   7   -2.40    5.40
   5   4   7   -4.10    5.10
  -5  -4   7   -3.30    5.10
  -4   5   7    6.00    6.10
  -4   5   7    0.30    5.00
   3  -5  -7   44.10    7.20
   5   3  -7   37.80    6.60
  -5  -3  -7   43.20    7.60
  -3   5  -7   53.89    7.10
   5   3   7   50.69    7.90
  -3   5   7   52.69    8.00
  -3   5   7   36.00    7.50
  -5  -3   7   46.30    8.20
   2  -5  -7  244.48   15.40
  -5  -2  -7  269.57   16.60
  -2   5  -7  259.87   15.30
   5   2  -7  253.07   15.70
  -5  -2   7  234.88   15.50
  -2   5   7  252.47   16.30
  -2   5   7  251.57   15.40
   5   2   7  244.48   16.40
  -5  -2   7  226.78   16.40
   1  -5  -7  451.55   23.90
  -1   5  -7  496.85   23.70
   5   1  -7  491.25   24.90
  -5  -1  -7  486.45   25.40
   5   1   7  474.45   25.10
  -1   5   7  441.16   24.30
  -5  -1   7  465.65   24.80
  -1   5   7  460.25   23.30
  -5  -1   7  459.15   25.40
   5   0  -7  501.05   25.60
  -5   0  -7  478.25   25.80
   0   5  -7  470.85   23.80
   0  -5  -7  456.85   24.10
  -5   0   7  510.85   26.30
   0   5   7  492.35   23.60
   5   0   7  471.45   25.40
   0   5   7  500.95   25.20
  -5   0   7  471.45   25.30
  -1  -5  -7  480.25   25.10
   5  -1  -7  491.65   25.60
   1   5  -7  481.35   23.80
  -5   1  -7  495.95   26.00
   1   5   7  481.25   23.20
  -1  -5   7  504.05   25.40
   1   5   7  485.55   24.80
   5  -1   7  437.86   24.90
  -5   1   7  490.75   26.50
  -5   1   7  473.65   25.70
   5  -2  -7  249.78   16.10
   2   5  -7  227.48   14.00
  -5   2  -7  253.27   16.10
  -2  -5   7  242.88   15.60
  -5   2   7  235.58   16.20
   2   5   7  230.08   13.40
   5  -2   7  234.78   15.60
  -5   2   7  259.57   17.00
   2   5   7  240.88   15.60
   3   5  -7   52.59    6.70
  -5   3  -7   47.80    8.30
   5  -3  -7   51.29    8.40
   5  -3   7   41.80    7.30
  -5   3   7   45.90    8.60
  -3  -5   7   45.00    7.70
  -5   3   7   28.60    7.70
   3   5   7   43.50    5.80
   3   5   7   50.59    7.60
  -5   4  -7    4.10    5.30
   5  -4  -7   -0.90    4.70
   4   5  -7   -0.30    4.00
   5  -4   7   -5.80    5.50
  -5   4   7   -6.90    5.90
   4   5   7   -2.90    5.30
  -4  -5   7   -1.10    5.30
  -5   4   7    2.10    5.30
  -5   5  -7   19.80    6.90
   5   5  -7   19.80    5.70
   5  -5  -7   15.70    6.30
   5   5   7   18.50    6.50
  -5  -5   7   22.10    6.90
   5   5   7   14.70    6.50
  -5   5   7   23.50    7.20
  -5   5   7   13.30    7.40
  -5   6  -7  206.48   15.70
   6   5  -7  231.08   15.40
  -5   6   7  199.58   17.90
  -5   6   7  212.58   16.90
   6   5   7  213.28   16.10
   6   5   7  214.48   16.10
  -6  -5   7  237.58   16.70
   6   4  -7   10.00    5.90
  -4   6  -7   -2.60    5.10
  -4   6   7   -7.10    5.80
  -6  -4   7    0.10    5.80
   6   4   7    2.10    6.00
  -4   6   7  -10.60    6.10
   6   3  -7  124.79   11.70
  -6  -3  -7  135.99   12.70
  -3   6  -7  116.69   10.70
  -3   6   7  132.69   12.20
   6   3   7  158.68   13.40
  -6  -3   7  154.38   13.70
  -3   6   7  145.59   12.90
  -2   6  -7  413.16   20.70
   6   2  -7  353.06   21.50
  -6  -2  -7  375.76   22.20
  -2   6   7  390.06   21.70
   6   2   7  375.06   21.80
  -6  -2   7  360.06   21.40
  -2   6   7  402.66   20.90
  -6  -2   7  379.56   22.70
  -6  -1  -7  228.68   16.20
   6   1  -7  208.88   15.10
  -1   6  -7  200.48   13.30
  -6  -1   7  199.28   14.80
  -6  -1   7  201.58   16.00
   6   1   7  223.48   15.40
  -1   6   7  211.98   13.40
  -1   6   7  218.98   14.60
   0   6  -7   -3.10    3.80
   6   0  -7   -2.30    5.70
  -6   0  -7    9.20    6.40
  -6   0   7    3.10    6.30
   0   6   7   -5.40    4.70
   0   6   7   -6.00    3.60
  -6   0   7   -1.60    5.00
   6   0   7    2.20    5.40
   1   6  -7  226.28   13.20
  -6   1  -7  215.28   16.50
   6  -1  -7  224.38   15.70
  -1  -6   7  215.08   14.90
   1   6   7  208.58   14.20
   6  -1   7  228.68   15.40
  -6   1   7  219.38   15.90
   1   6   7  222.08   12.50
  -6   1   7  205.88   16.70
   2   6  -7  385.26   20.00
   6  -2  -7  416.16   23.10
  -6   2  -7  379.06   23.00
  -2  -6   7  401.26   22.00
  -6   2   7  345.07   22.10
   2   6   7  418.36   21.60
  -6   2   7  399.96   24.10
   6  -2   7  400.06   22.00
  -6   3  -7  135.39   13.40
   3   6  -7  131.69   10.20
   6  -3  -7  125.79   12.60
  -3  -6   7  126.19   11.90
  -6   3   7  133.89   13.20
  -6   3   7  171.88   14.90
   3   6   7  122.69   11.00
   6  -3   7  132.99   12.10
   6  -4  -7    7.00    6.20
   4   6  -7    1.20    4.40
  -6   4  -7    6.10    6.50
  -4  -6   7    2.20    5.60
  -6   4   7    1.80    7.30
  -6   4   7    7.60    6.00
   4   6   7   10.50    5.40
  -6   5  -7  219.78   17.10
   5   6  -7  231.68   14.80
   6  -5  -7  209.68   16.30
  -6   5   7  242.98   19.90
   5   6   7  215.88   15.50
  -5  -6   7  195.48   15.60
  -6   5   7  250.87   17.90
   6   6  -7  354.66   21.30
  -6   6  -7  381.26   23.40
  -6   6   7  369.76   23.80
  -6   6   7  374.06   25.90
   6   6   7  396.66   23.00
  -6  -6   7  391.56   22.90
   6   6   7  399.56   22.60
   7   6  -7   63.39    9.10
  -6   7  -7   50.59    9.90
   7   6   7   52.89    9.30
  -6   7   7   66.19   12.60
  -6   7   7   30.20    9.60
  -7  -6   7   44.80    9.40
   7   6   7   51.59    9.60
   7   5  -7   80.89   10.20
  -5   7  -7  100.09   11.10
  -5   7   7   88.09   11.50
  -7  -5   7   96.49   12.20
   7   5   7   85.89   11.50
  -5   7   7  119.69   14.30
  -4   7  -7    3.70    5.60
   7   4  -7    3.90    6.10
  -4   7   7   -0.50    6.50
  -7  -4   7   13.30    7.10
  -4   7   7    2.80    7.50
   7   4   7   10.20    6.90
  -7  -3  -7   14.50   10.80
   7   3  -7   32.30    7.30
  -3   7  -7   22.90    6.10
  -3   7   7   27.40    7.50
  -3   7   7   11.70    7.10
   7   3   7   25.80    7.80
  -7  -3   7   22.60    7.70
   7   2  -7  917.51   42.00
  -2   7  -7  873.71   39.60
  -7  -2  -7  824.32   42.40
  -2   7   7  827.62   40.40
   7   2   7  831.12   41.90
  -2   7   7  867.21   40.80
  -7  -2   7  836.22   42.80
  -1   7  -7   36.90    6.00
   7   1  -7   22.40    7.40
  -7  -1  -7   32.80    8.20
  -7  -1   7   33.40    8.90
  -7  -1   7   31.20    7.90
  -1   7   7   31.40    7.30
   7   1   7   22.10    7.60
  -7   0  -7   -0.10    5.80
   0   7  -7    3.30    4.00
   7   0  -7   17.00    7.10
   0   7   7   -0.20    5.30
  -7   0   7  -11.30    6.30
   7   0   7    5.50    6.40
  -7   0   7   -2.00    5.80
   0  -7   7    1.10    5.30
  -7   1  -7   29.10    8.00
   1   7  -7   27.60    5.20
   7  -1  -7   33.10    8.50
   7  -1   7   41.60    8.40
  -1  -7   7   28.90    7.00
   1   7   7   35.30    7.10
  -7   1   7   34.90    9.10
  -7   1   7   32.70    8.10
   7  -2  -7  961.80   44.90
   2   7  -7  942.91   41.10
  -7   2  -7  919.71   45.40
  -7   2   7  941.11   44.90
  -2  -7   7  887.11   43.00
   7  -2   7  901.91   44.20
   2   7   7  883.31   42.50
  -7   2   7  840.12   45.40
   7  -3  -7   30.60    8.20
  -7   3  -7   32.80    8.90
   3   7  -7   28.90    5.50
   7  -3   7   33.80    7.60
  -7   3   7   30.00    9.40
  -7   3   7   20.20    7.60
  -3  -7   7   18.80    6.40
   3   7   7   31.80    7.10
   7  -4  -7   -8.70    6.20
  -7   4  -7    5.90    6.80
   4   7  -7    3.60    4.60
  -7   4   7   12.10    6.80
  -4  -7   7    9.20    6.10
  -7   4   7   -5.10    7.60
   4   7   7    1.90    5.80
  -7   5  -7   76.69   11.80
   5   7  -7   89.19    9.30
  -7   5   7   93.69   13.00
   5   7   7   84.69   10.20
  -5  -7   7  103.39   11.20
  -7   5   7   82.49   13.50
   6   7  -7   54.69    8.10
  -7   6  -7   47.90   10.50
  -7   6   7   53.49   12.40
   6   7   7   50.49    8.90
  -6  -7   7   50.19    9.00
  -7   6   7   47.50   10.70
   7   7  -7   17.60    6.80
  -7   7  -7   26.10    8.30
  -7  -7   7   21.30    7.90
   7   7   7   14.40    7.70
   7   7   7   17.30    7.30
  -7   7   7   10.40    8.80
  -7   7   7   19.30   10.10
   8   7  -7   25.40    8.50
  -7   8  -7   16.90    8.40
  -7   8   7   28.40    9.50
  -7   8   7   10.20   10.10
   8   7   7   27.80    9.30
   8   7   7   25.30    8.60
  -8  -7   7   18.60    8.50
  -6   8  -7    4.50    6.90
   8   6  -7  -10.80    6.40
  -6   8   7   20.30    9.40
   8   6   7    0.90    7.40
  -6   8   7   14.70    8.80
  -8  -6   7    8.40    7.70
   8   5  -7   12.50    7.40
  -5   8  -7   11.90    6.30
  -5   8   7   -5.90    7.20
  -5   8   7    6.10    8.60
  -8  -5   7   -3.90    6.90
   8   5   7    0.20    7.30
   8   4  -7   95.29   12.10
  -4   8  -7  104.19   10.80
   8   4   7  121.99   13.50
  -4   8   7  119.79   12.70
  -8  -4   7  111.79   13.60
  -3   8  -7   66.19    8.40
   8   3  -7   81.99   11.30
  -3   8   7   84.59   10.50
   8   3   7   56.09   10.50
  -8  -3   7   80.99   11.70
  -2   8  -7    8.10    5.00
   8   2  -7   23.90    8.00
  -8  -2  -7   14.40    8.20
  -2   8   7   18.40    6.90
  -8  -2   7   12.40    8.40
   8   2   7   10.10    7.70
  -8  -1  -7    7.80    8.40
  -1   8  -7   19.00    5.10
   8   1  -7   30.20    7.90
  -8  -1   7   14.20    8.40
  -1   8   7   20.90    6.90
  -8  -1   7   23.60    9.20
   8   1   7   11.40    8.00
   0   8  -7    3.10    4.10
  -8   0  -7    5.90    6.90
   8   0  -7   -9.40    6.50
   8   0   7    7.40    7.20
   0   8   7   -3.40    5.20
  -8   0   7    6.00    7.80
  -8   0   7   -3.80    6.70
   0  -8   7   -1.60    5.10
   8  -1  -7   16.50    8.20
  -8   1  -7   23.40    8.20
   1   8  -7   24.80    5.00
  -8   1   7   22.40    8.30
  -8   1   7   19.40    9.10
   8  -1   7   21.30    7.60
  -1  -8   7   10.10    6.00
   1   8   7   31.10    6.90
  -8   2  -7   16.50    7.70
   8  -2  -7   10.20    7.30
   2   8  -7   16.10    4.90
   8  -2   7   13.80    7.40
  -8   2   7    4.80    8.60
  -8   2   7   26.90    8.50
  -2  -8   7   13.50    6.00
   2   8   7    4.90    5.80
   8  -3  -7   78.69   12.00
  -8   3  -7   70.59   12.60
   3   8  -7   62.89    7.30
  -8   3   7   58.99   12.40
   3   8   7   70.99    9.10
  -3  -8   7   80.69    9.70
   8  -3   7   87.89   11.90
  -8   3   7   79.69   11.60
  -8   4  -7  132.39   15.40
   8  -4  -7  149.39   15.40
   4   8  -7  127.69   10.40
  -4  -8   7  112.99   12.00
   4   8   7  117.09   11.70
  -8   4   7  146.59   15.40
  -8   4   7  102.19   15.60
   5   8  -7    6.40    5.20
  -8   5  -7    0.30    8.50
   5   8   7   -3.00    6.00
  -8   5   7  -12.00    9.20
  -8   5   7    4.70    8.30
  -5  -8   7    6.00    6.10
   6   8  -7    5.20    5.70
  -8   6  -7   -2.30    7.40
  -6  -8   7   14.40    7.10
  -8   6   7   15.90    9.10
  -8   6   7    6.60   10.40
   6   8   7    5.50    6.70
  -8   7  -7   25.80    9.30
   7   8  -7   38.90    8.20
  -8   7   7   28.20   11.10
  -8   7   7    9.90   10.80
  -7  -8   7   40.10    9.00
   7   8   7   43.00    9.40
   8   8  -7   98.99   12.50
  -8   8  -7  125.39   15.10
  -8  -8   7  104.69   13.60
   8   8   7  114.19   13.60
  -8   8   7  107.19   16.60
  -8   8   7  103.79   16.10
   9   8  -7  182.78   17.60
  -8   9  -7  237.88   20.90
  -8   9   7  198.28   21.20
   9   8   7  184.98   17.90
  -9  -8   7  201.88   19.30
   9   8   7  202.18   18.60
  -7   9  -7  114.39   14.20
   9   7  -7   96.39   13.30
  -9  -7   7  110.79   14.20
   9   7   7   51.49   11.40
  -7   9   7   95.99   14.30
  -6   9  -7   80.59   11.40
   9   6  -7   76.59   12.30
  -9  -6   7   77.49   12.80
  -6   9   7   78.39   12.70
   9   6   7   73.19   12.60
   9   5  -7  102.79   13.60
  -5   9  -7  112.99   11.80
  -5   9   7   87.29   12.30
   9   5   7  109.59   13.80
  -9  -5   7  117.99   14.80
  -4   9  -7   -0.90    5.50
   9   4  -7    3.60    7.20
   9   4   7    0.10    7.80
  -9  -4   7  -10.20    6.90
  -4   9   7    2.90    7.30
  -3   9  -7   95.49    9.70
   9   3  -7  101.19   13.10
   9   3   7  104.79   13.60
  -9  -3   7  109.29   13.90
  -3   9   7   80.29   10.80
   9   2  -7   99.39   12.80
  -2   9  -7   87.99    8.80
  -9  -2   7   79.69   13.20
  -2   9   7   89.29   10.90
   9   2   7   76.59   12.00
   9   1  -7   20.30    8.40
  -1   9  -7   11.40    4.70
  -9  -1  -7    3.40    8.60
  -1   9   7   13.50    6.60
  -9  -1   7   14.00    9.10
   9   1   7    7.80    8.60
  -9   0  -7  376.56   25.00
   0   9  -7  348.07   18.10
   9   0  -7  349.37   23.60
  -9   0   7  334.37   24.70
  -9   0   7  317.37   23.10
   9   0   7  343.27   24.20
   0  -9   7  368.66   21.20
   0   9   7  322.47   20.70
  -9   1  -7    0.30    8.30
   1   9  -7   13.40    4.50
   9  -1  -7   17.30    9.30
  -9   1   7    3.10    8.20
  -9   1   7   19.50    7.60
  -1  -9   7    5.30    5.80
   1   9   7   13.10    6.50
   9  -1   7   12.10    8.80
  -9   2  -7   91.59   14.20
   2   9  -7   91.09    8.20
   9  -2  -7   98.19   13.00
   9  -2   7  116.39   14.20
  -9   2   7   76.99   14.20
  -9   2   7   99.09   13.90
   2   9   7   79.49   10.00
  -2  -9   7   96.39   10.70
   3   9  -7  113.09    8.80
  -9   3  -7   76.09   13.30
   9  -3  -7   92.89   13.00
  -3  -9   7   96.49   10.70
   9  -3   7  115.09   14.80
  -9   3   7  120.19   16.80
   3   9   7   80.09    9.70
  -9   3   7  107.09   14.70
   4   9  -7   -5.60    4.10
   9  -4  -7   -7.30    8.00
  -9   4  -7    0.10    9.40
   4   9   7    0.80    5.60
  -9   4   7   -2.10    6.80
  -9   4   7   -6.10   10.10
  -4  -9   7    7.40    6.00
  -9   5  -7   99.69   15.00
   5   9  -7  100.69    9.50
  -5  -9   7  131.79   12.70
  -9   5   7   89.79   16.30
  -9   5   7   94.29   15.40
   5   9   7  108.39   11.50
  -9   6  -7   87.79   14.90
   6   9  -7   83.69    9.50
  -9   6   7   79.89   14.40
  -6  -9   7   83.39   11.20
  -9   6   7   74.79   15.40
   6   9   7   93.69   11.30
  -9   7  -7  111.49   15.80
   7   9  -7   80.29   10.60
  -9   7   7   90.69   15.70
  -9   7   7  102.89   16.30
   7   9   7   82.09   11.60
  -7  -9   7   90.39   12.40
   8   9  -7  217.38   17.30
  -9   8  -7  179.68   20.30
  -9   8   7  206.98   21.90
  -9   8   7  219.88   22.90
   8   9   7  197.98   17.80
  -8  -9   7  230.78   19.80
   9   9  -7    7.50    8.20
  -9   9  -7   26.30   12.00
   9   9   7    6.00    8.80
  -9   9   7   20.10   13.20
  -9  10  -7   -8.30    9.00
  10   9  -7   11.60    7.90
  10   9   7   -2.70    8.90
  -9  10   7  -17.40   10.90
  10   8  -7   10.40    9.00
  -8  10  -7   -6.60    8.50
  -8  10   7   -6.10   10.30
  10   8   7   -3.10    8.70
 -10  -8   7    7.90    9.60
  10   8   7    1.80    9.00
  10   7  -7  122.59   15.60
  -7  10  -7  109.89   14.40
  -7  10   7  117.19   16.20
 -10  -7   7  133.79   16.40
  10   7   7  127.69   16.00
  10   6  -7   42.80   11.60
  -6  10  -7   37.20    9.10
  10   6   7   38.40   11.30
 -10  -6   7   53.39   12.00
  -6  10   7   64.59   12.00
  10   5  -7  490.95   31.10
  -5  10  -7  509.05   27.20
  10   5   7  469.15   30.70
  -5  10   7  524.25   30.20
 -10  -5   7  471.15   31.60
  10   4  -7  291.17   22.10
  -4  10  -7  262.67   17.10
 -10  -4   7  263.87   23.40
  10   4   7  287.87   23.70
  -4  10   7  258.57   20.20
  -3  10  -7   71.39    8.50
  10   3  -7   61.19   12.20
  -3  10   7   77.69   11.30
 -10  -3   7   77.19   13.80
  10   3   7   89.79   13.90
  10   2  -7    0.20    8.40
  -2  10  -7   18.10    5.30
  10   2   7    9.00    9.40
 -10  -2   7   14.50    9.50
  -2  10   7   19.00    7.40
  -1  10  -7  131.99   10.20
 -10  -1  -7  133.89   17.20
  10   1  -7  137.99   15.90
 -10  -1   7  106.39   16.10
  10   1   7  113.99   15.70
  -1  10   7  123.59   12.40
  10   0  -7  -16.30    7.90
 -10   0  -7   -5.10    8.30
   0  10  -7    6.40    4.00
 -10   0   7  -10.70    8.60
   0  10   7    4.40    6.40
  10   0   7   -1.60    8.10
   0 -10   7   -0.80    5.60
 -10   1  -7  115.99   16.90
  10  -1  -7  128.39   15.70
   1  10  -7  126.29    9.40
 -10   1   7   92.49   15.70
   1  10   7  120.49   11.90
  -1 -10   7  120.19   12.40
  10  -1   7  159.18   17.20
 -10   1   7  139.09   17.20
  10  -2  -7    3.10    8.60
 -10   2  -7   13.70   11.20
   2  10  -7    9.60    4.10
  10  -2   7   19.20   10.30
  -2 -10   7   24.90    7.00
 -10   2   7   20.90    9.00
   2  10   7   14.50    6.50
 -10   2   7   -1.30   10.10
 -10   3  -7   81.79   14.90
  10  -3  -7   68.39   14.20
   3  10  -7   97.89    7.80
  -3 -10   7   86.59   11.10
   3  10   7   90.29   10.40
 -10   3   7   85.09   16.40
 -10   3   7  106.49   15.40
 -10   4  -7  292.57   25.60
   4  10  -7  297.87   16.00
  10  -4  -7  326.27   25.00
 -10   4   7  269.97   26.10
  -4 -10   7  301.87   19.50
 -10   4   7  270.77   24.90
   4  10   7  278.47   18.50
   5  10  -7  512.85   25.30
 -10   5  -7  463.05   33.50
 -10   5   7  565.74   35.40
 -10   5   7  536.35   34.10
   5  10   7  482.05   27.30
  -5 -10   7  499.15   28.10
 -10   6  -7   36.70   13.00
   6  10  -7   36.40    7.40
   6  10   7   34.90    8.60
 -10   6   7   45.80   13.20
 -10   6   7   53.89   14.60
 -10   7  -7  130.09   19.20
   7  10  -7  139.69   13.00
 -10   7   7  191.78   22.40
 -10   7   7  142.99   20.30
   7  10   7  167.58   14.70
   8  10  -7    6.90    6.60
 -10   8  -7    2.60   10.90
   8  10   7   -0.30    7.90
 -10   8   7   10.90   12.20
 -10   8   7   13.80   11.80
   9  10  -7   -4.40    6.80
 -10   9  -7   -4.10   10.90
   9  10   7   -2.90    7.80
 -10   9   7   -2.00   11.80
  10  10  -7  -10.80    6.70
 -10  10  -7    2.50   11.60
 -10  10   7   -5.50   11.70
  10  10   7    8.60    9.30
 -10  11  -7   -7.10   10.00
  11  10  -7   -1.30    7.40
 -10  11   7   13.20   14.90
  11  10   7    9.50    9.40
  -9  11  -7    5.80   11.20
  11   9  -7   15.00    8.80
  11   9   7    3.70    9.70
  -9  11   7    2.30   13.10
  11   9   7    5.90    9.60
  -8  11  -7   19.00   10.40
  11   8  -7    8.00    8.80
  -8  11   7    8.20   12.20
  11   8   7   25.80   10.50
  11   8   7   21.20   11.60
 -11  -8   7   10.30   15.90
  -7  11  -7    7.50    7.90
  11   7  -7   -6.40    8.80
  -7  11   7   14.60   10.60
  11   7   7    5.10   10.10
 -11  -7   7   -5.70    9.90
  11   6  -7  115.79   16.50
  -6  11  -7  118.79   12.80
  -6  11   7  109.79   16.00
 -11  -6   7  103.99   16.80
  11   6   7  100.59   15.50
  11   5  -7   54.69   13.20
  -5  11  -7   65.99    9.20
  11   5   7   65.69   13.70
  -5  11   7   62.39   11.90
 -11  -5   7   61.99   13.70
  11   4  -7   26.00   11.30
  -4  11  -7   31.60    7.00
 -11  -4   7   31.50   12.00
  -4  11   7   24.20    9.70
  11   4   7   37.10   11.50
  11   3  -7  113.09   16.90
  -3  11  -7  119.39   10.40
  11   3   7  123.39   16.60
 -11  -3   7  127.99   17.90
  -3  11   7  109.39   13.20
  -2  11  -7   18.90    5.20
  11   2  -7   28.70   11.90
  11   2   7   18.20   10.70
 -11  -2   7   10.50   10.70
  -2  11   7   10.00    7.90
  11   1  -7   20.10   10.90
  -1  11  -7   14.60    4.50
   1 -11   7    9.60    6.90
  11   1   7   23.50   10.40
 -11  -1   7   -2.70   10.20
  -1  11   7   14.60    7.20
  11   0  -7   45.80   13.50
 -11   0  -7   48.40   12.40
   0  11  -7   54.29    5.80
   0 -11   7   68.89    9.90
 -11   0   7   24.30   13.20
   0  11   7   58.19    9.10
  11   0   7   54.59   13.00
   1  11  -7   15.40    3.70
  11  -1  -7    4.10    9.80
 -11   1  -7   -1.90   10.80
 -11   1   7    1.10   10.80
  -1 -11   7   11.70    6.90
   1  11   7   18.50    6.90
  11  -1   7    9.80   10.30
  11  -2  -7    0.00    9.70
   2  11  -7   15.10    3.50
 -11   2  -7    3.00    9.60
   2  11   7    2.60    6.20
  11  -2   7   28.30   11.50
 -11   2   7   -1.90    8.70
 -11   2   7   29.10   12.90
 -11   3  -7  132.59   18.10
  11  -3  -7  118.79   18.20
   3  11   7  128.19   11.80
 -11   3   7  111.29   16.90
 -11   3   7  115.69   18.30
   4  11  -7   27.20    5.00
 -11   4  -7    0.50   11.20
 -11   4   7   23.70   13.00
 -11   4   7   26.20   13.30
   4  11   7   23.40    7.30
   5  11  -7   69.99    7.00
 -11   5  -7   57.59   13.70
 -11   5   7   61.79   14.80
 -11   5   7   35.10   13.90
   5  11   7   72.89    9.60
 -11   6  -7  119.49   17.70
   6  11  -7   98.99    8.80
   6  11   7  103.79   11.50
 -11   6   7  126.59   19.30
 -11   6   7  120.19   18.50
 -11   7  -7   16.40   12.50
   7  11  -7    0.50    5.10
 -11   7   7  -20.70   10.00
   7  11   7   12.10    7.20
 -11   7   7    5.70   13.40
   8  11  -7   12.40    5.90
 -11   8  -7   26.20   12.60
 -11   8   7    3.70   11.40
 -11   8   7    3.60   11.60
   8  11   7   12.90    8.10
   9  11  -7    9.60    6.10
 -11   9  -7   13.90   12.60
 -11   9   7   43.80   16.40
   9  11   7   11.60    8.50
  10  11  -7    5.60    6.20
 -11  10  -7    0.20   12.70
 -11  10   7    5.40   13.50
  10  11   7    3.00    8.70
  12   9   7   51.69   12.40
  -8  12  -7   84.69   13.50
  12   8  -7   93.69   14.50
  -8  12   7   97.29   17.90
  12   8   7   68.99   14.20
  -7  12  -7   25.60    9.10
  12   7  -7   31.60   11.20
 -12  -7   7    5.10   12.10
  -7  12   7   18.50   12.80
  12   7   7   10.50   10.90
  -6  12  -7   -2.60    6.50
  12   6  -7   -7.20    9.60
  -6  12   7    2.30   11.00
  12   6   7    7.20   10.40
 -12  -6   7   11.80   11.90
  12   5  -7   43.50   12.60
  -5  12  -7   50.59    8.30
 -12  -5   7   69.39   15.50
  12   5   7   46.70   13.10
  -5  12   7   35.00   11.90
  12   4  -7   37.70   12.70
  -4  12  -7   32.10    6.80
  -4  12   7   16.80    9.70
  12   4   7   33.80   11.80
 -12  -4   7   29.00   13.50
  -3  12  -7    6.20    4.60
  12   3  -7   14.50   11.20
  12   3   7   -1.80    9.60
  -3  12   7    3.80    8.10
 -12  -3   7    5.50   11.80
  12   2  -7   12.00   11.70
  -2  12  -7   -6.50    3.70
  12   2   7    1.10   10.10
  -2  12   7   -0.80    7.60
 -12  -2   7    8.00   12.00
  12   1  -7   40.50   13.80
  -1  12  -7   40.40    4.80
  12   1   7   28.80   12.60
  -1  12   7   37.90    8.80
 -12  -1   7   26.40   14.00
  12   0  -7  -15.80   10.80
  12   0   7    1.50   10.50
 -12   0   7   11.70   11.70
   0  12   7    6.10    6.60
  12  -1  -7   52.49   14.40
 -12   1  -7   27.50   13.40
   1  12   7   34.50    8.30
 -12   1   7   37.30   14.40
  12  -1   7   15.90   11.60
 -12   2  -7   -9.10    8.80
  12  -2  -7   -6.10   10.70
 -12   2   7   17.10   12.30
 -12   2   7   26.20   13.70
  12  -2   7    2.70   10.00
   2  12   7   -1.70    6.00
  12  -3  -7   -6.70   11.80
 -12   3  -7   10.20   10.20
 -12   3   7    1.20   11.40
 -12   3   7   13.40   12.00
   3  12   7   10.10    6.20
 -12   4  -7   13.90   12.40
   4  12   7   17.40    6.80
 -12   4   7   47.20   14.50
 -12   4   7   27.10   12.50
 -12   5  -7   33.70   13.00
 -12   5   7   53.09   15.60
 -12   5   7   48.70   15.20
   5  12   7   36.90    8.00
 -12   6  -7    0.40   10.40
   6  12   7   -4.50    6.20
 -12   6   7   -3.00   11.70
 -12   6   7    9.40   13.20
 -12   7  -7   22.70   13.70
   7  12   7   17.80    7.40
 -12   7   7   35.10   14.50
 -12   7   7   29.20   15.30
 -12   8  -7   87.09   17.50
 -12   8   7   85.09   19.70
 -12   8   7   88.09   17.70
   8  12   7   87.79   11.30
  -7  13  -7   95.49   12.20
  13   7  -7  113.99   16.20
  -7  13   7   96.19   17.60
  13   7   7   91.29   16.30
 -13  -7   7   72.09   20.90
  13   6  -7   24.30   10.90
  -6  13  -7   -1.70    6.20
  13   6   7    5.90   10.90
  -6  13   7   12.20   12.10
 -13  -6   7   33.80   14.70
  13   5  -7   14.20   11.30
  -5  13  -7   23.40    6.80
  -5  13   7   28.20   12.30
 -13  -5   7   12.00   12.70
  13   5   7   25.40   12.60
  13   4  -7   15.70   12.00
  -4  13  -7   18.00    5.90
  13   4   7   10.20   11.50
 -13  -4   7   44.20   14.90
  -4  13   7   13.30   10.30
  13   3  -7   30.70   13.40
 -13  -3   7   23.30   14.30
  -3  13   7   38.00   10.80
  13   3   7   40.70   13.50
  13   2  -7  146.79   20.30
  -2  13   7  131.39   14.60
  13   2   7  151.38   19.40
 -13  -2   7  208.38   24.00
  13   1  -7  156.08   20.80
  -1  13   7  161.58   14.80
 -13  -1   7  128.29   21.00
  13   1   7  191.58   21.60
  13   0  -7   43.70   15.30
  13   0   7   38.10   13.40
 -13   0   7   40.50   14.90
   0  13   7   34.70    8.40
  13  -1  -7  203.98   24.40
   1  13   7  161.18   13.90
 -13   1   7  189.48   23.70
  13  -1   7  173.18   21.50
 -13   2  -7  183.58   23.00
  13  -2  -7  220.78   25.00
 -13   2   7  174.38   23.00
   2  13   7  157.58   13.20
 -13   3  -7   40.30   14.70
  13  -3  -7   26.20   13.90
   3  13   7   26.00    7.30
 -13   3   7   20.60   13.70
 -13   3   7   17.50   14.70
 -13   4  -7    9.30   12.40
 -13   4   7    3.70   14.00
 -13   4   7   16.00   13.60
   4  13   7    9.60    6.30
 -13   5  -7   45.50   15.40
   5  13   7   25.20    6.90
 -13   5   7   15.80   13.40
 -13   5   7   25.80   13.90
 -13   6  -7   -2.10   12.40
   6  13   7    5.40    6.10
 -13   6   7   10.50   15.20
 -13   6   7   14.60   13.70
 -13   7  -7  110.49   18.90
 -13   7   7   93.99   18.50
 -13   7   7  122.79   22.40
   7  13   7   88.59   10.30
  14   5  -7   36.30   13.00
 -14  -5   7   13.10   14.00
  14   5   7   36.10   13.10
  -5  14   7   41.20   14.00
  14   4  -7   46.60   14.40
  -4  14   7   39.00   12.90
  14   4   7   48.70   14.10
 -14  -4   7   23.90   13.90
  14   3  -7   81.69   16.80
  14   3   7   90.49   17.10
  -3  14   7   75.79   13.90
 -14  -3   7   70.49   17.10
  14   2  -7  123.29   19.60
  14   2   7  108.99   18.20
  -2  14   7  109.79   13.60
 -14  -2   7   51.49   16.80
  14   1  -7   17.70   13.70
  -1  14   7   14.40    8.70
  14   1   7   40.70   13.10
 -14  -1   7   44.10   15.60
  14   0  -7   -7.70   11.50
 -14   0   7  -14.30   12.20
  14   0   7   -3.70   10.70
   0  14   7    1.00    7.30
  14  -1  -7   60.29   15.70
  14  -1   7    9.90   12.20
 -14   1   7    9.40   13.40
   1  14   7   16.50    7.30
  14  -2  -7  130.29   21.40
 -14   2  -7  140.29   29.20
 -14   2   7   84.99   18.10
 -14   3  -7   96.99   18.90
 -14   3   7   38.60   16.80
 -14   4  -7   32.40   14.20
 -14   4   7   38.70   15.10
 -14   4   7   20.60   15.50
 -14   5  -7   26.00   15.10
 -14   5   7   21.20   15.30
  15   0   7   71.09   15.90
   0   0  -8 2482.45  106.69
   0   0   8 2553.14  106.89
   0   0   8 2434.36  106.49
  -1   0  -8    1.50    4.40
   1   0  -8   -2.00    3.90
   0  -1  -8    1.90    4.20
   0   1  -8    1.00    4.40
   1   0   8   -1.80    4.20
   0   1   8   -3.80    4.10
  -1   0   8   -3.70    4.50
   0  -1   8   -2.50    4.00
   0   1   8   -2.30    4.60
   0  -1   8   -0.40    4.50
  -1   0   8   -3.80    3.50
  -1   1  -8   14.60    5.20
   1  -1  -8   13.80    5.10
  -1  -1  -8   19.60    5.50
   1   1  -8    4.10    4.70
   1   1   8   14.00    4.90
  -1  -1   8   20.00    6.00
   1   1   8    9.20    5.20
  -1   1   8    9.20    4.80
   1  -1   8   11.90    4.30
  -1   1   8   11.70    5.20
  -1  -1   8   14.60    4.60
  -2  -1  -8  671.63   32.40
   1  -2  -8  667.43   32.10
  -1   2  -8  634.14   31.80
   2   1  -8  667.83   32.10
  -1   2   8  643.44   32.10
  -2  -1   8  681.73   32.00
  -1   2   8  663.33   32.00
  -2  -1   8  697.13   32.80
   2   1   8  574.14   31.50
   1  -2   8  715.53   32.00
   2   0  -8  406.66   21.10
   0  -2  -8  343.87   20.60
  -2   0  -8  386.96   21.30
   0   2  -8  419.96   21.20
   0   2   8  411.06   21.20
  -2   0   8  411.66   21.80
   0  -2   8  427.56   21.00
   2   0   8  392.46   20.90
   0   2   8  342.67   20.70
   0  -2   8  379.76   21.90
  -2   0   8  392.56   21.20
  -2   1  -8  643.24   31.70
  -1  -2  -8  632.54   31.40
   1   2  -8  656.03   31.30
   2  -1  -8  617.54   31.30
   2  -1   8  652.43   31.30
  -2   1   8  641.84   32.00
   1   2   8  689.63   32.00
  -1  -2   8  656.43   31.10
  -1  -2   8  646.84   32.20
   1   2   8  663.03   31.20
  -2   1   8  615.44   31.50
   2   2  -8 1218.18   54.99
  -2   2  -8 1266.97   55.49
   2  -2  -8 1155.58   55.09
  -2  -2  -8 1269.37   55.59
  -2   2   8 1020.60   54.79
   2  -2   8 1243.98   54.89
  -2  -2   8 1264.87   55.89
  -2   2   8 1303.57   55.69
  -2  -2   8 1281.67   55.09
   2   2   8 1268.87   55.59
   2  -3  -8   12.20    5.70
   3   2  -8    8.70    4.70
  -2   3  -8   10.30    5.40
  -3  -2  -8    7.60    4.70
  -2   3   8    2.60    5.30
  -2   3   8   11.40    5.40
  -3  -2   8    7.00    5.60
   3   2   8    9.90    5.90
   2  -3   8   12.00    5.00
  -3  -2   8    7.80    5.10
   1  -3  -8  718.03   33.50
  -1   3  -8  704.33   33.10
   3   1  -8  669.03   33.00
  -3  -1  -8  664.73   33.40
  -1   3   8  724.63   33.80
   3   1   8  680.63   33.20
  -3  -1   8  686.53   33.20
  -3  -1   8  693.83   34.00
   1  -3   8  616.14   32.20
  -1   3   8  717.63   33.10
   0  -3  -8   -1.90    4.30
   0   3  -8    2.30    4.10
  -3   0  -8    1.00    4.90
   3   0  -8   -1.20    4.60
   3   0   8    4.80    4.10
   0  -3   8    2.90    5.50
  -3   0   8    2.50    4.60
   0   3   8    9.80    4.70
  -3   0   8    0.80    5.10
   0  -3   8   -1.20    3.80
   0   3   8   -6.50    3.80
  -1  -3  -8  757.32   35.00
   1   3  -8  697.53   34.20
   3  -1  -8  699.83   34.80
  -3   1  -8  710.43   35.10
  -1  -3   8  768.12   34.30
  -1  -3   8  751.42   35.60
   1   3   8  702.53   34.00
  -3   1   8  738.43   35.20
  -3   1   8  750.82   35.50
   3  -1   8  657.43   34.20
   1   3   8  733.53   35.10
  -3   2  -8   16.10    5.50
  -2  -3  -8    8.00    5.30
   2   3  -8    9.30    4.90
   3  -2  -8    9.90    5.70
  -2  -3   8   11.90    5.20
  -2  -3   8   12.60    5.40
   2   3   8    4.40    5.30
   3  -2   8   11.90    4.50
   2   3   8   11.30    5.20
  -3   2   8   15.10    5.90
  -3   2   8    7.10    4.80
  -3  -3  -8  438.26   24.10
   3  -3  -8  434.16   24.10
  -3   3  -8  427.66   23.90
   3   3  -8  441.96   23.50
  -3  -3   8  484.65   25.10
   3  -3   8  463.05   23.60
  -3   3   8  475.15   24.80
   3   3   8  465.55   24.40
  -3   3   8  456.65   24.50
   3  -4  -8  130.89   11.90
  -3   4  -8  152.68   12.70
   4   3  -8  128.19   11.40
  -4  -3  -8  120.19   12.20
  -3   4   8  165.68   12.80
  -4  -3   8  124.79   12.70
  -3   4   8  133.89   12.40
   4   3   8  139.09   12.30
  -4  -2  -8    0.60    5.30
   4   2  -8    0.60    4.30
  -2   4  -8    2.30    4.90
   2  -4  -8    3.90    4.90
   4   2   8    3.30    5.00
  -2   4   8    0.50    4.90
  -2   4   8    4.40    5.20
  -4  -2   8   -0.10    4.90
  -4  -2   8    0.80    5.90
  -1   4  -8  278.97   16.30
   4   1  -8  247.58   16.50
  -4  -1  -8  269.37   17.30
   1  -4  -8  247.58   16.20
   4   1   8  269.27   16.90
  -1   4   8  265.67   16.00
  -4  -1   8  271.17   17.70
  -1   4   8  293.07   17.40
  -4  -1   8  268.57   16.70
   0  -4  -8    4.30    4.10
   4   0  -8   -1.80    5.00
  -4   0  -8    0.30    5.30
   0   4  -8   -1.90    4.00
  -4   0   8   -6.00    4.60
   0   4   8    0.10    5.00
   0  -4   8    3.30    5.90
   4   0   8   -0.60    4.50
   0   4   8   -2.80    4.20
   4   0   8    6.70    4.90
  -4   0   8   -4.90    5.40
   1   4  -8  246.08   15.40
  -4   1  -8  254.57   16.90
   4  -1  -8  236.98   16.00
  -1  -4  -8  250.37   16.00
  -1  -4   8  273.97   17.10
  -4   1   8  252.77   17.20
   4  -1   8  270.47   16.50
   1   4   8  272.87   15.40
  -4   1   8  271.17   16.90
   1   4   8  272.27   16.60
   4  -2  -8    0.70    4.30
   2   4  -8   -0.50    4.20
  -4   2  -8    0.50    5.00
  -2  -4  -8   -2.90    4.40
   2   4   8    5.70    5.10
  -4   2   8    6.10    5.80
   4  -2   8    8.60    5.00
   2   4   8   -1.20    4.30
  -4   2   8   -9.10    4.90
  -2  -4   8   -4.50    5.00
   4  -2   8    2.50    4.50
   4  -3  -8  127.89   12.20
  -3  -4  -8  134.19   11.70
   3   4  -8  138.09   10.70
  -4   3  -8  138.59   12.20
   4  -3   8  139.69   11.60
  -3  -4   8  130.49   12.40
   3   4   8  129.69   10.60
   4  -3   8  129.19   11.60
   3   4   8  151.48   12.50
  -4   3   8  126.79   12.50
  -4   3   8  127.09   12.30
  -4   4  -8   83.69    9.90
  -4  -4  -8   84.99   14.00
   4   4  -8   75.09    8.80
   4  -4  -8   78.79    9.50
   4   4   8   73.49    9.20
  -4  -4   8   61.09    9.20
  -4   4   8   66.39    9.60
  -4   4   8   63.39    9.40
   5   4  -8  342.27   19.80
  -4   5  -8  327.37   20.10
   4  -5  -8  337.57   20.90
  -5  -4   8  325.17   21.10
   5   4   8  351.16   21.00
  -4   5   8  348.47   21.10
  -4   5   8  353.46   21.40
   5   3  -8 1139.59   52.49
  -5  -3  -8 1082.49   53.09
  -3   5  -8 1106.89   52.39
   3  -5  -8 1151.88   52.99
   5   3   8 1181.68   53.59
   5   3   8 1129.69   53.19
  -5  -3   8 1174.38   53.99
  -3   5   8 1196.48   53.49
  -3   5   8 1190.68   52.99
   2  -5  -8   92.09   10.10
  -2   5  -8   95.09    9.80
  -5  -2  -8   80.39   10.00
   5   2  -8   85.09    9.60
  -5  -2   8  109.99   11.40
  -2   5   8  105.69   10.50
   5   2   8  106.19   11.20
   5   2   8   95.49   10.50
  -5  -2   8   83.19    9.70
  -2   5   8  101.99   10.90
   1  -5  -8    8.90    5.50
  -5  -1  -8    8.80    5.60
   5   1  -8    7.30    5.10
  -1   5  -8    3.80    5.00
  -1   5   8    1.20    5.40
  -5  -1   8    0.20    5.30
   5   1   8    6.80    5.30
   5   1   8    7.00    5.70
  -5  -1   8    6.90    5.40
  -1   5   8   -3.20    4.20
   0   5  -8    0.70    3.90
   5   0  -8   -1.80    4.30
  -5   0  -8    0.60    5.10
   5   0   8   13.70    6.00
   0  -5   8   -3.70    5.40
   0   5   8   -4.10    5.30
  -5   0   8    0.40    5.70
   5   0   8    4.90    5.40
  -5   0   8    3.70    5.10
   0   5   8    0.40    4.30
  -5   1  -8    1.60    5.50
   5  -1  -8    8.60    6.20
   1   5  -8    5.60    4.50
   1   5   8    4.90    4.30
   1   5   8    6.20    5.90
  -5   1   8   11.20    6.70
   5  -1   8   15.30    5.80
  -5   1   8    4.00    4.70
  -1  -5   8   -0.40    5.40
   2   5  -8   84.99    8.70
   5  -2  -8  117.89   11.40
  -5   2  -8   81.39   10.80
  -5   2   8  112.29   11.60
  -5   2   8   81.79   10.70
   2   5   8  112.99   11.10
   5  -2   8   98.99   10.50
  -2  -5   8   86.59   10.30
   2   5   8   91.39    8.50
   3   5  -8 1182.98   52.69
   5  -3  -8 1205.88   54.69
  -5   3  -8 1132.09   54.49
  -3  -5   8 1146.49   54.09
   3   5   8 1217.78   53.89
   3   5   8 1213.28   51.99
  -5   3   8 1175.48   55.09
  -5   3   8 1119.89   54.69
   5  -3   8 1133.49   53.69
   5  -3   8 1186.38   53.79
   5  -4  -8  357.36   21.10
  -5   4  -8  334.77   20.80
   4   5  -8  339.97   19.20
  -5   4   8  319.37   21.10
  -4  -5   8  309.77   20.30
   4   5   8  338.47   20.20
  -5   4   8  342.17   21.70
  -5   5  -8  636.04   33.70
   5  -5  -8  641.64   39.40
   5   5  -8  627.74   32.20
  -5  -5   8  654.93   33.80
  -5   5   8  675.53   34.70
  -5   5   8  688.73   34.60
   5   5   8  638.74   33.30
  -5   6  -8  107.89   11.90
   6   5  -8  123.39   12.00
  -6  -5   8  123.09   13.00
  -5   6   8  116.49   13.10
  -5   6   8  114.09   13.90
   6   5   8  117.79   12.90
   6   4  -8  121.89   11.80
  -4   6  -8   88.09   10.60
  -4   6   8  118.69   12.40
  -4   6   8  127.49   12.90
   6   4   8  104.19   11.80
   6   4   8  107.19   11.50
  -6  -4   8  113.79   12.60
  -6  -3  -8  141.69   13.70
   6   3  -8  133.49   12.70
  -3   6  -8  138.59   12.00
   6   3   8  139.89   13.40
  -6  -3   8  138.79   13.80
   6   3   8  120.59   13.10
  -3   6   8  137.79   12.50
  -3   6   8  122.69   12.40
  -6  -2  -8  220.28   16.60
  -2   6  -8  224.38   14.80
   6   2  -8  209.48   15.50
  -2   6   8  201.98   15.70
  -2   6   8  194.78   14.40
   6   2   8  227.38   16.60
  -6  -2   8  210.58   16.30
   6   1  -8  180.88   14.00
  -1   6  -8  183.38   12.90
  -6  -1  -8  202.48   15.40
  -1   6   8  185.98   14.90
  -6  -1   8  190.38   14.80
   6   1   8  193.38   16.00
  -6  -1   8  182.48   16.10
  -1   6   8  178.38   12.90
   0   6  -8  704.53   32.60
  -6   0  -8  711.03   35.40
   6   0  -8  673.33   34.30
   6   0   8  716.63   34.90
   0   6   8  671.83   31.90
  -6   0   8  601.44   33.80
  -6   0   8  651.33   35.20
   0   6   8  691.73   34.00
  -6   1  -8  169.08   15.30
   6  -1  -8  202.48   15.40
   1   6  -8  196.78   12.80
  -6   1   8  195.08   16.80
  -6   1   8  188.38   15.80
   1   6   8  170.18   12.70
   1   6   8  196.08   14.50
  -1  -6   8  183.08   14.50
   6  -1   8  150.08   13.90
  -6   2  -8  216.18   16.60
   2   6  -8  210.88   13.60
   6  -2  -8  194.88   15.70
   6  -2   8  189.88   15.30
  -2  -6   8  179.08   14.90
   2   6   8  218.88   15.00
  -6   2   8  216.98   17.70
  -6   2   8  216.88   16.50
   3   6  -8  118.09   10.50
  -6   3  -8  147.19   14.40
   6  -3  -8  138.49   13.20
  -3  -6   8  113.89   12.10
   3   6   8  133.99   12.40
  -6   3   8  157.38   15.00
   6  -3   8  132.79   12.70
  -6   3   8  120.49   13.00
  -6   4  -8   92.59   12.20
   4   6  -8  120.19   10.60
   6  -4  -8  147.49   14.20
   4   6   8  117.19   11.70
  -6   4   8  110.69   13.40
  -6   4   8  112.79   13.50
  -4  -6   8  116.09   12.10
   5   6  -8  114.49   10.90
  -6   5  -8  131.89   13.70
  -6   5   8  116.09   14.40
  -5  -6   8  125.69   12.80
   5   6   8  104.29   12.00
  -6   5   8  116.69   13.80
  -6   6  -8  440.56   25.80
   6   6  -8  412.76   23.60
  -6  -6   8  445.06   25.60
  -6   6   8  419.36   27.80
   6   6   8  459.45   25.60
  -6   6   8  373.06   25.40
   7   6  -8  202.08   15.50
  -6   7  -8  169.38   16.40
  -6   7   8  186.78   19.20
  -7  -6   8  163.38   16.00
   7   6   8  161.48   15.60
  -6   7   8  189.98   17.30
  -5   7  -8  242.68   17.70
   7   5  -8  241.98   17.00
   7   5   8  208.08   18.50
  -5   7   8  233.28   20.60
   7   5   8  249.48   18.50
  -7  -5   8  255.17   19.00
  -5   7   8  255.87   19.70
   7   4  -8  641.94   33.90
  -4   7  -8  653.83   33.40
  -7  -4   8  662.33   35.50
  -4   7   8  683.23   35.10
  -4   7   8  666.63   35.30
   7   4   8  667.63   35.20
   7   3  -8   42.30    8.30
  -3   7  -8   38.30    7.20
  -7  -3   8   30.00    9.00
  -3   7   8   47.60    9.30
   7   3   8   38.60    9.50
  -3   7   8   54.69    9.50
   7   2  -8  161.28   14.80
  -7  -2  -8  187.58   16.90
  -2   7  -8  160.08   12.60
  -7  -2   8  174.48   16.20
   7   2   8  154.88   15.30
  -2   7   8  172.68   15.00
   7   1  -8  357.96   21.80
  -7  -1  -8  350.66   22.50
  -1   7  -8  340.57   19.10
  -1   7   8  325.17   20.40
  -7  -1   8  316.57   21.10
  -7  -1   8  337.67   22.60
   7   1   8  320.47   21.80
  -7   0  -8   -1.80    7.30
   0   7  -8    5.70    4.50
   7   0  -8    5.40    6.20
  -7   0   8    3.60    7.10
   7   0   8    1.20    5.80
   0  -7   8   -5.20    5.50
   0   7   8   -1.50    6.00
  -7   0   8   10.40    7.50
   7  -1  -8  328.47   21.30
  -7   1  -8  352.46   22.80
   1   7  -8  328.07   18.10
   1   7   8  302.47   19.40
  -1  -7   8  342.17   20.80
   7  -1   8  330.47   21.20
  -7   1   8  332.07   22.70
  -7   1   8  313.57   21.10
  -7   2  -8  164.18   16.60
   2   7  -8  171.58   12.10
   7  -2  -8  177.28   15.80
   7  -2   8  148.39   14.50
  -2  -7   8  167.18   14.70
   2   7   8  177.88   14.00
  -7   2   8  190.18   17.30
  -7   2   8  163.28   15.50
  -7   3  -8   40.40   10.10
   3   7  -8   37.20    6.60
   7  -3  -8   45.20    9.70
  -7   3   8   44.20    9.00
  -3  -7   8   43.90    8.20
   7  -3   8   30.40    7.80
   3   7   8   39.70    7.80
  -7   3   8   37.30   10.00
   7  -4  -8  690.23   36.10
   4   7  -8  677.13   32.70
  -7   4  -8  684.83   36.70
  -4  -7   8  653.83   34.60
  -7   4   8  682.33   36.50
   4   7   8  647.84   34.10
  -7   4   8  697.03   37.50
  -7   5  -8  272.67   20.80
   5   7  -8  285.47   17.30
   5   7   8  286.57   18.60
  -7   5   8  227.28   21.60
  -5  -7   8  260.97   18.40
  -7   5   8  241.68   20.90
  -7   6  -8  176.78   17.50
   6   7  -8  180.18   14.40
  -7   6   8  178.98   19.10
   6   7   8  183.58   15.70
  -6  -7   8  181.18   16.10
  -7   6   8  170.18   17.20
  -7   7  -8   20.10    9.30
   7   7  -8   39.00    8.40
  -7  -7   8   18.90    8.30
  -7   7   8   33.60   11.80
   7   7   8   38.50    9.10
  -7   7   8   33.20   10.80
   8   7  -8   59.39   10.80
  -7   8  -8   83.69   12.90
  -7   8   8   94.49   14.10
  -8  -7   8   80.99   12.30
  -7   8   8   60.99   13.40
   8   7   8   78.29   12.30
   8   6  -8  222.08   18.00
  -6   8  -8  209.18   18.20
   8   6   8  199.08   18.80
  -8  -6   8  233.08   19.70
   8   6   8  263.27   20.20
  -6   8   8  255.87   19.90
   8   5  -8    7.80    7.20
  -5   8  -8    3.80    6.00
  -8  -5   8    3.20    7.50
  -5   8   8    2.20    7.10
   8   5   8   -4.70    7.10
  -4   8  -8   36.00    7.50
   8   4  -8   19.50    7.50
  -8  -4   8   28.40    9.20
   8   4   8   19.30    8.80
  -4   8   8   22.30    8.70
   8   3  -8   30.60    8.30
  -3   8  -8   22.40    6.50
   8   3   8   36.20    9.80
  -8  -3   8   24.50    9.10
  -3   8   8   22.80    8.00
   8   2  -8  505.15   29.20
  -8  -2  -8  541.25   30.90
  -2   8  -8  498.75   26.20
  -2   8   8  501.05   28.10
  -8  -2   8  487.85   30.40
   8   2   8  544.85   30.20
  -1   8  -8   21.20    5.60
  -8  -1  -8   14.10    9.20
   8   1  -8   11.10    6.90
   8   1   8   19.70    8.10
  -8  -1   8    7.80    8.40
  -1   8   8   32.40    7.80
   0   8  -8  452.95   22.70
  -8   0  -8  454.45   27.90
   8   0  -8  458.15   26.50
  -8   0   8  427.66   27.20
   8   0   8  458.95   26.70
   0  -8   8  441.56   24.90
   0   8   8  423.76   24.40
  -8   0   8  333.27   24.80
  -8   1  -8   26.90   10.10
   1   8  -8   15.40    5.10
   8  -1  -8   26.30    8.20
   8  -1   8   26.80    8.60
   1   8   8   25.90    7.30
  -1  -8   8   23.10    7.00
  -8   1   8    8.40    6.90
  -8   1   8   27.10    9.70
   8  -2  -8  496.55   30.30
   2   8  -8  536.55   26.40
  -8   2  -8  550.34   32.20
   8  -2   8  570.64   30.70
  -8   2   8  560.24   31.50
  -8   2   8  508.85   31.70
  -2  -8   8  525.45   28.80
   2   8   8  516.35   28.30
   3   8  -8   28.60    6.20
  -8   3  -8   29.30   10.30
   8  -3  -8   43.70   10.40
  -8   3   8   30.10    9.60
   3   8   8   17.20    6.90
  -8   3   8   18.40   10.10
  -3  -8   8   19.50    7.00
   8  -3   8   36.40   10.90
   4   8  -8   25.10    6.30
  -8   4  -8   28.40    9.70
   8  -4  -8   10.00    8.60
  -8   4   8   28.00   10.80
  -4  -8   8   38.30    8.50
  -8   4   8   20.90    9.60
   4   8   8   25.30    7.70
   5   8  -8   -0.50    5.20
  -8   5  -8    3.30    8.80
  -8   5   8    1.10   10.30
  -5  -8   8    6.30    7.00
   5   8   8   -2.00    6.60
  -8   5   8    6.10    9.40
  -8   6  -8  217.78   20.90
   6   8  -8  237.48   16.30
   6   8   8  229.48   17.90
  -8   6   8  221.18   22.70
  -6  -8   8  217.88   17.80
  -8   6   8  242.78   21.70
  -8   7  -8  103.89   15.20
   7   8  -8   74.49   10.40
  -8   7   8   66.89   12.50
  -8   7   8   74.49   15.10
   7   8   8   88.69   12.10
  -7  -8   8   80.49   11.90
   8   8  -8  512.55   29.80
  -8   8  -8  529.15   33.00
   8   8   8  526.25   30.90
  -8  -8   8  510.15   31.00
  -8   8   8  520.95   33.30
  -8   8   8  533.65   34.20
   9   8  -8    0.50    8.50
  -8   9  -8   10.40    9.30
  -9  -8   8  -17.40    7.40
   9   8   8   -5.60    8.00
  -8   9   8   -6.40   10.50
  -7   9  -8   14.20    8.90
   9   7  -8   18.70    9.00
  -9  -7   8   20.30    9.60
   9   7   8   -8.40    7.50
   9   7   8    9.90    9.60
  -7   9   8   22.00   10.80
   9   6  -8   60.89   11.50
  -6   9  -8   87.29   11.80
  -6   9   8   79.49   13.50
  -9  -6   8   64.39   12.20
   9   6   8   79.89   13.40
   9   6   8   86.39   13.60
   9   5  -8  328.67   22.90
  -5   9  -8  319.37   21.00
   9   5   8  324.57   24.00
  -9  -5   8  298.87   23.50
  -5   9   8  321.97   22.60
   9   4  -8  217.68   19.10
  -4   9  -8  220.78   16.20
  -9  -4   8  252.27   21.00
   9   4   8  217.98   20.10
  -4   9   8  210.68   18.40
  -3   9  -8   38.80    7.30
   9   3  -8   40.80   10.00
  -3   9   8   44.20    9.00
  -9  -3   8   30.90   10.30
   9   3   8   44.10   11.30
  -2   9  -8  294.17   18.30
   9   2  -8  322.47   22.40
  -9  -2   8  328.57   24.50
   9   2   8  331.47   23.20
  -2   9   8  313.27   20.60
   9   1  -8   32.30    9.90
  -1   9  -8   21.90    5.70
  -9  -1  -8   25.70   11.00
  -9  -1   8   30.90   10.30
  -1   9   8   25.00    8.00
   9   1   8   45.10   10.70
   0   9  -8    0.50    4.30
  -9   0  -8   -1.20    7.90
   9   0  -8  -10.50    7.00
   9   0   8   -8.10    6.50
   0  -9   8   -6.60    5.60
   0   9   8    2.20    6.60
  -9   0   8   11.90    8.70
   9  -1  -8   35.70   10.50
   1   9  -8   30.70    5.90
  -9   1  -8   15.40   10.40
  -9   1   8   28.30   10.90
   9  -1   8   27.20    9.10
   1   9   8   29.20    7.90
  -9   1   8   10.20    8.20
  -1  -9   8   27.20    7.70
   9  -2  -8  349.57   23.80
   2   9  -8  337.37   18.00
  -9   2  -8  319.27   24.80
   2   9   8  319.07   20.60
  -2  -9   8  326.67   20.50
  -9   2   8  253.47   21.80
  -9   2   8  324.17   25.20
   9  -2   8  303.07   22.70
   9  -3  -8   26.00    9.60
  -9   3  -8   55.89   12.40
   3   9  -8   37.50    6.40
  -3  -9   8   34.30    8.10
  -9   3   8   43.00   12.80
  -9   3   8   35.50   10.40
   3   9   8   31.00    8.30
   4   9  -8  224.38   14.60
  -9   4  -8  195.58   20.40
   9  -4  -8  230.28   21.10
  -9   4   8  226.58   23.10
  -4  -9   8  217.68   17.30
   4   9   8  220.68   16.60
  -9   4   8  228.08   21.40
   5   9  -8  354.26   20.10
  -9   5  -8  373.76   27.00
   5   9   8  334.57   22.10
  -9   5   8  358.76   28.50
  -5  -9   8  358.66   22.60
  -9   5   8  344.57   26.10
   6   9  -8   80.19    9.70
  -9   6  -8   56.79   13.50
  -6  -9   8   85.49   11.70
  -9   6   8   90.39   15.40
  -9   6   8   69.29   15.40
   6   9   8   62.79   10.90
   7   9  -8    9.00    7.20
  -9   7  -8   20.20   11.00
  -9   7   8   19.60   12.30
   7   9   8   10.20    8.20
  -7  -9   8    8.70    7.70
  -9   7   8    1.70   11.20
   8   9  -8    2.70    7.80
  -9   8  -8  -10.30    9.20
  -8  -9   8   -7.30    7.80
  -9   8   8  -11.30   10.50
  -9   8   8   10.50   12.00
   8   9   8    5.00    8.10
  -9   9  -8   19.00   11.40
   9   9  -8    6.60    8.50
   9   9   8   14.80   10.20
  -9   9   8   20.70   10.80
  -9  10  -8  275.87   24.30
  10   9  -8  223.48   19.80
  10   9   8  202.08   20.80
  -9  10   8  183.18   23.00
  10   8  -8   89.19   14.50
  -8  10  -8  121.89   15.70
  -8  10   8  100.39   17.10
 -10  -8   8   92.19   15.50
  10   8   8  132.69   16.70
  -7  10  -8  246.18   20.70
  10   7  -8  240.38   22.10
  10   7   8  218.18   21.60
  10   7   8  266.27   23.10
  -7  10   8  238.68   22.60
 -10  -7   8  259.67   22.90
  10   6  -8   63.39   13.50
  -6  10  -8   96.69   12.20
  -6  10   8   79.69   14.10
 -10  -6   8  112.19   15.60
  10   6   8   67.79   13.60
  10   5  -8   43.50   11.50
  -5  10  -8   43.50    8.70
  -5  10   8   37.50   10.60
 -10  -5   8   31.00   11.00
  10   5   8   34.30   11.30
  10   4  -8    3.30    9.30
  -4  10  -8   -4.60    5.50
  10   4   8    0.70    9.30
 -10  -4   8    9.20    9.00
  -4  10   8   17.70    8.60
  -3  10  -8   16.00    6.10
  10   3  -8   16.90    9.60
  -3  10   8   27.70    9.00
 -10  -3   8   17.10   10.00
  10   3   8   11.70    9.50
  10   2  -8  138.59   16.10
  -2  10  -8  137.49   11.30
 -10  -2   8  133.59   17.00
  10   2   8  127.99   16.30
  -2  10   8  121.99   13.50
  -1  10  -8  428.16   21.90
  10   1  -8  413.66   27.70
 -10  -1   8  388.36   29.50
  -1  10   8  409.76   24.50
   1 -10   8  401.26   25.00
  10   1   8  423.96   28.30
  10   0  -8  669.53   38.80
 -10   0  -8  667.63   41.00
   0  10  -8  743.73   33.00
   0  10   8  690.03   35.40
   0 -10   8  681.93   36.10
 -10   0   8  654.93   40.90
  10   0   8  723.13   39.70
  10  -1  -8  438.46   28.90
 -10   1  -8  421.36   29.90
   1  10  -8  435.26   21.90
 -10   1   8  334.17   27.50
  -1 -10   8  435.96   25.10
  10  -1   8  432.36   28.60
   1  10   8  452.55   25.50
 -10   1   8  431.76   31.20
  10  -2  -8  167.78   18.30
   2  10  -8  134.09   10.70
 -10   2  -8  131.99   18.20
  10  -2   8  169.98   18.30
   2  10   8  124.69   13.00
  -2 -10   8  160.08   14.50
 -10   2   8  123.99   17.20
 -10   2   8  131.79   18.50
 -10   3  -8   42.90   12.70
  10  -3  -8   31.50   10.90
   3  10  -8   24.20    5.60
   3  10   8   15.60    7.50
 -10   3   8   17.00   11.50
 -10   3   8   16.20   11.50
  -3 -10   8   15.30    7.40
  10  -4  -8   -0.60   10.70
   4  10  -8    2.70    4.90
 -10   4  -8   25.40   11.30
 -10   4   8   22.40   11.90
 -10   4   8    8.70   12.00
  -4 -10   8    2.40    6.60
   4  10   8   13.50    7.60
   5  10  -8   39.30    7.00
 -10   5  -8   26.70   12.10
   5  10   8   20.70    8.10
  -5 -10   8   41.70    9.00
 -10   5   8   34.00   14.00
 -10   5   8   34.80   12.20
 -10   6  -8   91.99   16.40
   6  10  -8   83.79    9.80
  -6 -10   8   88.49   15.20
   6  10   8   68.09   11.00
 -10   6   8   67.69   15.90
 -10   6   8   64.09   14.60
   7  10  -8  229.48   17.40
 -10   7  -8  215.88   23.50
   7  10   8  237.38   19.40
 -10   7   8  253.97   24.80
 -10   7   8  228.18   24.10
   8  10  -8   93.49   11.90
 -10   8  -8   91.29   16.30
 -10   8   8  126.59   19.60
   8  10   8  104.39   13.90
 -10   8   8   95.49   17.50
   9  10  -8  225.88   18.00
 -10   9  -8  185.08   22.70
 -10   9   8  260.17   27.60
   9  10   8  220.08   20.00
 -10  10  -8  203.98   23.40
  10  10  -8  192.98   17.40
  10  10   8  225.58   20.60
 -10  10   8  240.78   27.20
  11   9  -8   39.70   10.80
  -9  11  -8   65.89   14.50
  -9  11   8   44.80   15.30
  11   9   8   45.10   13.20
  -8  11  -8  -13.60    8.70
  11   8  -8   -7.70    8.90
 -11  -8   8  -13.70    9.50
  11   8   8   -8.50    8.90
  -8  11   8    4.00   12.50
  11   8   8   -6.90   10.30
  -7  11  -8   76.99   12.60
  11   7  -8   84.29   14.70
  -7  11   8   73.99   15.00
  11   7   8   65.79   14.60
 -11  -7   8   72.09   14.90
  11   7   8   44.40   12.60
  -6  11  -8   15.80    7.90
  11   6  -8   14.40   11.10
  11   6   8   25.90   11.90
 -11  -6   8   29.60   11.80
  -6  11   8   18.90   10.10
  -5  11  -8   88.59   10.80
  11   5  -8   65.49   14.10
 -11  -5   8   90.89   15.60
  11   5   8   70.79   14.60
  -5  11   8   95.69   13.90
  11   4  -8    3.30   10.20
  -4  11  -8    4.70    5.80
  11   4   8   -3.10    9.90
  -4  11   8    5.40    9.00
 -11  -4   8   -9.10    9.00
  -3  11  -8  540.35   27.50
  11   3  -8  555.94   35.10
 -11  -3   8  561.44   36.00
  11   3   8  544.75   34.60
  -3  11   8  502.55   31.00
  -2  11  -8   36.90    6.70
  11   2  -8   25.20   11.60
  -2  11   8   15.30    8.10
  11   2   8   44.50   12.00
 -11  -2   8   30.70   12.20
  -1  11  -8   30.50    5.90
  11   1  -8   11.70   11.00
  11   1   8   14.00   11.00
 -11  -1   8   15.90   11.80
   1 -11   8   37.30    9.10
  -1  11   8   28.60    8.50
 -11   0  -8   21.40   12.00
   0  11  -8    8.10    4.60
  11   0  -8    0.90    9.40
  11   0   8   -3.50    8.90
   0 -11   8   -1.20    6.50
   0  11   8    1.00    6.70
 -11   0   8    2.00   10.90
  11  -1  -8   20.80   11.40
 -11   1  -8    6.50   10.00
   1  11  -8   16.10    4.70
  -1 -11   8   19.20    7.70
   1  11   8   14.10    7.20
  11  -1   8   15.40   10.20
 -11   1   8   19.70   12.70
   2  11  -8   29.00    5.00
  11  -2  -8   35.30   12.30
 -11   2  -8    8.50   11.40
 -11   2   8   61.59   14.50
 -11   2   8   14.40   12.60
   2  11   8   39.20    8.70
  -2 -11   8   32.70    8.60
  11  -2   8   26.80   11.00
 -11   3  -8  551.14   37.10
  11  -3  -8  618.34   37.60
   3  11  -8  555.14   26.60
 -11   3   8  566.64   39.40
 -11   3   8  611.54   37.60
   3  11   8  562.34   30.70
 -11   4  -8   -1.90    9.40
   4  11  -8   -4.30    4.30
   4  11   8   -7.70    6.80
 -11   4   8   14.10   11.20
 -11   4   8   14.00   12.50
   5  11  -8  104.59    9.50
 -11   5  -8   71.19   16.00
   5  11   8   99.89   11.90
 -11   5   8   96.19   18.00
 -11   5   8  100.29   19.00
   6  11  -8   14.90    6.50
 -11   6  -8  -12.60   10.80
   6  11   8   22.70    8.60
 -11   6   8   20.60   12.60
 -11   6   8   11.30   13.40
   7  11  -8   63.89    8.70
 -11   7  -8   42.70   14.40
   7  11   8   70.09   11.40
 -11   7   8  109.79   18.80
 -11   7   8   73.19   17.10
 -11   8  -8   -5.10   11.50
   8  11  -8    0.90    6.20
   8  11   8    2.80    8.00
 -11   8   8   -7.10   11.80
 -11   8   8   15.40   14.40
   9  11  -8   59.59    9.20
 -11   9  -8   47.90   16.40
   9  11   8   72.09   12.20
 -11   9   8   45.00   16.50
  -8  12  -8    8.40    9.30
  12   8  -8    6.30    9.50
  12   8   8   10.50   10.30
  -8  12   8  -35.50   10.70
  12   8   8   -1.00   11.00
  12   7  -8  274.77   25.10
  -7  12  -8  267.47   21.10
  -7  12   8  312.27   27.10
  12   7   8  267.67   25.30
 -12  -7   8  258.87   26.50
  -6  12  -8   -8.80    6.30
  12   6  -8   20.00   11.20
 -12  -6   8   10.20   12.50
  12   6   8    4.40   11.70
  -6  12   8   -6.90    9.80
  -5  12  -8   79.79   10.30
  12   5  -8   88.89   15.10
 -12  -5   8   63.29   15.80
  -5  12   8   76.19   13.90
  12   5   8   63.29   15.20
  12   4  -8   -2.60   10.20
  -4  12  -8   -2.00    5.40
 -12  -4   8    6.90   11.80
  -4  12   8   -8.80    8.50
  12   4   8   -5.10   10.50
  12   3  -8  -11.30   10.30
  -3  12  -8   -3.50    4.90
 -12  -3   8    5.50   11.60
  -3  12   8   10.10    9.20
  12   3   8  -10.40    9.80
  12   2  -8  -18.80    9.70
  -2  12  -8   12.40    5.10
   2 -12   8    0.00    8.00
  -2  12   8   -0.90    7.60
 -12  -2   8   13.50   12.90
  12   2   8    6.90   10.40
  -1  12  -8  318.47   16.30
  12   1  -8  302.47   28.00
 -12  -1   8  230.08   26.50
  12   1   8  284.67   26.00
  -1  12   8  297.97   21.40
   0  12  -8   65.29    6.70
  12   0  -8   78.59   16.20
   0  12   8   65.89   10.50
  12   0   8   75.79   14.90
 -12   0   8   94.09   17.90
 -12   1  -8  330.07   29.30
  12  -1  -8  286.47   28.00
   1  12   8  276.57   19.40
  12  -1   8  296.67   27.00
 -12   1   8  252.37   27.30
  12  -2  -8   18.80   13.00
 -12   2  -8    2.20   10.40
   2  12   8    9.20    7.20
 -12   2   8   16.30   13.70
 -12   3  -8  -23.40    8.40
  12  -3  -8    7.20   11.50
   3  12   8    1.80    6.70
 -12   3   8   10.70   11.70
 -12   3   8  -10.40   11.80
 -12   4  -8    5.20   11.90
   4  12   8   12.00    7.20
 -12   4   8  -26.40    9.60
 -12   4   8  -11.00   12.10
 -12   5  -8   70.19   15.50
   5  12   8   69.69   10.40
 -12   5   8   59.59   14.80
 -12   5   8   70.59   17.00
 -12   6  -8   14.40   12.10
 -12   6   8   23.50   14.70
   6  12   8    4.70    7.30
 -12   6   8   14.40   13.00
 -12   7  -8  229.28   26.00
 -12   7   8  277.17   29.40
   7  12   8  248.98   19.20
 -12   7   8  251.47   26.70
 -12   8  -8   16.80   12.80
 -12   8   8    7.30   13.10
 -12   8   8   -9.30   12.70
  -6  13  -8   42.40    8.80
  13   6  -8   66.69   14.20
 -13  -6   8   20.80   14.40
  13   6   8   56.79   14.80
  -6  13   8   61.99   15.10
  13   5  -8  348.77   29.90
  -5  13  -8  315.27   19.80
  13   5   8  340.67   29.60
  -5  13   8  334.37   26.00
 -13  -5   8  306.27   30.20
  -4  13  -8  142.89   11.70
  13   4  -8  170.78   21.30
  13   4   8  147.19   20.20
 -13  -4   8  136.29   21.20
  -4  13   8  141.59   17.00
  -3  13  -8  144.69   10.70
  13   3  -8  153.78   20.30
 -13  -3   8  111.39   20.10
  -3  13   8  139.99   15.80
  13   3   8  133.09   18.90
  13   2  -8  132.59   19.20
 -13  -2   8   97.19   18.80
  13   2   8  141.49   19.30
  -2  13   8  106.99   13.70
  13   1  -8   65.89   17.40
 -13  -1   8   68.79   17.50
  -1  13   8   58.19   10.80
  13   1   8   75.39   16.10
  13   0  -8   -5.20   11.20
  13   0   8   12.50   11.10
   0  13   8    4.40    7.70
 -13   0   8   14.40   12.80
  13  -1  -8   93.69   17.90
 -13   1   8   95.69   19.40
  13  -1   8  106.09   17.70
   1  13   8   72.89   10.60
  13  -2  -8  159.68   22.70
 -13   2  -8  124.49   19.40
 -13   2   8  129.49   20.50
   2  13   8  121.79   12.70
 -13   3  -8  111.69   19.10
   3  13   8   87.49   10.70
 -13   3   8  115.49   20.10
 -13   4  -8  134.99   20.00
 -13   4   8  133.19   20.90
 -13   4   8  139.99   23.00
 -13   5  -8  276.17   28.70
 -13   5   8  326.17   30.50
 -13   5   8  294.27   32.40
 -13   6  -8   17.80   13.50
 -13   6   8   51.79   17.30
   6  13   8   53.49    8.80
 -13   6   8   51.29   15.80
  14   3  -8   23.00   13.10
  14   3   8   47.60   14.60
 -14  -3   8   60.19   18.20
  -3  14   8   40.60   11.70
  14   2  -8   81.69   17.80
 -14  -2   8   89.89   18.70
  14   2   8   83.49   16.40
  14   1  -8   43.50   15.10
 -14  -1   8   52.39   16.80
  14   1   8   62.19   15.00
  -1  14   8   66.49   11.10
  14   0  -8  242.58   26.50
   0  14   8  245.88   18.90
  14   0   8  278.87   26.30
 -14   0   8  171.88   23.70
  14  -1  -8   45.20   15.70
 -14   1   8   54.49   16.80
   1  14   8   48.00    9.20
  14  -2  -8  114.09   20.20
 -14   2   8  109.09   21.10
   2  14   8   76.09   10.00
 -14   3  -8  -10.80   11.30
   3  14   8   29.00    7.70
   0   0  -9    1.40    5.30
   0   0   9    0.80    4.90
   0   0   9   -2.70    4.10
   0  -1  -9  349.87   20.30
   1   0  -9  361.06   20.40
  -1   0  -9  342.37   20.30
   0   1  -9  365.96   20.50
   1   0   9  352.76   20.30
   0  -1   9  352.76   21.20
   0   1   9  385.46   20.80
  -1   0   9  373.16   21.20
   0  -1   9  331.97   19.90
   1   0   9  349.67   20.80
   0   1   9  367.26   20.90
  -1   0   9  360.86   20.50
   1  -1  -9   61.79    8.40
  -1  -1  -9   42.20    7.50
  -1   1  -9   51.99    7.90
   1   1  -9   53.89    7.80
  -1  -1   9   47.60    8.30
  -1   1   9   42.40    7.60
   1  -1   9   47.20    7.00
   1  -1   9   39.80    7.90
   1   1   9   45.90    7.60
   1   1   9   72.29    8.80
  -1  -1   9   32.90    6.40
  -1   1   9   47.90    7.90
   2   1  -9   -4.60    4.00
   1  -2  -9   -0.80    4.80
  -1   2  -9   -7.70    4.80
  -2  -1  -9   -1.80    4.80
  -2  -1   9    3.10    5.00
  -2  -1   9    0.50    5.20
  -1   2   9    1.10    5.50
   1  -2   9    4.60    4.70
  -1   2   9    0.50    5.40
   2   1   9    4.80    4.30
  -2   0  -9    1.50    5.20
   0   2  -9    2.20    5.10
   2   0  -9   -6.60    3.60
   0  -2  -9    0.30    4.60
   0  -2   9    2.80    5.50
  -2   0   9   -2.90    4.50
   0  -2   9   -0.50    4.50
   0   2   9    9.10    5.60
   2   0   9   -1.00    4.30
  -2   0   9   -2.80    5.40
   0   2   9    7.00    5.50
   2  -1  -9    3.60    5.40
   1   2  -9    2.50    4.80
  -2   1  -9   -2.10    5.20
  -1  -2  -9    4.30    4.50
  -2   1   9   -2.70    4.30
  -1  -2   9    1.00    3.90
   1   2   9   -2.60    4.90
  -1  -2   9    1.10    5.30
   2  -1   9    4.90    4.90
   1   2   9   -0.50    4.40
  -2   1   9    6.50    5.70
   2  -2  -9  303.77   18.10
   2   2  -9  259.87   17.10
  -2   2  -9  263.17   17.10
  -2  -2  -9  314.57   18.20
  -2  -2   9  278.67   18.20
   2   2   9  292.27   17.90
  -2  -2   9  268.57   17.00
  -2   2   9  306.37   18.40
   2   2   9  287.47   17.50
   2  -2   9  241.48   16.40
  -2   2   9  297.87   18.30
   2  -3  -9   27.10    6.80
  -3  -2  -9   17.60    6.10
  -2   3  -9   14.20    5.60
   3   2  -9   18.90    5.90
  -3  -2   9   21.70    6.70
  -2   3   9   14.30    6.10
  -2   3   9   22.90    6.70
   3   2   9   19.40    6.40
  -3  -2   9   19.30    5.90
   2  -3   9   15.80    5.30
  -3  -1  -9   31.00    7.20
  -1   3  -9   28.50    6.50
   3   1  -9   34.80    7.30
   1  -3  -9   37.80    7.10
   1  -3   9   29.30    5.90
  -1   3   9   37.30    7.20
  -3  -1   9   30.00    7.80
  -3  -1   9   32.20    7.20
  -1   3   9   33.70    6.80
   3   1   9   43.90    7.20
   0  -3  -9  242.88   15.90
   0   3  -9  245.18   15.80
  -3   0  -9  231.78   15.80
   3   0  -9  250.37   16.30
   0   3   9  239.98   16.30
   0   3   9  232.48   15.50
  -3   0   9  274.57   17.30
  -3   0   9  204.78   15.40
   3   0   9  240.58   15.90
   0  -3   9  232.48   16.70
   0  -3   9  256.17   16.10
  -3   1  -9   37.10    7.10
  -1  -3  -9   36.80    7.30
   1   3  -9   33.20    6.50
   3  -1  -9   38.50    7.70
   3  -1   9   44.40    7.40
   1   3   9   41.10    7.50
  -1  -3   9   36.90    7.90
  -3   1   9   36.90    7.70
  -3   1   9   33.00    7.10
   1   3   9   33.60    6.90
   3  -2  -9   17.70    6.00
  -2  -3  -9   28.00    6.20
   2   3  -9   18.40    5.90
  -3   2  -9   13.90    5.70
   2   3   9   23.00    6.10
   2   3   9   21.70    6.90
  -2  -3   9   20.20    6.70
   3  -2   9   29.70    6.50
  -3   2   9   32.60    7.50
  -3   2   9   14.10    6.80
   3   3  -9  371.66   20.70
  -3   3  -9  338.57   20.80
  -3  -3  -9  372.86   21.40
   3  -3  -9  298.87   20.30
   3   3   9  337.77   20.90
  -3  -3   9  386.86   22.20
  -3   3   9  384.76   21.70
  -3   3   9  389.76   22.20
   3  -3   9  369.86   20.60
   4   3  -9  170.58   13.50
  -4  -3  -9  175.68   14.70
   3  -4  -9  187.48   14.70
  -3   4  -9  183.28   13.90
  -3   4   9  152.48   14.00
  -3   4   9  184.78   15.40
   4   3   9  185.58   14.60
  -4  -3   9  192.78   16.40
   4   2  -9   19.70    6.40
  -2   4  -9   17.30    5.70
   2  -4  -9    8.70    6.00
  -4  -2  -9    9.90    5.30
   4   2   9    3.20    4.90
  -4  -2   9   10.40    6.80
  -4  -2   9    9.40    6.60
  -2   4   9   11.80    5.80
  -2   4   9   19.00    6.80
  -1   4  -9   16.50    5.70
   1  -4  -9   13.50    6.20
  -4  -1  -9   10.50    5.80
   4   1  -9   16.90    5.90
  -4  -1   9   20.00    5.90
  -1   4   9    8.80    6.60
  -4  -1   9   17.60    7.00
  -1   4   9   16.00    6.00
   4   1   9    9.00    5.80
  -4   0  -9   -3.90    5.40
   0  -4  -9    8.50    4.80
   4   0  -9    8.40    5.50
   0   4  -9    8.30    5.30
   4   0   9    4.30    5.50
   0   4   9   -5.00    5.40
  -4   0   9    3.80    6.30
  -4   0   9    3.30    5.00
   0  -4   9   -7.00    5.40
   0   4   9   -1.20    4.60
   4  -1  -9   12.50    6.00
  -1  -4  -9   19.80    6.10
  -4   1  -9   17.20    7.20
   1   4  -9   14.10    5.70
  -1  -4   9   18.00    7.10
   1   4   9    9.60    5.20
  -4   1   9    1.60    6.20
   4  -1   9   20.40    6.60
   1   4   9    3.80    5.70
  -4   1   9    7.90    5.90
  -4   2  -9   18.60    7.00
  -2  -4  -9    8.90    5.40
   4  -2  -9   15.90    6.20
   2   4  -9    9.30    5.10
   2   4   9   28.70    6.60
   2   4   9   12.70    6.90
  -4   2   9   19.70    6.40
  -2  -4   9    8.70    6.30
  -4   2   9   21.20    7.00
   4  -2   9    8.20    6.00
  -4   3  -9  153.38   14.20
   3   4  -9  158.58   13.10
   4  -3  -9  192.68   15.50
  -4   3   9  164.78   14.70
  -4   3   9  190.28   14.90
  -3  -4   9  141.09   13.90
   4  -3   9  174.88   13.40
   3   4   9  184.68   14.30
   3   4   9  196.18   13.30
  -4   4  -9   -1.60    5.60
   4  -4  -9    3.20    5.50
   4   4  -9    3.30    4.80
   4   4   9   -4.30    5.60
  -4  -4   9   -6.70    5.80
  -4   4   9   -3.70    6.20
  -4   4   9    6.60    6.50
   5   4  -9    6.50    6.10
  -4   5  -9   17.80    6.50
  -4   5   9   16.60    7.50
   5   4   9   19.90    6.90
  -5  -4   9   10.30    6.90
  -4   5   9    5.50    7.40
  -3   5  -9   32.10    7.20
   5   3  -9   37.30    7.90
  -5  -3  -9    1.50    5.40
  -3   5   9   41.80    8.10
   5   3   9   29.70    7.40
  -3   5   9   34.60    7.70
  -5  -3   9   29.30    8.20
  -2   5  -9    1.70    5.40
  -5  -2  -9    3.70    6.60
   5   2  -9    9.30    6.20
  -2   5   9   -4.30    5.00
  -2   5   9    1.00    6.10
   5   2   9    1.60    5.90
  -5  -2   9    1.90    6.00
   5   1  -9  128.09   12.50
  -1   5  -9  111.39   10.80
  -5  -1  -9   96.89   11.40
  -5  -1   9  125.09   13.20
  -5  -1   9  110.69   11.30
  -1   5   9   97.79   11.40
  -1   5   9  102.69   10.40
   5   1   9  103.99   11.20
  -5   0  -9  149.29   14.10
   5   0  -9  159.98   14.10
   0   5  -9  152.18   12.10
   5   0   9  145.39   13.10
  -5   0   9  147.49   13.70
  -5   0   9  141.19   14.10
   0   5   9  152.38   13.50
   0   5   9  157.08   12.10
   5   0   9  158.38   13.80
   0  -5   9  174.98   14.90
   5  -1  -9   97.69   11.20
  -5   1  -9  119.79   12.90
   1   5  -9  101.59   10.20
   1   5   9  107.49   11.10
  -5   1   9   93.99   11.50
   5  -1   9  107.89   11.00
   5  -1   9  113.69   11.40
   1   5   9  108.29    9.80
  -1  -5   9  126.99   12.70
  -5   1   9  119.59   12.60
  -5   2  -9   -4.40    6.20
   2   5  -9    4.50    4.80
   5  -2  -9    5.50    6.50
   5  -2   9   -3.10    4.70
  -5   2   9    7.80    6.20
  -5   2   9    4.70    6.80
   2   5   9    1.90    4.70
  -2  -5   9   -1.40    5.50
   5  -2   9    2.70    5.70
   2   5   9   -1.30    6.10
   3   5  -9   23.80    6.20
   5  -3  -9   33.70    7.70
  -5   3  -9   19.80    7.80
  -5   3   9   24.00    8.20
   5  -3   9   31.70    7.00
   3   5   9   40.00    8.30
  -3  -5   9   38.00    8.10
  -5   3   9   16.00    8.10
   3   5   9   27.30    6.40
   5  -4  -9    9.90    7.00
  -5   4  -9   12.90    7.00
   4   5  -9   19.70    6.10
  -4  -5   9    8.20    6.30
  -5   4   9   13.70    7.80
   4   5   9   16.80    6.60
  -5   4   9   -0.30    6.10
   4   5   9   17.30    7.40
  -5   5  -9    8.20    6.00
   5   5  -9    7.20    5.90
  -5   5   9    5.80    7.30
  -5  -5   9    8.90    7.30
  -5   5   9   -3.50    7.40
   5   5   9   15.00    7.00
  -5   6  -9  271.57   19.20
   6   5  -9  245.38   18.10
   6   5   9  278.07   20.10
  -5   6   9  307.17   20.80
  -6  -5   9  282.57   19.90
  -5   6   9  260.97   20.30
  -4   6  -9   60.79    9.60
   6   4  -9   44.10    8.40
  -4   6   9   48.90   10.30
  -6  -4   9   41.40    9.10
   6   4   9   67.39   10.60
  -4   6   9   55.39    9.90
  -3   6  -9   -0.90    5.50
   6   3  -9   10.60    6.00
  -3   6   9    2.70    6.60
  -3   6   9   -1.50    5.80
   6   3   9   -8.70    6.30
   6   3   9    3.20    6.70
  -6  -3   9    5.30    7.00
  -2   6  -9  105.69   10.70
  -6  -2  -9  123.29   13.40
   6   2  -9  112.69   11.80
   6   2   9   99.09   12.00
  -6  -2   9   98.69   12.30
   6   2   9   83.19   11.40
  -2   6   9  105.29   11.80
  -2   6   9  122.29   11.50
  -6  -1  -9   16.70    7.50
  -1   6  -9   17.90    6.10
   6   1  -9   19.90    6.80
  -1   6   9   19.20    6.50
   6   1   9   22.20    8.10
  -6  -1   9   17.70    7.60
  -6  -1   9   10.00    6.30
  -1   6   9   22.90    7.30
   6   1   9   32.40    8.10
  -6   0  -9   -3.10    6.90
   6   0  -9    6.90    6.70
   0   6  -9   -3.30    4.70
   0   6   9   -2.20    4.80
  -6   0   9    0.40    6.90
  -6   0   9   -1.30    4.70
   6   0   9    2.40    5.50
   6   0   9   -4.80    6.10
   0   6   9   -3.20    5.90
   0  -6   9    2.20    5.80
  -6   1  -9   28.60    7.80
   6  -1  -9   22.30    7.80
   1   6  -9    2.00    5.00
   1   6   9   22.60    7.70
   6  -1   9    8.60    6.40
  -1  -6   9   20.10    7.50
  -6   1   9   30.10    7.90
  -6   1   9   20.60    8.50
   6  -1   9   23.50    6.90
   6  -2  -9  115.29   12.50
   2   6  -9   96.89    9.90
  -6   2  -9   87.89   11.60
  -6   2   9  120.49   13.40
  -6   2   9  109.19   13.40
   2   6   9  136.79   13.10
   6  -2   9   88.99   11.10
   6  -2   9  100.89   11.50
  -2  -6   9  117.69   12.30
  -6   3  -9    6.70    6.40
   6  -3  -9    3.00    7.00
   3   6  -9    1.30    5.10
  -6   3   9   13.70    8.00
   6  -3   9   -7.10    6.00
  -6   3   9    6.10    6.30
   3   6   9   10.50    6.50
  -3  -6   9   -6.90    5.60
   4   6  -9   60.59    8.40
  -6   4  -9   67.59   11.10
   6  -4  -9   56.69   10.50
  -6   4   9   63.99   10.50
  -6   4   9   48.50   10.60
   4   6   9   56.69    9.70
  -4  -6   9   50.19    9.40
   5   6  -9  262.57   17.70
  -6   5  -9  273.97   19.90
  -6   5   9  256.17   21.00
  -5  -6   9  256.37   19.50
   5   6   9  296.07   19.30
  -6   5   9  263.37   20.50
  -6   6  -9  242.68   19.50
   6   6  -9  256.57   18.10
  -6   6   9  269.67   21.20
   6   6   9  278.17   20.00
  -6  -6   9  256.37   19.70
  -6   6   9  295.77   22.70
  -6   7  -9    8.80    7.90
   7   6  -9   18.30    7.40
  -6   7   9    7.70    9.40
   7   6   9   29.60    9.20
  -7  -6   9    6.60    7.80
  -6   7   9   36.00   11.40
  -5   7  -9   19.10    7.60
   7   5  -9   38.30    8.70
  -5   7   9   33.20   10.10
  -7  -5   9   24.50    8.40
   7   5   9   55.59   10.50
  -5   7   9   42.50   10.30
  -4   7  -9   27.60    7.60
   7   4  -9   37.10    8.60
  -4   7   9   31.80    9.30
  -4   7   9   38.50    9.40
   7   4   9   15.60    8.00
  -7  -4   9   37.70    9.60
   7   4   9   40.30   10.00
  -3   7  -9   31.80    7.50
   7   3  -9   25.40    8.10
  -3   7   9   34.40    9.10
   7   3   9   30.50    8.70
  -7  -3   9   34.90    9.50
   7   3   9   40.00    9.50
  -7  -2  -9  114.19   13.30
   7   2  -9   93.79   12.00
  -2   7  -9   90.09   10.00
   7   2   9  106.69   13.10
  -2   7   9   86.09   11.60
   7   2   9   90.09   12.10
  -7  -2   9   67.79   11.90
  -7  -1  -9   -4.50    7.30
   7   1  -9    2.50    6.80
  -1   7  -9   -2.50    4.50
  -1   7   9    7.20    6.80
  -7  -1   9    2.70    7.00
   7   1   9    3.20    7.30
   0   7  -9   51.19    7.80
  -7   0  -9   40.10    9.70
   7   0  -9   51.69   10.40
   0   7   9   57.89   10.00
   0  -7   9   44.50    8.60
  -7   0   9   57.89   10.10
   7   0   9   47.70    9.30
  -7   0   9   41.70   10.10
  -7   1  -9   -1.30    7.60
   7  -1  -9    8.70    7.70
   1   7  -9   -0.80    4.70
  -7   1   9   10.90    8.20
  -7   1   9    0.60    7.40
   7  -1   9   -4.70    6.40
   1   7   9    4.90    6.50
  -1  -7   9    2.00    6.00
   2   7  -9   86.39    9.60
  -7   2  -9  106.09   13.80
   7  -2  -9  103.29   13.10
   2   7   9   98.39   11.60
   7  -2   9   89.39   12.20
  -7   2   9  102.59   13.50
  -7   2   9  110.29   14.20
  -2  -7   9  106.39   12.10
  -7   3  -9   28.30   10.10
   3   7  -9   24.10    6.40
   7  -3  -9   40.90    9.00
  -7   3   9   30.60   10.20
  -3  -7   9   51.89    9.50
  -7   3   9   42.80   10.10
   3   7   9   35.80    8.30
   4   7  -9   40.10    7.50
   7  -4  -9   31.80    9.30
  -7   4  -9   42.50   10.10
  -7   4   9   35.90   11.00
  -7   4   9   53.89   10.60
  -4  -7   9   38.50    9.00
   4   7   9   42.00    9.20
   5   7  -9   24.40    7.10
  -7   5  -9   51.69   11.20
  -7   5   9   41.10   10.80
  -7   5   9   50.69   12.20
   5   7   9   40.10    8.70
  -5  -7   9   33.60    8.60
   6   7  -9   24.60    7.40
  -7   6  -9   12.80    8.30
  -7   6   9   11.10   10.40
  -6  -7   9   15.70    7.70
  -7   6   9    6.90    8.60
   6   7   9   27.10    8.50
   7   7  -9   53.99    9.60
  -7   7  -9   27.90    9.50
  -7  -7   9   52.09   10.30
   7   7   9   26.60    9.90
  -7   7   9   46.80   11.80
  -7   7   9   37.40   12.80
  -7   8  -9   -5.00    7.60
   8   7  -9    3.90    7.50
  -7   8   9   -8.60    8.90
   8   7   9   -2.80    8.00
  -8  -7   9   -3.50    7.50
  -6   8  -9    9.70    7.10
   8   6  -9    2.30    7.10
  -6   8   9   14.00    9.00
   8   6   9   -9.80    7.10
  -8  -6   9   11.80    8.40
  -5   8  -9   78.09   10.80
   8   5  -9   66.89   10.90
  -8  -5   9   69.09   12.30
   8   5   9   91.29   13.40
  -5   8   9   81.69   13.30
   8   5   9   80.99   12.80
   8   4  -9   97.29   12.90
  -4   8  -9   98.89   11.30
   8   4   9  107.39   14.00
  -4   8   9  129.19   14.60
  -8  -4   9  121.99   15.00
   8   4   9  133.59   15.70
   8   3  -9    3.40    7.20
  -3   8  -9    7.60    6.00
   8   3   9    6.90    7.70
  -3   8   9    3.80    7.30
  -8  -3   9    0.00    7.80
  -2   8  -9   46.40    8.10
   8   2  -9   42.60    9.40
  -2   8   9   50.39    9.80
   8   2   9   52.79   10.90
  -8  -2   9   59.49   11.20
   8   1  -9    0.80    7.00
  -8  -1  -9   -2.60    7.70
  -1   8  -9    8.80    5.40
  -8  -1   9   21.90    8.80
   8   1   9    6.90    7.80
  -1   8   9    1.10    6.50
   1  -8   9   14.00    6.80
  -8   0  -9   12.90    8.00
   8   0  -9   -3.80    7.30
   0   8  -9  -11.60    4.50
  -8   0   9  -10.90    7.70
   8   0   9    4.30    7.80
   0   8   9    4.40    6.30
  -8   0   9   -4.70    7.90
   0  -8   9   -3.40    5.80
   1   8  -9    9.60    5.40
  -8   1  -9    6.20    8.10
   8  -1  -9   12.40    8.20
  -8   1   9   13.60    8.30
   1   8   9    1.80    6.00
  -1  -8   9   11.00    7.00
  -8   1   9   18.00    9.30
   8  -1   9   16.20    8.90
  -8   2  -9   55.59   11.60
   2   8  -9   63.49    8.10
   8  -2  -9   55.29   11.30
   2   8   9   58.89    9.40
  -8   2   9   64.59   12.50
  -8   2   9   40.40   10.20
   8  -2   9   51.89   11.10
  -2  -8   9   52.79    9.50
  -8   3  -9    5.20    9.30
   3   8  -9   17.00    5.90
   8  -3  -9    4.60    7.60
  -8   3   9    6.10    9.10
  -8   3   9    2.90    7.10
  -3  -8   9    3.70    6.60
   3   8   9   -0.30    6.90
  -8   4  -9  113.89   15.10
   8  -4  -9  128.49   15.40
   4   8  -9  129.79   11.70
  -8   4   9  111.89   16.00
  -8   4   9  133.69   16.30
  -4  -8   9  129.29   14.10
   4   8   9  126.89   13.70
  -8   5  -9  101.99   14.80
   5   8  -9   81.19   10.00
   5   8   9   66.99   11.30
  -8   5   9   65.99   13.00
  -8   5   9   71.69   14.90
  -5  -8   9   88.29   11.90
  -8   6  -9   12.60    9.80
   6   8  -9    1.60    6.20
  -8   6   9    9.50    8.90
  -8   6   9   -0.60   10.60
   6   8   9   30.90    8.80
  -6  -8   9   -0.40    6.90
  -8   7  -9    6.40    9.90
   7   8  -9   -4.20    6.60
  -8   7   9   -9.40    9.10
  -8   7   9   -1.30   10.60
  -7  -8   9   -3.00    7.40
   7   8   9    0.40    7.60
   8   8  -9   11.00    8.30
  -8   8  -9   -5.80    9.40
  -8   8   9   15.00   11.00
   8   8   9   17.60    9.30
  -8  -8   9   -6.00    7.60
  -8   9  -9  193.98   20.50
   9   8  -9  235.48   20.60
  -8   9   9  228.78   22.60
  -9  -8   9  239.48   21.80
   9   8   9  210.68   20.30
  -7   9  -9    2.60    7.80
   9   7  -9    3.50    8.10
   9   7   9   -2.20    9.20
  -7   9   9   13.50   10.90
  -9  -7   9   11.70    9.20
   9   6  -9   -5.10    7.60
  -6   9  -9   10.30    7.60
   9   6   9   -0.10    8.30
  -6   9   9   -4.70    9.40
  -9  -6   9   16.20    9.20
   9   6   9    9.60   10.00
   9   5  -9   20.70    9.00
  -5   9  -9   28.70    8.30
  -5   9   9   34.10   10.90
   9   5   9   17.70    9.80
   9   5   9   30.20   10.60
  -9  -5   9   31.30   10.80
   9   4  -9    8.80    8.20
  -4   9  -9    1.70    6.40
  -9  -4   9    4.20    8.30
   9   4   9   11.10    9.40
  -4   9   9   -4.70    7.30
  -3   9  -9   12.80    6.30
   9   3  -9    4.50    7.20
  -9  -3   9    1.90    8.40
   9   3   9   29.20   10.40
  -3   9   9    6.70    7.70
   9   2  -9  142.19   15.80
  -2   9  -9  142.19   12.30
  -2   9   9  104.89   13.00
   9   2   9  128.49   16.20
  -9  -2   9  132.29   15.80
   9   1  -9   69.29   12.30
  -9  -1  -9   84.99   14.60
  -1   9  -9   48.60    7.90
   9   1   9   65.59   12.60
   1  -9   9   46.20    9.40
  -1   9   9   69.49   10.80
  -9  -1   9   61.99   12.90
  -9   0  -9  150.18   18.10
   0   9  -9  134.99   11.50
   9   0  -9  145.69   16.40
  -9   0   9  129.89   16.50
   0  -9   9  139.59   14.40
   0   9   9  111.39   13.30
   9   0   9  130.09   16.00
   1   9  -9   57.39    7.70
  -9   1  -9   51.79   11.70
   9  -1  -9   45.10   10.80
  -1  -9   9   64.99   10.30
  -9   1   9   56.69   12.40
  -9   1   9   63.99   12.70
   9  -1   9   48.80   11.00
   1   9   9   39.90    9.00
   2   9  -9  131.49   11.40
  -9   2  -9  127.39   16.80
   9  -2  -9  126.09   15.80
   2   9   9  144.19   14.20
  -2  -9   9  156.38   14.70
  -9   2   9  150.58   17.10
  -9   2   9  102.59   16.30
   9  -2   9  107.99   15.10
  -9   3  -9    0.10    9.10
   3   9  -9    7.40    5.80
   9  -3  -9    1.30    8.70
   3   9   9   17.30    8.00
  -3  -9   9   15.10    7.40
  -9   3   9   23.60   11.00
  -9   3   9   13.90   10.90
   4   9  -9   -2.30    5.20
   9  -4  -9    5.20    9.60
  -9   4  -9   -0.40    8.00
   4   9   9    6.80    7.30
  -9   4   9    0.00   10.00
  -4  -9   9    2.40    6.90
  -9   4   9    4.40   10.20
  -9   5  -9   29.60   11.90
   5   9  -9   23.90    7.00
  -5  -9   9   42.20    9.60
  -9   5   9   28.70   12.10
   5   9   9   27.60    9.10
  -9   5   9   39.50   13.70
   6   9  -9   13.60    7.00
  -9   6  -9   15.80   10.60
   6   9   9   -8.40    7.40
  -9   6   9   -8.30   11.40
  -9   6   9   17.20   10.00
  -6  -9   9   21.00    8.40
   7   9  -9    9.80    7.20
  -9   7  -9    4.50   10.40
  -9   7   9    8.10   10.00
  -9   7   9    2.90   11.50
  -7  -9   9    9.50    7.90
   7   9   9    9.70    9.10
   8   9  -9  227.38   18.80
  -9   8  -9  228.08   22.30
   8   9   9  203.28   20.00
  -9   8   9  232.68   24.30
  -8  -9   9  213.88   20.50
   9   9  -9   26.70   10.60
  -9   9  -9   48.50   13.30
  -9  -9   9   65.19   13.70
  -9   9   9   52.89   14.60
   9   9   9   52.99   12.30
  -9  10  -9   -6.40    9.60
  10   9  -9    5.20    9.40
  10   9   9  -13.60    8.90
  -9  10   9    8.60   12.00
  -8  10  -9    5.20    9.70
  10   8  -9    8.70    9.90
 -10  -8   9   -3.60    9.10
  10   8   9  -16.90    8.60
  -8  10   9  -13.60   10.70
  10   7  -9   21.10   10.40
  -7  10  -9   21.00    9.80
 -10  -7   9   29.50   11.00
  10   7   9   37.00   12.00
  -7  10   9    4.60   10.20
  -6  10  -9   -3.20    7.10
  10   6  -9   11.20    9.40
  10   6   9   10.60   10.10
 -10  -6   9   -9.50    8.40
  10   6   9    1.50    9.90
  -6  10   9   13.20   10.30
  -5  10  -9   26.90    8.40
  10   5  -9   18.80    9.60
  10   5   9   37.90   11.60
  -5  10   9   38.40   10.90
 -10  -5   9   19.60   10.30
  10   5   9   28.90   11.30
  -4  10  -9   61.89    9.40
  10   4  -9   54.19   12.10
  -4  10   9   35.80   10.10
 -10  -4   9   57.79   12.90
  10   4   9   35.50   12.50
  10   3  -9   10.30    8.90
  -3  10  -9   10.40    6.30
  10   3   9    3.60    9.80
  -3  10   9    8.60    8.30
 -10  -3   9   28.40   10.50
  10   2  -9    1.60    8.70
  -2  10  -9   27.10    6.80
  10   2   9   41.90   12.30
 -10  -2   9   -0.80    9.20
  -2  10   9   24.80    8.60
  10   1  -9  218.88   20.00
  -1  10  -9  189.38   14.20
   1 -10   9  193.38   17.50
 -10  -1   9  190.08   21.00
  10   1   9  222.88   21.30
  -1  10   9  186.28   16.90
   0  10  -9   -8.00    4.60
 -10   0  -9   -1.80    9.00
  10   0  -9  -19.90    7.30
   0  10   9   -7.20    6.80
 -10   0   9   15.70   10.80
  10   0   9   12.20    9.10
   0 -10   9    7.80    6.80
  10  -1  -9  227.38   21.60
   1  10  -9  214.18   14.60
 -10   1  -9  212.88   23.10
  10  -1   9  216.88   20.50
   1  10   9  187.48   16.90
  -1 -10   9  214.18   18.10
 -10   1   9  193.38   22.00
 -10   2  -9   38.00   11.90
   2  10  -9   20.00    5.90
  10  -2  -9   14.80   10.90
 -10   2   9   17.20   11.20
 -10   2   9    1.20   11.10
  -2 -10   9   20.80    7.90
   2  10   9   13.90    8.10
 -10   3  -9    7.70    9.60
  10  -3  -9   -3.90    9.40
   3  10  -9    8.40    5.50
   3  10   9    4.60    7.60
 -10   3   9   19.10    9.80
 -10   3   9   -8.10   10.70
  -3 -10   9    6.80    7.30
 -10   4  -9   53.39   14.70
   4  10  -9   62.39    8.00
   4  10   9   53.49   10.40
  -4 -10   9   68.79   11.30
 -10   4   9   65.19   15.90
 -10   4   9   55.19   12.70
   5  10  -9    9.90    6.20
 -10   5  -9   14.10   11.40
  -5 -10   9   16.30    8.50
 -10   5   9   27.50   12.40
   5  10   9   28.00    9.00
 -10   5   9   25.90   13.70
   6  10  -9   18.70    6.80
 -10   6  -9   23.90   12.20
  -6 -10   9   -7.70    7.00
 -10   6   9   19.60   12.80
 -10   6   9   22.90   12.80
   6  10   9    3.20    8.30
 -10   7  -9   17.90   11.90
   7  10  -9    8.20    7.30
 -10   7   9   17.80   12.80
 -10   7   9   -1.10   11.80
   7  10   9   28.70    9.70
   8  10  -9   13.70    8.30
 -10   8  -9    0.30   11.50
   8  10   9   10.00    9.30
 -10   8   9   19.90   12.00
 -10   8   9   10.50   17.60
   9  10  -9   13.90    8.50
 -10   9  -9    2.20   11.90
 -10   9   9   -0.20   12.60
   9  10   9    0.20    9.50
  11   8  -9   17.30   11.50
  -8  11  -9   -7.40    8.90
 -11  -8   9    5.00   11.10
  11   8   9   10.30   11.40
  -8  11   9    7.20   12.20
  11   7  -9   16.50   11.40
  -7  11  -9    9.80    8.70
  -7  11   9    8.70   12.00
 -11  -7   9    2.00    9.50
  11   7   9   14.40   11.60
  11   7   9  -18.80    8.60
  -6  11  -9   16.60    8.20
  11   6  -9   27.20   11.80
 -11  -6   9   38.90   13.10
  11   6   9   26.70   13.00
  11   6   9   35.90   12.70
  -6  11   9   50.19   12.60
  -5  11  -9   -7.80    6.00
  11   5  -9   11.30   10.80
  11   5   9    0.60   10.70
 -11  -5   9   -9.80    9.70
  -5  11   9    1.90    9.70
  -4  11  -9    9.50    6.60
  11   4  -9   22.50   11.00
  11   4   9   16.70   11.00
 -11  -4   9   23.00   12.10
  -4  11   9    0.40    9.20
  11   3  -9   53.09   13.20
  -3  11  -9   61.99    8.70
  -3  11   9   35.50   10.50
  11   3   9   39.00   13.20
 -11  -3   9   57.79   14.30
  11   2  -9   28.50   11.80
  -2  11  -9   26.80    7.00
  -2  11   9   29.30    9.70
   2 -11   9   37.20    9.40
 -11  -2   9   14.60   11.40
  11   2   9   20.10   11.70
  11   1  -9   12.70   10.90
  -1  11  -9   24.90    6.40
  11   1   9   21.50   10.80
 -11  -1   9   30.90   13.20
  -1  11   9   20.20    9.10
   1 -11   9   17.00    8.10
   0  11  -9   70.49    8.20
  11   0  -9   58.49   14.00
 -11   0   9   76.09   15.80
   0 -11   9   64.49   11.10
  11   0   9   53.89   13.90
   0  11   9   57.49   10.80
 -11   1  -9   12.90   11.10
  11  -1  -9   18.70   11.50
   1  11  -9   20.00    5.50
  11  -1   9   36.20   12.20
 -11   1   9   21.30   13.40
   1  11   9   17.10    8.30
  -1 -11   9   35.40    9.00
   2  11  -9   34.20    6.10
  11  -2  -9   20.40   12.80
 -11   2  -9   18.70   13.10
   2  11   9   41.60    9.40
  -2 -11   9   36.00    9.40
 -11   2   9   39.40   14.80
 -11   3  -9   36.40   14.20
  11  -3  -9   59.69   14.20
   3  11  -9   67.39    7.50
   3  11   9   56.49   10.30
 -11   3   9   25.30   15.00
  -3 -11   9   53.09   12.40
 -11   3   9   48.60   13.20
 -11   4  -9   13.10   12.10
   4  11  -9   14.60    5.70
 -11   4   9  -14.70   12.00
 -11   4   9   29.60   13.80
   4  11   9    3.00    7.60
   5  11  -9    1.20    5.60
 -11   5  -9    6.50   12.70
   5  11   9    6.90    8.20
 -11   5   9    6.30   12.80
 -11   5   9    1.50   10.40
 -11   6  -9   48.70   15.20
   6  11  -9   18.10    7.10
 -11   6   9    7.20   11.50
 -11   6   9   29.60   14.40
   6  11   9   41.40    9.80
 -11   7  -9   12.10   13.00
   7  11  -9    2.50    6.80
 -11   7   9    6.70   12.70
   7  11   9   -1.10    8.20
 -11   7   9   -2.60   12.60
 -11   8  -9   15.10   13.50
   8  11  -9   13.30    7.40
 -11   8   9   -5.10   11.50
   8  11   9   21.30    9.30
 -11   8   9   26.20   18.00
  12   7  -9   17.90   11.40
  12   7   9    6.10   11.10
 -12  -7   9   15.90   12.50
  12   6  -9   17.80   12.10
  -6  12  -9   -4.90    6.70
 -12  -6   9   -6.00   11.20
  12   6   9   19.80   11.90
  12   6   9   -3.50   11.10
  -6  12   9    9.20   11.20
  12   5  -9   92.69   16.70
  -5  12  -9   84.09   11.00
  12   5   9   98.49   17.30
  -5  12   9   86.99   15.00
 -12  -5   9   84.09   17.30
  12   4  -9    5.90   11.20
  -4  12  -9   -8.20    5.30
  -4  12   9  -16.90    8.40
 -12  -4   9   -8.50   10.10
  12   4   9   -0.20   11.40
  -3  12  -9   14.00    6.60
  12   3  -9   25.30   13.20
  -3  12   9   13.90    9.80
   3 -12   9   26.60    8.90
  12   3   9   29.40   12.90
 -12  -3   9    5.10   12.00
  -2  12  -9    6.30    5.30
  12   2  -9   37.20   13.70
   2 -12   9   12.00    8.20
  -2  12   9   21.90    9.60
 -12  -2   9   20.20   12.90
  12   2   9   17.10   12.20
  12   1  -9   42.50   14.20
  -1  12  -9   32.20    6.30
 -12  -1   9   -1.20   12.60
  -1  12   9   11.00    8.70
  12   1   9   16.00   11.90
   0  12  -9   -4.20    4.20
  12   0  -9   -7.30    9.80
   0  12   9   -7.10    7.50
 -12   0   9  -26.00   10.80
  12   0   9   -0.10   10.20
 -12   1  -9   18.90   13.30
  12  -1  -9   17.90   12.60
   1  12  -9   21.80    5.60
 -12   1   9   39.40   15.20
  12  -1   9   30.80   12.70
   1  12   9   14.60    8.40
  12  -2  -9   10.10   11.40
 -12   2  -9   16.80   11.80
   2  12   9   11.50    7.80
 -12   2   9  -14.90   12.70
  12  -3  -9   23.10   14.00
 -12   3  -9   25.00   12.90
 -12   3   9   27.40   15.00
   3  12   9   30.10    8.80
 -12   3   9   58.89   22.40
 -12   4  -9    6.40   13.30
 -12   4   9    9.00   11.60
 -12   4   9   11.00   13.90
   4  12   9   -1.70    7.60
 -12   5  -9   72.79   16.80
 -12   5   9  114.49   19.80
   5  12   9   70.99   11.40
 -12   5   9  109.39   19.70
 -12   6  -9    9.60   12.50
   6  12   9   -3.60    8.10
 -12   6   9    8.70   14.10
 -12   6   9    1.90   13.00
 -12   7   9   15.80   14.70
 -13  -5   9   -6.80   15.20
  13   5   9   27.60   14.10
  -4  13  -9   11.20    6.40
  13   4  -9   16.00   13.10
  -4  13   9  -10.10    9.50
  13   4   9   24.60   13.70
 -13  -4   9    0.00   13.50
  -3  13  -9    6.40    5.30
  13   3  -9    9.90   12.50
 -13  -3   9    4.80   12.60
  13   3   9   13.40   12.30
  -3  13   9    3.50    9.30
  13   2  -9   23.20   13.90
 -13  -2   9   -3.60   13.10
  -2  13   9   13.10    9.70
  13   2   9    5.30   11.60
  13   1  -9   86.39   17.80
  13   1   9   73.59   16.30
  -1  13   9  136.39   14.20
 -13  -1   9  112.19   20.80
  13   0  -9    3.10   12.20
   0  13   9    1.20    7.90
 -13   0   9    9.20   13.90
  13   0   9   20.70   11.20
  13  -1  -9  113.39   20.00
   1  13   9   94.79   12.20
 -13   1   9  159.88   22.90
  13  -2  -9   40.00   14.40
 -13   2  -9   13.40   12.40
   2  13   9   31.90    9.10
 -13   2   9   22.40   15.40
 -13   3  -9   10.30   12.10
 -13   3   9    9.20   14.10
   3  13   9   -4.80    7.20
 -13   4  -9   -0.90   12.50
 -13   4   9   22.20   16.90
   4  13   9    8.80    7.60
 -13   4   9    9.00   15.80
   0   0 -10  223.98   16.00
   0   0  10  258.17   16.40
   0   0  10  217.18   16.60
   1   0 -10   -5.00    5.20
   0   1 -10   -1.70    5.70
  -1   0 -10   -3.10    5.30
   0  -1 -10    1.70    4.90
  -1   0  10    1.10    5.60
   0   1  10   -1.50    5.30
   0  -1  10   -5.80    4.70
   1   0  10   -3.20    4.00
  -1   0  10   -5.60    5.20
   0   1  10    1.50    5.70
   0  -1  10    1.10    6.00
   1   0  10   -0.40    5.40
   1  -1 -10  170.08   14.20
  -1  -1 -10  151.28   14.00
   1   1 -10  173.48   14.40
  -1   1 -10  143.19   13.30
   1   1  10  183.98   14.40
   1  -1  10  182.48   15.00
  -1  -1  10  134.49   12.70
  -1   1  10  163.28   14.10
  -1   1  10  151.68   13.80
  -1  -1  10  150.28   14.00
   1   1  10  143.59   13.20
   1  -1  10  172.28   14.10
  -2  -1 -10  226.98   15.60
  -1   2 -10  196.68   14.80
   1  -2 -10  197.98   14.40
   2   1 -10  193.18   14.60
  -2  -1  10  213.08   15.80
   2   1  10  165.98   14.60
  -1   2  10  204.18   15.40
   1  -2  10  175.78   13.80
  -2  -1  10  208.48   14.80
   1  -2  10  178.98   15.80
  -1   2  10  167.68   14.70
   2   1  10  167.18   14.80
   0   2 -10   78.69    9.90
   2   0 -10   88.09   10.60
   0  -2 -10   79.59   10.40
  -2   0 -10   72.09    9.90
   0  -2  10   79.89   10.80
  -2   0  10   73.09   10.30
   0  -2  10   61.39    8.50
   0   2  10   57.29    9.10
   2   0  10   81.99    9.70
   0   2  10   80.49   10.00
  -2   0  10   82.09   10.00
  -2   1 -10  196.98   15.40
  -1  -2 -10  219.18   15.60
   2  -1 -10  193.48   15.00
   1   2 -10  187.48   14.70
  -1  -2  10  191.88   16.50
  -2   1  10  203.58   15.50
   2  -1  10  191.88   14.50
  -1  -2  10  150.88   14.00
   1   2  10  205.48   15.40
   1   2  10  200.78   15.10
  -2   1  10  237.58   16.60
   2  -2 -10   78.39   10.00
   2   2 -10   90.49   10.10
  -2  -2 -10   78.19   10.00
  -2   2 -10   70.89    9.70
  -2   2  10   85.99   10.40
  -2  -2  10   94.69   11.40
   2  -2  10   69.59    9.00
  -2   2  10   74.89   10.50
  -2  -2  10   66.59    9.80
   2   2  10   62.99    9.60
   2   2  10   73.19    9.40
  -2   3 -10  318.37   19.20
  -3  -2 -10  263.67   18.50
   2  -3 -10  283.37   19.10
   3   2 -10  280.87   18.40
  -2   3  10  267.77   19.20
  -2   3  10  305.17   18.90
  -3  -2  10  285.57   19.70
   3   2  10  318.07   19.50
   1  -3 -10   11.80    6.10
   3   1 -10   21.40    6.90
  -1   3 -10   18.70    6.50
  -3  -1 -10   27.20    7.60
  -1   3  10   26.60    7.90
   1  -3  10   17.80    6.60
  -1   3  10   13.80    6.40
  -3  -1  10   11.90    7.20
  -3  -1  10   18.20    6.40
   3   1  10   17.50    6.80
   0  -3 -10    9.20    5.30
   0   3 -10    2.20    4.90
  -3   0 -10    1.30    6.00
   3   0 -10    5.80    6.30
   0   3  10   -3.10    5.00
  -3   0  10   -2.50    5.70
  -3   0  10    2.40    5.80
   3   0  10   -0.30    4.50
   0   3  10    2.10    5.30
   0  -3  10   -8.40    5.10
   3  -1 -10   25.00    6.70
  -3   1 -10   18.40    6.40
  -1  -3 -10   26.20    7.30
   1   3 -10   22.40    6.70
  -1  -3  10   15.50    7.00
   3  -1  10   16.00    6.20
   1   3  10   16.80    6.80
   1   3  10   24.50    6.90
  -3   1  10   25.90    7.80
  -3   1  10   11.10    6.00
   3  -2 -10  275.67   19.00
  -3   2 -10  311.37   19.40
  -2  -3 -10  309.67   19.20
   2   3 -10  298.27   18.50
  -3   2  10  268.47   19.50
   2   3  10  300.57   18.60
   3  -2  10  314.17   18.90
  -3   2  10  273.97   19.20
   2   3  10  304.67   19.60
  -2  -3  10  265.97   19.60
   3  -3 -10  312.47   20.00
  -3   3 -10  276.57   19.10
  -3  -3 -10  334.27   20.10
   3   3 -10  305.47   18.80
  -3   3  10  232.98   18.60
  -3   3  10  295.17   19.50
   3   3  10  337.27   20.40
   3   3  10  297.27   18.90
  -3  -3  10  285.17   19.90
  -3   4 -10    6.80    6.20
  -4  -3 -10   -0.70    6.00
   3  -4 -10   13.20    6.90
   4   3 -10   14.30    5.80
  -4  -3  10    8.90    7.10
   4   3  10    0.00    6.80
  -3   4  10   -1.50    5.90
  -3   4  10   14.50    7.50
   2  -4 -10    2.10    5.60
  -4  -2 -10    2.00    6.10
   4   2 -10    8.00    6.20
  -2   4 -10    0.40    5.70
  -4  -2  10    6.20    7.00
   4   2  10    8.90    6.80
  -2   4  10   -0.30    6.10
  -2   4  10    6.00    6.30
   4   1 -10  193.98   15.70
  -4  -1 -10  173.28   15.30
   1  -4 -10  151.78   13.80
  -1   4 -10  183.08   13.90
  -4  -1  10  137.49   14.10
  -4  -1  10  180.18   14.90
   4   1  10  150.78   14.30
  -1   4  10  148.49   14.60
  -1   4  10  180.58   14.00
   0   4 -10   40.50    7.90
   0  -4 -10   56.59    8.70
  -4   0 -10   52.09    8.90
   4   0 -10   39.30    8.70
  -4   0  10   35.60    9.10
   0   4  10   44.50    8.90
   0  -4  10   47.50    8.80
   0   4  10   50.89    8.10
   4   0  10   51.39    8.20
  -4   0  10   56.19    9.30
  -1  -4 -10  140.59   13.70
   4  -1 -10  164.88   15.00
  -4   1 -10  145.19   14.10
   1   4 -10  133.29   12.60
  -1  -4  10  175.38   15.70
   1   4  10  182.58   13.20
  -4   1  10  199.58   16.60
   1   4  10  168.88   15.10
   4  -1  10  172.08   14.50
  -4   1  10  159.08   14.70
   2   4 -10   -0.20    5.00
   4  -2 -10    1.90    6.30
  -4   2 -10    3.00    6.30
   4  -2  10    8.10    5.80
   2   4  10    2.20    5.80
   2   4  10    1.90    5.30
  -2  -4  10   -5.00    5.50
  -4   2  10    1.20    6.40
  -4   2  10    3.10    6.60
  -4   3 -10    9.70    6.80
   4  -3 -10    7.10    6.70
   3   4 -10    9.60    5.90
  -3  -4  10   12.80    7.10
   3   4  10    9.30    5.80
   3   4  10    2.90    6.80
  -4   3  10    3.50    6.80
  -4   3  10   25.80    7.70
   4  -4 -10   34.60    8.70
   4   4 -10   40.70    7.90
  -4   4 -10   23.30    7.30
   4   4  10   12.20    6.50
   4   4  10   30.80    8.50
  -4  -4  10   24.60    8.30
  -4   4  10   17.30    8.10
  -4   4  10   28.70    8.40
  -4   5 -10  150.88   14.70
   5   4 -10  184.98   14.80
  -4   5  10  193.88   17.50
  -5  -4  10  209.68   17.80
  -4   5  10  217.98   17.50
   5   4  10  161.98   15.50
   5   3 -10   34.80    7.90
  -3   5 -10   24.30    7.10
   5   3  10   13.90    6.90
  -5  -3  10   15.80    7.90
  -3   5  10   17.40    7.60
  -3   5  10   24.90    7.70
   5   2 -10   71.89   10.20
  -2   5 -10   75.59    9.80
  -5  -2 -10   44.90    9.60
  -2   5  10   64.99   10.00
  -5  -2  10   62.09   10.90
   5   2  10   79.69   10.50
  -2   5  10   70.29    9.90
  -5  -1 -10  594.74   31.00
  -1   5 -10  541.05   28.80
   5   1 -10  490.95   29.20
   5   1  10  596.74   30.60
  -1   5  10  475.55   29.50
  -1   5  10  594.64   28.90
  -5  -1  10  553.34   31.10
   5   0 -10   -6.60    5.70
   0   5 -10    3.50    4.90
  -5   0 -10   -6.60    5.80
   0   5  10   -4.10    6.50
   5   0  10   -3.90    5.00
  -5   0  10   -1.70    6.10
   0  -5  10    5.80    6.40
   0   5  10   -0.60    5.10
  -5   0  10    1.50    6.40
   5  -1 -10  539.35   29.90
  -5   1 -10  536.75   30.40
   1   5 -10  532.25   28.20
  -1  -5  10  522.85   30.10
  -5   1  10  548.25   30.90
   1   5  10  563.34   29.90
   1   5  10  552.44   28.10
  -5   1  10  584.34   30.50
   5  -1  10  554.94   29.60
   5  -2 -10   56.09    9.70
   2   5 -10   62.29    8.50
  -5   2 -10   58.79    9.80
  -5   2  10   57.89   10.60
   2   5  10   46.30    9.50
  -5   2  10   71.19   10.40
   2   5  10   63.89    8.60
  -2  -5  10   54.49    9.40
   5  -2  10   72.29    9.80
  -5   3 -10   36.60    8.50
   5  -3 -10   19.20    8.00
   3   5 -10   31.10    7.30
  -5   3  10   29.70    8.60
   3   5  10   14.70    7.30
  -5   3  10   27.40    8.50
  -3  -5  10   16.10    7.40
   4   5 -10  162.68   14.10
   5  -4 -10  169.68   16.00
  -5   4 -10  188.58   16.70
  -5   4  10  188.68   17.30
  -5   4  10  177.58   17.10
   4   5  10  200.18   16.60
  -4  -5  10  185.18   16.40
  -5   5 -10   60.09   10.20
   5   5 -10   70.29    9.80
  -5   5  10   43.40   10.20
  -5   5  10   66.29   11.30
   5   5  10   46.40   10.20
  -5  -5  10   49.30   10.20
  -5   6 -10   57.99   10.10
   6   5 -10   46.60    8.80
  -5   6  10   36.40   10.60
  -5   6  10   43.30   10.50
  -6  -5  10   36.20    9.60
   6   5  10   49.60   10.30
   6   4 -10   28.40    7.70
  -4   6 -10   19.90    8.00
   6   4  10   28.30    8.40
  -4   6  10   41.50    9.90
  -6  -4  10   35.60    9.70
  -4   6  10   38.30    9.30
  -3   6 -10  120.99   12.40
   6   3 -10  141.49   13.60
   6   3  10  144.19   14.60
  -6  -3  10  142.49   14.70
  -3   6  10  142.09   13.80
  -3   6  10  139.39   14.50
  -6  -2 -10   79.89   11.60
   6   2 -10   73.69   10.60
  -2   6 -10   75.39   10.00
  -2   6  10   74.29    9.90
  -2   6  10   89.09   12.00
  -6  -2  10   95.39   12.50
   6   2  10   70.49   10.80
  -6  -1 -10  229.78   19.50
  -1   6 -10  234.28   16.60
   6   1 -10  248.68   18.10
  -6  -1  10  263.07   19.40
  -1   6  10  228.78   19.90
   6   1  10  223.38   17.30
  -1   6  10  269.67   18.70
  -6   0 -10  415.06   25.00
   6   0 -10  353.96   23.50
   0   6 -10  399.36   22.30
   0   6  10  381.16   24.10
   6   0  10  387.86   23.60
  -6   0  10  357.16   24.50
  -6   0  10  359.76   23.40
   6  -1 -10  228.78   17.90
  -6   1 -10  243.38   19.10
   1   6 -10  237.58   16.30
  -6   1  10  205.48   18.90
   6  -1  10  220.18   17.80
   1   6  10  257.47   18.20
  -6   1  10  259.47   19.00
  -1  -6  10  294.57   19.30
   2   6 -10   90.09   10.00
  -6   2 -10   77.79   11.90
   6  -2 -10   77.49   10.90
   6  -2  10   89.39   11.40
  -2  -6  10   87.79   11.10
   2   6  10   66.59   10.10
  -6   2  10   69.29   10.90
  -6   2  10   63.89   11.60
  -6   3 -10  114.89   14.30
   6  -3 -10  157.38   15.50
   3   6 -10  107.09   11.50
   3   6  10  157.08   14.90
  -6   3  10  140.29   15.20
  -3  -6  10  126.29   13.60
  -6   3  10  140.19   14.80
   6  -4 -10   38.10    9.30
   4   6 -10   26.90    7.40
  -6   4 -10   29.10    9.20
  -6   4  10   37.00    9.50
  -6   4  10   22.30    8.00
   4   6  10   27.90    8.80
  -4  -6  10   26.50    8.60
   5   6 -10   54.39    8.90
  -6   5 -10   39.90   10.60
  -6   5  10   33.50   10.00
  -5  -6  10   52.89   10.20
  -6   5  10   44.80   11.10
   5   6  10   48.90    9.70
   6   6 -10   34.90    8.50
  -6   6 -10   30.40    9.00
  -6   6  10   11.00    9.70
  -6   6  10   37.00   11.00
  -6  -6  10   34.30    9.40
   6   6  10   31.60    9.10
   7   6 -10   44.40    9.40
  -6   7 -10   26.50    9.40
  -6   7  10   17.00    9.80
  -6   7  10   27.00   11.70
   7   6  10   24.00    9.00
  -7  -6  10   16.70    9.10
  -5   7 -10   15.60    7.50
   7   5 -10   16.80    7.80
  -7  -5  10   17.80    8.70
  -5   7  10   31.90   10.00
   7   5  10   29.20    9.80
  -4   7 -10   96.69   11.70
   7   4 -10   74.19   11.50
  -7  -4  10   92.09   13.30
  -4   7  10   80.79   12.10
   7   4  10   97.99   13.00
  -3   7 -10   38.10    8.30
   7   3 -10   46.30    9.70
  -7  -3  10   28.20    9.40
  -3   7  10   44.20   10.40
   7   3  10   45.00   10.40
   7   2 -10  200.88   17.70
  -2   7 -10  209.78   16.40
  -7  -2 -10  232.98   21.50
  -2   7  10  173.28   16.90
   7   2  10  224.98   18.70
   7   2  10  190.28   17.70
  -7  -2  10  192.08   18.90
  -7  -1 -10   20.10    9.10
   7   1 -10   18.80    7.40
  -1   7 -10   18.00    6.50
  -1   7  10   24.40    8.20
  -7  -1  10   27.00    9.60
   7   1  10   30.00    9.30
   1  -7  10    7.70    7.40
   7   1  10   19.30    8.00
  -7   0 -10   -1.50    8.10
   0   7 -10   -5.70    4.90
   7   0 -10    3.50    7.30
   7   0  10   -3.80    7.30
   0   7  10   -0.70    7.00
   0  -7  10   -6.40    5.80
   7   0  10    0.60    6.80
  -7   0  10    8.20    8.30
   7  -1 -10   39.80    9.70
   1   7 -10   24.20    6.80
  -7   1 -10   24.60    8.50
  -1  -7  10   36.50    9.00
   7  -1  10   17.70    8.40
   1   7  10   13.60    7.50
  -7   1  10   38.40   10.40
   7  -1  10   13.70    8.40
  -7   1  10   21.70    8.70
   7  -2 -10  207.98   18.20
   2   7 -10  173.58   14.40
  -7   2 -10  193.38   18.30
  -7   2  10  174.28   17.90
  -2  -7  10  225.38   17.10
   7  -2  10  220.98   19.00
   7  -2  10  196.98   17.90
   2   7  10  185.18   16.80
  -7   2  10  180.58   18.00
   3   7 -10   34.20    7.60
  -7   3 -10   43.60   10.20
   7  -3 -10   42.50   10.80
   3   7  10   50.19   10.20
  -7   3  10   40.40   11.10
  -7   3  10   61.99   11.40
  -3  -7  10   43.60    9.60
  -7   4 -10   68.69   11.80
   7  -4 -10  105.59   14.10
   4   7 -10   73.29   10.10
  -4  -7  10   94.19   12.90
  -7   4  10   85.69   14.00
   4   7  10  114.99   13.00
  -7   4  10   91.79   13.10
   5   7 -10   17.60    7.30
  -7   5 -10   21.80    9.50
   5   7  10   16.80    8.20
  -7   5  10   21.10   10.60
  -7   5  10   13.90    9.00
  -5  -7  10   22.60    8.40
  -7   6 -10   28.10   10.20
   6   7 -10   28.10    8.60
  -7   6  10   26.70    9.80
  -6  -7  10   26.20    9.00
  -7   6  10   21.70   11.50
   6   7  10   22.40    9.10
   7   7 -10  146.89   15.10
  -7   7 -10  158.68   17.60
   7   7  10  176.18   17.40
  -7  -7  10  153.98   16.70
  -7   7  10  154.08   18.50
  -7   7  10  163.88   19.70
   8   7 -10    2.50    7.70
  -7   8 -10    2.60    8.90
  -7   8  10   -4.20   10.10
  -8  -7  10    6.30    8.40
   8   7  10   -9.10    8.60
   8   6 -10  180.98   16.80
  -6   8 -10  156.78   16.70
   8   6  10  174.88   17.90
  -8  -6  10  161.28   17.60
  -6   8  10  162.18   18.50
  -5   8 -10   14.40    7.50
   8   5 -10   21.80    8.60
  -5   8  10   16.90    9.70
  -8  -5  10   13.70    9.40
   8   5  10   -3.60    9.10
   8   4 -10   23.70    9.00
  -4   8 -10   34.60    8.50
  -8  -4  10   51.29   11.10
   8   4  10   36.40   10.60
  -4   8  10   25.10    9.40
   8   3 -10   60.89   10.90
  -3   8 -10   62.29    9.50
   8   3  10   55.99   11.30
   8   3  10   71.19   12.70
  -3   8  10   70.39   11.90
  -8  -3  10   46.20   11.30
   8   2 -10   -1.20    6.90
  -2   8 -10   13.40    6.50
   8   2  10   -6.30    7.30
  -8  -2  10    8.00    8.80
   8   2  10    1.60    8.50
  -2   8  10   13.20    8.10
  -8  -1 -10   44.30   11.30
   8   1 -10   30.80    9.80
  -1   8 -10   44.90    7.90
  -8  -1  10   51.69   11.20
   1  -8  10   36.00    9.20
   8   1  10   27.70    9.50
   8   1  10   52.79   11.30
  -1   8  10   62.09   10.50
  -8   0 -10   33.60   10.30
   8   0 -10   34.50   10.30
   0   8 -10   33.00    7.20
   8   0  10   44.30    9.90
   0   8  10   24.10    8.40
   8   0  10   63.59   11.70
   0  -8  10   28.90    8.60
  -8   0  10   34.80   10.60
   1   8 -10   39.60    7.60
  -8   1 -10   23.60   10.60
   8  -1 -10   39.60   10.20
  -1  -8  10   33.60    8.90
   8  -1  10   53.99   11.10
   1   8  10   38.90    9.20
  -8   1  10   44.70   11.20
   8  -1  10   36.90   10.10
  -8   1  10   63.59   12.10
  -8   2 -10    5.70    8.20
   8  -2 -10   10.90    8.50
   2   8 -10    4.80    5.80
   2   8  10    4.10    7.30
  -2  -8  10   15.40    7.60
   8  -2  10    5.70   12.30
   8  -2  10    2.10    7.00
  -8   2  10   10.10   10.10
  -8   2  10   15.70    9.50
  -8   3 -10   59.49   11.70
   3   8 -10   53.89    8.80
   8  -3 -10   55.39   11.60
   3   8  10   52.79    9.70
  -8   3  10   39.00   12.10
  -8   3  10   62.59   12.20
  -3  -8  10   47.10    9.90
  -8   4 -10   48.70   12.10
   4   8 -10   39.30    7.80
  -4  -8  10   37.20    8.90
  -8   4  10   34.10   12.40
  -8   4  10   24.80   10.80
   4   8  10   48.60   10.40
  -8   5 -10   16.20    9.60
   5   8 -10   15.30    7.30
  -8   5  10   10.20   10.70
   5   8  10   16.30    8.70
  -5  -8  10   20.50    8.60
  -8   5  10   -1.10   10.70
   6   8 -10  175.28   15.50
  -8   6 -10  160.58   18.50
  -8   6  10  184.58   21.30
  -6  -8  10  162.18   17.00
   6   8  10  185.18   18.00
  -8   6  10  162.78   19.10
  -8   7 -10    6.40    9.10
   7   8 -10   11.90    7.70
  -7  -8  10   -6.10    7.70
   7   8  10    5.00    8.40
  -8   7  10    9.20   12.20
  -8   7  10    6.70   10.30
  -8   8 -10   90.79   14.90
   8   8 -10   94.79   13.30
  -8  -8  10  105.19   14.90
   8   8  10  107.09   15.60
  -8   9 -10   26.40   11.20
   9   8 -10   30.20   10.60
   9   8  10   20.60   10.70
  -8   9  10   21.70   11.70
  -9  -8  10   20.40   10.00
  -7   9 -10  121.59   15.90
   9   7 -10  150.18   16.10
   9   7  10  140.59   18.10
  -7   9  10  126.59   17.60
  -9  -7  10  134.49   17.10
  -6   9 -10  133.19   15.60
   9   6 -10  134.39   16.10
  -6   9  10  144.69   17.50
  -9  -6  10  154.28   17.80
   9   6  10  146.09   18.30
  -5   9 -10   30.30    8.70
   9   5 -10   18.60    9.80
  -9  -5  10   25.30   10.70
   9   5  10   17.60   11.20
  -5   9  10   27.00   10.30
   9   4 -10  136.99   15.40
  -4   9 -10  146.79   14.00
   9   4  10  136.19   17.30
  -4   9  10  134.49   15.80
  -9  -4  10  120.39   16.30
   9   4  10  160.28   18.20
   9   3 -10  511.75   32.10
  -3   9 -10  534.15   29.20
  -9  -3  10  539.95   34.00
  -3   9  10  561.34   32.50
   9   3  10  540.25   33.80
   9   3  10  544.45   34.00
  -2   9 -10   60.69    8.90
   9   2 -10   56.69   11.50
  -2   9  10   49.60   10.20
   9   2  10   57.19   12.10
   2  -9  10   52.29   10.20
  -9  -2  10   78.09   13.60
   9   2  10   75.59   13.40
   9   1 -10   11.10    8.90
  -1   9 -10   11.40    6.50
  -9  -1  10    8.20    9.00
  -1   9  10   12.30    8.30
   1  -9  10   14.10    7.70
   9   1  10   12.70    9.40
   9   0 -10   -0.50    8.50
  -9   0 -10    0.40    9.20
   0   9 -10    1.50    5.80
  -9   0  10    3.40    9.10
   0   9  10   -5.50    7.30
   9   0  10   -6.80    7.70
   0  -9  10    4.80    6.50
   1   9 -10   20.00    6.30
  -9   1 -10   17.60   10.00
   9  -1 -10    0.70    8.40
   1   9  10   19.80    8.80
   9  -1  10   23.60    9.60
  -9   1  10    6.40   10.00
  -1  -9  10   21.50    7.90
  -9   2 -10   88.09   15.20
   2   9 -10   66.89    9.10
   9  -2 -10   84.09   13.80
  -9   2  10   60.89   14.00
  -2  -9  10   79.49   11.40
   2   9  10   59.59   10.80
  -9   2  10   62.89   13.20
   9  -3 -10  518.65   32.40
   3   9 -10  507.55   27.20
  -9   3 -10  561.94   34.40
   3   9  10  526.05   30.10
  -3  -9  10  493.25   29.60
  -9   3  10  460.55   31.70
  -9   3  10  475.35   34.10
   4   9 -10  155.28   13.50
  -9   4 -10  182.68   19.80
  -9   4  10  142.49   19.60
  -9   4  10  133.29   17.70
  -4  -9  10  138.39   15.40
   4   9  10  140.79   15.10
  -9   5 -10   29.00   12.60
   5   9 -10   33.30    8.10
   5   9  10   28.10    9.70
  -9   5  10   27.60   13.70
  -9   5  10   24.80   10.80
  -5  -9  10   40.20   10.30
   6   9 -10  154.78   14.40
  -9   6 -10  179.68   19.90
  -6  -9  10  159.88   16.90
   6   9  10  127.79   15.70
  -9   6  10  135.19   20.30
  -9   6  10  151.38   19.40
  -9   7 -10  133.09   18.10
   7   9 -10  135.99   13.90
  -9   7  10  100.69   16.80
   7   9  10  107.59   14.40
  -7  -9  10  119.19   15.60
  -9   7  10  169.38   21.50
   8   9 -10   21.30    9.50
  -9   8 -10   31.40   12.90
  -9   8  10   24.60   12.00
  -8  -9  10   36.90   10.60
   8   9  10   30.10   11.00
   9   9 -10   -5.60    9.40
  -9   9 -10   17.50   11.80
  -9   9  10   -0.30   11.70
   9   9  10   25.00   10.80
  -9  -9  10    5.20    9.30
  10   8 -10   16.80   11.30
  -8  10 -10    0.10    9.40
 -10  -8  10    5.70   10.00
  10   8  10   27.30   12.40
  -8  10  10    6.80   11.30
  10   7 -10  168.08   18.70
  -7  10 -10  148.89   17.50
  -7  10  10  156.58   19.50
  10   7  10  179.18   20.10
 -10  -7  10  155.48   18.90
  -6  10 -10   79.19   12.50
  10   6 -10   68.39   13.40
 -10  -6  10   86.59   14.40
  10   6  10   78.49   15.60
  -6  10  10   66.39   14.20
  -5  10 -10   12.20    7.60
  10   5 -10   -1.40    8.90
 -10  -5  10   -1.20    9.20
  10   5  10    5.20   10.60
  10   5  10   -5.60    8.90
  -5  10  10    0.30    9.40
  10   4 -10   -1.70    8.70
  -4  10 -10   -0.60    6.50
  -4  10  10    7.20    9.70
  10   4  10    4.90    9.80
 -10  -4  10    8.40   10.40
  10   4  10    7.80   10.40
  -3  10 -10    3.90    6.20
  10   3 -10   15.40   10.40
  10   3  10    4.20    9.90
 -10  -3  10   10.80   10.00
  10   3  10   20.60   11.60
  -3  10  10    0.30    8.70
  -2  10 -10   94.49   11.10
  10   2 -10   98.99   14.50
   2 -10  10   89.89   12.60
  10   2  10  143.89   18.20
  -2  10  10   81.49   12.90
 -10  -2  10  109.19   16.10
  10   1 -10  149.39   18.20
  -1  10 -10  179.78   14.10
  10   1  10  164.28   20.00
 -10  -1  10  183.08   20.60
   1 -10  10  170.98   16.90
  -1  10  10  163.58   16.40
 -10   0 -10   -2.80    9.70
   0  10 -10    2.80    5.60
  10   0 -10  -12.10    7.90
   0  10  10    9.40    8.50
   0 -10  10    3.70    7.60
  10   0  10    5.20    9.10
 -10   0  10    0.60   10.00
  10  -1 -10  183.58   19.80
   1  10 -10  185.48   14.20
 -10   1 -10  215.58   22.60
  -1 -10  10  151.88   16.40
 -10   1  10  164.68   20.30
   1  10  10  157.38   16.30
  10  -1  10  199.98   20.80
 -10   2 -10   99.99   16.70
   2  10 -10  116.19   11.10
  10  -2 -10   92.99   16.10
 -10   2  10  129.49   25.20
  -2 -10  10  123.89   14.20
   2  10  10   94.89   13.10
 -10   2  10  131.29   18.80
 -10   3 -10   27.70   12.00
   3  10 -10   14.80    6.10
  10  -3 -10   13.00   11.60
 -10   3  10    6.00   11.70
  -3 -10  10   12.60    7.90
   3  10  10    8.00    8.00
 -10   3  10    9.30    9.80
 -10   4 -10   -1.10   10.30
   4  10 -10    4.90    6.10
   4  10  10    5.00    8.30
 -10   4  10  -12.20   11.10
 -10   4  10   -1.30    9.30
  -4 -10  10   -2.20    7.40
   5  10 -10    4.00    6.10
 -10   5 -10  -12.90   10.20
 -10   5  10   -0.50   10.90
   5  10  10  -12.50    7.70
  -5 -10  10   -4.40    7.10
 -10   5  10    3.50   12.50
 -10   6 -10   71.59   16.30
   6  10 -10   59.69    9.60
 -10   6  10   82.39   17.80
 -10   6  10   78.99   15.50
  -6 -10  10   76.59   12.20
   6  10  10   66.69   12.60
 -10   7 -10  143.39   20.50
   7  10 -10  160.28   15.30
 -10   7  10  116.79   19.90
 -10   7  10  181.58   23.30
   7  10  10  199.48   18.20
   8  10 -10   12.10    9.00
 -10   8 -10   22.30   13.10
   8  10  10   19.50   10.30
 -10   8  10   18.20   13.40
  11   7 -10   91.19   16.10
  -7  11 -10   91.09   13.70
  -7  11  10  118.49   17.90
  11   7  10   79.79   17.10
 -11  -7  10   69.19   15.20
  11   6 -10   46.80   13.40
  -6  11 -10   74.39   11.60
 -11  -6  10   63.29   14.80
  11   6  10   57.89   14.50
  -6  11  10   28.00   12.90
  11   5 -10  245.28   23.80
  -5  11 -10  286.37   19.90
 -11  -5  10  285.77   27.00
  11   5  10  260.57   25.30
  11   5  10  280.57   26.70
  -5  11  10  284.87   24.10
  11   4 -10    3.80   10.30
  -4  11 -10    9.90    6.80
  11   4  10    2.80   10.90
  -4  11  10    0.40    8.50
 -11  -4  10   18.20   11.60
  11   4  10    3.80    9.90
  11   3 -10   29.80   11.90
  -3  11 -10   42.30    8.30
  -3  11  10   26.50   10.70
   3 -11  10   22.30    8.90
  11   3  10   37.10   12.70
 -11  -3  10   52.69   13.80
  11   2 -10   48.50   12.90
  -2  11 -10    1.60    6.20
 -11  -2  10   50.99   14.00
   2 -11  10   18.70    8.10
  -2  11  10   36.60   10.10
  11   2  10   23.40   12.20
  11   1 -10   34.20   12.20
  -1  11 -10   43.30    7.70
  11   1  10   31.00   12.70
  -1  11  10   15.70    9.20
   1 -11  10   25.70    9.00
 -11  -1  10   18.80   12.40
   0  11 -10    3.00    5.70
  11   0 -10    4.70   10.10
  11   0  10  -10.40    9.30
   0  11  10   -2.10    8.10
 -11   0  10   -1.90   11.60
   0 -11  10   -6.60    6.50
 -11   1 -10   32.80   13.40
   1  11 -10   40.70    7.30
  11  -1 -10   25.00   11.80
 -11   1  10   12.00   12.50
   1  11  10   44.10   10.60
  -1 -11  10   39.20   10.00
  11  -1  10   31.40   12.90
   2  11 -10   23.90    6.30
 -11   2 -10   23.20   13.00
  11  -2 -10   25.60   12.90
  -2 -11  10   27.30    9.30
   2  11  10   23.20    9.60
 -11   2  10   38.70   14.00
  11  -3 -10   12.70   11.50
 -11   3 -10   36.40   14.40
   3  11 -10   21.10    6.20
 -11   3  10   36.80   15.10
  -3 -11  10   16.60    8.60
 -11   3  10   23.90   12.10
   3  11  10   21.70    9.00
   4  11 -10    8.90    6.10
 -11   4 -10   -0.80   11.30
   4  11  10    8.90    9.00
 -11   4  10   16.20   10.40
 -11   4  10   -5.50   13.20
   5  11 -10  272.87   18.10
 -11   5 -10  279.97   28.60
   5  11  10  272.27   21.90
 -11   5  10  305.77   28.70
 -11   5  10  295.77   29.80
 -11   6 -10   55.59   16.30
   6  11 -10   50.19    9.00
 -11   6  10   47.80   15.70
   6  11  10   44.70   11.30
 -11   6  10   33.60   15.70
   7  11 -10   75.99   11.20
 -11   7 -10   82.29   18.50
   7  11  10   70.49   12.80
 -11   7  10  138.39   21.10
 -11   7  10   95.29   18.30
  12   5 -10   49.30   14.10
  -5  12 -10   44.60    9.20
  12   5  10   38.60   15.00
  -5  12  10   57.69   13.70
  12   5  10   36.40   12.90
 -12  -5  10   31.20   14.50
  12   4 -10    7.10   12.30
  -4  12 -10    3.60    6.50
  -4  12  10   21.10   11.50
  12   4  10   33.20   12.50
 -12  -4  10   16.30   13.40
  12   4  10    8.30   12.20
  -3  12 -10    8.90    6.60
  12   3 -10   15.30   11.90
  12   3  10   21.00   12.70
 -12  -3  10    0.60   12.70
  -3  12  10    8.50    9.60
   3 -12  10  -10.60    7.30
  12   2 -10   23.80   12.70
  -2  12 -10   26.70    7.00
  -2  12  10    2.60    9.30
   2 -12  10    7.40    8.10
 -12  -2  10   19.30   13.00
  12   2  10   42.80   14.70
  -1  12 -10   63.29    8.30
  12   1 -10   84.69   16.40
   1 -12  10   45.40   11.10
 -12  -1  10   46.20   15.40
  -1  12  10   49.10   11.00
  12   1  10   58.39   15.60
  12   0 -10  104.79   18.00
   0  12 -10  107.79    9.90
  12   0  10  105.49   17.70
 -12   0  10   78.29   18.70
  12  -1 -10   58.89   15.20
   1  12 -10   47.40    6.80
   1  12  10   40.00   10.40
 -12   1  10   14.90   14.20
 -12   2 -10    8.60   13.50
   2  12 -10   20.50    6.00
  12  -2 -10   20.40   12.30
 -12   2  10    9.10   13.60
   2  12  10   -2.50    7.60
 -12   3 -10   18.60   13.40
 -12   3  10   18.70   15.20
   3  12  10   -5.50    7.70
 -12   4 -10   -7.50   12.40
   4  12  10   13.00    8.90
 -12   4  10   12.10   14.10
 -12   4  10   32.90   14.90
 -12   5 -10   28.90   15.30
 -12   5  10   32.00   15.60
 -12   5  10   34.20   16.00
   5  12  10   27.20    9.70
  13   2 -10   -2.10   12.10
  -2  13 -10    4.50    7.60
  13   2  10    5.90   12.60
  -2  13  10    6.30    9.50
  13   1 -10    8.00   13.50
  -1  13  10   10.10    9.10
  13   1  10   -8.00   11.80
  13   0 -10    3.30   12.90
   0  13  10   -1.50    8.40
  13   0  10   -4.20   11.70
  13  -1 -10   -9.20   12.20
   1  13  10    0.20    8.20
  13  -2 -10   44.50   16.50
   0   0 -11   -5.50    5.40
   0   0  11   -1.60    6.30
   0   0  11    0.60    4.80
  -1   0 -11   43.70    8.40
   0   1 -11   53.39    9.10
   0  -1 -11   37.40    7.90
   1   0 -11   56.69    9.00
  -1   0  11   63.19    9.70
   0   1  11   50.49    9.30
   0  -1  11   49.40    9.30
   1   0  11   56.19    9.10
  -1   0  11   45.40    8.50
   1   0  11   39.50    9.00
   0   1  11   34.10    8.50
   0  -1  11   32.60    7.40
  -1   1 -11   45.90    8.50
  -1  -1 -11   67.19   10.10
   1  -1 -11   26.90    8.00
   1   1 -11   64.39    9.30
  -1  -1  11   47.30    8.70
  -1  -1  11   51.39    9.40
   1   1  11   60.09    9.40
  -1   1  11   61.89   10.00
   1  -1  11   41.30    8.20
  -1   1  11   46.80    9.00
   1  -1  11   29.90    7.80
   1   1  11   51.99    9.30
  -2  -1 -11  161.58   14.40
   2   1 -11  125.39   13.40
  -1   2 -11  140.99   14.00
   1  -2 -11  145.89   14.20
   2   1  11  143.39   13.70
   1  -2  11  144.69   20.10
  -1   2  11  147.19   14.10
  -2  -1  11  157.18   14.50
   1  -2  11  130.39   13.80
  -1   2  11  157.78   14.90
  -2  -1  11  142.59   14.30
   2   1  11  155.68   14.40
   0  -2 -11    8.80    6.10
   2   0 -11    6.00    5.90
   0   2 -11   -1.90    5.60
  -2   0 -11   -1.40    5.90
   2   0  11   -0.30    5.40
   0  -2  11    4.40    6.70
   2   0  11   -1.90    6.30
   0   2  11    3.90    6.10
   0   2  11    7.50    6.60
  -2   0  11   -2.20    6.10
  -2   0  11   -5.50    5.80
   1   2 -11  125.79   12.80
  -2   1 -11  156.68   14.20
  -1  -2 -11  129.49   13.40
   2  -1 -11  150.28   14.10
   2  -1  11  123.69   12.90
   2  -1  11  128.39   13.80
   1   2  11  153.18   14.00
  -2   1  11  137.59   13.90
   1   2  11  145.59   14.10
  -2   1  11  132.39   13.60
  -1  -2  11  162.78   15.30
  -2  -2 -11   22.90    7.20
   2  -2 -11   32.20    7.70
  -2   2 -11   25.00    7.90
   2   2 -11   27.40    8.00
   2   2  11   24.80    7.70
  -2   2  11   23.30    7.70
   2   2  11   24.50    7.70
   2  -2  11   29.10    7.90
  -2   2  11   30.10    8.50
   2  -2  11   27.50    7.70
  -2  -2  11   25.70    7.80
  -2   3 -11  267.77   18.90
   3   2 -11  313.97   19.50
  -3  -2 -11  285.57   19.60
   2  -3 -11  252.47   18.60
  -3  -2  11  277.77   20.10
  -2   3  11  282.27   19.30
  -2   3  11  278.17   19.80
   3   2  11  278.77   19.50
   3   2  11  286.87   19.00
   1  -3 -11   71.39   10.60
   3   1 -11   74.89   11.00
  -3  -1 -11   97.49   11.90
  -1   3 -11   72.19   10.20
  -3  -1  11   82.09   11.70
   3   1  11   90.89   11.00
  -1   3  11   79.29   10.70
  -1   3  11   77.49   11.20
   3   1  11   49.00    9.70
  -3  -1  11   78.69   11.00
   1  -3  11   66.59   10.80
   0  -3 -11  260.97   17.50
   3   0 -11  218.18   17.00
   0   3 -11  210.38   16.30
  -3   0 -11  227.88   17.60
  -3   0  11  216.58   18.00
   0  -3  11  214.38   17.60
   3   0  11  221.98   16.60
   0   3  11  208.98   16.90
  -3   0  11  219.68   18.00
   0   3  11  238.18   16.80
   1   3 -11   69.19    9.70
  -3   1 -11   70.99   10.60
  -1  -3 -11   73.19   10.90
   3  -1 -11   77.39   10.60
   1   3  11   66.79   10.50
  -3   1  11   82.59   11.20
  -1  -3  11   73.59   11.10
   1   3  11   79.49   10.40
  -3   1  11   95.49   12.00
   3  -1  11   73.49   10.50
  -2  -3 -11  280.87   19.40
   2   3 -11  274.37   18.90
  -3   2 -11  298.17   19.80
   3  -2 -11  249.08   18.70
   2   3  11  282.97   19.10
   2   3  11  282.77   19.50
  -2  -3  11  253.87   19.80
  -3   2  11  290.07   19.90
   3  -2  11  254.37   18.10
  -3   2  11  298.87   20.00
  -3   3 -11    8.30    6.30
  -3  -3 -11   -1.80    6.60
   3  -3 -11   15.50    7.20
   3   3 -11   -7.00    5.60
   3   3  11   -1.50    6.10
   3   3  11    1.50    6.00
  -3   3  11    7.30    6.40
  -3  -3  11   16.30    7.70
  -3   3  11    1.90    6.40
   3  -4 -11   -5.90    6.50
  -3   4 -11   -2.70    5.60
   4   3 -11    5.20    6.60
  -4  -3  11    6.30    7.40
   4   3  11    7.40    6.70
  -3   4  11   -1.60    6.30
   4   3  11    5.10    6.20
  -3   4  11    3.70    7.00
   2  -4 -11  188.18   17.10
   4   2 -11  182.58   16.10
  -2   4 -11  173.28   15.50
  -4  -2 -11  224.08   17.10
  -2   4  11  202.28   16.10
  -2   4  11  190.98   17.10
  -4  -2  11  172.78   16.80
   4   2  11  177.88   16.30
  -1   4 -11   30.70    7.90
   1  -4 -11   31.00   11.30
  -4  -1 -11   46.30    9.60
   4   1 -11   30.70    8.20
  -1   4  11   39.70    9.30
   1  -4  11   19.50    7.00
  -1   4  11   42.00    8.40
  -4  -1  11   43.00    9.50
   4   1  11   22.70    7.30
   4   0 -11   -1.90    5.70
   0   4 -11   -0.60    5.90
  -4   0 -11   -3.00    6.60
   0   4  11   -5.10    5.60
  -4   0  11  -10.50    5.00
   0   4  11    2.80    5.80
  -4   0  11    2.50    7.10
   4   0  11   -2.80    6.60
   0  -4  11  -11.80    5.80
   1   4 -11   22.80    6.60
  -4   1 -11   25.40    7.80
   4  -1 -11   13.80    7.10
  -1  -4  11   19.40    7.90
  -4   1  11   21.90    8.40
  -4   1  11   36.60    8.50
   1   4  11   24.10    7.50
   1   4  11   19.50    6.90
   4  -1  11   28.60    7.30
   4  -2 -11  210.98   17.70
  -4   2 -11  197.98   17.40
   2   4 -11  201.68   15.80
   4  -2  11  179.28   16.10
  -2  -4  11  207.58   18.00
   2   4  11  190.48   17.00
   2   4  11  192.18   15.20
  -4   2  11  189.98   17.20
  -4   2  11  184.78   16.90
   3   4 -11    5.00    6.30
  -4   3 -11    4.60    7.20
   4  -3 -11   -4.30    6.50
   3   4  11    0.00    5.90
  -3  -4  11    8.60    7.40
  -4   3  11    6.00    7.50
  -4   3  11   -5.90    6.50
   3   4  11    6.60    7.50
  -4   4 -11   35.10    8.70
   4   4 -11   20.50    7.70
   4  -4 -11   22.40    8.30
  -4  -4  11   22.80    8.30
   4   4  11   24.30    7.50
  -4   4  11   32.50    9.50
   4   4  11   21.80    8.50
  -4   4  11   36.30    9.50
   5   4 -11   -2.70    6.60
  -4   5 -11    1.30    6.70
  -4   5  11   14.80    9.00
   5   4  11   -3.10    7.00
  -4   5  11    7.40    7.80
  -5  -4  11    3.70    8.00
   5   4  11    8.70    7.30
  -3   5 -11    7.50    6.40
   5   3 -11    8.90    6.40
  -3   5  11    6.80    7.30
  -5  -3  11    2.90    7.50
   5   3  11   17.10    8.40
  -3   5  11   23.60    9.00
  -5  -2 -11  211.78   18.50
  -2   5 -11  209.88   17.30
   5   2 -11  201.78   17.20
   5   2  11  235.78   17.90
  -2   5  11  232.28   17.00
  -2   5  11  237.58   19.50
  -5  -2  11  170.78   17.30
   5   1 -11  124.59   13.50
  -5  -1 -11  112.19   13.60
  -1   5 -11  106.99   12.50
  -5  -1  11   93.29   12.70
  -1   5  11  103.49   13.00
  -1   5  11  117.99   12.20
   5   1  11  110.99   12.90
  -5   0 -11  477.45   29.50
   5   0 -11  540.25   29.40
   0   5 -11  530.75   28.50
  -5   0  11  493.25   30.20
  -5   0  11  501.65   29.10
   0   5  11  530.15   27.70
   0   5  11  491.05   29.30
   5   0  11  524.25   29.00
   1   5 -11  125.89   12.80
   5  -1 -11  139.69   14.30
  -5   1 -11  136.99   14.50
  -5   1  11  114.99   13.60
  -5   1  11  116.59   14.60
   1   5  11  123.19   12.20
   5  -1  11  110.99   13.10
  -1  -5  11   96.19   12.80
   1   5  11  129.09   14.00
   2   5 -11  213.48   16.20
   5  -2 -11  242.08   18.30
  -5   2 -11  208.58   17.90
   5  -2  11  208.88   20.80
  -5   2  11  238.28   18.40
  -5   2  11  225.78   19.60
  -2  -5  11  136.79   15.80
   2   5  11  218.78   18.50
  -5   3 -11   19.60    8.30
   3   5 -11   12.90    6.40
   5  -3 -11    8.80    7.70
   3   5  11    2.20    6.20
  -5   3  11   10.80    8.40
  -3  -5  11    4.20    7.20
  -5   3  11   13.50    7.40
  -5   4 -11    7.30    7.30
   5  -4 -11  -13.20    7.00
   4   5 -11   -4.30    5.60
   4   5  11    4.30    8.00
  -5   4  11   12.60    7.20
  -4  -5  11   11.20    7.80
  -5   4  11    8.20    8.40
   5   5 -11    0.20    6.00
  -5   5 -11    2.80    6.90
   5   5  11   12.60    8.30
  -5   5  11   17.00    9.70
  -5   5  11    2.60    8.00
  -5  -5  11    5.40    7.50
   6   5 -11   68.79   11.00
  -5   6 -11   73.49   11.90
  -6  -5  11   66.69   11.70
  -5   6  11   67.59   12.70
   6   5  11   58.89   11.20
  -5   6  11   65.69   12.80
   6   4 -11   25.70    7.80
  -4   6 -11   21.20    7.80
   6   4  11   33.50    9.70
  -4   6  11   28.40    9.50
  -4   6  11   27.20    9.20
  -6  -4  11   15.00    8.40
   6   3 -11  164.98   15.70
  -3   6 -11  160.38   15.30
   6   3  11  177.58   16.70
  -6  -3  11  148.49   16.20
  -3   6  11  167.58   16.70
  -3   6  11  172.78   16.50
  -2   6 -11  139.49   13.40
   6   2 -11  105.39   13.00
  -6  -2 -11  138.69   15.20
  -6  -2  11  123.89   14.80
  -2   6  11  146.19   15.50
   6   2  11  148.59   15.40
   6   1 -11   75.29   11.20
  -6  -1 -11   86.79   12.60
  -1   6 -11   81.69   10.70
   1  -6  11   83.69   12.00
  -6  -1  11   60.89   11.30
  -1   6  11   86.89   12.30
   6   1  11   82.29   11.80
   6   0 -11    5.70    7.40
   0   6 -11    0.70    5.70
  -6   0 -11    4.00    6.80
   0  -6  11    4.00    7.10
  -6   0  11   15.90    8.50
   0   6  11   -2.30    7.40
   6   0  11  -14.00    4.40
   1   6 -11   81.99   10.50
   6  -1 -11   84.89   12.10
  -6   1 -11   87.89   12.50
  -6   1  11   82.99   12.70
   1   6  11   66.59   11.60
   6  -1  11   86.09   11.90
  -1  -6  11  107.19   13.20
  -6   1  11   99.49   14.30
   2   6 -11  112.49   12.40
   6  -2 -11  123.49   14.10
  -6   2 -11  125.49   14.80
  -6   2  11  116.09   14.80
   2   6  11  158.88   15.40
  -6   2  11  129.69   14.40
  -2  -6  11  111.19   13.60
   6  -3 -11  150.58   16.40
   3   6 -11  158.88   14.60
  -6   3 -11  192.48   18.00
  -3  -6  11  176.38   16.80
  -6   3  11  168.08   16.90
  -6   3  11  193.08   18.20
   3   6  11  163.18   16.10
   4   6 -11   16.10    7.40
  -6   4 -11   16.60    8.90
  -6   4  11   34.70    9.10
  -6   4  11   21.20   10.10
   4   6  11   19.90    9.20
  -4  -6  11   28.80    9.30
   5   6 -11   66.09   10.20
  -6   5 -11   70.79   11.70
  -5  -6  11   53.79   10.90
  -6   5  11   68.89   13.10
   5   6  11   57.99   11.80
  -6   5  11   51.99   11.80
  -6   6 -11   70.29   12.00
   6   6 -11   61.69   10.50
  -6  -6  11   65.69   12.00
   6   6  11   76.19   12.40
  -6   6  11   68.39   13.80
  -6   6  11   73.19   13.10
   7   6 -11   63.79   11.00
  -6   7 -11   49.20   11.00
  -6   7  11   46.20   11.50
  -7  -6  11   40.00   10.40
   7   6  11   38.60   10.80
   7   5 -11   58.19   10.80
  -5   7 -11   68.49   11.10
   7   5  11   53.79   11.80
  -5   7  11   65.29   12.80
  -7  -5  11   51.29   11.20
   7   4 -11   15.00    7.40
  -4   7 -11    7.70    7.50
  -4   7  11   16.20    9.50
  -7  -4  11    6.00    8.30
   7   4  11   16.00    9.00
  -3   7 -11   -2.20    6.30
   7   3 -11   -9.60    6.10
  -7  -3  11    2.00    8.20
   7   3  11  -15.00    7.10
  -3   7  11   -4.10    8.00
  -2   7 -11  142.19   13.90
   7   2 -11  169.78   16.00
   7   2  11  145.59   16.00
   2  -7  11  158.48   16.30
  -7  -2  11  118.79   15.70
  -2   7  11  169.68   16.50
   7   1 -11  115.69   14.40
  -7  -1 -11  145.19   16.00
  -1   7 -11  115.19   12.40
  -1   7  11  149.19   15.60
  -7  -1  11  132.59   15.90
   7   1  11  113.49   14.30
   1  -7  11   88.79   12.50
   7   0 -11   29.10    9.00
  -7   0 -11   31.60    9.90
   0   7 -11   38.10    8.10
   0  -7  11   11.20    8.20
   7   0  11   29.90    9.10
   0   7  11   40.90   10.00
  -7   0  11   44.50   10.90
  -7   1 -11  148.09   17.10
   1   7 -11  134.99   12.90
   7  -1 -11  125.19   14.90
  -7   1  11  138.59   15.70
  -1  -7  11  153.78   15.70
  -7   1  11  141.59   16.60
   1   7  11  130.99   14.80
   7  -1  11  133.39   15.40
   7  -2 -11  164.48   16.90
   2   7 -11  138.49   13.60
  -7   2 -11  120.19   15.60
   2   7  11  145.99   15.20
  -7   2  11  141.49   16.10
  -7   2  11  152.18   17.50
  -2  -7  11  122.99   14.60
   3   7 -11   -8.40    5.60
  -7   3 -11    0.60    7.90
   7  -3 -11    5.40    8.00
  -3  -7  11   -5.20    6.90
  -7   3  11    9.30    9.00
   3   7  11   -1.80    7.50
  -7   3  11   -5.70    6.90
   4   7 -11    2.10    6.10
  -7   4 -11   16.60    9.00
  -4  -7  11  -10.40    7.00
  -7   4  11    5.40    9.20
   4   7  11   -6.10    7.90
  -7   4  11    2.40    9.50
  -7   5 -11   57.19   12.20
   5   7 -11   68.79   10.20
  -7   5  11   63.99   13.30
   5   7  11   53.19   11.50
  -5  -7  11   48.80   10.90
  -7   5  11   82.39   14.60
  -7   6 -11   61.99   12.20
   6   7 -11   55.09   10.60
  -6  -7  11   71.79   12.20
   6   7  11   45.70   12.30
  -7   6  11   66.69   14.50
  -7   6  11   39.20   12.40
   7   7 -11   52.39   10.60
  -7   7 -11   34.20   10.30
  -7   7  11   37.20   11.00
  -7  -7  11   41.10   10.90
   7   7  11   31.20   10.40
  -7   8 -11    4.40    9.60
   8   7 -11   59.39   11.30
  -8  -7  11   44.00   11.60
   8   7  11   38.40   11.60
  -7   8  11   28.80   11.80
   8   6 -11   -4.50    7.60
  -6   8 -11   -7.00    7.60
   8   6  11   -1.70    9.10
  -8  -6  11    5.50    8.60
  -6   8  11   -7.40    8.70
   8   5 -11  139.39   15.70
  -5   8 -11  137.39   15.10
   8   5  11  129.99   17.60
  -8  -5  11  131.29   16.40
  -5   8  11  154.48   17.40
  -4   8 -11    3.20    6.90
   8   4 -11    9.50    8.30
   8   4  11   30.40   10.70
  -8  -4  11    2.30    8.60
  -4   8  11   -9.00    8.10
   8   3 -11  126.89   14.90
  -3   8 -11  104.19   12.30
  -8  -3  11  136.49   16.60
  -3   8  11  124.59   15.00
   8   3  11  118.29   15.40
   8   2 -11   13.00    9.00
  -2   8 -11   33.60    7.90
  -8  -2  11   32.90   10.70
  -2   8  11   19.60    9.00
   2  -8  11   29.00    9.40
   8   2  11   11.20    8.70
  -1   8 -11   62.29    9.80
  -8  -1 -11   67.19   14.10
   8   1 -11   76.79   12.90
  -8  -1  11   47.60   11.70
   1  -8  11   42.50    9.90
  -1   8  11   70.49   11.60
   8   1  11   48.10   11.10
  -8   0 -11    4.10    9.60
   0   8 -11    0.30    5.70
   8   0 -11   10.50    8.00
   0   8  11   -8.70    6.80
  -8   0  11  -19.30    7.20
   0  -8  11    5.10    7.60
   8   0  11   10.20    8.90
   8  -1 -11   44.20   11.80
  -8   1 -11   45.90   12.30
   1   8 -11   72.39    9.70
   1   8  11   59.39   11.80
   8  -1  11   76.69   12.00
  -8   1  11   66.39   13.20
   8  -1  11   58.99   11.90
  -1  -8  11   58.69   10.80
   2   8 -11   23.80    7.50
  -8   2 -11   32.80   10.90
   8  -2 -11   30.70   10.10
  -8   2  11   45.00   12.10
  -2  -8  11   43.00   10.00
  -8   2  11   24.40    9.90
   2   8  11   21.60    9.40
   3   8 -11  114.49   12.70
   8  -3 -11  139.19   16.80
  -8   3 -11  124.09   16.90
  -3  -8  11  147.69   15.90
   3   8  11  130.89   15.00
  -8   3  11  127.99   17.30
  -8   3  11  154.98   17.90
  -8   4 -11    0.60    8.80
   4   8 -11   26.00    7.70
   4   8  11    1.70    7.60
  -8   4  11    1.00    8.00
  -8   4  11    1.90   10.40
  -4  -8  11   -4.10    7.60
   5   8 -11  136.09   13.90
  -8   5 -11  148.19   18.00
  -8   5  11  170.58   19.10
  -5  -8  11  137.79   16.00
  -8   5  11   96.19   17.60
   5   8  11  127.69   15.30
   6   8 -11    1.50    7.60
  -8   6 -11   -2.10    9.20
  -6  -8  11    0.90    7.60
  -8   6  11    3.20   11.80
  -8   6  11  -11.60    9.10
   6   8  11   -2.40    8.40
   7   8 -11   31.40    9.50
  -8   7 -11   44.30   12.60
   7   8  11   33.70   11.90
  -8   7  11   42.40   13.90
  -7  -8  11   57.89   11.90
   8   8 -11   29.10    9.90
  -8   8 -11   19.50   10.80
  -8  -8  11   35.60   11.60
   8   8  11   42.70   12.30
  -8   8  11   36.50   13.20
  -8   9 -11   54.99   13.40
   9   8 -11   27.60   11.20
  -9  -8  11   46.90   12.20
  -8   9  11   46.60   13.20
   9   8  11   14.00   12.10
  -7   9 -11  121.59   16.20
   9   7 -11  121.99   15.80
   9   7  11  142.99   17.70
  -7   9  11  131.79   18.90
  -9  -7  11  121.29   16.90
  -6   9 -11   12.20    8.80
   9   6 -11    4.70    8.70
  -6   9  11    2.40    9.70
  -9  -6  11    5.80    9.40
   9   6  11  -15.20    9.20
  -5   9 -11   49.50   10.60
   9   5 -11   46.40   11.30
  -9  -5  11   60.09   13.30
   9   5  11   50.49   13.10
  -5   9  11   69.79   13.60
   9   4 -11    3.60    8.60
  -4   9 -11   10.60    7.70
  -4   9  11   -1.40    9.10
   9   4  11    0.70   10.00
  -9  -4  11    0.20    8.70
  -3   9 -11   54.19   10.00
   9   3 -11   42.00   11.70
   9   3  11   59.89   12.80
  -3   9  11   55.19   11.50
  -9  -3  11   49.10   12.50
  -2   9 -11   16.70    7.40
   9   2 -11    9.30    9.20
   9   2  11   21.40   10.30
   2  -9  11   20.10    8.80
  -2   9  11   13.70    9.30
   9   2  11   17.60   10.60
  -9  -2  11   21.30   10.80
  -1   9 -11   44.10    8.70
   9   1 -11   29.30   11.20
   1  -9  11   49.00   10.70
   9   1  11   39.90   11.60
  -1   9  11   51.39   11.10
  -9  -1  11   58.39   12.80
   9   1  11   37.60   12.10
   0   9 -11   87.19   11.00
   9   0 -11   99.79   14.60
  -9   0 -11   89.89   15.50
   0  -9  11  103.59   13.80
   9   0  11   84.89   14.10
   0   9  11   88.19   13.60
   9   0  11   88.49   14.20
  -9   0  11   91.49   15.10
   9  -1 -11   60.89   12.40
  -9   1 -11   14.50   10.20
   1   9 -11   52.09    9.20
  -9   1  11   35.40   12.10
   9  -1  11   56.89   12.60
   1   9  11   49.20   11.00
  -1  -9  11   47.50   10.30
   9  -1  11   40.90   11.30
   2   9 -11   18.90    7.20
   9  -2 -11   12.00   10.60
  -9   2 -11   17.30   11.70
   2   9  11   26.60    9.30
  -9   2  11   22.90   11.80
  -9   2  11   18.30   12.70
  -2  -9  11   26.20    8.90
  -9   3 -11   51.79   13.40
   9  -3 -11   42.40   12.20
   3   9 -11   53.89    9.10
   3   9  11   44.20   10.90
  -3  -9  11   62.99   11.70
  -9   3  11   32.30   12.70
  -9   3  11   47.10   12.40
   4   9 -11    1.60    6.60
  -9   4 -11  -11.40    9.40
  -9   4  11  -23.20    9.80
   4   9  11   -1.30    8.00
  -4  -9  11    8.80    8.10
  -9   4  11    7.10    9.80
  -9   5 -11   19.40   10.90
   5   9 -11   57.89    9.70
  -5  -9  11   46.20   11.10
   5   9  11   63.89   11.90
  -9   5  11   44.70   14.80
  -9   5  11   60.99   13.00
  -9   6 -11    0.50   10.20
   6   9 -11  -13.30    6.20
   6   9  11    1.90    9.00
  -9   6  11   -3.70   10.40
  -9   6  11    8.80   13.30
  -6  -9  11   -2.30    7.80
  -9   7 -11  114.29   17.70
   7   9 -11  127.19   14.60
   7   9  11  161.18   17.70
  -9   7  11  114.39   18.50
  -7  -9  11  146.79   17.40
  -9   7  11   98.19   23.80
   8   9 -11   25.60    9.90
  -9   8 -11   36.30   13.90
   8   9  11   50.69   12.60
  -8  -9  11   54.99   12.70
  -9   8  11   18.90   13.10
  10   7 -11   26.80   11.80
  -7  10 -11   46.10   12.10
  10   7  11   42.30   14.00
 -10  -7  11   43.70   12.90
  -7  10  11   25.00   12.10
  -6  10 -11   56.79   11.60
  10   6 -11   43.00   12.20
 -10  -6  11   45.10   13.30
  -6  10  11   33.80   13.40
  10   6  11   56.09   14.50
  -5  10 -11  191.38   17.40
  10   5 -11  184.98   20.10
  -5  10  11  184.38   20.00
 -10  -5  11  191.68   20.90
  10   5  11  216.68   24.00
  -4  10 -11  154.48   15.10
  10   4 -11  164.38   18.70
 -10  -4  11  114.09   17.40
  -4  10  11  118.59   16.40
  10   4  11  164.58   20.10
  -3  10 -11  105.79   12.40
  10   3 -11  105.59   15.40
  10   3  11  109.29   16.60
 -10  -3  11   99.19   16.30
   3 -10  11   82.19   13.60
  10   3  11  108.79   17.10
  -3  10  11  100.19   14.60
  -2  10 -11   36.90    8.20
  10   2 -11   43.80   12.20
   2 -10  11   32.00    9.50
  10   2  11   23.80   11.70
  -2  10  11   28.00   10.70
  10   2  11   28.80   12.50
 -10  -2  11   15.80   10.80
  -1  10 -11   18.90    6.80
  10   1 -11   17.00   10.00
  10   1  11   -4.00    9.80
 -10  -1  11    4.10    9.90
   1 -10  11   -5.50    7.00
  10   1  11    4.10    9.40
  -1  10  11    5.60    8.30
   0  10 -11   -3.30    5.90
  10   0 -11    9.80   10.30
   0  10  11   10.80    8.90
 -10   0  11    2.10   10.50
   0 -10  11   -0.20    6.90
  10   0  11    4.30    9.60
  10   0  11   -9.50    8.30
   1  10 -11    5.00    6.60
 -10   1 -11  -12.20   10.10
  10  -1 -11   10.90   10.70
  -1 -10  11   12.40    8.00
   1  10  11   25.00    9.70
 -10   1  11   18.40   12.20
  10  -1  11   22.30   12.90
 -10   2 -11   29.30   11.80
  10  -2 -11   39.80   13.30
   2  10 -11   37.70    8.00
  -2 -10  11   17.20    8.90
 -10   2  11   25.30   13.20
   2  10  11   50.19   10.40
  10  -3 -11   99.19   16.40
   3  10 -11   95.69   11.40
 -10   3 -11   95.39   16.80
 -10   3  11  106.99   18.70
   3  10  11  121.29   15.10
  -3 -10  11  128.89   15.30
 -10   3  11  131.09   18.20
 -10   4 -11  153.48   19.60
   4  10 -11  138.79   13.50
 -10   4  11  165.18   20.20
   4  10  11  131.89   15.70
  -4 -10  11  150.58   16.70
 -10   4  11  132.19   20.80
   5  10 -11  205.58   16.80
 -10   5 -11  185.78   22.60
 -10   5  11  263.37   25.30
 -10   5  11  186.78   24.60
   5  10  11  219.78   20.10
  -5 -10  11  214.38   20.30
   6  10 -11   48.30   10.20
 -10   6 -11   57.19   15.70
 -10   6  11   57.89   16.10
   6  10  11   68.99   12.70
  -6 -10  11   67.19   12.60
 -10   6  11   71.19   17.80
 -10   7 -11   45.70   13.90
   7  10 -11   54.49   10.40
 -10   7  11   16.80   14.00
   7  10  11   49.90   12.60
 -10   7  11   26.40   16.80
  -5  11 -11   15.50    8.40
  11   5 -11   33.40   12.50
  11   5  11   -7.30   10.70
 -11  -5  11   14.00   12.30
  -5  11  11   37.80   12.30
  11   4 -11   16.80   10.70
  -4  11 -11    2.40    7.20
  11   4  11   -1.60   10.90
 -11  -4  11    4.20   10.70
  -4  11  11    3.20    9.40
  11   3 -11   17.70   11.20
  -3  11 -11   18.50    7.60
  11   3  11   13.50   11.30
 -11  -3  11   17.70   12.00
  -3  11  11    3.60    9.70
   3 -11  11   10.80    8.90
  11   3  11   29.90   12.50
  11   2 -11   53.19   12.70
  -2  11 -11   41.60    8.30
  11   2  11   23.90   11.40
  -2  11  11   45.70   11.60
  11   2  11   18.70   12.20
 -11  -2  11   42.30   13.90
   2 -11  11   41.60   10.30
  -1  11 -11   15.00    6.50
  11   1 -11    4.00   10.00
  11   1  11    1.80   10.60
 -11  -1  11    2.80   11.10
  11   1  11    8.60   11.10
  -1  11  11    3.50    9.10
   1 -11  11  -10.50    6.90
   0  11 -11   47.10    8.80
  11   0 -11   61.19   14.70
 -11   0  11   58.79   15.70
   0 -11  11   44.60   10.80
  11   0  11   32.00   12.50
  11   0  11   71.19   14.70
   0  11  11   59.79   12.00
  11  -1 -11    6.00   11.10
   1  11 -11    9.10    6.20
 -11   1 -11    0.50   11.50
   1  11  11   -3.80    8.70
 -11   1  11   -1.00   12.10
  -1 -11  11   10.10    8.10
 -11   2 -11   22.90   12.70
   2  11 -11   50.59    8.30
  11  -2 -11   26.90   12.20
  -2 -11  11   56.19   11.20
 -11   2  11   36.00   14.90
   2  11  11   43.20   10.90
 -11   3 -11    6.20   12.20
   3  11 -11    6.00    6.30
 -11   3  11    9.50   14.30
  -3 -11  11   26.50   10.20
   3  11  11   34.10   10.60
   4  11 -11    0.20    6.00
 -11   4 -11   -2.70   11.50
   4  11  11   -2.30    9.40
 -11   4  11    5.30   12.90
 -11   4  11   -1.40   12.50
   5  11 -11   36.50    8.20
 -11   5 -11   14.90   13.80
 -11   5  11   22.90   14.90
   5  11  11   35.80   11.40
 -11   5  11   10.60   13.20
  12   3 -11    5.30   11.50
  -3  12 -11    3.60    6.40
   3 -12  11   -4.40    7.10
  12   3  11   11.20   12.80
  12   3  11    4.80   10.80
  12   2 -11   33.90   13.20
  -2  12 -11   46.30    8.20
  12   2  11   24.10   13.60
   2 -12  11    5.70    8.80
  12   2  11   33.60   12.70
 -12  -2  11   45.00   19.30
  -2  12  11   31.00   11.10
  12   1 -11   12.90   12.40
  -1  12 -11   22.10    7.10
  12   1  11   44.60   13.50
  12   1  11   27.40   13.30
  -1  12  11   25.30   10.10
   1 -12  11    4.10    8.10
 -12  -1  11   24.50   14.50
   0  12 -11    6.00    5.90
  12   0 -11    8.40   13.00
   0  12  11    2.60    8.80
  12   0  11  -13.40   10.50
  12   0  11   25.40   13.30
 -12   0  11   -4.20   13.50
  12  -1 -11   14.10   12.80
   1  12 -11   19.50    6.40
   1  12  11   20.80    9.90
 -12   1  11   49.60   17.40
  12  -2 -11   43.90   14.50
 -12   2 -11   21.40   13.10
   2  12 -11   33.50    7.00
 -12   2  11   -7.30   16.10
   2  12  11    9.70    9.30
 -12   3 -11    8.30   13.20
   3  12 -11    6.30    6.60
   0   0 -12 1067.09   50.89
   0   0  12 1067.39   50.79
   0   0  12  996.10   50.59
   0  -1 -12   14.80    6.70
   1   0 -12    0.90    6.60
   0   1 -12    6.90    6.20
  -1   0 -12    5.70    6.90
   0   1  12   -3.00    6.30
   0   1  12   -0.20    6.00
   0  -1  12   -3.00    6.40
   1   0  12    3.40    6.90
  -1   0  12   -0.50    7.00
   0  -1  12   12.00    7.80
   1   0  12   -5.90    6.40
  -1   0  12   -2.90    6.40
  -1   1 -12   76.99   11.20
   1  -1 -12   92.49   12.40
   1   1 -12   88.79   11.80
  -1  -1 -12   77.39   12.10
   1  -1  12   99.59   12.70
   1   1  12   94.29   12.00
   1  -1  12  100.49   12.00
  -1   1  12   93.79   12.20
  -1   1  12   84.19   11.90
  -1  -1  12   98.19   12.60
   1   1  12   88.19   12.00
   2   1 -12  357.16   22.80
  -1   2 -12  333.17   22.30
   1  -2 -12  381.66   23.60
  -2  -1 -12  340.57   22.60
  -1   2  12  358.26   23.00
   2   1  12  357.06   22.80
  -1   2  12  382.46   23.80
  -2  -1  12  348.77   23.40
   2   1  12  314.47   22.40
   1  -2  12  318.67   22.70
   0  -2 -12   68.39   10.50
   2   0 -12   82.89   11.50
   0   2 -12   31.10    8.60
  -2   0 -12   86.89   11.60
  -2   0  12   57.29   10.00
   0  -2  12   66.59   11.30
   0   2  12   79.49   11.00
   2   0  12   81.89   11.50
  -2   0  12   52.89   10.60
   2   0  12   65.99   10.40
   0   2  12   87.09   11.90
   1   2 -12  378.66   23.20
  -2   1 -12  373.36   23.30
   2  -1 -12  346.07   23.30
  -1  -2 -12  371.76   23.60
   1   2  12  329.27   22.30
  -1  -2  12  360.46   23.80
   2  -1  12  365.26   22.60
   1   2  12  374.66   23.30
  -2   1  12  339.97   23.30
  -2   1  12  373.56   23.70
   2   2 -12 1148.19   54.29
   2  -2 -12 1174.68   54.99
  -2  -2 -12 1111.29   54.49
  -2   2 -12 1090.29   53.89
   2   2  12 1156.18   54.19
  -2   2  12 1166.68   54.69
   2   2  12 1114.49   54.39
   2  -2  12 1023.90   54.19
  -2   2  12 1224.38   55.39
  -2  -2  12 1067.69   54.69
   3   2 -12   33.00    8.80
  -3  -2 -12   27.00    8.10
   2  -3 -12   36.00    8.90
  -2   3 -12   26.50    8.80
   3   2  12   16.00    7.70
  -2   3  12   27.70    9.20
   2  -3  12    7.40    7.10
  -3  -2  12   23.30    8.90
   3   2  12   27.60    7.80
  -2   3  12   38.10    9.20
   3   1 -12  256.77   18.80
   1  -3 -12  209.38   18.40
  -3  -1 -12  226.28   19.30
  -1   3 -12  235.98   17.80
   3   1  12  234.48   18.70
  -1   3  12  246.98   19.60
  -1   3  12  224.18   18.20
   3   1  12  245.28   18.20
   1  -3  12  231.88   19.70
  -3  -1  12  228.88   20.00
   3   0 -12    2.60    6.20
   0  -3 -12   -0.30    5.60
   0   3 -12   11.20    7.50
  -3   0 -12    7.10    7.00
   0   3  12   -2.10    7.60
  -3   0  12   15.70    8.20
  -3   0  12    3.20    7.50
   3   0  12   -7.90    6.80
   3   0  12    1.40    5.60
   0  -3  12   -3.30    6.70
   0   3  12    6.90    7.20
   1   3 -12  238.88   17.60
   3  -1 -12  244.88   18.90
  -1  -3 -12  223.08   17.70
  -3   1 -12  229.18   18.10
  -3   1  12  232.98   19.70
   1   3  12  231.88   19.50
   3  -1  12  213.28   18.30
   1   3  12  246.98   17.90
  -1  -3  12  227.48   19.80
   3  -1  12  237.38   18.90
  -3   1  12  189.98   18.20
  -2  -3 -12   23.00    8.70
  -3   2 -12   20.20    7.30
   3  -2 -12   33.70    8.90
   2   3 -12   26.40    8.50
   2   3  12   29.80    8.40
  -2  -3  12   13.70    7.90
  -3   2  12   17.60    7.10
  -3   2  12   18.30    8.80
   2   3  12   20.00    8.60
  -3   3 -12  257.97   20.00
   3  -3 -12  329.37   21.70
   3   3 -12  286.17   20.20
   3   3  12  279.27   19.80
  -3  -3  12  265.17   21.10
   3   3  12  261.67   20.10
  -3   3  12  269.97   20.90
  -3   3  12  265.07   20.50
   4   3 -12   85.29   12.10
  -3   4 -12   70.59   11.50
  -3   4  12   83.39   13.30
  -4  -3  12  101.19   13.70
   4   3  12  109.09   13.90
   4   3  12   70.39   10.90
  -3   4  12   87.59   12.30
  -4  -2 -12   35.50    8.80
  -2   4 -12   22.50    7.80
   4   2 -12   27.00    8.40
   2  -4  12   16.00    8.20
  -4  -2  12   47.10   10.10
   4   2  12   28.00    8.60
  -2   4  12   23.40    8.40
   4   2  12   14.40    7.50
  -2   4  12   23.90    8.70
  -1   4 -12   53.69    9.60
  -4  -1 -12   53.99   10.80
   4   1 -12   49.50   10.30
  -4  -1  12   32.80    9.80
  -1   4  12   47.20   10.60
   4   1  12   65.69   10.30
  -1   4  12   48.20    9.60
   1  -4  12   47.40   10.30
   4   0 -12    0.60    7.00
  -4   0 -12    7.20    8.00
   0   4 -12    0.30    6.40
  -4   0  12   15.60    8.50
   4   0  12    5.70    6.30
  -4   0  12   -0.30    6.90
   0  -4  12    2.50    7.10
   0   4  12   -5.60    7.90
   0   4  12    0.80    6.20
   1   4 -12   49.20    9.40
  -4   1 -12   70.99   11.50
   4  -1 -12   51.99   10.00
   4  -1  12   70.59   11.20
  -4   1  12   53.59   10.00
   1   4  12   45.60    9.20
  -1  -4  12   42.40    9.90
   1   4  12   51.69   10.70
  -4   1  12   36.20   10.10
   4  -2 -12   14.00    7.80
  -4   2 -12   29.90    9.20
   2   4 -12   30.20    8.30
   2   4  12   20.30    7.50
   2   4  12   16.50    8.80
  -4   2  12   23.20    9.00
  -2  -4  12   18.80    8.80
  -4   2  12   24.40    8.10
   3   4 -12   65.69   10.50
  -4   3 -12   49.60   10.40
   4  -3 -12   44.10   10.30
  -4   3  12   71.49   11.90
  -3  -4  12   87.39   12.90
   3   4  12   74.79   12.10
   3   4  12   77.49   10.50
  -4   3  12   64.79   11.70
   4   4 -12   91.09   12.10
  -4   4 -12  110.09   14.10
  -4   4  12  114.59   14.80
   4   4  12  101.29   13.20
  -4   4  12  111.79   14.30
  -4  -4  12   93.09   13.30
   5   4 -12  250.47   19.20
  -4   5 -12  271.87   20.10
  -4   5  12  247.48   21.00
  -4   5  12  287.77   21.90
  -5  -4  12  248.68   21.80
   5   4  12  256.57   20.50
   5   3 -12  297.07   21.60
  -3   5 -12  308.87   21.50
   5   3  12  308.77   22.30
  -3   5  12  319.87   22.50
  -5  -3  12  307.47   23.60
  -3   5  12  361.66   24.10
  -5  -2 -12   67.89   11.80
  -2   5 -12   54.79    9.60
   5   2 -12   49.50   10.70
  -2   5  12   59.29   11.60
   5   2  12   72.49   11.60
  -5  -2  12   60.09   11.50
   2  -5  12   47.00   10.10
  -2   5  12   59.09   10.60
  -1   5 -12   64.89   10.70
  -5  -1 -12   60.89   10.90
   5   1 -12  104.09   13.30
  -5  -1  12   64.29   11.50
   5   1  12   82.09   11.90
  -1   5  12   76.39   11.20
   1  -5  12   76.89   12.00
  -1   5  12   78.19   12.70
   0   5 -12   -3.00    6.40
  -5   0 -12    3.60    7.10
   5   0 -12    7.00    7.60
  -5   0  12   -6.30    7.00
   5   0  12   -3.50    6.20
   0   5  12   -4.50    7.20
   0  -5  12   17.40    8.10
   0   5  12   -7.30    6.90
   5  -1 -12   93.59   13.20
   1   5 -12   77.49   11.00
  -5   1 -12   75.09   11.50
   1   5  12   96.79   13.10
  -1  -5  12   66.89   11.20
  -5   1  12   59.49   11.40
   5  -1  12   83.79   11.90
  -5   1  12   67.19   12.10
   5  -2 -12   62.89   10.90
  -5   2 -12   65.29   11.70
   2   5 -12   66.29   10.30
  -5   2  12   43.10   10.30
   2   5  12   47.90   10.80
  -2  -5  12   53.59   11.00
  -5   2  12   58.39   11.70
   5  -3 -12  293.87   22.50
   3   5 -12  316.87   21.50
  -5   3 -12  290.27   22.60
  -3  -5  12  321.87   23.30
  -5   3  12  314.37   23.20
  -5   3  12  310.27   23.60
   3   5  12  343.87   23.10
   4   5 -12  258.27   19.00
  -5   4 -12  268.17   21.50
  -5   4  12  272.37   22.10
   4   5  12  294.77   21.30
  -5   4  12  237.98   21.80
  -4  -5  12  278.27   21.60
   5   5 -12  446.16   27.70
  -5   5 -12  453.45   29.20
  -5  -5  12  474.85   30.30
  -5   5  12  476.35   30.20
   5   5  12  523.75   30.10
  -5   6 -12  114.19   14.00
   6   5 -12  109.59   13.50
  -6  -5  12  103.99   14.90
  -5   6  12  107.29   15.80
  -5   6  12  105.19   15.20
   6   5  12  104.09   14.60
   6   4 -12  173.38   16.80
  -4   6 -12  154.28   15.80
  -6  -4  12  139.99   16.50
   6   4  12  164.28   17.40
  -4   6  12  146.39   17.20
   6   3 -12  177.38   16.70
  -3   6 -12  157.78   15.40
  -3   6  12  151.88   17.40
  -6  -3  12  180.08   18.60
   6   3  12  155.88   17.50
  -2   6 -12   56.89    9.50
   6   2 -12   55.09   10.60
   2  -6  12   30.40    9.30
  -2   6  12   47.10   10.70
  -6  -2  12   37.60   10.20
   6   2  12   61.79   11.10
  -1   6 -12  106.49   12.90
   6   1 -12  116.29   14.10
  -6  -1 -12  126.99   15.40
   6   1  12  126.59   14.50
  -6  -1  12  132.29   15.90
  -1   6  12  111.09   15.20
   6   0 -12  525.65   31.70
   0   6 -12  546.55   29.80
  -6   0 -12  558.74   32.60
  -6   0  12  580.84   33.90
   6   0  12  519.75   31.30
   0  -6  12  515.45   31.70
   0   6  12  565.34   32.50
   6  -1 -12  124.19   15.30
   1   6 -12   98.99   12.30
  -6   1 -12  124.19   15.60
   6  -1  12  128.19   14.80
  -6   1  12  136.39   15.80
  -1  -6  12  144.79   15.50
  -6   1  12  121.19   15.60
   1   6  12  118.19   15.10
   2   6 -12   42.40    9.10
  -6   2 -12   52.19   11.70
   6  -2 -12   45.40   11.00
  -6   2  12   72.89   12.90
  -6   2  12   49.50   10.70
  -2  -6  12   57.79   11.30
   2   6  12   73.19   11.60
   6  -3 -12  175.58   17.50
  -6   3 -12  146.29   16.90
   3   6 -12  181.08   16.00
  -3  -6  12  159.78   17.40
   3   6  12  162.08   17.10
  -6   3  12  169.48   18.60
  -6   3  12  154.78   17.10
   4   6 -12  177.68   15.90
  -6   4 -12  138.39   16.60
  -6   4  12  167.58   18.20
   4   6  12  167.68   17.90
  -4  -6  12  159.98   17.60
  -6   4  12  161.28   18.30
   5   6 -12   98.29   12.90
  -6   5 -12   95.99   14.10
  -6   5  12   75.19   14.50
  -6   5  12   87.59   13.80
   5   6  12  120.89   14.80
  -5  -6  12   99.99   14.60
   6   6 -12  326.17   23.60
  -6   6 -12  361.36   25.20
   6   6  12  368.06   26.60
  -6   6  12  360.26   27.60
  -6   6  12  354.86   27.10
  -6  -6  12  372.86   25.90
  -6   7 -12   75.79   12.70
   7   6 -12   64.49   11.90
  -7  -6  12   55.09   13.10
  -6   7  12   76.19   14.30
   7   6  12   92.69   15.20
  -5   7 -12   60.19   11.80
   7   5 -12  125.19   14.60
   7   5  12  105.59   15.50
  -5   7  12   94.79   15.10
  -7  -5  12   85.49   14.30
  -4   7 -12  257.17   21.20
   7   4 -12  233.38   20.50
  -7  -4  12  288.97   22.80
   7   4  12  288.27   24.30
  -4   7  12  259.17   23.40
  -3   7 -12   70.99   11.40
   7   3 -12   90.89   13.20
  -7  -3  12   77.59   13.90
  -3   7  12   98.49   14.90
   7   3  12   97.89   14.40
  -2   7 -12   65.19   10.50
   7   2 -12   50.39   11.40
   7   2  12   84.79   12.80
  -2   7  12   59.69   12.20
   2  -7  12   57.59   11.30
  -7  -2  12   81.09   13.60
  -1   7 -12  129.39   14.20
   7   1 -12  139.49   15.80
  -7  -1 -12  140.19   16.80
   1  -7  12  123.09   14.60
  -7  -1  12  142.99   17.70
   7   1  12  165.18   17.30
  -1   7  12  134.19   16.50
   7   0 -12    1.40    8.50
  -7   0 -12   -8.10    7.50
   0   7 -12   -1.30    5.80
   0   7  12    8.20    8.90
   0  -7  12    0.70    7.10
  -7   0  12    4.60    9.00
   7   0  12   21.30    9.80
   7  -1 -12  154.58   17.10
  -7   1 -12  126.19   16.10
   1   7 -12  170.58   15.50
   1   7  12  149.88   17.00
   7  -1  12  171.88   17.30
  -1  -7  12  133.79   15.80
  -7   1  12  176.68   18.80
  -7   2 -12   54.69   12.90
   7  -2 -12   74.89   12.80
   2   7 -12   82.99   10.90
  -7   2  12   73.39   13.50
   2   7  12   58.99   12.10
  -2  -7  12   78.19   12.70
  -7   2  12   89.09   14.40
   7  -3 -12   53.49   12.30
   3   7 -12   73.59   11.10
  -7   3 -12   74.99   12.70
  -3  -7  12   78.99   12.80
  -7   3  12   75.89   13.60
  -7   3  12   72.79   13.60
   3   7  12   89.89   13.20
   4   7 -12  262.87   19.30
  -7   4 -12  281.37   23.90
  -7   4  12  266.87   24.20
   4   7  12  275.87   21.40
  -4  -7  12  265.27   22.50
  -7   4  12  224.88   22.10
  -7   5 -12   76.39   13.70
   5   7 -12   78.39   11.30
   5   7  12   82.99   13.80
  -5  -7  12   85.09   13.70
  -7   5  12  137.69   18.10
  -7   5  12   80.99   14.00
  -7   6 -12   61.59   13.30
   6   7 -12   64.79   11.10
  -6  -7  12   74.69   13.40
  -7   6  12   85.69   16.00
   6   7  12   59.59   12.90
  -7   6  12   57.69   13.90
  -7   7 -12   98.39   16.00
   7   7 -12  122.89   15.00
  -7  -7  12  114.39   16.00
  -7   7  12  105.59   16.50
   7   7  12  140.79   18.00
   8   7 -12   58.39   12.20
  -7   8 -12   96.19   15.10
  -8  -7  12   99.79   15.50
  -7   8  12   66.19   14.20
   8   7  12   78.59   14.80
  -6   8 -12   67.39   12.50
   8   6 -12   82.79   12.70
   8   6  12   75.59   13.80
  -8  -6  12   56.49   13.00
  -6   8  12   90.39   15.40
   8   5 -12   12.30    9.30
  -5   8 -12  -10.10    7.10
  -8  -5  12   -8.70    8.10
   8   5  12   12.70   10.00
  -5   8  12   18.60   11.10
  -4   8 -12   74.89   12.00
   8   4 -12  107.19   14.50
  -8  -4  12   79.49   14.60
  -4   8  12   74.19   13.40
   8   4  12   81.09   14.10
  -3   8 -12    5.80    7.10
   8   3 -12    2.00    8.50
  -8  -3  12   -5.20    8.70
   3  -8  12   17.00    8.40
   8   3  12   11.10    9.50
  -3   8  12   -4.90    8.90
   8   2 -12  337.67   25.10
  -2   8 -12  356.46   23.10
  -2   8  12  358.66   26.20
   8   2  12  355.56   26.30
   2  -8  12  341.07   24.50
  -8  -2  12  391.96   28.00
   8   1 -12   15.10    9.80
  -1   8 -12   26.90    8.50
  -1   8  12    4.60    9.10
  -8  -1  12   18.80   10.70
   8   1  12   28.90   10.90
   1  -8  12    7.90    8.30
   8   0 -12   52.49   11.80
  -8   0 -12   23.20   10.10
   0   8 -12   42.80    9.10
   8   0  12   50.19   11.50
   0  -8  12   56.19   11.10
  -8   0  12   41.40   12.60
   0   8  12   30.60   10.30
   8  -1 -12   37.60   10.80
   1   8 -12   27.90    8.10
  -8   1 -12   27.90   10.60
   1   8  12   21.90   10.30
  -8   1  12   19.90   11.00
  -1  -8  12   27.60    9.50
   2   8 -12  372.06   23.00
   8  -2 -12  374.46   26.90
  -8   2 -12  345.47   27.30
  -8   2  12  351.66   27.40
   2   8  12  363.26   25.70
  -2  -8  12  377.56   25.80
  -8   3 -12   -1.30   10.20
   3   8 -12   25.40    7.80
   8  -3 -12   20.10   10.60
  -8   3  12   15.90   10.60
  -3  -8  12   21.20    9.40
  -8   3  12   21.10   11.70
   3   8  12    9.90    9.60
  -8   4 -12   95.79   15.80
   4   8 -12   89.89   11.70
  -4  -8  12   84.69   13.30
  -8   4  12  114.59   16.30
   4   8  12   73.09   12.70
  -8   4  12   78.69   16.00
  -8   5 -12    5.10    9.40
   5   8 -12   -2.40    7.10
  -5  -8  12   30.30   10.40
  -8   5  12   12.20   11.80
  -8   5  12   -0.20    9.00
   5   8  12   17.00   10.20
   6   8 -12   70.49   11.50
  -8   6 -12   46.00   12.60
   6   8  12   71.09   13.90
  -8   6  12   41.90   13.00
  -6  -8  12   71.49   12.90
  -8   6  12   39.20   14.90
   7   8 -12   79.39   12.50
  -8   7 -12   64.49   13.50
  -8   7  12   69.49   15.80
   7   8  12   73.29   13.90
  -7  -8  12   71.99   13.20
  -8   8 -12  219.98   23.40
   8   8 -12  282.97   23.40
  -8  -8  12  331.17   25.50
   8   8  12  312.17   26.50
  -7   9 -12   11.70    9.80
   9   7 -12    9.10    9.40
  -9  -7  12   16.30   10.60
   9   7  12   12.90   11.30
  -7   9  12   -3.90   10.90
  -6   9 -12   64.79   12.30
   9   6 -12   45.30   11.60
   9   6  12   68.19   14.80
  -6   9  12   74.49   14.50
  -9  -6  12   74.89   14.60
  -5   9 -12  147.99   16.40
   9   5 -12  172.08   18.40
   9   5  12  162.68   20.30
  -5   9  12  142.19   18.80
  -9  -5  12  172.08   19.90
   9   4 -12  100.09   14.30
  -4   9 -12   70.29   11.50
   9   4  12   88.79   16.50
  -4   9  12  107.79   15.40
  -9  -4  12   62.09   14.00
  -3   9 -12  115.09   13.70
   9   3 -12  108.69   15.70
  -3   9  12   96.69   14.70
   9   3  12  165.68   19.10
  -9  -3  12  119.89   16.70
   9   2 -12  200.18   20.70
  -2   9 -12  255.87   18.80
  -9  -2  12  216.88   22.40
   9   2  12  244.38   24.10
  -2   9  12  202.38   20.60
   9   1 -12    1.90    9.40
  -1   9 -12   14.70    7.10
   9   1  12   -0.80    8.40
   1  -9  12    2.90    7.80
  -1   9  12   -8.90    7.30
  -9  -1  12   -8.00    8.50
   0   9 -12    3.30    6.80
   9   0 -12    1.70    9.70
  -9   0 -12   -6.50    9.80
   0   9  12   -9.50    8.50
   0  -9  12   -9.20    6.70
   9   0  12    6.60    9.60
  -9   0  12  -16.40    8.70
   1   9 -12    7.20    7.10
   9  -1 -12  -15.50    7.60
  -9   1 -12  -11.60   10.00
   1   9  12   -5.40    8.10
  -1  -9  12    4.40    7.90
  -9   1  12    3.60   10.00
   9  -2 -12  246.38   22.50
   2   9 -12  214.68   17.50
  -9   2 -12  145.39   20.10
   2   9  12  215.18   19.90
  -9   2  12  232.68   23.80
  -2  -9  12  200.38   19.80
   3   9 -12  104.09   12.50
  -9   3 -12  130.39   18.10
   9  -3 -12  119.29   21.00
  -9   3  12   97.49   16.00
  -9   3  12  106.49   18.20
  -3  -9  12  125.89   15.40
   3   9  12  122.49   15.90
   4   9 -12   75.39   10.90
  -9   4 -12   58.19   14.00
  -9   4  12   70.19   14.60
   4   9  12   75.59   13.40
  -9   4  12   77.29   16.90
  -4  -9  12   74.49   12.70
  -9   5 -12  172.58   21.40
   5   9 -12  172.38   16.30
  -9   5  12  141.09   20.30
  -5  -9  12  195.28   19.30
   5   9  12  186.18   19.60
  -9   5  12  184.98   23.30
   6   9 -12   56.19   11.10
  -9   6 -12   66.39   15.60
  -9   6  12   70.89   15.30
  -6  -9  12   62.29   12.60
  -9   6  12   61.79   16.70
   6   9  12  102.39   15.10
   7   9 -12   13.20    8.80
  -9   7 -12   -1.50   11.30
  -9   7  12   -6.40    9.70
   7   9  12   19.50   10.00
  -7  -9  12    6.90    9.50
  10   5 -12   28.00   10.80
  -5  10 -12   16.70    8.90
  -5  10  12   13.10   11.40
 -10  -5  12    4.40   10.20
  10   5  12    4.30   12.00
  10   4 -12   33.20   11.40
  -4  10 -12   12.20    8.10
 -10  -4  12   42.00   12.80
   4 -10  12   13.80    9.80
  10   4  12   59.29   15.00
  -4  10  12   23.70   11.80
  -3  10 -12    7.90    7.80
  10   3 -12   -3.00    9.60
  10   3  12    9.30   11.20
   3 -10  12   -6.60    7.50
  -3  10  12    2.50    9.30
 -10  -3  12   10.10   10.60
  10   2 -12  100.89   15.60
  -2  10 -12   77.49   11.00
  10   2  12   69.69   14.40
  -2  10  12   43.70   11.70
   2 -10  12   55.99   11.70
 -10  -2  12   54.09   14.40
  10   1 -12  276.97   24.80
  -1  10 -12  268.47   18.90
  10   1  12  239.58   24.30
   1 -10  12  222.28   21.30
 -10  -1  12  213.28   23.90
   0  10 -12  508.45   29.50
  10   0 -12  558.74   35.40
 -10   0  12  560.24   37.50
  10   0  12  543.95   35.80
   0 -10  12  524.85   32.60
   1  10 -12  278.97   19.20
 -10   1 -12  216.78   24.70
  10  -1 -12  240.38   24.40
  -1 -10  12  254.87   22.10
 -10   1  12  274.67   27.20
   2  10 -12   78.09   10.70
 -10   2 -12   72.99   17.10
  10  -2 -12   96.19   16.40
 -10   2  12   98.09   17.60
  -2 -10  12   77.79   13.20
   2  10  12   60.49   12.80
 -10   3 -12   13.60   13.10
   3  10 -12   10.60    7.10
   3  10  12    5.70    9.10
 -10   3  12   14.40   12.90
  -3 -10  12    0.00    8.30
 -10   4 -12   14.40   13.20
   4  10 -12   49.10    9.50
  -4 -10  12   26.10   10.40
 -10   4  12   13.40   13.20
 -10   4  12   21.20   14.20
   4  10  12   35.70   11.60
   5  10 -12   16.40    8.10
 -10   5 -12   -0.90   11.00
   5  10  12   -0.50    9.50
 -10   5  12    6.40   11.80
 -10   5  12    9.10   14.10
  -5 -10  12   14.10    9.40
  11   3 -12  161.28   19.50
  -3  11 -12  149.99   14.90
   3 -11  12  136.49   16.30
  11   3  12  170.98   21.60
  -3  11  12  148.89   17.80
  11   2 -12   38.80   13.30
  -2  11 -12   44.40    8.80
   2 -11  12   14.20    9.80
  11   2  12   38.10   14.70
  -2  11  12   38.40   11.70
 -11  -2  12   24.40   15.50
  -1  11 -12   46.30    9.10
  11   1 -12   21.60   12.70
   1 -11  12   41.10   10.80
  11   1  12   14.30   13.10
  -1  11  12   29.80   11.40
 -11  -1  12   27.40   14.10
  11   0 -12  -14.30   10.00
   0  11 -12   -5.50    6.20
   0 -11  12   -8.50    7.20
  11   0  12    0.80   11.40
 -11   0  12   -5.60   12.00
   0  11  12  -15.30    8.30
   1  11 -12   26.10    7.90
  11  -1 -12   22.80   12.80
  -1 -11  12   27.40    9.50
   1  11  12   36.30   10.80
 -11   1  12   41.50   15.50
  11  -2 -12   38.40   14.60
   2  11 -12   22.40    7.80
 -11   2 -12   20.80   14.70
   2  11  12   46.10   11.80
 -11   2  12   34.70   16.40
  -2 -11  12   52.79   11.50
 -11   3 -12  146.39   21.70
   3  11 -12  182.78   15.30
  -3 -11  12  210.28   20.40
   0   0 -13    1.40    6.20
   0   0  13    7.60    7.50
   0   0  13   -7.20    5.70
   0  -1 -13    1.30    6.70
   1   0 -13   -0.40    7.00
  -1   0 -13   11.90    8.30
   0   1 -13    5.20    7.40
   1   0  13    3.90    6.20
   0   1  13   -2.10    7.60
   0   1  13    8.60    8.00
  -1   0  13   11.40    8.20
   1   0  13    7.50    7.80
   0  -1  13    1.40    8.20
  -1   0  13   -7.00    6.90
   1   1 -13  141.39   15.80
  -1   1 -13  138.49   15.60
  -1  -1 -13  132.89   15.20
   1  -1 -13  196.88   17.40
   1  -1  13  182.68   17.00
  -1   1  13  100.69   14.00
  -1  -1  13  124.09   15.20
   1   1  13  151.38   15.40
   1   1  13  140.89   15.50
  -1   1  13  114.69   14.50
   2   1 -13    5.50    7.60
   1  -2 -13    8.20    6.80
  -1   2 -13    8.50    8.00
  -2  -1 -13    1.10    7.10
  -2  -1  13    0.00    7.50
   1  -2  13   10.40    8.60
  -1   2  13    5.60    7.60
   2   1  13    5.40    7.20
  -1   2  13   19.40    8.70
   2   1  13    5.70    7.70
  -2   0 -13    0.10    6.80
   0  -2 -13    4.10    6.80
   0   2 -13    7.30    7.70
   2   0 -13   12.50    8.30
   0  -2  13    9.50    7.70
   0   2  13    3.30    6.50
  -2   0  13    0.40    7.60
   0   2  13    4.20    7.70
   2   0  13  -11.50    6.60
   2   0  13   10.50    7.20
   2  -1 -13   22.80    8.80
  -2   1 -13   24.40    8.90
  -1  -2 -13    8.90    8.00
   1   2 -13   16.40    7.90
  -2   1  13   16.70    8.20
  -2   1  13    9.00    8.20
   1   2  13   -2.30    6.40
  -1  -2  13    0.80    7.50
   2  -1  13    5.70    7.60
   1   2  13    9.30    7.20
  -2  -2 -13  133.49   15.10
   2  -2 -13   87.89   12.90
   2   2 -13  118.19   13.70
  -2   2 -13  123.39   14.10
  -2   2  13   87.29   13.10
  -2  -2  13  102.09   13.70
  -2   2  13  117.59   14.70
   2   2  13   83.79   12.50
   2   2  13  108.49   14.30
   2  -2  13  107.69   13.90
   2  -3 -13    4.00    7.50
  -3  -2 -13   15.80    7.90
  -2   3 -13   11.70    7.40
   3   2 -13    6.50    8.00
  -3  -2  13   -0.90    7.80
  -2   3  13  -11.00    6.80
  -2   3  13    2.70    7.50
   3   2  13   29.40    9.20
   2  -3  13   12.80    8.00
   3   2  13   25.30    8.60
  -3  -1 -13   11.50    7.80
   1  -3 -13    7.30    7.30
  -1   3 -13   13.60    8.10
   3   1 -13   -3.30    6.90
  -3  -1  13    5.00    8.10
  -1   3  13    4.30    7.30
   3   1  13   -2.20    7.20
   3   1  13   -2.60    7.30
   1  -3  13   -8.90    6.50
  -1   3  13   -3.00    6.70
   0   3 -13   76.29   11.80
  -3   0 -13   71.49   12.10
   0  -3 -13   49.40   16.10
   3   0 -13   75.59   12.40
   0   3  13   95.59   12.50
   0   3  13   54.89   10.70
  -3   0  13   63.89   11.80
   0  -3  13   80.79   12.60
   3   0  13   77.19   12.00
   3   0  13   71.89   11.70
   1   3 -13    2.40    7.20
   3  -1 -13   -4.90    6.40
  -3   1 -13    2.20    8.00
  -1  -3  13   -3.20    7.40
   1   3  13    1.10    7.60
  -3   1  13   -8.90    7.20
   1   3  13   11.50    7.70
   3  -1  13    9.40    7.80
  -3   1  13    5.30    7.20
  -3   2 -13   11.90    8.20
   2   3 -13   24.10    8.20
   3  -2 -13   19.10    9.10
  -3   2  13   13.60    7.90
  -3   2  13   27.20    9.90
  -2  -3  13   12.00    8.60
   3  -2  13    8.30    7.50
   2   3  13    1.40    7.00
   2   3  13    0.20    6.50
  -3   3 -13   45.90   10.00
   3   3 -13   55.69   10.50
   3  -3 -13   58.89   11.40
   3   3  13   28.10    8.90
  -3  -3  13   51.69   10.70
  -3   3  13   28.50   10.20
  -3   3  13   30.80    9.80
   3   3  13   35.00    9.90
   3  -3  13   19.60    8.70
   4   3 -13    2.60    7.20
  -3   4 -13   -3.10    6.90
   4   3  13    6.30    7.90
   3  -4  13    7.70    7.60
  -4  -3  13   -4.40    7.50
   4   3  13    9.80    8.10
  -3   4  13   -3.90    7.60
  -3   4  13   -8.00    8.30
  -2   4 -13   28.80    8.90
  -4  -2 -13   21.40   12.40
   4   2 -13   17.40    9.40
  -2   4  13   39.40   10.80
  -2   4  13   28.50    9.40
   2  -4  13   23.40    8.70
  -4  -2  13   32.00   10.20
   4   2  13   15.50    8.00
   4   2  13   27.20    9.30
  -1   4 -13   70.69   11.10
  -4  -1 -13   72.69   11.80
   4   1 -13   58.09   11.40
  -4  -1  13   46.40   11.20
  -1   4  13   74.59   11.70
   4   1  13   74.49   11.80
  -1   4  13   67.19   12.30
   4   1  13   53.09   10.80
   4   0 -13   -2.70    5.90
   0   4 -13   -0.40    6.40
  -4   0 -13   -5.40    7.30
   0   4  13   -4.50    6.70
   0  -4  13    5.80    7.40
   0   4  13    3.40    9.00
   4   0  13   -4.80    6.90
  -4   0  13    4.60    8.40
   4   0  13   -5.70    5.90
   4  -1 -13   83.09   12.80
  -4   1 -13   80.29   12.70
   1   4 -13   94.89   12.00
   4  -1  13   54.69   11.30
   1   4  13   72.39   12.10
   1   4  13   47.30   10.00
  -4   1  13   42.40   10.20
  -1  -4  13   54.29   11.40
  -4   1  13   72.49   12.40
   4  -2 -13    5.40    8.50
   2   4 -13   17.40    8.00
  -4   2 -13   20.50    9.20
   2   4  13   21.20    8.50
  -4   2  13   14.40    9.10
  -2  -4  13   14.40    8.80
   2   4  13   23.10    9.60
  -4   2  13   22.30    9.90
   4  -3 -13  -23.00    6.80
   3   4 -13   -3.50    6.70
  -4   3 -13   -7.20    6.40
  -3  -4  13    3.80    8.00
  -4   3  13   -1.00    8.40
  -4   3  13   -1.60    7.00
   3   4  13   -0.30    8.10
  -4   4 -13  145.89   16.00
   4   4 -13  153.38   16.20
   4   4  13  161.68   17.30
  -4   4  13  145.19   17.70
  -4  -4  13  165.98   17.90
  -4   4  13  137.59   16.50
  -4   5 -13   17.60    8.50
   5   4 -13   24.30    8.50
  -5  -4  13    3.20    8.80
   5   4  13    4.80    8.10
  -4   5  13    4.30    8.70
  -4   5  13   -7.60    8.10
  -3   5 -13    9.10    7.90
   5   3 -13   10.40    8.50
  -3   5  13    2.70    8.00
   3  -5  13    6.00    7.60
  -3   5  13    6.20    9.30
  -5  -3  13   11.60    9.60
   5   3  13    2.30    7.60
   5   3  13    5.40    7.40
   5   2 -13   34.80   10.20
  -2   5 -13   25.80    8.60
  -5  -2  13   43.00   11.00
  -2   5  13   32.10   10.40
   2  -5  13   16.10    8.20
   5   2  13   39.70   10.50
   5   2  13   28.60    9.40
  -2   5  13   40.60   11.20
   5   1 -13    4.70    8.50
  -1   5 -13    8.40    7.30
  -5  -1 -13    1.00    7.70
  -5  -1  13    0.10    8.70
   5   1  13    0.30    7.40
   5   1  13   20.40    9.20
   1  -5  13   16.70    8.70
  -1   5  13   12.00    9.10
   5   0 -13   54.29   11.40
   0   5 -13   57.49   10.40
  -5   0 -13   25.90   10.20
   0  -5  13   49.10   10.90
   5   0  13   44.20   10.70
   0   5  13   51.69   11.70
  -5   0  13   42.40   11.30
   5  -1 -13    8.30    8.60
   1   5 -13   12.30    7.70
  -5   1 -13   33.00   10.00
  -5   1  13   11.50    8.80
   1   5  13   -1.30    8.50
  -1  -5  13    8.70    8.00
   5  -2 -13   38.40   11.30
  -5   2 -13   34.90   10.20
   2   5 -13   32.60    9.40
   2   5  13   45.80   11.00
  -5   2  13   61.59   12.10
  -2  -5  13   40.10   10.80
  -5   2  13   26.60    9.20
   3   5 -13    8.70    7.60
  -5   3 -13   -1.10    8.20
   5  -3 -13   14.20    9.10
  -5   3  13   -6.10    7.70
   3   5  13    3.70    7.40
  -5   3  13    4.00    9.20
  -3  -5  13   -6.90    7.40
  -5   4 -13   16.00    9.30
   4   5 -13   17.20    8.70
  -5   4  13   -0.60    9.10
  -4  -5  13   -3.10    7.30
  -5   4  13   12.00    8.70
   4   5  13    4.90    8.30
   5   5 -13    2.80    7.50
  -5   5 -13   -1.80    8.00
   5   5  13   17.00   10.10
  -5  -5  13   -2.10    8.60
  -5   5  13    9.80    9.80
  -5   5  13    1.80    9.70
  -5   6 -13   23.00    9.10
   6   5 -13   25.00    9.70
  -6  -5  13   14.00    9.60
  -5   6  13   31.90   11.60
   6   5  13   16.90    9.70
   6   4 -13   50.09   10.80
  -4   6 -13   75.09   12.30
  -6  -4  13   85.59   14.50
  -4   6  13   71.49   13.70
   6   4  13   84.39   13.50
  -3   6 -13   59.49   10.80
   6   3 -13   53.49   11.40
  -3   6  13   40.40   11.70
   6   3  13   71.09   12.70
  -6  -3  13   27.00   11.00
  -2   6 -13    0.30    7.50
   6   2 -13   10.60    9.00
   2  -6  13   16.80    8.50
   6   2  13   19.00    9.80
  -2   6  13   13.80    9.00
  -6  -2  13   -3.20    8.40
   6   1 -13   19.80    9.60
  -6  -1 -13    2.90    8.80
  -1   6 -13    2.10    7.30
  -6  -1  13   20.70    9.60
   6   1  13   14.70    8.00
  -1   6  13   15.30    9.60
   1  -6  13    3.90    7.90
  -6   0 -13   11.00    8.30
   6   0 -13    5.90    8.10
   0   6 -13    2.90    6.40
   6   0  13    5.30    7.10
   0  -6  13    3.80    7.50
   0   6  13   13.20    8.40
  -6   0  13   10.40    9.70
   6  -1 -13   28.30    9.80
  -6   1 -13   24.70    9.70
   1   6 -13    5.70    6.80
  -1  -6  13   10.60    8.20
  -6   1  13   15.10   10.10
   1   6  13   16.70   10.00
   6  -2 -13    8.90    8.30
  -6   2 -13    7.00    9.40
   2   6 -13   11.70    7.80
  -6   2  13   12.20    9.50
  -6   2  13    9.70    9.80
  -2  -6  13    2.20    8.30
   2   6  13   23.50   10.10
   3   6 -13   48.70   10.10
  -6   3 -13   60.89   12.00
   6  -3 -13   80.89   13.60
  -6   3  13   53.29   12.10
  -6   3  13   33.50   12.10
   3   6  13   82.39   13.40
  -3  -6  13   41.50   11.50
   4   6 -13   80.69   12.00
  -6   4 -13   63.49   12.70
  -6   4  13   58.39   13.50
   4   6  13   75.99   13.30
  -4  -6  13   47.50   11.90
  -6   4  13   54.09   12.30
   5   6 -13   33.80    9.70
  -6   5 -13   31.30   11.20
  -6   5  13   24.30   11.70
  -5  -6  13   54.09   12.10
   5   6  13   31.20   10.20
  -6   5  13   20.30   10.20
   6   6 -13   29.20    9.60
  -6   6 -13   27.00   10.50
  -6   6  13   13.40    9.90
  -6  -6  13   16.00    9.90
   6   6  13   31.30   11.10
  -6   7 -13    2.40    8.60
   7   6 -13    1.30    8.30
   7   6  13   -0.60    9.40
  -6   7  13    0.50   10.50
  -7  -6  13   25.40   10.90
  -5   7 -13   28.70    9.90
   7   5 -13   13.60    9.40
   7   5  13   -3.80    8.80
  -7  -5  13   14.90   10.00
  -5   7  13   15.10   10.80
  -4   7 -13   -3.70    7.00
   7   4 -13    3.40    8.30
  -7  -4  13    8.30    8.80
   7   4  13    8.50    9.60
  -4   7  13  -20.70    8.60
  -3   7 -13   44.90   10.40
   7   3 -13   48.10   11.70
  -7  -3  13   71.09   13.80
   7   3  13   55.39   12.50
  -3   7  13   54.99   12.80
   3  -7  13   28.20    9.80
  -2   7 -13   64.39   11.00
   7   2 -13   53.19   11.60
   7   2  13   62.29   13.30
   2  -7  13   23.20    9.40
  -2   7  13   48.40   12.10
  -7  -2  13   51.59   13.00
   7   1 -13   33.50   10.40
  -1   7 -13   61.59   10.70
  -1   7  13   44.10   12.10
   1  -7  13   36.80   10.20
   7   1  13   37.20   10.50
  -7  -1  13   15.80   10.10
   0   7 -13    7.90    7.10
   7   0 -13    9.80    9.80
  -7   0 -13   19.30    9.90
  -7   0  13    9.90   10.10
   0   7  13   21.90   10.40
   0  -7  13    8.20    8.00
   7   0  13   16.30    9.50
   7  -1 -13   69.69   13.10
   1   7 -13   51.09   10.00
  -7   1 -13   46.80   12.00
   1   7  13   40.60   11.80
  -1  -7  13   36.20   10.10
  -7   1  13   31.70   11.70
   7  -2 -13   50.99   11.70
  -7   2 -13   32.50   11.00
   2   7 -13   38.90    9.30
  -7   2  13   62.19   13.60
  -2  -7  13   44.50   11.30
   2   7  13   61.39   12.90
  -7   3 -13   43.00   12.00
   3   7 -13   43.10    9.80
  -7   3  13   39.50   12.60
  -3  -7  13   64.89   12.30
  -7   3  13   33.30   12.20
   3   7  13   34.30   11.10
  -7   4 -13  -13.50    8.00
   4   7 -13   -3.20    7.10
  -4  -7  13   -0.50    8.00
   4   7  13   -3.50    8.80
  -7   4  13   16.40   11.60
  -7   4  13    3.20    8.10
   5   7 -13   14.80    8.70
  -7   5 -13    7.50   10.50
  -7   5  13   12.90   10.00
   5   7  13   -0.10    8.90
  -5  -7  13   22.00   10.10
  -7   5  13    3.80   11.10
  -7   6 -13   -8.00    7.90
   6   7 -13    2.70    8.00
  -6  -7  13   -1.60    8.50
  -7   6  13    4.00   10.50
   6   7  13    5.30    9.90
  -7   7 -13   70.49   13.70
   7   7 -13   87.39   13.50
  -7   7  13   96.99   17.10
  -7  -7  13   68.99   13.80
   7   7  13   98.99   16.60
  -6   8 -13   13.50    9.30
   8   6 -13    1.50    8.90
   8   6  13   -5.10    9.70
  -6   8  13   13.20   11.10
  -8  -6  13    7.60   10.40
  -5   8 -13   58.99   11.90
   8   5 -13   52.69   12.20
   8   5  13   67.79   14.90
  -5   8  13   36.60   12.00
  -8  -5  13   50.09   13.10
  -4   8 -13   13.30    8.20
   8   4 -13    2.30    8.30
  -8  -4  13    1.60    9.50
  -4   8  13   -7.20    9.60
   4  -8  13    4.90    9.00
   8   4  13    7.10    9.10
   8   3 -13   -0.40    8.40
  -3   8 -13    7.20    7.70
  -8  -3  13   -1.90    9.60
   8   3  13    1.80    9.50
   3  -8  13   13.90    8.20
  -3   8  13   30.00   11.80
   8   2 -13   -3.40    8.10
  -2   8 -13   15.70    8.40
   8   2  13   14.60    9.90
  -2   8  13   -8.40    8.30
   2  -8  13   18.90    9.10
  -8  -2  13   18.50   10.20
  -1   8 -13   15.70    8.10
   8   1 -13   27.00   10.70
   1  -8  13   14.30    9.30
  -8  -1  13    5.50   10.20
  -1   8  13    3.70    8.10
   8   1  13   22.00   10.50
   8   0 -13   -6.90    8.90
  -8   0 -13    1.00    9.00
   0   8 -13   -2.90    6.70
  -8   0  13   22.20   11.30
   0   8  13  -10.20    9.00
   0  -8  13   -4.70    7.40
   8   0  13  -10.90    8.40
   1   8 -13   32.80    9.50
  -8   1 -13   25.20   11.10
   8  -1 -13   27.80   10.90
  -8   1  13   64.69   14.50
  -1  -8  13   30.10    9.90
   1   8  13   27.30   10.40
   8  -2 -13   -6.40    9.20
   2   8 -13    8.30    7.80
  -8   2 -13    9.20   10.40
  -2  -8  13    6.90    8.40
  -8   2  13    5.20   10.30
   2   8  13   11.10    9.90
  -8   3 -13    6.40    9.40
   3   8 -13    7.10    8.00
  -8   3  13    4.60   10.70
  -3  -8  13   -9.00    7.70
  -8   3  13   24.10   11.20
   3   8  13   29.70   11.30
  -8   4 -13    5.00    8.90
   4   8 -13    4.50    7.60
  -4  -8  13   -0.60    8.40
   4   8  13    3.50    9.00
  -8   4  13    4.70   10.90
  -8   4  13   17.50   12.20
   5   8 -13   53.79   10.70
  -8   5 -13   18.40   12.30
  -8   5  13   64.29   16.00
  -5  -8  13   55.49   12.50
   5   8  13   40.80   12.50
  -8   5  13   54.09   14.10
  -8   6 -13   10.30   10.80
   6   8 -13   -3.50    7.80
  -8   6  13   18.80   11.50
  -6  -8  13    8.00    9.40
   6   8  13    2.40   10.20
   9   5 -13    3.00    9.60
  -5   9 -13  -11.80    7.40
   9   5  13    7.40   10.70
  -5   9  13    6.10   11.60
  -4   9 -13    5.00    8.40
   9   4 -13    2.90    9.50
  -4   9  13    6.80   10.80
  -9  -4  13    9.30   11.00
   4  -9  13    2.90    8.70
   9   4  13   13.50   10.90
  -3   9 -13    4.50    8.00
   9   3 -13  -18.40    8.30
  -3   9  13    2.00   10.10
   3  -9  13   17.30    9.30
   9   3  13   -8.60    9.10
  -9  -3  13    4.50    9.70
   9   2 -13   17.30   10.00
  -2   9 -13   11.50    8.20
   2  -9  13   -6.10    7.70
  -2   9  13    1.00    9.90
  -9  -2  13   10.40   10.30
   9   2  13   -2.60    8.20
   9   1 -13   71.79   14.50
  -1   9 -13   77.99   11.90
   1  -9  13   73.49   13.40
   9   1  13   82.59   15.40
  -9  -1  13   83.29   15.80
  -1   9  13   81.09   14.30
   0   9 -13   26.60    8.90
   9   0 -13   57.19   13.50
   9   0  13   47.90   16.30
  -9   0  13   52.79   14.30
   0  -9  13   42.40   11.60
   0   9  13   56.19   12.70
  -9   1 -13   97.59   16.90
   1   9 -13   73.39   11.70
   9  -1 -13   96.69   15.60
   1   9  13   64.19   13.20
  -9   1  13   59.29   14.90
  -1  -9  13   68.99   12.60
   9  -2 -13   14.10   11.40
   2   9 -13   18.80    8.30
  -9   2 -13   12.10   11.40
  -9   2  13   -3.70   10.80
   2   9  13   23.30   10.80
  -2  -9  13   11.40    9.20
  -9   3 -13    1.50   11.50
   3   9 -13  -12.20    6.00
  -9   3  13   -6.50   11.10
  -3  -9  13    2.80    8.70
   3   9  13   12.80   10.80
   4   9 -13   12.80    8.20
  -9   4 -13   10.80   11.90
  -9   4  13   35.50   14.90
   4   9  13    3.80   10.30
  -4  -9  13    0.50    8.30
  -9   4  13   14.80   12.20
  -9   5 -13    3.60   10.20
   5   9 -13   12.20    8.40
  -5  -9  13   34.50   11.20
  -9   5  13   10.10   12.90
   5   9  13    7.60   10.80
  -9   5  13   18.90   12.40
   3 -10  13   11.10   11.70
  10   2 -13   27.20   11.60
  -2  10 -13   33.40    9.00
  10   2  13   35.00   12.80
  -2  10  13   15.60   10.40
   2 -10  13   22.60   10.20
  10   1 -13    1.90   11.20
  -1  10 -13    3.70    7.30
  -1  10  13   -2.60    9.30
  10   1  13    3.60   10.10
   1 -10  13    9.90    9.40
 -10  -1  13   23.00   18.20
  10   0 -13  -14.80    9.40
   0  10 -13    4.30    7.30
 -10   0  13  -15.60    9.90
   0 -10  13    5.30    8.30
   0  10  13    4.80    9.80
   1  10 -13   -6.80    6.70
  10  -1 -13   -8.50   10.50
   1  10  13   -2.00    8.60
  -1 -10  13   13.40    9.00
 -10   1  13    5.80   14.40
 -10   2 -13    7.90   13.30
   2  10 -13   40.20    9.30
  10  -2 -13   72.09   15.50
   2  10  13   33.10   11.50
  -2 -10  13   37.30   11.40
  -3 -10  13   18.70   10.00
   0   0 -14  221.88   20.40
   0   0  14  248.38   21.00
   0   1 -14    2.90    7.80
  -1   0 -14   -2.20    7.50
   0  -1 -14   -8.90    7.50
   1   0 -14    5.20    7.70
  -1   0  14    3.20    7.70
   0   1  14    2.90    8.10
   0   1  14   -5.50    7.10
   1   0  14   -5.50    7.20
   0  -1  14   -8.50    7.20
   1  -1 -14   24.60    9.10
   1   1 -14   30.60    9.20
  -1   1 -14   27.60    9.30
  -1  -1 -14   39.50   10.40
  -1  -1  14   25.40    9.80
   1   1  14   15.70    8.70
  -1   1  14   -6.40    7.40
   1  -1  14   16.40    9.30
  -1   1  14   23.80    8.80
   1   1  14   47.30    9.50
  -1   2 -14   60.79   11.80
   2   1 -14   61.99   12.50
   1  -2 -14   83.79   13.40
  -2  -1 -14   73.79   12.30
  -1   2  14   59.69   11.80
   1  -2  14   71.39   12.60
  -2  -1  14   62.59   12.30
   2   1  14   58.29   11.20
  -1   2  14   44.80   10.30
   2   1  14   65.69   12.30
   0  -2 -14   91.99   13.30
   2   0 -14   76.69   13.00
  -2   0 -14   77.59   12.80
   0   2 -14  102.59   14.10
  -2   0  14  101.79   14.80
   0  -2  14   94.59   13.40
   2   0  14   72.79   12.70
   0   2  14   99.09   14.50
   0   2  14   85.89   13.10
   1   2 -14   68.49   12.10
   2  -1 -14   96.99   14.40
  -2   1 -14   58.19   11.60
  -1  -2 -14   69.49   12.00
  -2   1  14   60.19   12.20
  -2   1  14   54.89   12.10
   1   2  14   59.49   11.60
  -1  -2  14   71.59   11.90
   1   2  14   60.19   12.00
   2  -1  14   48.80   11.50
  -2  -2 -14    0.00    7.20
   2   2 -14   12.20    8.90
  -2   2 -14    2.20    8.10
   2  -2 -14   -0.80    7.20
  -2   2  14    4.00    9.00
   2  -2  14   -1.20    8.40
  -2  -2  14   -7.20    7.40
  -2   2  14    0.20    8.00
   2   2  14   -3.70    7.70
   2   2  14   -3.70    7.80
  -2   3 -14  126.59   15.30
   3   2 -14  120.39   15.20
  -2   3  14  148.39   16.50
   2  -3  14  101.89   14.60
   3   2  14  110.49   15.00
  -2   3  14  127.99   16.30
  -3  -2  14  132.89   16.70
   3   2  14  125.19   15.10
  -1   3 -14   -6.00    6.90
   3   1 -14    4.90    7.60
  -3  -1 -14    3.70    7.90
  -1   3  14    1.40    8.00
   3   1  14   -6.70    7.60
  -1   3  14   18.00    9.90
   1  -3  14    0.30    7.80
  -3  -1  14   -2.80    8.00
   3   1  14    0.00    8.00
   3   0 -14    2.30    7.30
  -3   0 -14   -3.30    6.20
   0   3 -14   -3.20    7.60
   0   3  14    6.10    8.00
  -3   0  14   -1.40    8.00
   3   0  14  -12.50    6.80
   0  -3  14    2.40    7.90
   0   3  14    1.30    8.80
  -3   1 -14    5.00    7.30
   1   3 -14    6.00    8.30
   3  -1 -14  -13.40    7.80
   3  -1  14    4.30    8.10
  -3   1  14   -5.40    7.90
   1   3  14    1.00    7.60
  -1  -3  14   14.90    8.40
   1   3  14   19.20    8.90
  -3   2 -14  135.59   16.10
   2   3 -14  120.69   15.40
   3  -2 -14  105.79   15.60
   2   3  14  132.99   16.10
  -3   2  14  150.78   16.90
  -2  -3  14  119.49   16.10
  -3   2  14  149.09   17.00
   2   3  14  112.79   14.60
   3   3 -14   51.89   11.40
  -3   3 -14   51.79   11.90
  -3  -3  14   39.10   11.50
   3  -3  14   51.89   11.50
   3   3  14   72.49   12.30
  -3   3  14   43.40   10.50
  -3   3  14   29.60   11.10
   3   3  14   40.90   10.90
   4   3 -14  -15.00    7.50
  -3   4 -14    9.80    8.60
  -4  -3  14    2.50    8.20
   3  -4  14   -7.50    7.80
  -3   4  14    3.60    8.10
   4   3  14    3.30    8.90
  -3   4  14    1.00    8.60
  -2   4 -14    7.10    8.30
   4   2 -14   11.30    8.40
  -2   4  14    0.20    8.90
   4   2  14    3.80    8.40
  -2   4  14    9.90    8.70
  -4  -2  14   -8.10    7.90
   4   2  14   19.50    9.70
   2  -4  14   -5.00    7.40
  -4  -1 -14   62.49   12.80
   4   1 -14   58.39   11.80
  -1   4 -14   53.79   11.40
  -1   4  14   77.69   12.70
   4   1  14   45.10   11.00
  -1   4  14   59.89   12.20
   4   1  14   58.09   11.40
   1  -4  14   43.20   10.90
  -4  -1  14   44.10   11.70
  -4   0 -14   85.29   13.10
   0   4 -14   86.79   12.70
   4   0 -14   47.10   10.90
   4   0  14   36.40   10.50
   0  -4  14   70.89   12.10
   0   4  14   76.89   12.60
  -4   0  14   56.79   12.50
   0   4  14   49.90   12.40
   4  -1 -14   68.49   12.70
  -4   1 -14   61.49   12.70
   1   4 -14   89.39   12.80
  -1  -4  14   62.39   12.10
  -4   1  14   73.19   13.10
   1   4  14   48.80   12.30
   4  -1  14   55.09   11.90
  -4   2 -14   -0.50    8.10
   4  -2 -14   14.00    9.00
   2   4 -14   27.90    9.20
  -4   2  14   -0.50    8.70
  -2  -4  14   -8.10    6.70
   2   4  14   15.80    8.90
   4  -2  14  -11.50    7.10
  -4   2  14   10.30   10.10
  -4   3 -14    0.90    7.70
   3   4 -14    9.10    8.40
   3   4  14    6.70    7.90
  -4   3  14   -1.50    9.70
   4  -3  14   -2.60    7.30
  -4   3  14   -3.00    7.90
  -3  -4  14   10.60    9.10
   4   4 -14   49.70   11.10
  -4   4 -14   54.09   11.80
  -4   4  14   67.99   13.20
   4   4  14   63.99   13.20
  -4   4  14   36.50   11.60
   4  -4  14   45.60   11.60
  -4  -4  14   58.89   12.30
   5   4 -14   54.39   12.00
  -4   5 -14   60.49   11.70
   5   4  14   95.89   14.80
  -5  -4  14   83.09   14.30
   4  -5  14   69.49   13.20
  -4   5  14   40.50   12.10
   5   3 -14   -4.50    7.50
  -3   5 -14   -4.50    7.70
   5   3  14    5.40    9.20
   3  -5  14  -10.40    7.40
  -5  -3  14    5.30    8.80
  -3   5  14    6.50   10.30
  -2   5 -14   26.30   10.20
   5   2 -14   32.30   10.80
   5   2  14   33.30   10.90
  -5  -2  14   22.30   10.80
   2  -5  14   24.50    9.40
  -2   5  14   28.40   10.50
   5   2  14   38.30   10.90
   5   1 -14  167.18   17.90
  -5  -1 -14  200.08   19.30
  -1   5 -14  170.68   16.30
  -1   5  14  129.19   16.90
   1  -5  14  148.59   17.40
  -5  -1  14  175.18   19.30
   5   1  14  113.99   15.40
   5   1  14  141.29   16.50
   5   0 -14    3.30    8.20
  -5   0 -14   -5.50    7.80
   0   5 -14    2.40    7.80
   0  -5  14  -12.90    7.40
   0   5  14   -6.90    6.80
   5   0  14  -11.60    7.40
  -5   0  14   -6.20    8.80
   1   5 -14  185.58   17.70
  -5   1 -14  178.18   19.30
   5  -1 -14  190.08   18.70
   1   5  14  167.68   18.60
   5  -1  14  123.19   16.80
  -1  -5  14  152.38   17.90
  -5   1  14  185.48   19.60
  -5   2 -14   41.20   11.60
   5  -2 -14   34.10   10.80
   2   5 -14   37.30   10.00
   2   5  14   36.20   11.30
  -2  -5  14   48.00   11.70
  -5   2  14   52.79   12.80
  -5   2  14   33.30   17.20
   3   5 -14    7.90    7.70
  -5   3 -14    8.00    8.60
  -5   3  14   18.10   10.60
   3   5  14   18.60    9.90
  -3  -5  14    0.00    8.50
  -5   3  14    6.70    9.60
   4   5 -14   82.79   12.70
  -5   4 -14   44.30   11.50
  -5   4  14   75.99   14.40
  -4  -5  14   87.79   14.20
   4   5  14   46.80   11.50
  -5   4  14   89.49   14.70
  -5   5 -14   -1.50    7.80
   5   5 -14   -8.90    7.50
  -5   5  14    6.30   10.80
  -5   5  14  -13.20    8.60
   5   5  14    6.50    9.00
  -5  -5  14   -0.80    9.20
  -5   6 -14   22.50   10.50
   6   5 -14   21.30    9.80
   6   5  14   43.70   12.60
  -6  -5  14   20.30   10.90
  -5   6  14    5.40   10.30
  -4   6 -14   42.20   11.00
   6   4 -14   45.40   11.00
  -6  -4  14   58.19   12.70
   4  -6  14   31.20   10.00
   6   4  14   46.60   12.40
  -4   6  14   36.90   12.20
  -3   6 -14   46.30   11.00
   6   3 -14   44.30   11.70
   6   3  14   53.39   12.60
  -3   6  14   48.60   12.70
   3  -6  14   26.70    9.40
  -6  -3  14   44.50   12.40
   6   2 -14   91.49   14.10
  -2   6 -14   79.69   13.20
   6   2  14   74.19   13.30
   2  -6  14   62.99   13.00
  -6  -2  14   93.79   15.00
  -2   6  14   68.59   13.90
   6   2  14  114.39   15.60
   6   1 -14  132.79   16.20
  -1   6 -14   83.49   12.30
   6   1  14  132.69   16.60
   1  -6  14  100.49   15.10
   6   1  14  102.09   14.60
  -6  -1  14   90.49   15.20
  -1   6  14  103.09   16.10
  -6   0 -14   84.89   14.80
   6   0 -14   88.19   13.90
   0   6 -14   82.09   12.40
   0  -6  14   39.00   11.10
  -6   0  14   80.19   14.70
   0   6  14   78.19   14.40
  -6   1 -14  116.69   16.80
   6  -1 -14   92.09   14.70
   1   6 -14  131.09   14.70
   1   6  14   85.29   14.30
  -6   1  14  146.89   17.90
  -1  -6  14  103.99   15.00
   2   6 -14   57.29   11.40
   6  -2 -14   58.59   13.50
  -6   2 -14   58.19   13.40
  -6   2  14   78.89   14.90
  -2  -6  14   73.99   14.00
   2   6  14   82.59   14.90
  -6   3 -14   47.20   12.70
   3   6 -14   26.60    9.80
  -6   3  14   44.50   12.60
  -3  -6  14   50.09   12.20
   3   6  14   61.49   13.20
  -6   3  14   59.69   13.80
   4   6 -14   67.19   11.80
  -6   4 -14   63.99   14.60
  -6   4  14   47.10   12.90
   4   6  14   48.90   12.30
  -4  -6  14   41.70   11.70
  -6   4  14   62.99   13.10
   5   6 -14   21.10    9.40
  -6   5 -14   13.10   10.90
  -6   5  14    8.00   11.50
  -5  -6  14   23.30   11.20
  -6   5  14   11.50    9.70
   5   6  14   28.00   11.10
  -6   6 -14   -6.00    8.60
   6   6 -14   -5.70    8.00
   6   6  14   -6.30   10.10
  -6   6  14   -6.50    9.60
  -6  -6  14    2.20    9.40
  -5   7 -14    1.80    8.50
   7   5 -14   -4.60    8.70
  -5   7  14    8.90   11.60
   5  -7  14    2.90    8.40
  -7  -5  14    5.40   10.80
   7   5  14  -10.20    8.80
   7   4 -14   31.70   11.10
  -4   7 -14   30.50    9.90
  -4   7  14   14.90   12.00
   4  -7  14   29.50   10.60
  -7  -4  14   26.90   11.80
   7   4  14   29.00   12.50
  -3   7 -14    2.20    8.50
   7   3 -14   14.30    9.60
   3  -7  14    7.20    8.40
  -3   7  14   10.00   10.70
  -7  -3  14   24.80   11.70
   7   3  14   -5.60    9.50
   7   2 -14   83.59   14.00
  -2   7 -14   75.59   12.50
   2  -7  14   89.59   14.50
  -7  -2  14   70.49   15.10
   7   2  14  124.59   16.90
  -2   7  14   66.79   14.00
   7   1 -14   -3.00    9.20
  -1   7 -14    0.40    7.50
   1  -7  14    4.10    8.30
  -7  -1  14    3.80    9.70
  -1   7  14    4.10   10.30
   7   1  14    0.70    9.10
  -7   0 -14  -10.00   10.10
   0   7 -14    3.50    7.00
   7   0 -14  -11.70    7.70
   0   7  14   16.40   10.00
   0  -7  14   -9.10    7.90
  -7   0  14   -7.50    9.10
   1   7 -14    0.50    7.40
  -7   1 -14   -5.60    8.40
   7  -1 -14   10.20    9.30
   1   7  14   -0.30    9.20
  -7   1  14    2.60   10.40
  -1  -7  14   -6.80    7.40
  -7   2 -14   83.49   16.30
   2   7 -14   89.49   13.00
   7  -2 -14  106.59   16.30
  -2  -7  14  126.29   16.40
   2   7  14   65.59   13.70
  -7   2  14   73.49   15.10
  -7   3 -14   -4.80    8.80
   3   7 -14    5.40    7.70
  -7   3  14    1.70   10.10
  -3  -7  14   -7.10    7.70
   3   7  14    3.70    8.80
  -7   4 -14   17.90   11.00
   4   7 -14   21.70    9.40
  -7   4  14   29.50   12.80
   4   7  14   26.30   11.50
  -4  -7  14   26.10   10.90
  -7   4  14   29.80   12.50
  -7   5 -14   -9.10    9.40
   5   7 -14    5.70    8.50
   5   7  14   22.60   11.20
  -7   5  14   -8.60    9.50
  -7   5  14    3.00   10.90
  -5  -7  14   -5.60    9.20
  -4   8 -14   -6.00    7.80
   8   4 -14   -9.20    8.30
  -4   8  14   15.90   11.60
   8   4  14   11.80   10.80
   8   3 -14   24.50   11.30
  -3   8 -14   14.90    9.00
  -3   8  14   25.70   11.80
   8   3  14   21.40   11.70
   3  -8  14   23.90   10.20
  -8  -3  14   30.50   11.90
   8   2 -14   12.60   10.00
  -2   8 -14    7.20    7.50
   8   2  14    9.40   10.30
  -8  -2  14   -7.50    9.40
  -2   8  14   -0.60    9.20
   2  -8  14    1.90    8.40
  -1   8 -14   30.30    9.50
   8   1 -14   28.90   11.70
  -8  -1  14   35.10   13.30
  -1   8  14   36.00   12.00
   8   1  14   32.30   12.40
   1  -8  14   29.20   10.20
   8   0 -14   19.60   10.90
   0   8 -14    7.70    7.80
   0  -8  14   24.90   10.40
  -8   0  14   39.40   13.20
   0   8  14   29.10   11.80
   8  -1 -14   42.10   13.10
   1   8 -14   29.10    9.60
  -8   1 -14   16.30   11.70
  -8   1  14   41.90   13.40
  -1  -8  14   21.50   10.20
   1   8  14   24.40   11.60
   2   8 -14   -0.70    7.70
  -8   2 -14   19.10   12.60
   8  -2 -14   28.40   11.60
  -8   2  14    4.30   11.40
   2   8  14   10.10   10.40
  -2  -8  14    0.50    8.70
   3   8 -14   23.60    9.40
  -8   3 -14   29.60   11.90
  -3  -8  14   22.90   11.40
  -8   3  14   -1.20   11.50
   3   8  14   19.00   11.60
   4   8 -14   10.80    8.70
  -8   4 -14    4.20   11.20
  -4  -8  14    3.70    9.80
  -8   4  14   19.40   11.40
  -8   4  14   -3.90   11.80
   9   0 -14    0.00   10.30
   0   9 -14    4.00    7.70
   0  -9  14  -13.50    8.50
  -1  -9  14   -4.70    9.60
   0   0 -15    9.10    8.80
   0   0  15   -4.50    8.20
   1   0 -15    0.40    8.80
  -1   0 -15   -2.00    7.90
   0  -1 -15    6.60    8.30
   0   1 -15   16.00    8.90
   0   1  15    3.00    9.00
   0  -1  15    5.40    9.30
   1   0  15   11.20    9.10
  -1   0  15   -0.90    7.90
   1  -1 -15  123.49   16.10
  -1  -1 -15   99.39   15.00
   1   1 -15  160.18   17.20
  -1   1 -15  112.59   15.30
  -1  -1  15  148.09   17.20
   1   1  15  131.49   16.30
  -1   1  15  109.79   15.80
   1  -1  15  122.89   16.30
   1   1  15  103.29   20.90
  -1   2 -15   39.70   11.20
   1  -2 -15   72.19   13.70
  -2  -1 -15   60.69   12.60
   2   1 -15   68.19   13.30
   2   1  15   75.09   13.90
   2   1  15   60.19   12.10
  -1   2  15   58.49   12.30
  -1   2  15   29.30   10.60
  -2  -1  15   47.10   11.70
   1  -2  15   53.79   12.10
   0   2 -15    1.90    8.80
   2   0 -15    4.40    8.90
   0  -2 -15  -12.30   11.30
  -2   0 -15    8.60    9.10
   0   2  15   -5.80    7.80
   0   2  15   11.70    9.50
   0  -2  15  -11.90    7.40
  -2   0  15   -5.70    8.00
   2   0  15   -3.30    8.20
   1   2 -15   62.99   13.00
   2  -1 -15   64.49   12.70
  -2   1 -15   34.70   11.10
  -2   1  15   70.49   13.20
   2  -1  15   60.79   12.80
   1   2  15   73.39   13.30
  -1  -2  15   68.69   12.70
   1   2  15   43.40   11.30
   2   2 -15    2.30    8.80
  -2   2 -15   12.70    9.40
   2  -2 -15    3.50    9.50
   2   2  15   -0.30    7.90
   2  -2  15   19.40    9.80
   2   2  15   10.60    8.50
  -2  -2  15    5.30    8.90
  -2   2  15   25.20   10.70
  -2   2  15   12.50    9.30
  -2   3 -15  118.79   16.00
   3   2 -15  133.89   17.20
  -2   3  15   97.39   16.50
   3   2  15  110.49   15.50
   3   2  15  161.68   17.90
  -3  -2  15  124.29   16.70
  -2   3  15  145.69   16.80
   2  -3  15  101.39   15.60
  -3  -1 -15   20.50   10.20
  -1   3 -15   30.80   10.50
   3   1 -15   14.30   10.10
   1  -3  15    5.10    8.80
   3   1  15   24.80   10.30
  -1   3  15   31.90   11.70
  -3  -1  15    4.10    9.40
  -1   3  15    5.50    9.40
   3   1  15   18.60   10.20
  -3   0 -15  479.15   30.80
   3   0 -15  414.16   29.90
   0   3 -15  475.55   30.10
   0  -3  15  454.55   30.30
   0   3  15  454.75   31.20
   3   0  15  466.25   30.70
   0   3  15  493.85   30.30
  -3   0  15  482.85   31.70
   3  -1 -15   19.60   10.50
  -3   1 -15   11.30    9.30
   1   3 -15   28.60   10.50
  -3   1  15   31.80   11.00
   3  -1  15   29.20   10.70
   1   3  15    8.10    9.20
  -1  -3  15   22.10   10.10
   1   3  15   22.80    9.90
   2   3 -15  128.89   16.10
  -3   2 -15  108.29   16.10
   3  -2 -15  110.29   16.00
  -3   2  15  116.69   16.10
  -2  -3  15  102.79   16.00
   3  -2  15  126.09   16.40
   2   3  15  123.89   24.70
   2   3  15   93.99   14.70
  -3   3 -15   51.09   11.70
   3   3 -15   17.80    9.70
  -3  -3  15   39.50   12.10
  -3   3  15   44.40   11.60
   3  -3  15   22.60   10.40
   3   3  15   36.70   11.00
  -3   3  15   22.30   11.00
   4   3 -15   10.30    9.40
  -3   4 -15   37.00   11.60
   4   3  15   14.40    9.30
  -3   4  15    2.70   10.90
   3  -4  15   27.00    9.80
  -3   4  15   19.30   11.00
  -4  -3  15   20.30   10.50
  -2   4 -15  135.39   17.00
   4   2 -15  106.99   15.70
  -2   4  15  145.69   24.70
   4   2  15  144.19   16.90
  -2   4  15  132.29   17.90
   2  -4  15  126.89   16.90
  -4  -2  15  143.79   18.10
   4   2  15  137.89   16.90
  -1   4 -15   12.40    8.90
   4   1 -15    8.40    9.30
  -1   4  15   -1.00    9.70
   1  -4  15   -1.40    8.40
   4   1  15   13.20    9.40
  -4  -1  15   -4.70    9.10
   4   1  15   -5.60    8.40
   0   4 -15   12.40    8.90
   4   0 -15    7.90    9.40
  -4   0 -15   -4.40    7.10
   0  -4  15   14.20    8.70
   0   4  15   12.10    9.30
  -4   0  15   17.90   10.10
   4   0  15   21.00   10.20
  -4   1 -15   -0.30    8.90
   1   4 -15   -3.10    8.00
   4  -1 -15    1.90    9.60
   4  -1  15   13.70    9.70
  -1  -4  15   -4.60    8.50
   1   4  15    4.90   10.00
  -4   1  15   -6.10    8.70
  -4   2 -15  147.99   17.70
   2   4 -15  134.99   16.20
   4  -2 -15  119.99   17.20
   2   4  15  175.88   19.30
  -4   2  15  162.98   18.30
   4  -2  15  110.59   15.90
  -2  -4  15  138.29   17.20
   3   4 -15   30.90   10.40
  -4   3 -15   36.30   10.80
  -4   3  15   17.60   11.10
   3   4  15   39.50   12.20
  -4   3  15   17.10   10.70
   4  -3  15   14.90    9.60
  -3  -4  15   15.50    9.70
  -4   4 -15  194.28   19.80
   4   4 -15  180.38   18.70
  -4   4  15  158.08   19.40
   4   4  15  205.78   21.20
  -4  -4  15  126.99   17.90
  -4   4  15  228.08   22.20
  -4   5 -15   37.40   11.10
   5   4 -15   22.10   10.20
  -4   5  15   15.90   10.90
  -5  -4  15   11.00   10.40
   5   4  15   29.50   11.00
   4  -5  15    9.50    8.90
   5   3 -15    0.50    8.80
  -3   5 -15   -8.80    8.20
  -3   5  15    6.60    9.60
   3  -5  15   13.10    9.60
  -5  -3  15    5.10    9.80
   5   3  15   19.40   10.50
   5   2 -15  164.88   18.60
  -2   5 -15  178.18   18.70
   2  -5  15  143.19   17.50
   5   2  15  183.28   19.70
   5   2  15  145.99   23.90
  -5  -2  15  166.98   19.90
  -2   5  15  167.28   19.10
   5   1 -15   15.40   10.40
  -1   5 -15    9.50    8.80
  -5  -1  15   25.50   11.90
  -1   5  15   23.80   11.90
   5   1  15   27.50   11.10
   1  -5  15   17.40    9.70
   5   1  15    7.00    9.90
   0   5 -15  424.16   28.30
  -5   0 -15  489.95   30.40
   0  -5  15  397.66   28.90
   0   5  15  342.07   28.10
  -5   0  15  456.15   30.80
   1   5 -15    5.10    8.20
   5  -1 -15   18.10   10.60
  -5   1 -15    2.90    9.40
  -5   1  15    9.70   11.00
  -1  -5  15   -4.20    8.40
   1   5  15   26.10   12.00
   5  -1  15   21.10   10.00
   2   5 -15  162.78   17.70
   5  -2 -15  126.99   17.50
  -5   2 -15  153.08   19.20
  -2  -5  15  158.78   19.00
   2   5  15  181.58   20.40
  -5   2  15  175.78   20.30
  -5   3 -15  -15.90    7.60
   3   5 -15   -3.60    8.00
   5  -3  15    0.80    9.20
  -5   3  15    2.70   11.50
   3   5  15    2.30    9.10
  -5   3  15   -0.80    9.70
  -3  -5  15   -3.50    8.00
   4   5 -15    2.10    9.00
  -5   4 -15   16.80   10.20
  -5   4  15   21.30   11.80
   5  -4  15   11.40   10.00
   4   5  15    3.30   11.30
  -5   4  15   16.60   10.50
  -4  -5  15    1.50    9.40
   5   5 -15    9.00    9.20
  -5   5 -15   14.00    9.90
   5   5  15    8.50   10.00
  -5   5  15   34.70   12.70
  -4   6 -15   54.09   11.60
   6   4 -15   47.70   11.90
   6   4  15   65.89   14.00
   6   3 -15  113.19   15.70
  -3   6 -15  138.39   17.40
  -6  -3  15  158.58   21.00
   3  -6  15  106.49   16.10
  -3   6  15  110.89   17.10
   6   3  15  165.58   19.20
   6   2 -15   19.70   10.50
  -2   6 -15   30.20   10.10
  -6  -2  15   23.10   11.40
   2  -6  15   30.60   11.40
   6   2  15   31.30   11.40
  -2   6  15   35.40   11.80
   6   1 -15   23.60   10.90
  -1   6 -15   25.80   10.00
  -6  -1  15   25.90   11.50
   1  -6  15   22.20   10.20
  -1   6  15   43.50   12.30
   6   1  15   33.80   14.70
   6   1  15   12.20   10.70
   0   6 -15   -2.00    8.10
   6   0 -15    8.20   10.00
  -6   0 -15    8.50    9.70
   0  -6  15    1.40    8.40
   6   0  15  -11.80    8.10
   0   6  15   -2.90    9.90
  -6   0  15  -15.50    9.20
   6  -1 -15   11.40   10.60
   1   6 -15   23.90   10.10
  -6   1 -15   32.30   12.40
   6  -1  15   11.60   10.30
  -1  -6  15    7.10    9.50
  -6   1  15    0.30   10.60
   1   6  15   40.60   12.10
  -6   2 -15   57.69   13.70
   6  -2 -15   20.10   11.10
   2   6 -15   19.40    9.60
  -6   2  15   36.10   13.00
  -2  -6  15   18.30   10.50
   6  -2  15   22.10   11.00
   2   6  15   19.60   11.40
  -6   3 -15  188.68   20.60
   3   6  15  187.38   21.70
  -6   3  15  185.48   21.30
  -3  -6  15  171.68   20.30
   4   6 -15   25.00   10.20
  -6   4 -15   34.50   12.60
  -6   4  15   55.29   13.80
  -6   4  15   12.50   12.10
   4   6  15   52.99   14.00
   7   2 -15   -0.90    9.60
  -2   7 -15   -4.70    8.00
  -1   7 -15  205.18   19.20
   1  -7  15  102.19   24.20
   0   7 -15   45.40   10.50
   7   0 -15   60.79   13.60
   0  -7  15   68.69   19.10
   0   7  15   35.20   12.90
   7   0  15   41.60   12.30
  -7   0  15   45.10   16.90
  -7   1 -15  187.38   22.10
   7  -1 -15  225.18   22.10
   1   7 -15  205.28   19.20
  -7   1  15  178.88   25.90
   1   7  15  168.18   20.30
  -1  -7  15  118.09   24.30
   2   7 -15    4.50    7.90
   7  -2 -15   -9.50   13.90
  -7   2 -15    6.90   11.20
  -7   2  15   -5.30   13.00
   0   0 -16  351.66   27.30
   0   0  16  388.66   28.00
   0   1 -16   -5.40    7.70
  -1   0 -16    2.50    8.90
   0  -1 -16    6.40    8.70
   1   0 -16    8.30   10.50
  -1   0  16   -2.00    9.50
   0  -1  16   -1.00    8.60
   1   0  16  -13.80    8.00
   0   1  16   18.70   10.50
   1  -1 -16   12.60    9.80
   1   1 -16    4.80    9.60
  -1   1 -16   -7.80    7.40
  -1  -1 -16    5.50    8.80
  -1   1  16   -5.40    8.70
   1   1  16    6.10    9.20
   1  -1  16    0.60    8.90
  -1  -1  16  -12.20    8.10
   2   1 -16  146.59   18.30
  -1   2 -16  126.29   16.60
  -2  -1 -16  153.08   27.00
   2   1  16  133.79   17.60
   1  -2  16  111.69   16.30
  -2  -1  16  126.39   17.30
  -1   2  16  120.09   16.80
   0   2 -16  134.19   17.40
  -2   0 -16  144.29   17.80
   2   0 -16  114.79   16.70
   0   2  16  139.39   17.80
   0  -2  16  136.69   17.40
  -2   0  16  137.19   17.60
   2   0  16  120.29   16.80
   2  -1 -16  148.29   18.70
  -2   1 -16  109.19   15.30
   1   2 -16  160.68   17.90
  -2   1  16   80.69   15.30
   1   2  16  125.09   16.80
  -1  -2  16   92.49   15.20
   1   2  16  129.29   21.00
   2  -1  16  128.49   16.80
  -2   2 -16  198.08   20.50
   2   2 -16  177.48   20.00
   2   2  16  190.28   21.00
  -2   2  16  197.48   20.80
   2   2  16  199.98   20.40
  -2  -2  16  208.98   22.10
   2  -2  16  198.68   20.20
  -2   3 -16   -5.00    8.00
   3   2 -16    7.90   10.50
   3   2  16    5.70    9.30
  -3  -2  16    3.20    9.40
   3   2  16   12.60   11.00
  -2   3  16  -15.00    8.50
   2  -3  16    2.00    8.70
  -2   3  16    3.90    9.90
   3   1 -16  217.48   21.70
  -1   3 -16  199.78   20.60
  -3  -1  16  223.98   22.60
  -1   3  16  182.78   20.10
  -1   3  16  225.48   23.30
   1  -3  16  192.98   21.20
   3   1  16  249.18   22.60
  -3   0 -16   -4.00    8.60
   0   3 -16   -1.30    9.00
   3   0 -16    4.30    9.80
   0   3  16    2.00    9.20
  -3   0  16   -5.20    9.70
   3   0  16    9.30    9.90
   0  -3  16    5.60    9.10
  -3   1 -16  168.48   20.50
   3  -1 -16  233.48   22.70
   1   3 -16  215.88   21.10
  -3   1  16  184.78   20.60
  -1  -3  16  194.58   21.50
   1   3  16  246.28   23.10
   3  -1  16  193.18   20.70
  -3   2 -16   -2.90    8.40
   2   3 -16   -7.00    9.30
   2   3  16    7.70    9.60
   3  -2  16    9.90    9.90
  -2  -3  16    4.90    9.80
  -3   2  16   13.60   10.90
  -3   3 -16   51.89   13.40
   3   3 -16   48.40   12.60
   3   3  16   57.89   13.30
  -3   3  16   38.20   12.50
   3  -3  16   47.90   13.10
  -3   3  16   18.70   15.70
   4   2 -16   -5.50    9.40
  -2   4 -16    3.80    9.10
  -2   4  16   -4.90    8.90
   4   2  16   -1.70    9.10
  -1   4 -16   50.39   11.90
   4   1 -16   49.40   13.00
   4   1  16   57.19   13.30
  -4  -1  16   26.40   12.50
  -1   4  16   58.89   14.60
   1  -4  16   39.60   13.30
   0   4 -16   -7.10    8.10
   4   0 -16   12.40   10.60
  -4   0 -16   14.10   10.50
  -4   0  16   14.50   10.60
   4   0  16   18.60   10.60
   0  -4  16   14.60   10.60
   0   4  16   -2.70    9.50
  -4   1 -16   64.89   13.70
   4  -1 -16   39.70   12.80
   1   4 -16   45.70   12.10
   4  -1  16   39.50   11.60
   1   4  16   53.19   13.10
  -1  -4  16   18.90   11.90
  -4   1  16   46.00   13.10
  -4   2 -16  -15.20    7.80
   2   4 -16   -8.50    8.70
   2   4  16   15.70   10.50
  -4   2  16    5.70   10.50
   4  -2  16    0.70    9.60
  -4   3  16   62.19   15.10
   5   1  16   -1.20    9.70
   5   0  16   -1.10    9.60
   5  -1  16  -11.80    9.60
   0   0   0    0.00    0.00

_computing_structure_solution     'SHELXT 2014/5 (Sheldrick, 2014)'
;
_shelx_hkl_checksum              57207
_olex2_submission_special_instructions 'No special instructions were received'
loop_
_space_group_symop_operation_xyz
'x, y, z'
'-x, -y, z'
'-y+1/2, x+1/2, z+1/2'
'y+1/2, -x+1/2, z+1/2'
'-x+1/2, y+1/2, -z+1/2'
'x+1/2, -y+1/2, -z+1/2'
'y, x, -z'
'-y, -x, -z'
'-x, -y, -z'
'x, y, -z'
'y-1/2, -x-1/2, -z-1/2'
'-y-1/2, x-1/2, -z-1/2'
'x-1/2, -y-1/2, z-1/2'
'-x-1/2, y-1/2, z-1/2'
'-y, -x, z'
'y, x, z'
loop_
_atom_site_label
_atom_site_type_symbol
_atom_site_fract_x
_atom_site_fract_y
_atom_site_fract_z
_atom_site_U_iso_or_equiv
_atom_site_adp_type
_atom_site_occupancy
_atom_site_site_symmetry_order
_atom_site_calc_flag
_atom_site_refinement_flags_posn
_atom_site_refinement_flags_adp
_atom_site_refinement_flags_occupancy
_atom_site_disorder_assembly
_atom_site_disorder_group
Ir1 Ir 0.68439(2) 0.31561(2) 0.75819(2) 0.00501(6) Uani 1 2 d S T P . .
In2 In 0.5000 0.5000 0.65982(8) 0.01242(15) Uani 1 4 d S T P . .
Te1 Te 1.0000 0.5000 1.0000 0.01950(17) Uani 1 4 d S T P . .
In3 In 0.78954(4) 0.55569(4) 0.78841(4) 0.01568(9) Uani 1 1 d . . . . .
In1 In 0.59470(6) 0.40530(6) 1.0000 0.01417(17) Uani 1 4 d S T P . .
In4 In 0.69195(6) 0.30805(6) 0.5000 0.01750(18) Uani 1 4 d S T P . .
In5 In 0.79622(6) 0.20378(6) 1.0000 0.0233(2) Uani 1 4 d S T P . .
loop_
_atom_site_aniso_label
_atom_site_aniso_U_11
_atom_site_aniso_U_22
_atom_site_aniso_U_33
_atom_site_aniso_U_23
_atom_site_aniso_U_13
_atom_site_aniso_U_12
Ir1 0.00436(8) 0.00436(8) 0.00631(10) -0.00027(6) 0.00027(6) -0.00001(9)
In2 0.0113(2) 0.0113(2) 0.0146(3) 0.000 0.000 0.0050(3)
Te1 0.0097(4) 0.0381(5) 0.0107(3) 0.000 0.000 0.0067(3)
In3 0.0137(2) 0.00530(17) 0.0281(2) 0.00142(14) -0.00407(15) -0.00230(14)
In1 0.0171(3) 0.0171(3) 0.0083(3) 0.000 0.000 0.0089(3)
In4 0.0234(3) 0.0234(3) 0.0058(3) 0.000 0.000 0.0085(4)
In5 0.0294(3) 0.0294(3) 0.0110(3) 0.000 0.000 0.0214(4)
loop_
_atom_type_symbol
_atom_type_description
_atom_type_scat_dispersion_real
_atom_type_scat_dispersion_imag
_atom_type_scat_source
In In -0.7276 1.3100 'International Tables Vol C Tables 4.2.6.8 and 6.1.1.4'
Ir Ir -1.4442 7.9887 'International Tables Vol C Tables 4.2.6.8 and 6.1.1.4'
Te Te -0.5308 1.6751 'International Tables Vol C Tables 4.2.6.8 and 6.1.1.4'
loop_
_geom_angle_atom_site_label_1
_geom_angle_atom_site_label_2
_geom_angle_atom_site_label_3
_geom_angle
_geom_angle_site_symmetry_1
_geom_angle_site_symmetry_3
_geom_angle_publ_flag
In2 Ir1 In5 143.74(2) . . ?
In3 Ir1 In2 72.789(14) . . ?
In3 Ir1 In2 130.34(2) 12_757 . ?
In3 Ir1 In2 72.790(14) 15_665 . ?
In3 Ir1 In2 130.34(2) 5_646 . ?
In3 Ir1 In3 150.733(9) . 5_646 ?
In3 Ir1 In3 73.74(2) 15_665 5_646 ?
In3 Ir1 In3 150.732(9) 15_665 12_757 ?
In3 Ir1 In3 73.74(2) . 12_757 ?
In3 Ir1 In3 135.36(2) 15_665 . ?
In3 Ir1 In3 77.05(2) 5_646 12_757 ?
In3 Ir1 In1 120.521(18) 5_646 . ?
In3 Ir1 In1 74.381(12) . . ?
In3 Ir1 In1 74.383(12) 15_665 . ?
In3 Ir1 In1 120.521(18) 12_757 . ?
In3 Ir1 In5 95.61(2) 15_665 . ?
In3 Ir1 In5 95.61(2) . . ?
In3 Ir1 In5 74.81(4) 12_757 . ?
In3 Ir1 In5 74.81(4) 5_646 . ?
In1 Ir1 In2 83.69(5) . . ?
In1 Ir1 In5 60.05(6) . . ?
In4 Ir1 In2 71.35(3) . . ?
In4 Ir1 In3 97.529(14) . . ?
In4 Ir1 In3 97.528(15) . 15_665 ?
In4 Ir1 In3 77.92(2) . 5_646 ?
In4 Ir1 In3 77.92(2) . 12_757 ?
In4 Ir1 In1 155.04(4) . . ?
In4 Ir1 In5 144.91(4) . . ?
Ir1 In2 Ir1 138.04(5) 2_665 . ?
Ir1 In2 In2 110.98(3) 2_665 9_666 ?
Ir1 In2 In2 110.98(3) . 9_666 ?
Ir1 In2 In3 109.49(3) . 16 ?
Ir1 In2 In3 109.49(3) . 2_665 ?
Ir1 In2 In3 109.48(3) 2_665 . ?
Ir1 In2 In3 51.403(13) 2_665 2_665 ?
Ir1 In2 In3 51.403(13) . 15_665 ?
Ir1 In2 In3 51.403(13) 2_665 16 ?
Ir1 In2 In3 51.404(13) . . ?
Ir1 In2 In3 109.49(3) 2_665 15_665 ?
Ir1 In2 In4 51.88(5) . . ?
Ir1 In2 In4 170.08(3) 2_665 . ?
Ir1 In2 In4 51.88(5) 2_665 9_666 ?
Ir1 In2 In4 170.08(3) . 9_666 ?
Ir1 In2 In5 100.13(2) 2_665 11_677 ?
Ir1 In2 In5 100.13(2) . 3_544 ?
Ir1 In2 In5 100.13(2) 2_665 3_544 ?
Ir1 In2 In5 100.13(2) . 11_677 ?
In2 In2 In5 60.59(3) 9_666 3_544 ?
In2 In2 In5 60.59(3) 9_666 11_677 ?
In3 In2 In2 113.91(3) . 9_666 ?
In3 In2 In2 113.91(3) 16 9_666 ?
In3 In2 In2 113.91(3) 2_665 9_666 ?
In3 In2 In2 113.91(3) 15_665 9_666 ?
In3 In2 In3 132.18(6) . 2_665 ?
In3 In2 In3 61.69(2) . 16 ?
In3 In2 In3 98.38(3) . 15_665 ?
In3 In2 In3 132.18(6) 16 15_665 ?
In3 In2 In3 98.38(3) 16 2_665 ?
In3 In2 In3 61.69(2) 2_665 15_665 ?
In3 In2 In5 149.133(11) 15_665 11_677 ?
In3 In2 In5 62.59(4) 2_665 3_544 ?
In3 In2 In5 149.133(11) 2_665 11_677 ?
In3 In2 In5 62.59(4) . 11_677 ?
In3 In2 In5 149.133(11) 16 3_544 ?
In3 In2 In5 62.59(4) 15_665 3_544 ?
In3 In2 In5 149.134(11) . 3_544 ?
In3 In2 In5 62.59(4) 16 11_677 ?
In4 In2 In2 59.10(3) . 9_666 ?
In4 In2 In2 59.10(3) 9_666 9_666 ?
In4 In2 In3 76.60(4) 9_666 16 ?
In4 In2 In3 76.60(4) 9_666 2_665 ?
In4 In2 In3 130.396(15) 9_666 . ?
In4 In2 In3 130.396(15) . 2_665 ?
In4 In2 In3 130.396(15) . 16 ?
In4 In2 In3 130.396(14) 9_666 15_665 ?
In4 In2 In3 76.60(4) . . ?
In4 In2 In3 76.60(4) . 15_665 ?
In4 In2 In4 118.20(6) 9_666 . ?
In4 In2 In5 75.39(3) . 11_677 ?
In4 In2 In5 75.39(3) 9_666 3_544 ?
In4 In2 In5 75.39(3) 9_666 11_677 ?
In4 In2 In5 75.39(3) . 3_544 ?
In5 In2 In5 121.18(6) 3_544 11_677 ?
In3 Te1 In3 180.0 9_767 . ?
In3 Te1 In3 89.31(7) . 10_557 ?
In3 Te1 In3 180.0 10_557 2_765 ?
In3 Te1 In3 90.69(7) . 2_765 ?
In3 Te1 In3 90.69(7) 9_767 10_557 ?
In3 Te1 In3 89.31(7) 9_767 2_765 ?
Ir1 In3 Ir1 155.37(2) . 11_677 ?
Ir1 In3 In2 55.807(10) . . ?
Ir1 In3 In2 100.653(18) 11_677 . ?
Ir1 In3 Te1 103.655(16) 11_677 . ?
Ir1 In3 Te1 100.969(15) . . ?
Ir1 In3 In3 136.77(2) 11_677 12_757 ?
Ir1 In3 In3 52.901(16) 11_677 11_677 ?
Ir1 In3 In3 51.475(10) 11_677 16 ?
Ir1 In3 In3 138.47(2) . 11_677 ?
Ir1 In3 In3 111.195(11) . 16 ?
Ir1 In3 In3 53.361(16) . 12_757 ?
Ir1 In3 In1 54.58(4) . . ?
Ir1 In3 In1 128.79(2) 11_677 . ?
Ir1 In3 In4 50.67(4) 11_677 11_677 ?
Ir1 In3 In4 142.08(3) . 11_677 ?
In2 In3 In3 59.156(10) . 16 ?
In2 In3 In1 69.64(5) . . ?
In2 In3 In4 116.34(3) . 11_677 ?
Te1 In3 In2 150.551(18) . . ?
Te1 In3 In3 71.65(4) . 11_677 ?
Te1 In3 In3 127.95(3) . 16 ?
Te1 In3 In3 71.65(4) . 12_757 ?
Te1 In3 In1 82.17(5) . . ?
Te1 In3 In4 69.19(4) . 11_677 ?
In3 In3 In2 137.45(4) 11_677 . ?
In3 In3 In2 101.13(2) 12_757 . ?
In3 In3 In3 86.533(11) 11_677 12_757 ?
In3 In3 In3 104.357(10) 11_677 16 ?
In3 In3 In3 159.562(17) 12_757 16 ?
In3 In3 In1 93.82(3) 12_757 . ?
In3 In3 In1 152.31(3) 11_677 . ?
In3 In3 In4 60.138(18) 16 11_677 ?
In3 In3 In4 140.248(19) 12_757 11_677 ?
In3 In3 In4 75.07(4) 11_677 11_677 ?
In1 In3 In3 84.483(16) . 16 ?
In1 In3 In4 87.52(6) . 11_677 ?
Ir1 In1 Ir1 125.41(6) 10_557 . ?
Ir1 In1 In3 51.03(3) . 15_665 ?
Ir1 In1 In3 51.03(3) 10_557 10_557 ?
Ir1 In1 In3 51.03(3) . . ?
Ir1 In1 In3 122.73(4) . 10_557 ?
Ir1 In1 In3 51.03(3) 10_557 8_667 ?
Ir1 In1 In3 122.73(4) . 8_667 ?
Ir1 In1 In3 122.73(4) 10_557 . ?
Ir1 In1 In3 122.73(4) 10_557 15_665 ?
Ir1 In1 In5 62.71(3) 10_557 . ?
Ir1 In1 In5 62.71(3) . . ?
In3 In1 In3 168.97(3) . 8_667 ?
In3 In1 In3 96.63(6) 10_557 8_667 ?
In3 In1 In3 96.63(6) . 15_665 ?
In3 In1 In3 82.30(7) . 10_557 ?
In3 In1 In3 82.30(7) 15_665 8_667 ?
In3 In1 In3 168.96(3) 10_557 15_665 ?
In1 In1 Ir1 117.29(3) 9_667 . ?
In1 In1 Ir1 117.29(3) 9_667 10_557 ?
In1 In1 In3 95.517(16) 9_667 15_665 ?
In1 In1 In3 95.518(16) 9_667 10_557 ?
In1 In1 In3 95.518(16) 9_667 . ?
In1 In1 In3 95.517(16) 9_667 8_667 ?
In1 In1 In5 180.0 9_667 . ?
In5 In1 In3 84.483(16) . . ?
In5 In1 In3 84.482(16) . 8_667 ?
In5 In1 In3 84.482(16) . 15_665 ?
In5 In1 In3 84.482(16) . 10_557 ?
Ir1 In4 Ir1 175.33(4) . 10_556 ?
Ir1 In4 In2 56.77(3) . . ?
Ir1 In4 In2 118.57(4) . 9_666 ?
Ir1 In4 In2 118.57(4) 10_556 . ?
Ir1 In4 In2 56.77(3) 10_556 9_666 ?
Ir1 In4 In3 51.42(4) 10_556 14_755 ?
Ir1 In4 In3 51.42(4) . 12_757 ?
Ir1 In4 In3 51.42(4) . 5_646 ?
Ir1 In4 In3 132.12(4) 10_556 12_757 ?
Ir1 In4 In3 51.42(4) 10_556 3_644 ?
Ir1 In4 In3 132.11(4) . 3_644 ?
Ir1 In4 In3 132.11(4) . 14_755 ?
Ir1 In4 In3 132.12(4) 10_556 5_646 ?
In2 In4 In2 61.80(6) . 9_666 ?
In2 In4 In3 99.34(5) 9_666 14_755 ?
In2 In4 In3 145.84(2) . 3_644 ?
In2 In4 In3 99.34(5) . 5_646 ?
In2 In4 In3 145.84(2) 9_666 12_757 ?
In2 In4 In3 99.34(5) . 12_757 ?
In2 In4 In3 145.84(2) 9_666 5_646 ?
In2 In4 In3 99.34(5) 9_666 3_644 ?
In2 In4 In3 145.84(2) . 14_755 ?
In3 In4 In3 109.56(5) 14_755 12_757 ?
In3 In4 In3 80.73(7) 12_757 3_644 ?
In3 In4 In3 59.73(4) 12_757 5_646 ?
In3 In4 In3 109.56(5) 3_644 5_646 ?
In3 In4 In3 59.73(4) 14_755 3_644 ?
In3 In4 In3 80.73(7) 14_755 5_646 ?
Ir1 In5 Ir1 114.48(7) 10_557 . ?
Ir1 In5 In2 93.35(6) . 11_667 ?
Ir1 In5 In2 93.35(6) 10_557 3_645 ?
Ir1 In5 In2 152.17(3) 10_557 11_667 ?
Ir1 In5 In2 152.17(3) . 3_645 ?
In2 In5 In2 58.82(6) 11_667 3_645 ?
In1 In5 Ir1 57.24(3) . 10_557 ?
In1 In5 Ir1 57.24(3) . . ?
In1 In5 In2 150.59(3) . 3_645 ?
In1 In5 In2 150.59(3) . 11_667 ?
loop_
_geom_bond_atom_site_label_1
_geom_bond_atom_site_label_2
_geom_bond_distance
_geom_bond_site_symmetry_2
_geom_bond_publ_flag
Ir1 In2 2.827(2) . ?
Ir1 In3 2.672(2) 15_665 ?
Ir1 In3 2.688(2) 12_757 ?
Ir1 In3 2.672(2) . ?
Ir1 In3 2.688(2) 5_646 ?
Ir1 In1 2.8002(19) . ?
Ir1 In4 2.659(2) . ?
Ir1 In5 2.9590(19) . ?
In2 Ir1 2.827(2) 2_665 ?
In2 In2 3.289(3) 9_666 ?
In2 In3 3.265(2) 16 ?
In2 In3 3.265(2) 15_665 ?
In2 In3 3.265(2) 2_665 ?
In2 In3 3.265(2) . ?
In2 In4 3.203(2) 9_666 ?
In2 In4 3.203(2) . ?
In2 In5 3.349(2) 3_544 ?
In2 In5 3.349(2) 11_677 ?
Te1 In3 3.0982(18) 10_557 ?
Te1 In3 3.0982(18) . ?
Te1 In3 3.0982(18) 9_767 ?
Te1 In3 3.0982(18) 2_765 ?
In3 Ir1 2.688(2) 11_677 ?
In3 In3 3.348(3) 16 ?
In3 In3 3.215(2) 12_757 ?
In3 In3 3.215(2) 11_677 ?
In3 In1 3.3091(19) . ?
In3 In4 3.362(2) 11_677 ?
In1 Ir1 2.8002(19) 10_557 ?
In1 In3 3.3091(19) 10_557 ?
In1 In3 3.3091(19) 8_667 ?
In1 In3 3.3091(19) 15_665 ?
In1 In1 2.712(3) 9_667 ?
In1 In5 2.885(3) . ?
In4 Ir1 2.659(2) 10_556 ?
In4 In2 3.203(2) 9_666 ?
In4 In3 3.362(2) 3_644 ?
In4 In3 3.362(2) 5_646 ?
In4 In3 3.362(2) 14_755 ?
In4 In3 3.362(2) 12_757 ?
In5 Ir1 2.9590(19) 10_557 ?
In5 In2 3.349(2) 3_645 ?
In5 In2 3.349(2) 11_667 ?
