#------------------------------------------------------------------------------
#$Date: 2020-04-04 07:11:49 +0300 (Sat, 04 Apr 2020) $
#$Revision: 250065 $
#$URL: file:///home/coder/svn-repositories/cod/cif/4/13/45/4134506.cif $
#------------------------------------------------------------------------------
#
# This file is available in the Crystallography Open Database (COD),
# http://www.crystallography.net/
#
# All data on this site have been placed in the public domain by the
# contributors.
#
data_4134506
loop_
_publ_author_name
'Huang, Xiaofeng'
'Chen, Ruihao'
'Deng, Guocheng'
'Han, Faming'
'Ruan, Pengpeng'
'Cheng, Fangwen'
'Yin, Jun'
'Wu, Binghui'
'Zheng, Nanfeng'
_publ_section_title
;
 Methylamine-Dimer-Induced Phase Transition toward MAPbI<sub>3</sub> Films
 and High-Efficiency Perovskite Solar Modules.
;
_journal_issue                   13
_journal_name_full               'Journal of the American Chemical Society'
_journal_page_first              6149
_journal_page_last               6157
_journal_paper_doi               10.1021/jacs.9b13443
_journal_volume                  142
_journal_year                    2020
_chemical_formula_sum            'C2 H11 I3 N2 Pb'
_chemical_formula_weight         651.02
_space_group_crystal_system      monoclinic
_space_group_IT_number           14
_space_group_name_Hall           '-P 2ybc'
_space_group_name_H-M_alt        'P 1 21/c 1'
_atom_sites_solution_hydrogens   mixed
_audit_creation_method           SHELXL-2013
_cell_angle_alpha                90
_cell_angle_beta                 107.595(13)
_cell_angle_gamma                90
_cell_formula_units_Z            4
_cell_length_a                   10.8379(13)
_cell_length_b                   15.0057(14)
_cell_length_c                   7.9077(10)
_cell_measurement_reflns_used    722
_cell_measurement_temperature    293(2)
_cell_measurement_theta_max      24.6190
_cell_measurement_theta_min      3.8170
_cell_volume                     1225.9(3)
_computing_structure_refinement  'SHELXL-2013 (Sheldrick, 2013)'
_diffrn_ambient_temperature      293(2)
_diffrn_measured_fraction_theta_full 0.997
_diffrn_measured_fraction_theta_max 0.998
_diffrn_measurement_device_type  'SuperNova, Dual, Cu at home/near, Atlas'
_diffrn_radiation_type           MoK\a
_diffrn_radiation_wavelength     0.71073
_diffrn_reflns_av_R_equivalents  0.0971
_diffrn_reflns_av_unetI/netI     0.1677
_diffrn_reflns_Laue_measured_fraction_full 0.997
_diffrn_reflns_Laue_measured_fraction_max 0.998
_diffrn_reflns_limit_h_max       14
_diffrn_reflns_limit_h_min       -10
_diffrn_reflns_limit_k_max       17
_diffrn_reflns_limit_k_min       -19
_diffrn_reflns_limit_l_max       9
_diffrn_reflns_limit_l_min       -10
_diffrn_reflns_number            5986
_diffrn_reflns_point_group_measured_fraction_full 0.997
_diffrn_reflns_point_group_measured_fraction_max 0.998
_diffrn_reflns_theta_full        25.242
_diffrn_reflns_theta_max         27.484
_diffrn_reflns_theta_min         3.356
_exptl_absorpt_coefficient_mu    21.261
_exptl_crystal_colour            colorless
_exptl_crystal_density_diffrn    3.527
_exptl_crystal_description       block
_exptl_crystal_F_000             1112
_refine_diff_density_max         6.009
_refine_diff_density_min         -2.967
_refine_diff_density_rms         0.561
_refine_ls_extinction_method     none
_refine_ls_goodness_of_fit_ref   1.003
_refine_ls_hydrogen_treatment    mixed
_refine_ls_matrix_type           full
_refine_ls_number_parameters     82
_refine_ls_number_reflns         2811
_refine_ls_number_restraints     29
_refine_ls_restrained_S_all      1.012
_refine_ls_R_factor_all          0.1398
_refine_ls_R_factor_gt           0.0726
_refine_ls_shift/su_max          0.001
_refine_ls_shift/su_mean         0.000
_refine_ls_structure_factor_coef Fsqd
_refine_ls_weighting_details
;
 w=1/[\s^2^(Fo^2^)+(0.0477P)^2^]
 where P=(Fo^2^+2Fc^2^)/3
;
_refine_ls_weighting_scheme      calc
_refine_ls_wR_factor_gt          0.1375
_refine_ls_wR_factor_ref         0.1844
_reflns_Friedel_coverage         0.000
_reflns_number_gt                1523
_reflns_number_total             2811
_reflns_threshold_expression     'I > 2\s(I)'
_cod_data_source_file            ja9b13443_si_001.cif
_cod_data_source_block           PbI3(CH3NH2)(CH3NH3)
_cod_depositor_comments
'Adding full bibliography for 4134506--4134507.cif.'
_cod_original_sg_symbol_H-M      'P 21/c'
_cod_database_code               4134506
_shelx_space_group_comment
;
The symmetry employed for this shelxl refinement is uniquely defined
by the following loop, which should always be used as a source of
symmetry information in preference to the above space-group names.
They are only intended as comments.
;
_shelxl_version_number           2013-2
_shelx_res_file
;
TITL dgc-hxf-0719-5_a.res in P2(1)/c
REM Old TITL DGC-HXF-0719-5 in P21/c #14
REM SHELXT solution in P2(1)/c
REM R1 0.146, Rweak 0.006, Alpha 0.030, Orientation as input
REM Formula found by SHELXT: N2 N Pb I3
CELL 0.71073 10.837873 15.005657 7.907746 90 107.5946 90
ZERR 4 0.00129 0.001412 0.001003 0 0.0133 0
LATT 1
SYMM -X,0.5+Y,0.5-Z
SFAC C H I N Pb
UNIT 8 44 12 8 4
DFIX 1.55 0.01 N1 C1
DFIX 1.55 0.01 N2 C2
DFIX 2.4 0.01 N1 N2
DFIX 2.15 0.01 H2a H1b
DFIX 2.15 0.01 H2a H1a
DFIX 1.45 0.01 H1b H1a
DFIX 2.05 0.01 H1a C1
DFIX 2.05 0.01 H1b C1
DFIX 0.89 0.01 N1 H1a
DFIX 0.89 0.01 N1 H1b
DFIX 1.55 0.01 H2a N1
ISOR 0.01 0.02 N2
ISOR 0.01 0.02 N1
ISOR 0.01 0.02 C2

L.S. 4
PLAN  20
BOND $H
LIST 6
fmap 2
acta
SHEL 999 0.77
REM <olex2.extras>
REM <HklSrc "%.\\DGC-HXF-0719-5.hkl">
REM </olex2.extras>

WGHT    0.047700
FVAR       0.15356
PB1   5    0.298878    0.748356    0.019968    11.00000    0.02314    0.02490 =
         0.01805   -0.00042    0.00415    0.00013
I2    3    0.499193    0.652764    0.351049    11.00000    0.02244    0.02984 =
         0.02328   -0.00104    0.00262    0.00370
I3    3    0.316364    0.917747    0.272606    11.00000    0.03313    0.02361 =
         0.02410   -0.00012    0.00763    0.00032
I1    3    0.081776    0.666843    0.178973    11.00000    0.02397    0.03773 =
         0.02663   -0.00126    0.00302   -0.00724
N1    4    0.865756    0.605519    0.759722    11.00000    0.10028    0.08302 =
         0.06095    0.01869    0.02649    0.03420
C1    1    0.909126    0.579758    0.593540    11.00000    0.10300    0.07240 =
         0.06466   -0.01449    0.06429   -0.01918
AFIX 137
H1C   2    0.864489    0.526749    0.540127    11.00000   -1.50000
H1D   2    1.000769    0.569197    0.629983    11.00000   -1.50000
H1E   2    0.888607    0.627594    0.509014    11.00000   -1.50000
AFIX   0

N2    4    0.675951    0.557814    0.825180    11.00000    0.06464    0.02965 =
         0.07158    0.00486   -0.02561    0.00822
AFIX 137
H2A   2    0.729671    0.567232    0.761284    11.00000   -1.20000
H2B   2    0.594551    0.562400    0.755644    11.00000   -1.20000
H2C   2    0.689144    0.503470    0.872306    11.00000   -1.20000
AFIX   0
C2    1    0.701148    0.627986    0.975309    11.00000    0.03901    0.03933 =
         0.03848    0.01524    0.01750    0.02984
AFIX 137
H2D   2    0.685307    0.686539    0.924424    11.00000   -1.50000
H2E   2    0.789418    0.623804    1.048982    11.00000   -1.50000
H2F   2    0.644342    0.617129    1.045616    11.00000   -1.50000
AFIX   0
H1A   2    0.933325    0.589057    0.858255    11.00000   -1.20000
H1B   2    0.870702    0.667195    0.767713    11.00000   -1.20000
HKLF 4

REM  dgc-hxf-0719-5_a.res in P2(1)/c
REM R1 =  0.0726 for    1523 Fo > 4sig(Fo)  and  0.1398 for all    2811 data
REM     82 parameters refined using     29 restraints

END

WGHT      0.0477      0.0000

REM Highest difference peak  6.009,  deepest hole -2.967,  1-sigma level  0.561
Q1    1   0.7423  0.5545  0.7247  11.00000  0.05    6.01
Q2    1   1.0740  0.6615  0.6812  11.00000  0.05    3.24
Q3    1   0.4990  0.6569  0.8587  11.00000  0.05    2.79
Q4    1   0.5432  0.6647  0.2603  11.00000  0.05    2.24
Q5    1   0.3422  0.6953  0.0033  11.00000  0.05    2.23
Q6    1   0.6685  0.5849  0.8128  11.00000  0.05    2.22
Q7    1   0.6928  0.4220  0.7427  11.00000  0.05    2.13
Q8    1   0.2189  0.7835  0.0446  11.00000  0.05    2.03
Q9    1   0.4580  0.6643  0.4556  11.00000  0.05    2.02
Q10   1   0.3150  0.8076 -0.0087  11.00000  0.05    2.00
Q11   1   0.8388  0.5954  0.7258  11.00000  0.05    1.99
Q12   1   0.8876  0.5610  0.4753  11.00000  0.05    1.98
Q13   1   0.5258  0.6678  1.1015  11.00000  0.05    1.95
Q14   1   0.2891  0.9149  0.3906  11.00000  0.05    1.92
Q15   1   0.1333  0.7413 -0.0540  11.00000  0.05    1.88
Q16   1   0.3283  0.8561  0.2633  11.00000  0.05    1.88
Q17   1   0.2734  0.8078  0.0424  11.00000  0.05    1.84
Q18   1   0.7561  0.5573  0.6024  11.00000  0.05    1.81
Q19   1   0.3253  0.7491 -0.1003  11.00000  0.05    1.77
Q20   1   0.9580  0.7481  0.4987  11.00000  0.05    1.74
;
_shelx_res_checksum              47770
_shelx_hkl_file
;
   2   0   0  344.37   42.64
   3   0   0 1407.37  103.75
   4   0   0  489.91   70.44
   5   0   0 9999.00  348.61
   6   0   0  543.66   88.87
  -6   0   0  633.49   82.43
   7   0   0   20.30   12.81
  -7   0   0   19.87   15.17
  -8   0   0  711.70  105.02
   8   0   0  780.42  114.86
  -9   0   0  189.31   60.55
   9   0   0  226.35   62.60
  10   0   0 1599.73  180.05
  11   0   0  250.72   73.01
  12   0   0   78.70   45.25
  13   0   0  202.42   74.26
  14   0   0   14.11   23.40
   2  -1   0  210.15   28.61
  -2   1   0  215.94   30.26
   2  -1   0  278.86   30.87
   3  -1   0   34.89   14.05
  -3   1   0   48.90   17.95
   3  -1   0   17.87   12.80
   4  -1   0 4073.57  176.75
  -4   1   0 4124.30  179.53
   4  -1   0 3821.63  199.26
   5  -1   0   65.98   27.53
  -5   1   0   68.19   26.49
   5  -1   0   58.30   22.86
   6  -1   0 1094.44  111.44
  -6  -1   0  921.47  107.32
   6  -1   0 1158.43  130.61
  -6   1   0 1135.86  115.28
   7   1   0  364.68   79.47
   7  -1   0  293.36   60.35
  -7   1   0  319.47   68.74
   8  -1   0   34.09   26.07
   8   1   0   32.61   25.42
  -8   1   0  -27.99   22.17
  -8  -1   0   12.90   18.79
  -9  -1   0 1263.68  146.76
   9   1   0 1313.62  164.61
   9  -1   0 1269.99  144.64
  10   1   0    5.66   11.82
  10  -1   0   74.10   37.90
  11  -1   0  173.83   60.33
  11   1   0  163.70   63.13
  12   1   0  136.63   58.92
  12  -1   0  163.44   62.12
  13   1   0   73.16   54.66
  13  -1   0   30.21   28.83
  14  -1   0  192.11   75.01
   1  -2   0   41.00    9.46
   2  -2   0   56.11   12.23
  -2   2   0   46.77   12.52
  -2   2   0   33.34   14.45
   2  -2   0   35.25   10.87
  -3   2   0  106.96   26.65
   3  -2   0   67.95   20.52
  -3   2   0  123.83   31.25
   3  -2   0  110.48   21.79
  -4  -2   0  306.79   56.60
   4  -2   0  250.73   48.38
  -4   2   0  303.23   53.30
   4  -2   0  291.35   41.24
  -5   2   0 1645.03  136.26
   5  -2   0 1592.67  138.66
  -5  -2   0 1568.51  142.89
   5  -2   0 1518.60  107.54
   6  -2   0    8.03    8.12
   6  -2   0   -2.89   10.48
  -6   2   0   21.88   17.18
  -7   2   0   78.66   37.75
   7  -2   0   49.84   28.07
   7  -2   0   39.42   20.57
   8   2   0   91.74   42.08
   8  -2   0   98.66   37.80
  -9  -2   0  316.70   73.00
   9   2   0  282.35   83.86
   9  -2   0  267.51   64.37
  10  -2   0  538.31   96.40
  10   2   0  458.53  105.74
  11   2   0  -32.68   30.08
  11  -2   0    1.02   10.52
  12   2   0   35.28   31.63
  12  -2   0   56.77   38.97
  13   2   0   45.51   37.50
  13  -2   0   85.14   47.37
  14  -2   0  123.08   60.54
   0  -3   0   -3.77    4.16
  -1   3   0  751.60   51.50
   1  -3   0  777.26   49.31
   2  -3   0   10.04    5.24
   2  -3   0   13.57    8.07
  -2   3   0   11.19    7.23
  -3   3   0  240.62   37.33
  -3   3   0  271.79   50.52
   3  -3   0  330.93   38.24
   3  -3   0  282.99   39.03
   4  -3   0  296.08   51.09
   4  -3   0  290.56   40.69
  -4   3   0  280.12   55.37
   5  -3   0  105.26   26.37
  -5   3   0  111.18   35.69
   5  -3   0  103.30   36.02
  -5  -3   0  135.52   42.58
   6  -3   0  427.61   62.36
   6  -3   0  324.56   71.98
  -6   3   0  379.40   76.24
   7  -3   0   25.22   10.71
  -7  -3   0    0.31    9.90
  -7   3   0   19.39   21.87
   8  -3   0  458.83   73.99
   8  -3   0  326.67   82.39
   9  -3   0  100.47   37.77
   9   3   0  161.32   68.20
  10   3   0   51.93   34.52
  10  -3   0   43.07   29.34
  11   3   0  198.99   73.89
  11  -3   0   96.04   40.80
  12   3   0  -48.68   38.97
  12  -3   0   14.82   23.88
  13   3   0  207.17   77.58
  13  -3   0  152.05   61.33
  14  -3   0   23.97   29.55
   0  -4   0  130.97   26.17
   1  -4   0    0.95    3.66
  -1   4   0   -4.86    8.04
  -1   4   0   -2.29    8.93
   2  -4   0 2676.02  107.51
   2  -4   0 2612.76  104.98
  -2   4   0 2440.49  107.19
   3  -4   0 1506.63   86.02
  -3   4   0 1420.20   88.29
   3  -4   0 1545.30   91.54
   4  -4   0   17.45   12.70
  -4   4   0   10.51    8.53
   4  -4   0   14.40   13.07
  -5   4   0   39.79   22.76
   5  -4   0    7.61    7.45
   5  -4   0    3.39   13.70
  -5  -4   0   26.42   17.55
   6  -4   0   -3.65   12.50
   6  -4   0   25.33   16.40
  -6  -4   0   37.69   29.63
   7  -4   0 1453.24  166.38
  -7   4   0 1389.96  168.48
  -7  -4   0 1386.83  161.65
   7  -4   0 1646.97  128.38
   8  -4   0  314.85   83.58
   8  -4   0  364.68   65.58
   9  -4   0    4.77    6.64
   9  -4   0  -11.28   20.49
  10  -4   0   12.86   20.84
  10   4   0   16.13   24.68
  11   4   0  -11.93   24.99
  11  -4   0   12.69   14.67
  12   4   0  487.70  124.31
  12  -4   0  554.42  104.98
  13  -4   0   63.22   41.03
  13   4   0   52.02   29.15
  14  -4   0  -15.39   21.94
   0  -5   0   -1.44    3.42
  -1   5   0 1521.19   95.64
  -1   5   0 1374.42   99.96
   1  -5   0 1446.01   85.86
  -2   5   0 2485.41  122.40
   2  -5   0 2333.87  109.94
  -2   5   0 2447.37  116.44
  -3   5   0 2295.08  119.08
   3  -5   0 2095.66  108.88
   3  -5   0 1995.88  107.53
  -3   5   0 2000.69  109.55
   4  -5   0  771.12   69.85
  -4   5   0  705.68   71.65
  -4   5   0  647.35   72.19
   4  -5   0  790.63   77.29
  -5   5   0  216.54   44.30
   5  -5   0  160.32   34.45
   5  -5   0  119.42   38.23
  -5   5   0  170.88   46.43
  -6  -5   0 1144.69  143.43
   6  -5   0 1104.71   97.97
   6  -5   0  881.32  118.65
   7  -5   0  770.91   87.64
   7  -5   0  726.90  118.56
   8  -5   0  585.10  117.64
   8  -5   0  519.99   77.25
   9  -5   0  230.32   78.14
   9  -5   0  229.62   55.31
  10   5   0  254.60   92.70
  10  -5   0   95.55   41.59
  11  -5   0  440.89   88.15
  11   5   0  470.50  125.45
  12   5   0   20.80   29.87
  12  -5   0  165.67   56.08
  13   5   0   19.98   31.30
  13  -5   0   75.61   47.37
  14  -5   0   90.83   52.78
   0  -6   0  686.93   68.28
   1  -6   0  326.29   44.64
  -1  -6   0  282.53   44.76
  -1   6   0  333.63   49.22
   2  -6   0 5848.51  189.20
  -2   6   0 5806.40  208.96
  -2   6   0 5913.36  203.55
  -3   6   0 4364.26  172.54
  -3   6   0 4427.42  179.42
   3  -6   0 4216.34  166.88
   3  -6   0 4275.78  175.51
  -4   6   0    3.11    7.16
  -4   6   0    7.16    9.85
   4  -6   0   -1.80    8.10
   4  -6   0    1.06    3.98
  -5   6   0  316.00   61.30
   5  -6   0  255.42   44.61
  -5   6   0  262.67   50.04
   5  -6   0  165.65   44.97
   5  -6   0  238.87   61.91
   6  -6   0  491.62   66.51
   6  -6   0  427.99   83.98
  -6  -6   0  430.23   88.20
   7  -6   0 2350.51  156.26
   7  -6   0 2297.94  216.45
   8  -6   0 1234.77  173.36
   8  -6   0 1189.10  119.01
   9  -6   0   71.63   34.27
   9  -6   0  122.27   60.75
  10   6   0   41.40   27.82
  10  -6   0   72.98   47.70
  10  -6   0   75.60   36.07
  11   6   0  105.71   52.41
  11  -6   0  154.15   53.41
  12   6   0  406.85  120.47
  12  -6   0  464.24   96.28
  13  -6   0  110.67   49.39
   0  -7   0   -0.28    8.32
  -1  -7   0 1097.53   95.65
   1  -7   0 1170.32   89.67
  -1   7   0 1106.89   99.24
   2  -7   0 1749.23  110.44
  -2   7   0 1799.22  123.50
  -2   7   0 1722.49  122.84
   3  -7   0 1613.46  108.13
  -3   7   0 1765.73  119.46
  -3   7   0 1816.07  126.60
  -4   7   0  559.20   67.27
   4  -7   0  510.79   64.97
  -4   7   0  573.22   72.91
   4  -7   0  581.63   69.77
  -5   7   0  117.77   36.80
   5  -7   0   61.33   24.79
   5  -7   0  136.85   38.08
  -5   7   0  125.73   37.04
   5  -7   0  108.90   43.65
   6  -7   0  899.78  124.55
   6  -7   0 1001.00   97.84
   6  -7   0  953.50  133.16
  -6   7   0 1024.07  131.90
   7  -7   0  434.42   96.88
   7  -7   0  486.14   73.15
   8  -7   0  381.19   68.19
   8  -7   0  355.92  103.26
   9  -7   0  150.78   45.23
   9  -7   0  151.76   63.40
  10  -7   0  101.00   40.29
  10  -7   0   51.41   24.07
  11  -7   0  319.89   75.90
  11   7   0  327.06  115.68
  12  -7   0   33.13   22.83
  12   7   0   -3.04   15.45
   0  -8   0  230.01   45.94
   1  -8   0  324.09   50.05
  -1  -8   0  308.61   52.99
  -1   8   0  284.08   54.44
  -2   8   0  455.21   67.19
  -2   8   0  394.94   65.27
   2  -8   0  377.90   54.04
  -3   8   0  102.85   31.44
   3  -8   0   92.92   27.54
  -3   8   0   93.67   28.67
  -4   8   0  254.92   47.82
  -4   8   0  256.55   52.23
   4  -8   0  219.12   45.03
  -5   8   0  217.57   49.58
   5  -8   0  287.63   79.55
   5  -8   0  223.34   52.72
   5  -8   0  276.32   53.16
  -5   8   0  243.47   51.32
   6  -8   0   70.70   27.98
   6  -8   0  113.13   50.91
   6  -8   0  108.10   42.38
  -6   8   0  121.21   44.36
   7  -8   0  466.50   72.86
   7  -8   0  424.34  102.76
   8  -8   0   20.30   11.05
   8  -8   0   39.83   22.28
   9  -8   0  176.79   73.81
   9  -8   0  168.30   47.63
  10  -8   0  218.46   83.67
  10  -8   0  139.01   44.34
  11   8   0    5.22   23.86
  11  -8   0   10.63   17.74
  12  -8   0  152.76   54.96
  12   8   0   73.19   77.34
   0  -9   0    4.75    6.38
   1  -9   0  163.34   38.18
  -1   9   0   99.70   34.23
  -1  -9   0  143.38   37.48
  -2   9   0   -3.12   14.25
  -2   9   0   -4.21    7.87
   2  -9   0    6.45    7.71
  -2  -9   0   10.33   10.25
  -3   9   0   75.45   29.33
   3  -9   0   91.81   28.74
  -3   9   0  146.61   41.03
   4  -9   0   93.12   49.39
  -4   9   0   63.83   29.41
   4  -9   0   66.57   24.95
  -4   9   0   66.43   24.76
   5  -9   0    4.84    8.61
   5  -9   0   57.35   38.70
  -5   9   0   38.77   20.47
   5  -9   0   50.47   23.68
  -6   9   0  172.55   51.82
   6  -9   0  193.03   46.38
   6  -9   0  266.79   67.25
   6  -9   0  321.31   88.11
   7  -9   0  -23.21   24.85
   7  -9   0   -0.41   29.56
   7  -9   0   -1.53    6.59
   8  -9   0  155.05   68.50
   8  -9   0  119.93   40.54
   9  -9   0   24.45   31.24
   9  -9   0   39.53   29.36
  10  -9   0  154.88   72.69
  10  -9   0   44.27   27.74
  11  -9   0  201.52   94.81
  11   9   0  234.93   94.39
  11  -9   0  175.96   52.61
   0 -10   0 2115.41  148.78
  -1 -10   0  339.25   61.40
  -1  10   0  193.62   53.49
   1 -10   0  288.34   52.05
  -2  10   0    6.90    8.16
  -2 -10   0   20.92   14.73
  -2  10   0   -7.28    8.08
   2 -10   0    5.57    6.67
  -3  10   0    8.35   10.69
   3 -10   0    2.37   19.36
  -3  10   0   13.83   10.63
   3 -10   0   27.79   16.45
  -4  10   0  399.26   66.38
  -4  10   0  427.97   76.41
   4 -10   0  442.95  112.02
   4 -10   0  401.36   68.21
   5 -10   0 1533.38  202.36
   5 -10   0 1509.36  138.54
  -5  10   0 1314.77  122.01
   6 -10   0   49.28   20.97
  -6  10   0   41.27   16.30
   6 -10   0   60.17   37.10
   6 -10   0   52.71   38.44
   7 -10   0   43.50   34.87
   7 -10   0   -9.26   14.04
   7 -10   0   35.36   18.49
   8 -10   0   20.12   18.33
   8 -10   0   24.28   28.12
   9 -10   0  210.83   82.87
   9 -10   0  211.06   57.21
  10 -10   0  613.83  160.00
  10 -10   0  499.49   92.62
  11 -10   0  -40.51   44.36
   0 -11   0    2.83   13.13
  -1 -11   0 1244.57  120.40
   1 -11   0 1444.43  119.69
  -1  11   0 1234.43  143.31
  -2 -11   0   77.54   30.61
  -2  11   0  103.85   40.12
  -2  11   0  114.72   38.79
   2 -11   0   84.95   28.81
  -3  11   0   12.06   11.55
  -3  11   0   32.01   18.47
   3 -11   0   55.82   24.08
   3 -11   0   51.43   47.45
  -3 -11   0   48.41   24.96
   4 -11   0 1384.64  126.84
  -4  11   0 1340.67  127.39
   4 -11   0 1530.65  210.50
   5 -11   0   10.44   14.50
   5 -11   0    4.53   13.47
  -5  11   0    4.47    8.47
   6 -11   0  528.61   98.91
   6 -11   0  455.74  116.87
  -6  11   0  559.47   89.34
   7 -11   0  207.85   75.33
   7 -11   0  221.51   72.45
   8 -11   0   41.97   43.70
   8 -11   0   44.51   29.92
   9 -11   0  672.24  160.57
   9 -11   0  499.63   89.11
  10 -11   0   16.65   47.06
  11 -11   0   26.23   30.23
   0 -12   0 3405.41  197.30
  -1 -12   0   30.43   12.09
  -1  12   0   30.39   24.76
   1 -12   0   45.19   22.63
  -2 -12   0  249.41   56.47
   2 -12   0  206.05   72.19
  -2  12   0  182.74   54.01
   2 -12   0  147.79   39.73
  -2  12   0  221.45   59.87
  -3 -12   0  439.08   77.00
   3 -12   0  511.88   76.30
  -3  12   0  387.93   75.67
   3 -12   0  540.74  125.90
  -3  12   0  458.42   83.99
  -4  12   0   22.47   20.07
   4 -12   0   90.10   54.40
   4 -12   0   54.11   25.53
   5 -12   0 2094.57  177.05
   5 -12   0 2055.62  258.54
  -5  12   0 1750.65  145.01
   6 -12   0   82.82   48.10
   6 -12   0  138.62   53.14
   7 -12   0  -48.10   41.41
   7 -12   0   32.29   19.66
   8 -12   0  479.62  125.38
   9 -12   0   60.07   55.32
  10 -12   0  535.25  151.72
  11 -12   0   57.93   33.71
   0 -13   0  -32.05   19.76
   1 -13   0 1082.35  109.83
  -1 -13   0 1049.24  116.98
   2 -13   0   68.76   29.96
  -2  13   0   24.57   21.68
   2 -13   0   56.68   27.16
  -2 -13   0   79.50   32.34
   3 -13   0   70.82   27.65
  -3  13   0   38.93   23.67
   3 -13   0  104.24   55.72
  -3 -13   0   37.88   23.39
  -4  13   0  994.77  120.40
   4 -13   0 1327.75  211.90
   4 -13   0 1023.92  116.80
  -4 -13   0 1011.69  123.36
   5 -13   0   18.88   17.75
   5 -13   0   10.36   33.05
   6 -13   0  365.49  114.34
   6 -13   0  309.32   79.53
   7 -13   0   82.08   51.41
   7 -13   0   76.03   49.28
   8 -13   0   40.13   36.67
   9 -13   0  437.51  132.99
  10 -13   0  -86.16   64.92
   0 -14   0  114.03   37.82
  -1  14   0   85.23   42.57
  -1 -14   0  128.07   40.35
   1 -14   0   83.25   30.95
  -2  14   0  143.28   55.33
   2 -14   0  329.66  104.06
   2 -14   0  210.68   50.37
  -2 -14   0  211.87   54.96
   3 -14   0  273.68   58.86
  -3 -14   0  193.76   56.57
   3 -14   0  317.33  105.01
   4 -14   0   -5.33   10.12
  -4 -14   0   26.24   23.26
  -5 -14   0   91.04   39.91
   5 -14   0   48.51   26.03
   6 -14   0   36.85   39.52
   6 -14   0  112.74   48.04
   7 -14   0  224.21   85.94
   7 -14   0  186.70   72.19
   8 -14   0  192.08   84.83
   9 -14   0    5.21   22.71
  10 -14   0   29.71   51.03
   0 -15   0    3.33    7.49
  -1 -15   0   34.47   25.98
   1 -15   0   35.82   22.28
   2 -15   0  -49.10   44.13
   2 -15   0  -14.90   13.26
  -2 -15   0  -12.39   25.45
  -3 -15   0   33.58   28.70
   3 -15   0   50.89   26.60
   3 -15   0    8.66   31.41
   4 -15   0   41.04   42.24
   4 -15   0   36.45   19.22
  -4 -15   0   35.92   21.92
  -5 -15   0    9.67   19.89
   5 -15   0   81.31   39.94
   5 -15   0   57.64   32.37
   6 -15   0   38.38   37.08
  -6 -15   0   54.28   39.64
   6 -15   0  148.67   78.56
   7 -15   0   -5.64   37.34
   7 -15   0  -19.32   39.73
   8 -15   0  186.44   89.69
   8 -15   0   69.51   63.64
   9 -15   0   42.97   41.53
   0 -16   0   17.62   15.72
   1 -16   0  -11.21   25.11
   1 -16   0   15.90   11.62
  -1 -16   0   -0.32    7.03
   2 -16   0  601.07  158.03
   2 -16   0  510.71   82.32
  -2 -16   0  511.84   86.69
  -3 -16   0  348.50   74.84
   3 -16   0  388.16   75.14
   3 -16   0  530.90  148.12
  -4 -16   0    0.85    8.22
   4 -16   0   -6.83   12.60
   4 -16   0   12.10   25.06
  -5 -16   0   23.33   23.13
   5 -16   0   27.15   20.19
   6 -16   0   19.97   29.00
   6 -16   0   13.44   22.73
   7 -16   0  396.60  119.54
   7 -16   0  498.73  155.85
   8 -16   0  159.75   85.51
   9 -16   0    1.72   25.36
   0 -17   0   12.83   15.48
   1 -17   0  273.98   59.32
  -1 -17   0  314.83   65.27
   1 -17   0  269.23  102.49
  -2 -17   0  210.81   58.03
   2 -17   0  259.14   59.69
   3 -17   0  313.41  127.63
   3 -17   0  241.56   59.62
   4 -17   0  180.69   53.01
   4 -17   0  199.87  100.98
   5 -17   0  -87.90   65.58
   5 -17   0   62.20   38.12
   6 -17   0  451.62  146.70
   6 -17   0  247.63   83.30
   7 -17   0   64.76   63.92
   8 -17   0    8.20   23.67
   0 -18   0  313.38  110.60
   1 -18   0  214.08   93.12
   1 -18   0  145.61   44.28
   2 -18   0  274.53   63.40
   2 -18   0  413.17  142.88
   3 -18   0  287.93   68.62
   3 -18   0  409.61  146.28
   4 -18   0  121.33   84.36
   4 -18   0   35.53   28.10
   5 -18   0  143.54   95.56
   5 -18   0  265.31   80.53
   6 -18   0  110.81   66.87
   7 -18   0  114.00   68.54
   0 -19   0  -82.92   66.37
   1 -19   0  276.65  118.02
  -1 -19   0  172.98   90.24
   2 -19   0  282.14  107.16
   3 -19   0  293.81  119.63
   0 -20   0  190.22  101.09
  -1 -20   0  110.71   69.67
   1 -20   0   45.88   45.90
  -2 -20   0  -16.54   36.16
  14   0  -1   35.24   31.84
  13   0  -1  -41.94   33.27
  12   0  -1   -2.78   29.07
  11   0  -1    6.01   27.05
  10   0  -1  -12.74   16.35
 -10   0   1  -10.36   21.17
  -9   0   1  -39.56   25.84
   9   0  -1  -12.23   30.24
   8   0  -1    2.31   22.75
  -8   0   1   -2.65   22.12
   7   0  -1   11.65    9.75
  -7   0   1  -24.28   16.66
  -7   0   1   -7.29   12.28
   6   0  -1  -33.77   20.51
  -6   0   1    6.84    7.60
  -5   0   1   -1.47    4.44
   5   0  -1   -7.24   14.95
  -4   0   1   -4.66    5.23
   4   0  -1   -5.23   12.67
   3   0  -1    2.95    2.88
   3   0  -1    1.77    5.34
   2   0  -1    3.64    3.96
   1   0   1    2.75    6.21
   2   0   1    5.73    8.23
   3   0   1    0.08    4.04
   4   0   1    3.18    5.36
   5   0   1   18.42   16.00
   6   0   1   14.65   17.05
   7   0   1   -0.88    6.06
   8   0   1   -1.90   15.49
   9   0   1   -8.97   20.95
  10   0   1  -13.98   16.19
  11   0   1    0.56   19.16
  12   0   1  -12.67   21.02
  13   0   1   52.22   39.25
  14   1  -1   57.16   49.21
  14  -1  -1  -10.70   18.95
  13  -1  -1   27.06   28.40
  13   1  -1   18.03   13.71
  12   1  -1   60.59   44.51
  12  -1  -1   18.05   20.86
  11   1  -1  -44.86   34.15
  11  -1  -1    3.05   13.66
  10   1  -1  235.88   73.50
 -10  -1   1  248.62   63.36
  10  -1  -1  299.45   71.86
  -9   1   1   16.01   13.07
   9  -1  -1   86.11   41.88
  -9  -1   1   46.64   26.85
   9  -1  -1   59.07   31.01
  -8  -1   1  152.90   44.60
  -8   1   1  193.60   51.31
   8  -1  -1  204.24   57.80
   8  -1  -1  125.91   48.89
  -7   1   1  208.49   45.18
  -7  -1   1  162.93   38.72
  -7   1   1  201.61   51.31
   7  -1  -1  199.83   53.72
  -7  -1   1  144.74   37.92
  -6   1   1  -22.66   15.38
   6   1  -1   16.29   13.77
  -6  -1   1    5.55    5.08
   6  -1  -1   10.98   11.29
  -5  -1   1  206.26   36.12
  -5  -1   1  192.78   32.57
   5  -1  -1  130.77   31.87
  -5   1   1  158.32   37.25
   5   1  -1  235.98   47.32
  -4  -1   1  356.27   40.29
   4   1  -1  303.65   45.48
   4  -1  -1  316.09   40.10
  -4  -1   1  360.23   36.06
   4  -1  -1  414.97   46.81
   3  -1  -1 1143.79   73.71
   3   1  -1 1095.19   69.06
  -3  -1   1 1208.03   48.03
   3  -1  -1 1192.13   66.83
   2   1  -1  312.46   23.37
   2  -1  -1  308.42   32.26
   1   1   1  244.53   31.14
   1  -1   1  264.78   35.38
   2  -1   1 1736.06   95.07
   2   1   1 1714.92  103.41
   3   1   1   10.03    8.90
   3  -1   1    7.97    8.25
   4  -1   1   15.42   12.50
   4   1   1    5.27    9.83
   5   1   1  148.57   44.28
   5  -1   1  132.36   37.48
   6   1   1  194.69   54.60
   6  -1   1  217.10   52.98
   7   1   1  359.06   76.03
   7  -1   1  371.62   71.87
  -7   1  -1  347.24   74.58
   8  -1   1   44.60   23.35
   8   1   1   38.43   31.30
   9   1   1  -18.03   20.39
   9  -1   1   -0.31   14.85
  10   1   1   68.21   38.16
  10  -1   1  162.07   57.97
  11  -1   1   33.51   22.89
  11   1   1   72.65   39.37
  12  -1   1   64.72   39.85
  12   1   1   57.78   44.65
  13   1   1   41.05   28.68
  13  -1   1   32.97   22.95
  15  -2  -1   30.44   31.46
  14  -2  -1   87.12   45.91
  14   2  -1   55.78   41.87
  13  -2  -1   55.83   36.64
  13   2  -1   34.59   37.23
  12   2  -1   80.77   49.89
  12  -2  -1  119.48   49.12
  11  -2  -1  105.21   42.10
  11   2  -1   80.53   52.22
 -10  -2   1  114.40   42.39
  10  -2  -1  202.66   68.72
  10  -2  -1  131.47   39.70
  10   2  -1  175.72   63.17
  -9  -2   1  101.51   36.97
   9  -2  -1  102.42   45.90
   9  -2  -1   70.20   30.92
   8  -2  -1  523.32   83.56
   8  -2  -1  373.21   89.03
  -8  -2   1  446.40   69.87
  -7  -2   1  681.12   80.78
   7  -2  -1  678.53   88.39
   7  -2  -1  542.47   90.55
  -7  -2   1  837.99   83.62
   6  -2  -1  143.35   38.56
   6  -2  -1  139.31   42.61
  -5  -2   1  336.86   46.81
   5  -2  -1  209.73   40.79
   5  -2  -1  345.02   50.34
   4  -2  -1   14.27   10.61
  -4  -2   1   14.82    8.48
   4   2  -1   12.30   12.35
   4  -2  -1    2.88    8.25
   3   2  -1 2812.31  121.36
   3  -2  -1 2749.87  111.57
   2  -2  -1 1693.43   86.05
  -2  -2   1 1556.84   50.33
   2   2  -1 1699.96   68.57
   1  -2  -1   -6.36    6.55
   1   2  -1    4.93    3.76
   0   2  -1   95.34   18.85
   0   2   1  128.18   18.53
   1   2   1  134.28   26.72
  -1   2  -1  117.86   24.87
   1  -2   1  124.79   24.93
   2   2   1 3620.78  177.19
   2  -2   1 3918.83  154.13
   3  -2   1  889.74   77.46
   3   2   1  809.95   97.99
  -4   2  -1  493.76   77.88
  -4   2  -1  555.54   77.47
   4  -2   1  496.17   63.25
   4   2   1  442.58   78.14
  -5   2  -1   92.81   33.00
   5  -2   1   40.60   21.60
   5   2   1   82.64   27.89
  -6   2  -1  172.34   50.21
   6   2   1  176.84   54.50
  -6  -2  -1  226.01   67.54
   6  -2   1  143.20   39.97
  -7   2  -1  684.54  110.06
   7  -2   1  876.69  105.49
   7   2   1  917.18  133.12
   8   2   1  169.62   58.21
   8  -2   1  126.86   44.45
   9  -2   1  440.34   85.16
   9   2   1  446.19  100.01
  10   2   1   76.31   44.13
  10  -2   1   64.58   28.02
  11  -2   1   15.87   18.53
  11   2   1    8.16   26.09
  12   2   1  -15.29   22.79
  12  -2   1  130.68   59.02
  13  -2   1   21.97   32.54
  13   2   1   18.28   25.76
  14   3  -1   16.74   29.92
  14  -3  -1  108.07   52.88
  13  -3  -1   99.57   46.70
  13   3  -1   73.39   49.64
  12   3  -1   58.79   49.52
  12  -3  -1   -4.08    9.80
  11   3  -1   11.53   21.28
  11  -3  -1   46.71   28.22
  10  -3  -1  172.66   49.25
 -10  -3   1  156.30   47.20
  10  -3  -1  227.84   73.83
  -9  -3   1   23.20   14.70
   9  -3  -1    8.12   22.60
   9  -3  -1    0.90   10.22
   8  -3  -1  613.46   82.20
   8  -3  -1  523.07  102.33
  -8  -3   1  660.35   79.06
  -7  -3   1   28.57   15.48
   7  -3  -1   -9.95   23.42
   7  -3  -1   -4.06   10.42
   6  -3  -1  334.45   50.24
   6  -3  -1  308.37   58.16
   5  -3  -1  141.36   37.96
   5  -3  -1  146.76   33.84
  -5  -3   1   97.89   27.49
   5  -3  -1  148.11   30.22
   4  -3  -1   -0.53    3.52
   4  -3  -1    2.86    2.44
  -4  -3   1    3.40    5.20
   4  -3  -1   10.15   12.66
   3  -3  -1 1639.64   61.66
   3  -3  -1 1778.26   98.95
   2  -3  -1   86.86   21.72
  -2  -3   1   81.42   14.73
   1  -3  -1 1202.87   91.61
  -1  -3   1 1359.64   75.47
   0   3  -1   -0.19    5.30
   0   3  -1    1.31    1.59
   0  -3   1   -3.09    3.64
   1  -3   1  191.44   29.50
  -1   3  -1  176.15   34.13
  -1   3  -1  207.43   23.18
   1  -3   1  177.95   32.32
   2  -3   1 1232.60   93.13
  -2   3  -1 1107.60   87.14
   2  -3   1 1232.85   88.49
  -2   3  -1 1390.15   76.82
  -2   3  -1 1198.17   99.60
   3  -3   1   59.86   21.35
  -3   3  -1   49.26   21.65
   3  -3   1   64.14   22.57
  -3   3  -1   43.60   21.53
   4  -3   1 1092.15  113.70
  -4   3  -1 1162.60  118.69
   4  -3   1 1140.65   96.66
  -4   3  -1 1144.21  111.22
   5   3   1   25.69   15.48
  -5   3  -1   33.72   21.20
   5  -3   1   19.46   14.50
  -5   3  -1   62.48   33.77
   6   3   1  228.40   67.44
   6  -3   1  295.57   57.07
  -6   3  -1  324.70   74.57
  -6  -3  -1  347.76   84.21
   7  -3   1   82.95   32.49
   7   3   1   73.80   33.30
   8   3   1   13.33   13.74
   8  -3   1   13.71   16.90
   9  -3   1  313.25   70.78
   9   3   1  296.58   87.68
  10  -3   1   40.67   28.25
  10   3   1  103.35   60.73
  11   3   1  219.64   80.20
  11  -3   1  158.16   56.37
  12   3   1   22.32   25.73
  12  -3   1    2.17   10.57
  13   3   1  -53.91   24.97
  13  -3   1   53.55   40.16
  14  -4  -1  -10.05   24.68
  13   4  -1   -0.20   11.90
  13  -4  -1   65.74   37.40
  12  -4  -1  208.92   60.68
  12   4  -1  211.86   80.10
  11  -4  -1    7.17   19.46
  11  -4  -1    1.38   14.75
  10  -4  -1  312.64   96.49
  10  -4  -1  261.18   59.56
   9  -4  -1    1.93   17.05
   9  -4  -1    3.93    9.45
   8  -4  -1   42.02   20.50
   8  -4  -1   34.68   18.73
   7  -4  -1  188.58   40.45
  -7  -4   1  112.43   38.61
   7  -4  -1  127.38   44.17
  -6  -4   1   56.61   25.07
   6  -4  -1   51.98   18.71
   6  -4  -1   70.24   27.70
   5  -4  -1 2058.65  129.65
  -5  -4   1 1608.97  126.13
   5  -4  -1 1984.15   98.07
   5  -4  -1 1777.99  146.97
  -4  -4   1    4.84   10.27
   4  -4  -1   19.24    8.38
   4  -4  -1   20.45   18.89
   4  -4  -1   27.85   16.18
   3  -4  -1   18.64   11.38
  -3  -4   1   17.15   11.75
   2  -4  -1    1.81   10.08
   1  -4  -1   45.64   17.29
   0  -4   1 4571.14   84.79
   0   4  -1 4341.35   96.15
  -1   4  -1    9.08   10.41
  -1   4  -1    4.86    2.89
  -1   4  -1    4.71    8.09
   1  -4   1    1.55    3.37
   2  -4   1  146.69   33.19
  -2   4  -1  138.10   23.50
   2  -4   1  154.51   33.63
  -2   4  -1  110.82   29.46
  -2   4  -1  132.13   36.78
  -3   4  -1  273.34   38.10
  -3   4  -1  284.47   49.31
  -3   4  -1  232.29   54.05
   3  -4   1  196.53   43.18
   3  -4   1  289.88   47.37
  -4   4  -1   24.81   13.43
  -4   4  -1   35.76   17.18
   4  -4   1   80.65   26.47
  -4   4  -1   80.23   34.50
   4  -4   1   47.44   24.04
   5  -4   1 1107.52  128.45
  -5   4  -1 1251.26  102.42
  -5   4  -1 1349.66  146.71
  -5   4  -1 1052.88  125.99
   5  -4   1 1187.52  108.13
  -6   4  -1   76.49   33.49
   6   4   1   55.93   34.48
   6  -4   1  114.32   36.86
  -6   4  -1   76.15   36.83
   7  -4   1  307.76   62.46
   7   4   1  402.46  100.91
   8  -4   1  119.37   42.08
   8   4   1   96.08   50.46
   9   4   1   73.23   51.14
   9  -4   1   88.01   38.19
  10   4   1   41.37   25.69
  10  -4   1   49.06   32.71
  11   4   1  122.95   66.54
  11  -4   1   38.55   16.91
  12   4   1  204.75   83.81
  12  -4   1  163.02   64.95
  13  -4   1   26.34   25.25
  13   5  -1  -16.87   26.90
  13  -5  -1  -12.55   21.74
  12   5  -1  -23.92   46.30
  12  -5  -1    0.52    7.44
  11  -5  -1    2.29   21.98
  11  -5  -1   16.45   10.20
  10  -5  -1   41.07   43.61
  10  -5  -1    3.05    9.62
   9  -5  -1  297.38   56.31
   9  -5  -1  269.48   88.19
   8  -5  -1   88.59   28.90
   8  -5  -1   59.12   33.52
   7  -5  -1   78.87   32.17
  -7  -5   1   19.38   16.54
   7  -5  -1   28.29   23.56
   7  -5  -1   30.66   15.83
   6  -5  -1  185.35   42.14
   6  -5  -1  192.82   34.58
   5  -5  -1   14.09   10.89
   5  -5  -1   32.84   16.30
  -4  -5   1  614.59   73.00
   4  -5  -1  522.13   87.08
   4  -5  -1  604.49   68.31
   4  -5  -1  556.76   45.55
   3  -5  -1    7.38    5.19
   3  -5  -1    6.18    6.25
   2  -5  -1   13.41    8.20
   1  -5  -1  915.78   90.53
  -1  -5   1  761.17   45.23
   0  -5  -1   22.97    9.96
   0   5  -1    4.85    5.43
   0  -5   1   11.37    3.95
  -1   5  -1  172.01   24.20
   1  -5   1  175.62   24.66
  -1   5  -1  143.64   36.01
  -2   5  -1  173.62   38.95
  -2   5  -1  136.36   24.11
   2  -5   1  106.70   28.17
   2  -5   1  128.73   29.68
  -2   5  -1  167.52   43.73
   3  -5   1   24.74   18.86
   3  -5   1    4.38    6.84
  -3   5  -1   13.05    6.53
  -3   5  -1    2.09    7.10
  -3   5  -1   18.95   10.82
  -4   5  -1  883.45   78.71
   4  -5   1  811.05   85.87
  -4   5  -1  816.33   92.95
   4  -5   1  716.46   94.49
  -4   5  -1  755.64  108.58
   5  -5   1   -6.28    6.35
  -5   5  -1   -6.34    9.88
  -5   5  -1  -11.39   16.11
  -5   5  -1    4.85   14.33
   5  -5   1   -9.63   18.65
   6  -5   1  -43.82   28.80
  -6   5  -1   -1.06   22.91
   6  -5   1   -2.39   15.17
   7   5   1  173.35   74.10
   7  -5   1  100.03   34.09
   8  -5   1   19.25   18.28
   8   5   1   15.35   25.47
   9  -5   1  163.40   51.82
   9   5   1  153.23   62.90
  10  -5   1   44.89   33.80
  10   5   1   35.66   36.59
  11  -5   1   45.68   37.24
  11   5   1   44.96   22.09
  12  -5   1    3.28   11.89
  12   5   1   66.46   52.17
  13  -5   1  -16.70   23.53
  13   6  -1  -77.91   57.58
  13  -6  -1   33.78   31.27
  12  -6  -1   59.63   50.74
  12  -6  -1   22.61   19.37
  11  -6  -1   41.54   36.49
  11  -6  -1    2.83   13.26
  10  -6  -1   -3.19   10.55
  10  -6  -1   95.34   50.89
   9  -6  -1   37.74   33.27
   9  -6  -1   33.46   21.32
   8  -6  -1   49.66   23.65
   8  -6  -1   58.35   33.03
   7  -6  -1   13.43   11.40
   7  -6  -1   11.50   14.87
   7  -6  -1   20.26   13.83
   6  -6  -1   25.25   11.71
   6  -6  -1   19.88   16.76
  -6  -6   1   46.38   27.93
   6  -6  -1   -4.80   10.45
  -5   6   1   -2.26   11.01
   5  -6  -1   71.11   18.46
  -5  -6   1   50.17   25.65
   5  -6  -1   42.00   22.07
   4  -6  -1   71.58   23.41
   4  -6  -1  104.46   20.74
   3  -6  -1   79.56   25.05
  -3   6   1   58.86   12.52
  -3   6   1   59.54   27.36
   2  -6  -1    0.90   12.95
  -2   6   1   20.27    8.39
  -1  -6   1   54.59   14.41
   1  -6  -1   35.33   20.63
  -1   6   1   75.97   30.82
   0  -6  -1   76.08   30.97
   0   6  -1  111.86   22.93
   0  -6   1   89.57   31.09
   0  -6   1  137.82   20.40
  -1   6  -1  208.39   48.90
   1  -6   1  243.04   30.69
  -1   6  -1  207.06   30.70
  -2   6  -1   58.97   21.90
   2  -6   1   89.08   21.88
   2  -6   1   58.11   25.12
  -2   6  -1   61.88   17.01
  -3   6  -1    9.74    7.89
   3  -6   1   31.20   19.86
  -3   6  -1   30.07   12.80
   3  -6   1   37.73   17.30
   4  -6   1   47.52   27.50
  -4   6  -1   41.60   22.22
   4  -6   1   26.79   18.13
  -4   6  -1   25.34   17.25
  -4   6  -1   76.14   36.04
  -5   6  -1   71.99   25.09
   5  -6   1  119.84   45.30
  -5   6  -1   95.63   36.23
   5  -6   1   76.77   28.61
   6  -6   1   25.58   16.18
   6  -6   1   17.59   30.75
   7  -6   1   85.63   41.25
   7  -6   1   46.04   24.71
   8  -6   1   35.59   17.12
   8   6   1   -5.05   23.36
   9   6   1   27.59   20.13
   9  -6   1   -2.58   14.47
  10  -6   1   -3.69   12.47
  10   6   1   22.89   29.35
  11   6   1   37.94   35.39
  11  -6   1   16.36    9.10
  12   6   1   62.10   55.31
  12  -6   1   23.46   20.93
  13  -6   1   53.08   36.47
  12  -7  -1  110.62   67.30
  12  -7  -1   45.26   26.25
  11  -7  -1   61.84   31.99
  11  -7  -1   74.50   43.45
  10  -7  -1   18.99   14.70
  10  -7  -1   47.30   48.10
   9  -7  -1  -29.99   29.78
   9  -7  -1   31.40   17.55
   8  -7  -1  111.89   50.98
   8  -7  -1  134.65   35.17
  -7  -7   1   87.08   35.64
   7  -7  -1  165.98   51.52
   7  -7  -1  103.10   29.43
   7  -7  -1  181.78   62.06
   6  -7  -1  499.08   76.05
  -6  -7   1  453.03   80.87
   6  -7  -1  566.59   61.49
   6  -7  -1  478.61   98.46
  -5   7   1    5.56   14.15
  -5  -7   1   29.96   18.18
   5  -7  -1   28.22   20.11
   5  -7  -1   49.63   18.94
   5  -7  -1   64.44   35.33
   4  -7  -1   47.29   22.19
  -4   7   1   86.31   20.87
  -4   7   1   67.65   29.63
  -3   7   1   97.50   18.33
  -3   7   1  116.98   38.21
   3  -7  -1   76.57   29.07
  -2  -7   1  140.27   28.31
   2  -7  -1   97.65   32.55
  -2   7   1  144.07   42.02
  -2   7   1  137.61   27.22
   1  -7  -1 1308.68  119.87
  -1  -7   1 1246.63   75.26
   0   7  -1  119.22   26.59
   0  -7   1  163.11   45.95
   0  -7  -1   85.84   31.32
   0  -7   1   96.10   19.60
  -1   7  -1   -3.70   13.47
   1  -7   1    4.60    4.61
  -1   7  -1    4.91    6.29
  -2   7  -1   -1.74    5.01
  -2   7  -1   -5.15    7.45
   2  -7   1   -2.32    4.71
   3  -7   1    1.26    6.17
  -3   7  -1   25.29   15.29
  -3   7  -1   13.54    8.94
   3  -7   1   -8.75   12.21
  -4   7  -1 1004.39   91.05
   4  -7   1  843.27  106.37
  -4   7  -1 1230.23  121.35
   4  -7   1 1008.64  105.82
   5  -7   1  194.45   48.14
  -5   7  -1  138.89   36.51
   5  -7   1   65.73   30.23
  -5   7  -1  164.46   47.58
   6  -7   1   36.49   25.00
  -6   7  -1   20.44   19.82
   6  -7   1   41.82   32.06
  -7   7  -1  -18.15   41.25
   7  -7   1    5.94   11.52
   7  -7   1   35.43   27.22
   8  -7   1  -23.40   33.88
   8   7   1   40.01   38.43
   8  -7   1    5.51   11.68
   9  -7   1  288.22   70.65
   9   7   1  258.24   90.94
  10  -7   1   11.29   10.11
  10   7   1   29.17   49.82
  11  -7   1   49.22   33.86
  11   7   1   14.77   22.23
  12   7   1  -31.92   26.62
  12  -7   1   -9.66   24.77
  13  -7   1   12.26   25.31
  12  -8  -1  176.39   91.89
  11  -8  -1    4.17   11.24
  11  -8  -1   12.08   23.13
  10  -8  -1  300.87  100.09
  10  -8  -1  258.31   57.94
   9  -8  -1  -74.91   46.48
   9  -8  -1    7.03   14.46
   8  -8  -1  -24.20   24.12
   8  -8  -1  -16.85   20.27
   8  -8  -1   -2.27   15.68
   7  -8  -1  153.09   49.14
   7  -8  -1   90.25   41.17
   7  -8  -1  136.07   35.18
  -7  -8   1  104.61   41.72
   6  -8  -1   35.74   13.76
   6  -8  -1   33.00   31.40
   6  -8  -1   49.73   27.83
   5  -8  -1 1282.66  121.28
   5  -8  -1 1536.03  102.40
   5  -8  -1 1229.83  165.09
  -4   8   1    9.48   14.97
   4  -8  -1   15.56   14.03
  -4   8   1   23.38    9.67
  -3   8   1   80.52   31.70
  -3   8   1  118.05   23.67
   3  -8  -1   64.97   24.67
   2  -8  -1   28.15   20.87
  -2   8   1    7.70    9.87
  -2   8   1   24.77   21.33
  -2  -8   1   16.85   13.01
  -1  -8   1   38.82   13.79
   1  -8  -1   54.26   26.54
   0  -8  -1 2280.05  165.84
   0  -8   1 2392.82  197.33
   0   8  -1 2434.72  135.33
   0  -8   1 2170.99  102.47
  -1   8  -1  123.97   29.41
  -1  -8  -1   55.41   21.12
  -1   8  -1  117.41   41.96
   1  -8   1   80.85   20.57
   1  -8   1   69.41   26.77
   2  -8   1  478.21   55.31
  -2   8  -1  493.50   82.17
  -2   8  -1  473.38   59.57
   3  -8   1   28.69   18.87
  -3   8  -1   28.97   20.99
  -3   8  -1   44.75   19.03
   4  -8   1   44.93   28.12
  -4   8  -1   28.66   16.82
  -4   8  -1   19.99   16.77
   4  -8   1   64.19   34.40
   4  -8   1   74.88   29.61
   5  -8   1  976.33  111.95
  -5   8  -1 1001.97  119.53
   5  -8   1  815.71  120.56
   6  -8   1  200.97   54.39
  -6   8  -1  125.59   46.10
   6  -8   1  143.87   55.58
   7  -8   1  379.60   97.34
   7  -8   1  372.96   73.73
   8  -8   1   71.75   44.80
   8  -8   1   47.98   32.61
   9   8   1    9.05   15.53
   9  -8   1   23.09   25.35
  10  -8   1  129.24   48.62
  10   8   1  137.60   64.15
  11   8   1   24.64   33.46
  11  -8   1  135.68   53.38
  12  -8   1  220.71   72.77
  12  -9  -1  -23.41   37.08
  11  -9  -1   13.29   22.20
  10  -9  -1   76.03   29.15
  10  -9  -1  108.35   70.45
   9  -9  -1   30.73   21.20
   9  -9  -1   43.98   31.11
   8  -9  -1  180.93   73.21
   8  -9  -1  242.69   50.23
   8  -9  -1  144.68   56.52
   7  -9  -1   23.88   24.44
   7  -9  -1   34.58   21.22
   7  -9  -1   43.92   26.53
  -7  -9   1   57.09   36.00
   6  -9  -1   43.01   25.17
   6  -9  -1   77.33   25.37
   5  -9  -1  167.05   44.94
   5  -9  -1  100.90   48.10
  -4   9   1   17.47   13.86
   4  -9  -1   -3.11    8.28
  -4   9   1    3.10    7.14
   3  -9  -1  259.29   54.15
  -3   9   1  309.45   67.42
  -3   9   1  336.89   45.45
  -2   9   1  117.78   47.31
  -2   9   1   92.91   28.74
  -2  -9   1  122.14   29.12
   2  -9  -1   96.00   32.47
   1  -9  -1  499.10   79.57
  -1  -9   1  446.69   51.95
   0  -9   1   14.53   12.27
   0  -9  -1   18.20   24.62
   0  -9   1    5.37    4.06
  -1   9  -1   32.43   23.87
  -1   9  -1   58.11   20.57
   1  -9   1   44.25   16.12
   1  -9   1   61.05   34.69
  -1  -9  -1   43.47   26.28
  -2   9  -1  143.34   48.46
  -2   9  -1  169.71   38.15
   2  -9   1  192.81   36.28
   2  -9   1  156.70   59.72
   3  -9   1   86.76   42.27
   3  -9   1  113.72   33.71
  -3   9  -1   49.81   22.03
  -3   9  -1   51.79   21.11
  -4   9  -1  517.16   73.09
  -4   9  -1  443.78   80.69
   4  -9   1  426.87   79.09
   4  -9   1  354.25   87.01
   5  -9   1   49.31   25.96
   5  -9   1   17.86   20.51
   5  -9   1   -4.01   18.66
  -5   9  -1   45.02   31.45
  -6   9  -1  129.47   43.83
   6  -9   1  185.18   51.27
   6  -9   1  161.96   60.90
   7  -9   1   35.18   20.97
   7  -9   1    3.80    8.80
   8  -9   1   60.61   46.30
   8  -9   1   -1.91   15.07
   9   9   1  151.42   79.30
   9  -9   1  112.13   44.95
  10  -9   1   42.50   29.62
  10   9   1  -33.53   39.79
  11  -9   1  147.00   55.30
  11   9   1   88.64   55.98
  11 -10  -1  104.22   75.58
  10 -10  -1   17.90   42.35
   9 -10  -1   40.23   23.85
   9 -10  -1  -19.28   26.76
   8 -10  -1   97.28   32.48
   8 -10  -1  125.43   55.47
   8 -10  -1   96.61   46.72
  -7 -10   1   38.30   25.17
   7 -10  -1   84.36   35.77
   7 -10  -1   97.00   53.89
   6 -10  -1  292.74   92.89
   6 -10  -1  342.63   68.75
   5 -10  -1   22.93   18.24
   5 -10  -1   -4.13   18.10
  -5  10   1   18.38   13.44
   4 -10  -1   30.17   16.86
  -4  10   1   32.12   12.08
  -3 -10   1  541.36   70.34
  -3  10   1  475.77   59.37
  -3  10   1  517.64   91.07
   3 -10  -1  411.12   69.55
  -2 -10   1  200.44   38.94
  -2  10   1  259.95   53.13
   2 -10  -1  163.27   45.22
  -2  10   1  260.69   65.00
  -1 -10   1  116.82   27.54
   1 -10  -1  175.10   49.16
   0 -10  -1    4.48    9.14
   0 -10   1    9.06    7.17
   0 -10   1   18.83    6.92
  -1  10  -1  278.72   70.08
   1 -10   1  280.25   42.23
   1 -10   1  197.70   66.54
  -1  10  -1  300.17   54.87
  -1 -10  -1  268.39   61.88
  -2  10  -1  561.21   76.28
   2 -10   1  576.13   66.95
  -2  10  -1  444.63   88.57
   2 -10   1  625.57  121.26
  -3  10  -1  125.80   37.67
   3 -10   1  133.93   55.91
  -3  10  -1   80.33   37.79
   3 -10   1   82.87   27.72
  -4  10  -1    0.21    8.28
   4 -10   1   17.56   13.08
  -4  10  -1   12.88    8.66
  -5  10  -1   13.94   13.58
   5 -10   1  -14.90   18.67
   5 -10   1   26.32   26.24
   6 -10   1  158.59   57.64
   6 -10   1  206.94   58.53
  -6  10  -1  182.48   56.94
   7 -10   1  116.34   61.94
   7 -10   1  117.88   43.23
   8 -10   1    2.92   27.32
   8 -10   1   17.03   20.93
   9  10   1   45.14   36.41
   9 -10   1  122.75   65.56
   9 -10   1   62.72   36.74
  10 -10   1   38.91   30.10
  10  10   1  -85.53   61.06
  11  10   1   35.08   29.94
  11 -11  -1   45.01   50.25
  10 -11  -1   98.47   53.30
   9 -11  -1   47.53   37.13
   9 -11  -1   40.07   30.14
   8 -11  -1  -11.04   24.31
   8 -11  -1    3.07   13.70
  -7 -11   1  204.20   66.25
   7 -11  -1  295.49   72.46
   7 -11  -1  302.80   94.85
   6 -11  -1   35.05   33.78
   6 -11  -1   78.01   37.17
   5 -11  -1   26.02   20.48
  -5  11   1    5.79    4.64
   4 -11  -1  -18.23   23.96
   4 -11  -1    3.35   16.04
  -4  11   1   16.30    9.73
   3 -11  -1   17.80   11.49
  -3 -11   1   33.21   14.78
  -3  11   1   58.82   21.44
  -2 -11   1  504.71   64.49
   2 -11  -1  575.98   86.67
  -2  11   1  557.74   84.97
  -1 -11   1  107.46   26.61
   1 -11  -1   97.47   33.58
   0 -11  -1    4.18    7.89
   0 -11   1   21.12   14.03
  -1  11  -1   87.97   29.88
   1 -11   1   74.91   22.48
  -1  11  -1   70.43   38.51
   1 -11   1   65.60   39.66
  -1 -11  -1   71.07   26.87
  -2  11  -1   40.58   23.92
  -2  11  -1   93.38   41.72
   2 -11   1   55.69   30.46
  -2 -11  -1   67.93   31.89
   2 -11   1  101.04   29.25
   3 -11   1  290.72   90.12
  -3  11  -1  200.35   48.77
  -3  11  -1  228.46   66.30
   3 -11   1  260.89   53.20
   4 -11   1   68.74   37.11
   4 -11   1  103.72   54.37
  -4  11  -1   56.87   34.91
   5 -11   1  105.53   47.55
  -5  11  -1   64.23   33.29
   5 -11   1   54.06   39.71
   6 -11   1   38.25   34.31
   7 -11   1   61.53   56.51
   7 -11   1    6.29   12.04
   8 -11   1   22.48   24.19
   8 -11   1   -7.51   10.06
   9 -11   1   -4.78   19.28
   9  11   1   46.98   27.39
   9 -11   1  -16.81   31.20
  10  11   1   49.06   51.67
  11 -12  -1   13.44   33.41
  10 -12  -1   95.53   51.79
   9 -12  -1  -71.95   51.37
   9 -12  -1   -3.91   23.28
   8 -12  -1   32.83   37.02
   8 -12  -1   46.28   39.40
   7 -12  -1   13.26   24.10
   7 -12  -1   25.76   20.46
   6 -12  -1  139.75   64.64
   6 -12  -1  104.26   44.42
  -5  12   1   38.66   16.16
   5 -12  -1   51.97   42.11
   5 -12  -1   23.76   20.14
   4 -12  -1   -4.06   28.69
   4 -12  -1   40.78   21.48
  -4 -12   1   32.91   16.98
  -4  12   1   36.28   14.22
   3 -12  -1  103.61   36.63
  -3 -12   1   71.98   29.29
  -3  12   1   90.78   27.82
   2 -12  -1  145.45   43.29
  -2 -12   1  138.58   34.43
  -2  12   1  197.01   53.26
   1 -12  -1  150.51   44.54
  -1 -12   1  151.82   35.35
   0 -12  -1   56.93   30.06
   0 -12   1   32.94   13.77
   0  12  -1   42.66   26.28
   0 -12   1   42.03   11.34
   1 -12   1   23.33   26.51
   1 -12   1   54.08   21.22
  -1  12  -1   24.13   21.67
  -1 -12  -1   82.40   40.23
   2 -12   1  153.28   67.22
  -2  12  -1   49.94   35.15
  -2  12  -1   26.66   15.00
  -2 -12  -1   53.82   20.45
   2 -12   1  124.93   34.37
   3 -12   1  149.73   42.13
  -3  12  -1  165.97   60.51
  -3 -12  -1  146.63   45.75
   3 -12   1  141.92   63.11
  -3  12  -1  219.86   55.59
   4 -12   1   78.47   52.90
   4 -12   1   94.26   41.72
  -4  12  -1   82.63   40.18
   5 -12   1   20.67   21.69
  -5  12  -1   40.99   24.99
   6 -12   1   15.67   28.86
   6 -12   1  -49.74   40.48
   7 -12   1   95.01   61.12
   8 -12   1  129.84   69.71
   9 -12   1  -41.07   60.69
  10  12   1   77.25   69.31
  10 -13  -1   62.75   46.39
   9 -13  -1   -7.79   24.73
   9 -13  -1  -27.86   35.72
   8 -13  -1  128.60   70.26
   8 -13  -1   99.55   50.92
   7 -13  -1  -11.00   20.42
   7 -13  -1   10.59   12.42
   6 -13  -1    6.57   32.28
   6 -13  -1  -35.73   24.79
  -5 -13   1   45.07   28.55
   5 -13  -1   29.83   18.44
   5 -13  -1   53.22   25.22
   4 -13  -1  112.92   40.43
  -4 -13   1  205.84   51.34
   4 -13  -1  176.25   76.89
   3 -13  -1  293.69   63.57
  -3 -13   1  321.91   57.07
  -3  13   1  309.21   58.59
  -2 -13   1   32.86   18.65
  -2  13   1  -34.59   23.98
   2 -13  -1   35.00   25.69
   1 -13  -1   -6.36   15.11
  -1 -13   1   -1.41    8.84
   0 -13   1  -27.72   30.15
   0 -13  -1  -36.53   24.84
   0  13  -1  -67.48   38.56
   0 -13   1    7.10    9.44
  -1 -13  -1  262.65   64.39
  -1  13  -1  232.64   74.08
   1 -13   1  255.49   88.43
   1 -13   1  221.04   44.06
   2 -13   1  593.03  135.58
  -2  13  -1  437.33   80.96
  -2 -13  -1  455.74   88.21
  -2  13  -1  384.56   96.16
   2 -13   1  491.70   70.67
  -3 -13  -1   38.40   27.13
   3 -13   1  -34.91   35.11
   3 -13   1    1.21    6.63
  -3  13  -1   -2.94   10.93
  -3  13  -1   30.66   22.51
   4 -13   1   15.29   46.80
   4 -13   1   17.45   20.81
   5 -13   1   74.29   46.40
   5 -13   1   -8.01   14.50
   6 -13   1    5.44   18.58
   6 -13   1  144.83   67.77
   7 -13   1  263.97   98.29
   8 -13   1   64.99   60.26
   9 -13   1  -50.33   50.01
  10 -14  -1   36.32   45.15
   9 -14  -1  -43.89   44.57
   9 -14  -1  -48.75   43.70
   8 -14  -1   80.78   53.20
   8 -14  -1  163.00   81.71
   7 -14  -1  180.72   61.68
   7 -14  -1  105.64   60.09
   6 -14  -1   -6.31    8.31
  -6 -14   1   27.05   19.98
   5 -14  -1   40.96   35.78
   5 -14  -1   32.34   24.43
  -5 -14   1   50.54   33.95
  -4 -14   1   21.30   15.92
   4 -14  -1   -0.27   15.66
   4 -14  -1   42.06   31.10
   3 -14  -1  151.46   44.00
  -3 -14   1  266.16   54.31
   2 -14  -1  183.56   50.84
  -2 -14   1  225.23   46.24
   1 -14  -1   32.05   24.52
  -1 -14   1    5.09    5.17
  -1 -14   1   58.21   45.74
   0 -14   1   17.67   17.00
   0 -14   1    0.20   17.06
   0 -14  -1   18.96   15.17
   1 -14   1   23.43   31.01
  -1 -14  -1   88.28   35.48
   1 -14   1   73.20   25.98
  -2 -14  -1  262.00   66.44
   2 -14   1  437.02  126.38
   2 -14   1  244.87   51.76
   3 -14   1  234.60   57.92
   3 -14   1  144.99   66.85
  -3 -14  -1  237.96   69.06
   4 -14   1  121.22   62.90
   4 -14   1   94.13   45.29
  -4 -14  -1  153.76   52.69
   5 -14   1   -2.56   10.89
   5 -14   1   46.41   38.71
   6 -14   1   85.70   44.03
   6 -14   1  219.97   93.91
   7 -14   1  133.94   68.70
   8 -14   1  138.52   71.71
   9 -14   1  129.44   73.50
   9 -15  -1   27.69   38.67
   9 -15  -1   55.81   46.02
   8 -15  -1   19.58   32.35
   8 -15  -1   28.96   28.04
   7 -15  -1   56.01   65.50
   7 -15  -1  -29.63   29.45
   6 -15  -1  -13.61   28.05
   6 -15  -1   35.96   25.85
   5 -15  -1   10.00   10.46
   5 -15  -1   -3.17   42.83
  -4 -15   1   40.95   25.09
   4 -15  -1   35.92   23.17
  -3 -15   1   69.62   29.19
   3 -15  -1  101.25   39.80
  -2 -15   1   23.03   15.11
   2 -15  -1   31.10   23.38
  -1 -15   1  143.18   68.65
   1 -15  -1   54.47   28.22
  -1 -15   1   84.98   28.26
   0 -15  -1    6.05   11.90
   0 -15   1   22.95    6.95
   0 -15   1   -1.54   23.30
  -1 -15  -1   13.15   18.91
   1 -15   1   43.13   56.09
   1 -15   1   13.62   16.51
   2 -15   1   24.55   33.19
  -2 -15  -1  119.62   47.63
   2 -15   1   55.56   24.86
   3 -15   1   60.58   34.68
   3 -15   1    4.22   17.64
   4 -15   1   68.49   42.05
  -4 -15  -1   81.01   38.89
  -5 -15  -1   27.21   26.55
   5 -15   1   -3.12   30.54
   6 -15   1   26.93   25.44
   6 -15   1   12.45   26.37
   7 -15   1    9.29   15.25
   8 -15   1   39.79   45.11
   9 -15   1  -43.85   48.62
   9 -16  -1   42.76   42.36
   8 -16  -1  117.11   64.46
   8 -16  -1  190.09   95.75
   7 -16  -1   16.77   21.69
   7 -16  -1   35.21   42.77
   6 -16  -1   12.23   17.77
   6 -16  -1   18.25   32.26
   5 -16  -1  225.31   92.57
   5 -16  -1  109.33   43.66
   4 -16  -1  107.73   44.66
   4 -16  -1   22.76   34.02
   3 -16  -1  114.13   65.83
   3 -16  -1   69.65   33.07
  -2 -16   1   51.96   21.58
  -2 -16   1   58.02   34.94
   2 -16  -1   30.66   21.55
   1 -16  -1   13.29   20.86
  -1 -16   1  -30.27   37.03
  -1 -16   1   -9.11   18.35
   0 -16   1  146.22   39.75
   0 -16  -1  146.54   49.96
   0 -16   1  278.99  104.21
  -1 -16  -1   28.88   21.84
   1 -16   1   62.17   28.51
  -2 -16  -1   -9.04   19.04
   2 -16   1   -0.25   45.49
   2 -16   1    7.25    8.41
  -3 -16  -1  184.54   60.82
   3 -16   1  107.68   68.89
   3 -16   1  250.96   67.09
  -4 -16  -1    0.25    7.93
   4 -16   1    8.04   26.08
   4 -16   1   12.34   37.93
  -5 -16  -1   78.67   42.34
   5 -16   1    4.16   42.62
  -6 -16  -1   20.08   15.14
   6 -16   1  -14.09   28.21
   7 -16   1  -17.83   37.94
   8 -16   1   96.31   65.45
   9 -16   1  -91.50   72.37
   8 -17  -1   48.54   52.55
   7 -17  -1   52.11   40.42
   7 -17  -1   41.33   56.10
   6 -17  -1  -21.75   22.25
   6 -17  -1  -13.80   28.23
   5 -17  -1    3.89   20.58
   5 -17  -1   55.89   30.91
   4 -17  -1  368.13  129.97
   4 -17  -1  189.99   56.75
   3 -17  -1    6.53    9.38
   3 -17  -1   11.06   31.05
   2 -17  -1    3.70    7.51
  -2 -17   1 -137.25   77.44
  -1 -17   1  -83.06   61.30
   1 -17  -1   39.71   23.72
   0 -17  -1    6.04   13.36
   0 -17   1   45.04   36.25
  -1 -17  -1  226.10   65.81
   1 -17   1  181.47   97.04
   1 -17   1  108.92   35.86
   2 -17   1  104.13   58.23
  -2 -17  -1   75.82   36.80
   2 -17   1   17.15   19.51
  -3 -17  -1   -2.91   11.07
   3 -17   1   25.62   20.95
   4 -17   1   47.43   29.56
  -4 -17  -1   36.11   26.62
   4 -17   1   31.85   30.99
   5 -17   1 -104.73   70.89
   5 -17   1  106.56   63.54
   6 -17   1  -65.63   53.15
   6 -17   1   18.78   43.85
   7 -17   1    7.84   22.38
   8 -17   1   52.86   53.74
   8 -18  -1   76.34   57.60
   7 -18  -1   62.89   41.87
   6 -18  -1   18.86   22.80
   5 -18  -1  144.23   81.97
   5 -18  -1    0.35   13.33
   4 -18  -1   67.75   35.69
   4 -18  -1   32.02   26.60
  -3 -18   1  130.41   71.85
   3 -18  -1   66.56   58.76
   3 -18  -1   26.81   24.76
   2 -18  -1  -28.58   30.97
   2 -18  -1   44.34   23.12
  -2 -18   1   35.77   28.73
  -1 -18   1   -6.96   40.49
   1 -18  -1  -46.37   28.44
   0 -18   1   21.53   53.85
   0 -18  -1   60.35   32.18
   1 -18   1  254.13  108.26
  -1 -18  -1  105.01   51.26
   2 -18   1 -153.73   87.87
  -2 -18  -1    0.37    9.01
   3 -18   1  -45.82   50.50
   4 -18   1   29.28   27.69
   7 -19  -1   35.60   47.53
   6 -19  -1    7.11   13.52
   5 -19  -1   19.94   16.70
   4 -19  -1  -34.08   26.00
  -4 -19   1   61.08   49.05
   3 -19  -1   53.46   43.35
   3 -19  -1   10.72   11.58
   2 -19  -1   23.97   34.05
   2 -19  -1   31.82   20.66
  -2 -19   1  121.33   79.03
  -1 -19   1  230.85   98.33
   0 -19   1  154.37   87.54
   1 -19   1   13.22   25.59
   2 -19   1 -121.40   80.67
   3 -19   1   37.56   67.50
  -3 -20   1   34.91   50.44
  -2 -20   1  -37.16   72.21
  -1 -20   1  -26.20   43.02
   0 -20   1  245.23  114.47
   1 -20   1 -155.50   94.59
  -2 -21   1  -16.63   87.23
  15   0  -2   62.77   47.56
  14   0  -2  149.99   64.25
  13   0  -2  -39.04   32.36
  12   0  -2  634.79  122.77
  11   0  -2   11.41   23.07
  10   0  -2   30.36   24.75
   9   0  -2  538.35   99.11
   8   0  -2   92.93   39.74
   7   0  -2  711.87   95.08
  -7   0   2  796.70   88.46
   6   0  -2   10.59    6.32
   5   0  -2  122.07   25.95
  -5   0   2   81.46   24.03
   5   0  -2  102.76   20.24
   4   0  -2 1253.23   75.45
  -4   0   2 1154.66   86.27
   3   0  -2  860.66   61.34
  -3   0   2  871.88   77.88
   2   0  -2  403.63   47.35
  -1   0   2   27.69   13.03
   0   0   2  199.56   36.91
   1   0   2  558.46   63.33
   2   0   2 1848.80  122.14
   3   0   2   26.20   17.47
   4   0   2   18.11   12.40
   5   0   2   97.12   34.24
   6   0   2   45.40   25.82
   7   0   2 1216.70  142.21
   8   0   2   49.44   27.21
   9   0   2   20.87   23.39
  10   0   2  278.43   79.84
  11   0   2    1.90   12.84
  12   0   2  457.85  117.40
  15  -1  -2   11.80   20.67
  14   1  -2    7.71   10.83
  14  -1  -2   93.38   50.86
  13  -1  -2  700.88  126.67
  13   1  -2  636.66  130.98
  12  -1  -2   53.72   32.51
  12   1  -2   48.86   41.64
  11  -1  -2   24.20   22.18
  11  -1  -2   52.99   24.58
  10  -1  -2    9.88   18.70
  10  -1  -2   19.71   25.60
   9   1  -2  210.24   63.94
   9  -1  -2  179.74   58.28
   8  -1  -2 1625.03  164.69
   8   1  -2 1852.59  166.42
   7   1  -2   13.40   13.01
   7  -1  -2    2.92    5.73
  -7  -1   2   28.43   17.14
  -7   1   2   45.35   22.49
   6   1  -2   31.46   16.66
  -6  -1   2   43.16   19.51
   6  -1  -2   38.55   18.28
   5  -1  -2   -0.53    5.41
   5  -1  -2   -0.95    7.74
   5   1  -2  -16.98   10.18
  -5  -1   2    1.63    4.41
  -5   1   2   -5.50    7.45
  -4  -1   2 1009.48   73.60
   4   1  -2 1114.99   65.47
   4  -1  -2 1120.33   77.76
   3  -1  -2 3265.72  134.25
   3   1  -2 3099.13  101.14
  -3  -1   2 3316.59  136.43
   2   1  -2   61.11   15.46
   2  -1  -2   86.81   26.28
  -2  -1   2   83.33   22.12
   1  -1  -2  348.65   38.74
  -1   1   2  330.06   43.01
   0  -1   2    1.57    7.06
   0   1   2   21.83   10.94
   1  -1   2 3695.13  166.97
   1   1   2 3575.17  154.67
   2  -1   2 1633.30  119.30
   2   1   2 1544.46  111.82
   3   1   2  113.59   32.09
   3  -1   2  132.39   36.10
   4  -1   2  125.45   34.98
   4   1   2  136.11   39.41
   5  -1   2   35.94   27.09
   5   1   2   15.52   22.61
  -5   1  -2   -6.48    9.90
   6  -1   2 2326.54  182.18
   6   1   2 2173.86  182.85
   7   1   2  369.71   83.14
   7  -1   2  252.66   63.37
   8   1   2   11.96   17.87
   8  -1   2   27.29   25.95
   9  -1   2   -5.00   11.75
   9   1   2   23.51   29.71
  10   1   2   40.79   20.83
  10  -1   2   -5.10   22.51
  11  -1   2  799.57  143.03
  11   1   2  968.64  160.95
  12  -1   2   76.78   50.42
  12   1   2  113.90   62.29
  15  -2  -2   71.24   43.85
  14  -2  -2   54.70   35.65
  14   2  -2   74.29   53.42
  13   2  -2  111.22   57.82
  13  -2  -2   46.84   30.22
  12   2  -2  376.30  107.61
  12  -2  -2  303.42   77.02
  11  -2  -2   16.70   22.69
  11  -2  -2   91.32   44.60
  10  -2  -2  237.14   71.45
  10  -2  -2  187.23   55.64
   9  -2  -2  191.23   62.65
   9  -2  -2  210.71   57.79
  -8  -2   2  656.21   83.21
   8   2  -2  647.67   97.79
   8  -2  -2  447.81   82.89
   7   2  -2 1142.50  118.76
  -7   2   2 1093.03  110.58
   6  -2  -2   99.28   28.99
   6   2  -2  140.38   38.57
   6  -2  -2  116.41   31.99
  -6  -2   2  109.17   28.56
   5  -2  -2  861.21   84.34
   5   2  -2  759.04   75.71
  -5  -2   2  935.10   72.94
   5  -2  -2  919.53   79.01
   4  -2  -2 1015.27   81.98
  -4  -2   2  966.31   66.86
   3   2  -2 2339.65   75.54
   3  -2  -2 2254.61  124.61
  -3  -2   2 2272.20  100.70
   2  -2  -2 2381.41  143.32
  -2  -2   2 2101.27   94.08
   2  -2  -2 2410.52   96.07
   2   2  -2 2350.28   73.42
   1  -2  -2   19.07    8.56
   1  -2  -2   -2.42   18.73
  -1   2   2   14.90    8.36
   0  -2   2 2143.73  140.57
   0   2   2 2420.94  115.75
   0  -2  -2 2411.86   99.73
   1   2   2 1647.33  104.65
   1  -2   2 1476.20  112.82
   2   2   2 2428.29  141.43
   2  -2   2 2445.23  148.94
   3  -2   2 1523.95  123.67
  -3   2  -2 1635.02  139.83
   3   2   2 1481.42  126.17
   4  -2   2   -3.18   10.82
   4   2   2   48.99   26.40
   5   2   2 1266.71  137.81
   5  -2   2 1327.22  128.06
  -5   2  -2 1123.99  136.33
  -5   2  -2 1404.95  158.61
   6  -2   2  562.58   88.17
   6   2   2  594.43  100.18
   7  -2   2  660.17  101.17
   7   2   2  723.14  117.99
   8  -2   2  456.68   89.25
   8   2   2  426.09   92.58
   9  -2   2   56.90   36.71
   9   2   2   90.09   47.09
  10  -2   2  411.32   95.96
  10   2   2  388.10  101.60
  11  -2   2   36.17   32.08
  11   2   2   50.88   37.31
  12   2   2   86.38   47.95
  12  -2   2   87.58   49.66
  14  -3  -2  121.82   49.93
  14   3  -2   35.73   37.43
  13  -3  -2   22.71   22.35
  13   3  -2    5.39   16.68
  12  -3  -2  172.13   82.10
  12  -3  -2  181.73   56.51
  11  -3  -2  556.48  124.24
  11  -3  -2  699.81  105.29
  10  -3  -2    2.63    8.15
  10  -3  -2   30.53   32.63
   9  -3  -2  718.14  120.11
   9  -3  -2  887.76  106.16
  -8  -3   2  282.91   53.80
   8  -3  -2  158.87   48.06
   8  -3  -2  288.71   58.57
   7  -3  -2  860.13   93.44
   7  -3  -2  715.65   86.10
   7  -3  -2  662.21   84.07
   6   3  -2 2674.68  163.85
  -6  -3   2 2647.40  133.33
   6  -3  -2 2528.23  164.72
   6  -3  -2 2458.79  147.74
   5   3  -2  165.14   34.79
   5  -3  -2  111.19   34.90
   5  -3  -2  106.29   27.89
  -5  -3   2   96.59   22.87
   4   3  -2 2098.25  106.37
  -4  -3   2 2024.22   89.80
   4  -3  -2 2120.22  128.80
  -3  -3   2 1516.03   70.31
   3  -3  -2 1563.65  113.71
   2  -3  -2 1020.73  102.95
   2  -3  -2 1055.12   44.90
   2   3  -2 1125.94   34.21
   2   3  -2 1068.39   61.44
  -1   3   2 5637.67  148.26
   1  -3  -2 5509.93  122.12
   1   3  -2 5648.71  166.99
   1  -3  -2 5671.11  238.99
   0   3   2  546.77   51.84
   0  -3   2  494.85   69.71
   0   3  -2  598.68   61.07
   0  -3  -2  531.05   50.69
  -1   3  -2 1845.24  107.98
   1   3   2 1733.43  109.39
   1  -3   2 1764.82  128.91
   2  -3   2 2364.69  152.71
   2   3   2 2289.70  144.44
  -2   3  -2 2205.73  139.95
   3   3   2  305.30   60.17
   3  -3   2  241.48   52.70
  -3   3  -2  334.87   61.39
  -4   3  -2 2802.04  190.77
  -4   3  -2 3249.29  203.92
   4   3   2 3399.23  218.76
   4  -3   2 2937.53  188.57
   5  -3   2  438.35   75.71
  -5   3  -2  575.41   98.96
  -5   3  -2  394.70   75.61
  -5   3  -2  635.51  101.65
   5   3   2  498.17   90.03
   6  -3   2  522.84   85.83
   6   3   2  535.96   98.75
   7  -3   2  681.04  103.91
   7   3   2  767.89  124.88
   8  -3   2   29.85   29.33
   8   3   2   44.50   30.74
   9   3   2  830.86  145.80
   9  -3   2  782.76  124.55
  10   3   2  202.34   73.91
  10  -3   2  209.56   69.47
  11   3   2  106.60   54.95
  11  -3   2  129.99   62.86
  12  -3   2  196.84   72.12
  12   3   2   99.32   58.50
  14  -4  -2   47.92   27.74
  14   4  -2  -21.43   32.49
  13   4  -2  116.70   63.16
  13  -4  -2  101.27   43.00
  12  -4  -2   93.88   58.10
  12  -4  -2   93.16   37.90
  11  -4  -2  -19.55   26.44
  11  -4  -2    0.75   11.22
  10  -4  -2  671.33  129.34
  10  -4  -2  797.67   98.72
   9  -4  -2   38.30   15.23
  -9  -4   2   73.80   22.96
   9  -4  -2   57.92   25.52
   8  -4  -2  236.72   55.72
   8  -4  -2  308.48   66.10
  -8  -4   2  208.84   32.87
  -8  -4   2  237.50   49.00
   8  -4  -2  233.01   46.26
   7  -4  -2  644.06   83.76
  -7  -4   2  616.51   44.91
   7  -4  -2  630.46   69.56
   6  -4  -2   26.95   18.73
  -6  -4   2   45.24   16.59
   6  -4  -2   40.70   22.46
   6  -4  -2   19.82   12.32
   5  -4  -2 2617.13  150.77
   5  -4  -2 2565.68  107.32
  -5  -4   2 2568.23  112.50
  -4  -4   2  169.29   23.78
   4  -4  -2  161.51   37.90
   4  -4  -2  186.97   22.57
  -3  -4   2  261.16   24.71
   3  -4  -2  266.23   50.76
  -3  -4   2  320.45   31.54
   2  -4  -2 1854.92  140.38
   1   4  -2   23.85   12.85
  -1   4   2   34.55   11.54
   1  -4  -2   39.17   22.34
   0   4  -2 3284.78  102.51
   0   4   2 3635.29  139.62
   0   4  -2 3709.93  169.73
  -1   4  -2  409.66   46.63
  -1   4  -2  441.71   63.84
   1   4   2  360.84   53.20
   1  -4   2  375.53   65.66
   2  -4   2  150.68   41.93
  -2   4  -2  137.71   37.38
   2   4   2  122.99   36.97
  -2   4  -2  140.98   31.91
  -2   4  -2  189.36   45.44
  -3   4  -2 1538.99  117.65
  -3   4  -2 1872.51  155.54
   3  -4   2 1723.01  138.45
   3   4   2 1716.18  151.48
  -3   4  -2 1912.90  147.51
  -4   4  -2   48.36   23.87
   4  -4   2   34.57   19.14
  -4   4  -2   47.20   25.40
  -4   4  -2   32.69   20.75
   4   4   2   20.37   21.54
  -5   4  -2 1966.04  146.37
   5   4   2 1526.58  167.68
   5  -4   2 1500.06  140.40
  -5   4  -2 1616.23  162.97
   6  -4   2  317.13   67.91
   6   4   2  396.89   93.10
   7  -4   2   35.73   23.03
   7   4   2  -17.80   36.90
   8  -4   2  730.92  115.72
   8   4   2  695.39  131.39
   9   4   2   62.84   41.45
   9  -4   2   74.94   43.71
  10  -4   2  348.99   86.48
  10   4   2  233.92   84.97
  11   4   2  158.10   69.71
  11  -4   2  106.99   52.55
  12  -4   2   13.60   33.04
  12   4   2   55.97   44.10
  13  -5  -2   22.09   30.43
  13  -5  -2   -1.83   18.09
  12  -5  -2   22.30   16.14
  12  -5  -2   62.21   42.85
  11  -5  -2  540.20  133.95
  11  -5  -2  684.48   92.64
  10  -5  -2  577.40   79.34
  10  -5  -2  250.31   83.68
   9  -5  -2   16.58   15.71
   9  -5  -2   50.20   25.20
  -9  -5   2   53.60   17.22
   8  -5  -2   46.66   32.83
   8  -5  -2   37.28   20.76
  -8  -5   2   63.23   26.71
  -8  -5   2   32.95   11.38
   8  -5  -2   35.86   16.77
   7  -5  -2    1.40    6.64
   7  -5  -2   11.18    9.46
   6  -5  -2 2288.68  154.60
   6  -5  -2 2437.06  103.35
  -6  -5   2 2379.99  122.65
   5  -5  -2  583.05   40.26
  -5  -5   2  556.57   51.26
   5  -5  -2  480.63   68.82
  -4  -5   2   12.06    7.40
  -4  -5   2    8.67    7.81
   4  -5  -2   18.87   15.82
   3  -5  -2   80.16   30.26
  -3  -5   2   96.76   22.89
  -3  -5   2  101.97   13.00
   2  -5  -2  160.96   44.99
  -2  -5   2  155.94   31.20
   1  -5  -2 4363.82  241.09
  -1   5   2 4664.25  127.21
  -1  -5   2 4805.88  190.37
   0   5  -2  160.15   17.62
   0   5   2  124.15   28.10
   0   5  -2  175.68   40.00
   1  -5   2   -1.26   15.20
  -1   5  -2   28.72   19.49
  -1   5  -2    7.06   13.76
  -1   5  -2   22.23    8.86
   1   5   2   -5.55   14.03
  -2   5  -2   21.31   16.72
  -2   5  -2   50.59   26.74
   2   5   2   32.02   22.51
   2  -5   2   62.63   28.89
  -2   5  -2   45.63   14.67
  -3   5  -2  707.20   68.21
  -3   5  -2  545.36   83.39
   3  -5   2  567.65   81.98
  -3   5  -2  774.28  105.82
   3   5   2  665.89  103.20
   4   5   2 3230.56  248.65
  -4   5  -2 3769.36  173.40
  -4   5  -2 3396.83  213.34
   4  -5   2 3185.43  198.35
  -4   5  -2 3264.87  233.47
   5  -5   2   -9.82   18.19
  -5   5  -2   -4.08   11.51
  -5   5  -2    6.04    7.26
   5   5   2   -5.42   12.83
   6  -5   2   27.44   22.86
   6   5   2   -2.18   24.13
   7  -5   2  -40.02   25.74
   7   5   2   18.46   16.79
   8   5   2  470.33  112.11
   8  -5   2  512.93   96.25
   9  -5   2  815.05  128.72
   9   5   2  726.27  143.29
  10  -5   2   -4.24   14.99
  10   5   2   68.76   47.58
  11   5   2   49.34   41.32
  11  -5   2   14.96   28.16
  12  -5   2   11.92   29.55
  13  -5   2  189.43   80.70
  13  -6  -2  -29.16   33.90
  12  -6  -2   26.32   22.40
  12  -6  -2   59.84   33.18
  11  -6  -2  164.57   69.82
  11  -6  -2  197.43   48.78
  10  -6  -2  605.51   79.51
  10  -6  -2  481.92  113.50
  -9  -6   2  107.74   23.58
   9  -6  -2   88.40   28.47
   9  -6  -2   86.41   42.87
  -8  -6   2   35.79   18.15
   8  -6  -2   94.32   42.54
   8  -6  -2   39.18   15.64
   8  -6  -2   62.65   33.15
   7  -6  -2   91.97   22.54
   7  -6  -2   88.17   33.98
   7  -6  -2   88.94   41.37
  -6  -6   2  307.01   44.47
   6  -6  -2  316.04   35.82
   6  -6  -2  281.94   56.54
   6  -6  -2  259.75   70.32
  -5  -6   2 1110.25   71.85
   5  -6  -2  995.03  103.56
   5  -6  -2 1158.06   52.33
  -4  -6   2    7.42    4.70
   4  -6  -2   34.34   17.87
  -3  -6   2  268.74   18.61
   3  -6  -2  334.13   62.65
  -3  -6   2  264.29   43.28
   2  -6  -2  221.11   54.34
  -2  -6   2  228.00   43.63
  -1  -6   2    2.94    8.30
  -1   6   2    1.35    4.09
   1  -6  -2    0.68   15.97
   0   6  -2  790.04   44.08
   0   6   2  799.00   82.13
   0   6  -2  719.46  104.97
   0  -6   2  841.31   93.04
  -1   6  -2   88.66   31.35
  -1   6  -2   26.37   20.17
  -1   6  -2   70.19   15.78
   1   6   2  115.07   36.85
  -2   6  -2  259.04   35.12
   2  -6   2  294.78   61.44
  -2   6  -2  235.78   55.53
  -2   6  -2  265.16   60.80
   2   6   2  317.79   72.70
  -3   6  -2  397.67   81.73
  -3   6  -2  461.37   53.58
   3  -6   2  367.31   68.13
   3   6   2  504.54   95.31
  -3   6  -2  444.61   78.74
  -4   6  -2  467.99   60.45
  -4   6  -2  485.19   83.63
   4  -6   2  474.97   79.90
   4   6   2  420.65   95.97
   5  -6   2  334.86   70.37
  -5   6  -2  345.11   75.44
   5   6   2  534.74  113.62
   6  -6   2    6.04    6.54
   6   6   2    8.86   16.86
   7  -6   2    9.14    9.68
   7   6   2   -0.80   11.94
   8   6   2  269.90   90.18
   8  -6   2  323.55   76.81
   9   6   2  414.42  111.79
   9  -6   2  386.42   89.89
  10   6   2  167.03   76.64
  10  -6   2  141.75   58.76
  11  -6   2  -55.92   37.61
  11   6   2   33.76   35.02
  12  -6   2   59.35   37.76
  13  -6   2  120.54   69.98
  13  -7  -2   55.30   56.13
  12  -7  -2  -58.61   49.58
  11  -7  -2  329.59  107.03
  11  -7  -2  293.46   59.77
  10  -7  -2  271.56   87.85
  10  -7  -2  204.54   45.70
   9  -7  -2  229.22   68.47
   9  -7  -2  131.34   50.75
   9  -7  -2  205.78   41.65
   8  -7  -2   11.71    9.13
   8  -7  -2    7.82   15.03
   8  -7  -2    7.10   22.10
  -8  -7   2   14.41   16.55
   7  -7  -2    1.65   25.49
   7  -7  -2   51.32   26.47
   7  -7  -2   15.74    9.45
  -6  -7   2 1404.57   96.76
   6  -7  -2 1369.98  128.02
   6  -7  -2 1277.65   69.83
   6  -7  -2 1401.97  172.04
  -5  -7   2  122.82   24.70
   5  -7  -2  151.11   41.52
  -4  -7   2  181.82   23.82
  -4   7   2  150.83   49.31
   4  -7  -2  145.83   42.51
   3  -7  -2   -8.52   14.61
  -3  -7   2   10.54    3.39
  -3  -7   2   11.62   12.56
  -3  -7   2   19.24    5.56
  -2  -7   2    2.20    3.80
  -2   7   2   12.49   17.96
   2  -7  -2   20.80   21.50
  -2   7   2   15.22    5.35
   1  -7  -2 2073.78  168.52
  -1   7   2 2129.86  115.40
  -1  -7   2 1981.26  151.00
   0  -7  -2    7.75   12.60
   0  -7   2   -1.84    8.07
   0   7  -2   -0.92    3.81
   0   7  -2   -1.88   10.33
   1  -7   2   27.14   14.49
  -1   7  -2   29.93   21.81
   1  -7   2   19.56   15.99
  -1   7  -2   34.70   12.58
  -2   7  -2   20.04   19.59
   2  -7   2   31.81   14.16
  -2   7  -2   42.99   24.11
  -2   7  -2   20.61   11.62
   3   7   2   48.19   29.02
   3  -7   2   50.91   25.14
   3  -7   2  108.99   42.73
  -3   7  -2   99.91   37.66
  -3   7  -2   82.37   23.70
  -3   7  -2   50.50   20.87
  -4   7  -2 1394.42  105.87
   4   7   2 1723.50  202.57
   4  -7   2 1582.69  152.20
  -4   7  -2 1514.85  152.72
   5   7   2   48.27   41.79
  -5   7  -2   20.55   26.74
   5  -7   2   29.27   24.19
   6  -7   2    6.68   17.57
   6   7   2    1.63   29.81
   7  -7   2   96.87   39.32
   7   7   2   22.01   12.60
   8   7   2  183.94   76.83
   8  -7   2  240.36   67.16
   9  -7   2  515.51  102.13
   9   7   2  417.58  114.90
  10  -7   2  -34.82   38.19
  10   7   2   24.48   29.95
  11  -7   2  -33.29   29.46
  11   7   2   -1.95   14.60
  12  -7   2   13.16   30.87
  12  -8  -2   90.07   62.02
  11  -8  -2   -3.37   24.82
  10  -8  -2  475.75   68.93
  10  -8  -2  486.32  116.75
   9  -8  -2   57.71   37.51
   9  -8  -2   37.72   18.21
   9  -8  -2   69.26   38.33
   8  -8  -2  347.31   74.73
  -8  -8   2  300.66   55.19
   8  -8  -2  331.89   47.21
   8  -8  -2  311.35   86.78
  -7  -8   2  483.13   64.71
   7  -8  -2  638.05  123.64
   7  -8  -2  559.15   54.71
   7  -8  -2  382.89   73.71
   6  -8  -2   -8.78   15.65
  -6  -8   2   -0.59    8.30
   6  -8  -2   -1.98    9.77
  -5  -8   2 1221.42   83.89
   5  -8  -2 1554.68  139.90
  -4  -8   2   68.34   16.82
   4  -8  -2   62.70   29.16
  -3  -8   2  403.24   29.61
   3  -8  -2  512.93   83.02
  -3  -8   2  485.90   34.20
  -3   8   2  547.90   99.75
  -3  -8   2  434.13   72.92
   2  -8  -2 1673.83  156.29
  -2   8   2 1661.62   73.44
  -2  -8   2 1776.94  151.77
  -1  -8   2    5.71    2.07
   1  -8  -2    4.42   13.14
  -1  -8   2   25.09   22.20
   0  -8   2 2241.67  113.78
   0   8  -2 2194.59  101.60
   0  -8  -2 2110.40  178.66
   0   8  -2 1883.70  185.85
   0  -8   2 2189.92  180.63
  -1   8  -2  200.22   32.27
   1  -8   2  175.89   36.82
  -1   8  -2  158.92   53.12
   1  -8   2  129.49   44.20
   2  -8   2  263.94   65.00
  -2   8  -2  357.05   45.99
   2  -8   2  362.41   64.78
  -2   8  -2  352.07   76.96
   3  -8   2 2032.74  170.20
  -3   8  -2 2064.69  121.77
  -3   8  -2 1922.79  181.34
   3  -8   2 2151.11  184.79
  -4   8  -2  -41.60   26.55
   4  -8   2  -11.52   28.05
   4  -8   2    7.54   13.84
  -4   8  -2   -2.70    9.71
   5  -8   2  994.80  127.87
   5   8   2  820.27  151.91
   6  -8   2  170.89   56.19
   6   8   2  227.58   79.56
   7   8   2   71.48   50.73
   7  -8   2  103.40   43.00
   8  -8   2  690.34  116.11
   8   8   2  776.16  155.10
   9   8   2  -46.34   41.25
   9  -8   2  -12.05   17.53
  10   8   2   98.80   63.19
  10  -8   2   98.45   44.38
  11  -8   2   88.54   44.24
  11   8   2   19.16   40.74
  12  -8   2   -6.41   16.98
  12  -9  -2   24.12   25.25
  11  -9  -2   61.25   55.94
  10  -9  -2   50.81   49.17
   9  -9  -2 1409.07  170.29
   9  -9  -2 1036.90  167.75
   9  -9  -2 1056.82   91.97
  -8  -9   2  491.82   71.88
   8  -9  -2  484.46   56.12
   8  -9  -2  513.88   92.55
   8  -9  -2  527.88  119.60
   7  -9  -2  106.12   49.48
   7  -9  -2   52.52   28.13
  -7  -9   2   64.38   22.77
  -6  -9   2  495.79   63.00
   6  -9  -2  553.21   87.26
   6  -9  -2  605.32  125.09
   5  -9  -2   34.62   21.98
  -5  -9   2   19.02   10.90
  -4  -9   2 2125.76  105.57
   4  -9  -2 2332.99  177.17
  -3  -9   2 1875.91   77.86
   3  -9  -2 1626.61  152.84
  -3   9   2 1682.76  177.86
  -3  -9   2 1614.39  154.93
  -3  -9   2 1609.26   66.33
   2  -9  -2    2.54   21.84
  -2  -9   2   41.01    7.25
  -2  -9   2   37.22   24.12
  -1  -9   2  871.49   51.89
   1  -9  -2 1138.66  136.56
  -1  -9   2 1208.97  140.32
   0   9  -2   22.93   18.26
   0   9  -2   -1.54    3.98
   0  -9   2   31.34   21.35
   0  -9  -2   -2.04   20.84
   0  -9   2    4.40   11.91
   1  -9   2 2155.87  138.59
  -1   9  -2 2193.29  119.46
   1  -9   2 2186.34  198.67
  -1   9  -2 2157.65  205.19
   2  -9   2 2193.40  162.07
  -2   9  -2 2352.68  212.56
   2  -9   2 2232.24  205.65
  -2   9  -2 2360.17  128.58
  -3   9  -2    0.56    7.18
   3  -9   2    2.03    8.50
  -3   9  -2   20.25   21.95
   4  -9   2  774.92  118.74
  -4   9  -2  779.52   84.93
   4  -9   2  653.49  106.78
  -4   9  -2  632.04  108.20
   5   9   2   31.59   25.77
   5  -9   2   15.36   12.76
   5  -9   2   23.22   25.56
   6  -9   2  825.75  122.80
   6   9   2  703.91  147.78
   7  -9   2  950.24  134.59
   7   9   2  916.24  174.53
   8  -9   2   22.62   24.47
   8   9   2    6.14   25.16
   9  -9   2  157.39   59.44
   9   9   2  204.90   80.99
  10  -9   2   73.39   41.39
  10   9   2  -16.98   27.95
  11  -9   2  104.55   53.08
  12 -10  -2  174.96   88.08
  11 -10  -2   23.26   40.89
  10 -10  -2  168.73   73.02
  10 -10  -2  186.12   74.82
   9 -10  -2   97.73   61.63
   9 -10  -2  253.25   68.91
   8 -10  -2  510.48   95.02
  -8 -10   2  375.38   62.97
   8 -10  -2  412.89  111.17
  -7 -10   2  775.73   85.02
   7 -10  -2  620.10  138.09
   7 -10  -2  514.55   93.57
   6 -10  -2   29.42   29.74
  -6 -10   2   13.47   11.26
   6 -10  -2   30.15   16.61
  -5 -10   2  300.50   46.98
   5 -10  -2  341.03   70.54
  -4 -10   2  258.16   38.74
  -4 -10   2  225.86   36.51
   4 -10  -2  187.62   52.74
  -3 -10   2  875.25   50.13
   3 -10  -2  809.51  110.37
  -3 -10   2  780.35  116.54
  -2 -10   2  833.29   40.96
   2 -10  -2  995.29  125.79
  -2 -10   2 1139.65  143.68
   1 -10  -2   11.53    9.17
  -1 -10   2    5.42    3.92
   0 -10   2  484.54   55.80
   0 -10   2  513.84  101.18
   0  10  -2  567.47   65.04
   0  10  -2  337.64   83.90
   0 -10  -2  518.30   89.87
  -1 -10  -2  370.12   73.66
   1 -10   2  311.84   82.97
  -1  10  -2  328.73   50.24
  -1  10  -2  311.52   80.36
   1 -10   2  368.54   59.34
  -2  10  -2  813.07   82.88
   2 -10   2  989.29  146.58
  -2  10  -2  871.25  134.14
   2 -10   2  898.73  108.60
   3 -10   2  722.82  108.73
  -3  10  -2  628.74   76.03
  -3  10  -2  589.14  111.50
   3 -10   2  697.48  128.69
   4 -10   2   26.37   23.32
  -4  10  -2   53.83   24.89
  -4  10  -2   78.37   36.60
   5 -10   2  409.20   89.76
   5 -10   2  251.34   74.98
   6  10   2  188.74   77.12
   6 -10   2  280.87   74.81
   7 -10   2  312.98   79.76
   7  10   2  420.36  124.08
   8 -10   2  251.56   73.71
   8  10   2  363.81  109.80
   9 -10   2   66.81   39.75
   9  10   2  -20.18   29.98
  10 -10   2  113.50   56.67
  10  10   2   85.85   61.65
  11 -10   2   45.96   36.81
  11 -11  -2   -9.14   21.85
  10 -11  -2  -32.69   37.44
  10 -11  -2  -54.58   43.88
   9 -11  -2  121.88   54.63
   9 -11  -2  117.43   58.98
   8 -11  -2  864.81  125.93
   8 -11  -2  804.11  166.99
  -7 -11   2  -16.50   13.39
   7 -11  -2   11.34   10.95
   7 -11  -2   34.58   34.54
  -6 -11   2    6.34    9.09
   6 -11  -2   19.94   26.57
   6 -11  -2    9.54   14.03
  -5 -11   2    2.79    5.16
   5 -11  -2   13.76   17.83
  -4 -11   2  453.47   53.39
   4 -11  -2  391.47   76.47
  -4 -11   2  444.72   48.60
   3 -11  -2 1053.73  126.74
  -3 -11   2 1026.96   56.47
  -3 -11   2 1272.58  162.99
  -2 -11   2   19.02    5.37
   2 -11  -2   61.91   37.08
  -2 -11   2   27.15   22.18
  -1 -11   2   60.14   37.07
   1 -11  -2   35.59   20.24
  -1 -11   2   51.07   14.55
   0 -11   2    3.61    6.94
   0  11  -2   -2.98   16.08
   0 -11   2  -26.92   25.46
   0 -11  -2   -2.96   17.62
  -1  11  -2  988.22   94.05
   1 -11   2  992.97  153.63
  -1 -11  -2  828.85  116.25
  -1  11  -2  916.69  142.35
   1 -11   2  852.46   95.09
   2 -11   2  587.57  120.24
  -2  11  -2  584.15   75.47
   2 -11   2  489.34   83.30
  -2  11  -2  573.20  115.28
  -3  11  -2   15.60    9.36
   3 -11   2   62.80   30.49
   3 -11   2   69.29   43.03
   4 -11   2   -9.79   25.71
   5 -11   2  -25.65   26.40
   6  11   2  936.76  178.71
   6 -11   2  953.20  163.21
   6 -11   2  948.09  141.49
   7 -11   2  131.59   54.17
   7  11   2  196.05   79.80
   8 -11   2   24.36   28.39
   8  11   2   23.73   46.26
   9  11   2   -0.46   35.23
   9 -11   2   16.93   21.88
  10 -11   2   18.18   23.71
  10  11   2  -31.38   60.61
  11 -12  -2  -18.55   32.75
  10 -12  -2   38.08   26.51
  10 -12  -2   -1.73   27.91
   9 -12  -2  223.51   72.00
   9 -12  -2  255.78  105.07
   8 -12  -2  -72.81   52.14
   8 -12  -2   30.23   30.05
   7 -12  -2  325.62  112.29
   7 -12  -2  211.62   61.56
   6 -12  -2   42.31   30.82
   6 -12  -2   12.69   10.73
  -5 -12   2   -0.42    4.35
  -5 -12   2   26.90   15.01
   5 -12  -2   35.74   24.37
  -4 -12   2  297.40   45.11
  -4 -12   2  273.66   38.31
  -4 -12   2  395.43   96.44
   4 -12  -2  309.58   69.82
   3 -12  -2  103.23   40.13
  -3  12   2  151.52   23.71
  -3 -12   2  154.12   57.60
  -3 -12   2  134.53   21.50
   2 -12  -2   70.21   34.69
  -2 -12   2   53.40   14.30
  -2  12   2   58.18   25.28
  -2 -12   2   57.18   37.88
  -1 -12   2   -5.98   14.59
   1 -12  -2   -9.02   10.90
  -1 -12   2    0.93    8.68
   0 -12   2   19.73   21.16
   0 -12  -2   42.47   27.22
   0 -12   2   21.23   14.86
   1 -12   2  122.97   38.90
   1 -12   2  155.85   63.36
  -1 -12  -2   73.98   33.30
  -1  12  -2   99.14   33.63
  -2 -12  -2  458.68   86.56
   2 -12   2  360.22   73.87
  -2  12  -2  369.77   63.73
   2 -12   2  310.97   89.64
   3 -12   2   25.01   21.21
  -3  12  -2   14.33    7.68
   4 -12   2  -19.47   22.77
   5 -12   2  123.74   58.00
   6 -12   2   -5.23   30.19
   6  12   2   44.82   47.69
   7  12   2  347.74  109.57
   8  12   2   47.70   37.44
   8 -12   2   12.53   19.36
   9 -12   2  -25.10   26.78
   9  12   2  -15.51   26.46
  10 -13  -2  125.73   64.17
  10 -13  -2   16.04   29.74
   9 -13  -2   27.71   25.45
   9 -13  -2   47.11   36.80
   8 -13  -2  384.60   88.91
   8 -13  -2  317.24  112.49
   7 -13  -2  116.31   66.49
   7 -13  -2   58.29   31.02
   6 -13  -2  102.92   43.13
   6 -13  -2  137.77   70.99
  -6 -13   2  164.76   42.43
  -5 -13   2   86.73   25.33
   5 -13  -2   40.39   22.53
  -4 -13   2   54.17   16.68
  -4 -13   2   56.47   19.47
  -4 -13   2   39.10   32.50
   4 -13  -2   30.07   21.59
   3 -13  -2  308.51   71.03
  -3 -13   2  284.76   31.61
  -3  13   2  251.35   33.57
  -3 -13   2  264.84   86.02
   2 -13  -2  183.13   58.19
  -2  13   2  149.69   42.17
  -2 -13   2  171.60   25.74
  -2 -13   2  212.34   75.62
  -1 -13   2   91.60   54.01
   1 -13  -2   39.56   21.60
  -1 -13   2   74.00   19.70
   0 -13  -2   89.77   40.91
   0 -13   2  131.90   34.11
   0 -13   2  100.23   52.59
   1 -13   2  295.19   95.00
  -1  13  -2  211.39   51.07
   1 -13   2  213.09   53.32
  -1 -13  -2  195.63   58.56
  -2  13  -2   62.46   26.87
   2 -13   2  171.47   54.76
   2 -13   2  136.95   66.07
  -3 -13  -2  139.07   48.50
   3 -13   2  160.96   55.88
   3 -13   2  190.73   79.80
   4 -13   2   48.82   37.17
   5 -13   2  100.07   50.45
   6  13   2  254.00   87.64
   6 -13   2  313.68   97.75
   7  13   2   89.16   60.52
   8  13   2   24.96   21.78
   9  13   2 -119.69   70.24
  10 -14  -2  103.55   67.82
  10 -14  -2   93.23   47.57
   9 -14  -2  -64.01   54.45
   9 -14  -2   36.09   26.61
   8 -14  -2  171.67   96.40
   8 -14  -2  175.49   62.88
   7 -14  -2  512.46  145.26
   7 -14  -2  214.51   65.75
   6 -14  -2   84.77   40.83
   6 -14  -2   95.86   61.17
   5 -14  -2  402.14   83.46
  -5 -14   2  339.57   96.02
  -4 -14   2  271.40   33.45
   4 -14  -2  364.33   78.15
  -4 -14   2  330.29  100.76
  -3 -14   2  363.08   35.91
  -3 -14   2  458.75  117.22
   3 -14  -2  445.52   87.07
  -2 -14   2  553.42  130.41
  -2 -14   2  408.43   40.88
   2 -14  -2  532.62   98.81
  -1 -14   2   36.87   42.69
   1 -14  -2   23.90   24.94
  -1 -14   2   33.40   14.24
   0 -14   2  539.70   75.14
   0 -14  -2  479.80   96.57
   0 -14   2  597.53  145.18
  -1 -14  -2  337.40   81.31
   1 -14   2  335.06   73.57
   1 -14   2  479.45  122.52
   2 -14   2  360.75   80.73
   2 -14   2  311.81  102.45
  -2 -14  -2  216.93   65.78
  -3 -14  -2  219.27   61.20
   3 -14   2  292.09   81.76
   3 -14   2  263.47   93.62
   4 -14   2  -18.39   24.45
   4 -14   2   19.77   30.36
   5 -14   2  578.85  134.04
   6  14   2   91.32   53.41
   6 -14   2  260.70   92.51
   7  14   2   97.15   52.54
   8  14   2   99.40   54.45
   9 -15  -2  126.10   76.53
   9 -15  -2  102.52   53.58
   8 -15  -2  -53.50   35.26
   8 -15  -2  -56.32   52.42
   7 -15  -2  405.73  134.61
   7 -15  -2  338.64   80.84
   6 -15  -2  975.37  203.86
   6 -15  -2  845.50  125.26
  -6 -15   2  978.31  173.15
   5 -15  -2   66.20   34.70
   5 -15  -2  105.49   54.82
  -5 -15   2   -6.86   20.36
  -4 -15   2  284.87   96.60
   4 -15  -2  187.72   60.41
   3 -15  -2  119.84   46.95
  -3 -15   2  134.58   73.14
   2 -15  -2  426.51   87.09
  -2 -15   2  415.67  122.68
  -1 -15   2 1312.05  101.19
   1 -15  -2 1553.69  174.42
   0 -15   2  252.66   55.76
   0 -15   2  269.53   98.63
   0 -15  -2  261.86   73.42
   1 -15   2  156.05   53.15
  -1 -15  -2  255.72   74.17
   1 -15   2  178.18   84.81
   2 -15   2  134.44   70.68
   2 -15   2  216.24   71.93
  -2 -15  -2  187.57   62.77
   3 -15   2  323.29   90.73
   3 -15   2  225.75   95.83
  -3 -15  -2  189.00   59.60
  -4 -15  -2  819.84  124.82
   4 -15   2 1038.61  174.58
   4 -15   2 1242.63  219.92
   5 -15   2  397.46  111.92
   6  15   2   12.82   34.01
   6 -15   2    7.30   37.74
   7  15   2  106.80   63.46
   8  15   2   34.31   26.64
   9 -16  -2   68.72   46.28
   8 -16  -2   19.66   11.39
   8 -16  -2    5.10   23.24
   7 -16  -2  202.18  100.62
   7 -16  -2  137.54   53.28
   6 -16  -2   28.00   17.45
   6 -16  -2   13.58   26.84
   5 -16  -2  489.14  147.86
  -5 -16   2  546.04  139.24
   5 -16  -2  395.50   85.19
   4 -16  -2   62.69   32.36
  -4 -16   2   72.15   35.37
  -3 -16   2   63.89   33.71
   3 -16  -2   76.19   37.75
   2 -16  -2  264.16   69.65
  -2 -16   2  393.95  123.72
   1 -16  -2    5.30   16.91
  -1 -16   2   23.63   30.46
   0 -16  -2  669.48  119.23
   0 -16   2  759.77  171.29
   1 -16   2  -10.66   42.25
  -1 -16  -2  115.81   50.91
   2 -16   2   34.94   23.45
  -2 -16  -2   19.48   20.28
   2 -16   2   22.92   18.61
   3 -16   2  306.59   87.48
   3 -16   2  372.90  122.09
  -3 -16  -2  290.45   78.12
   4 -16   2   87.60   55.68
   4 -16   2   79.23   59.35
  -4 -16  -2   -6.36   21.07
  -5 -16  -2  211.33   67.84
   5 -16   2  234.60   90.94
   6  16   2   83.26   54.74
   7  16   2   71.41   49.26
   8 -17  -2  -26.64   27.46
   7 -17  -2  -15.07   16.33
   7 -17  -2   75.19   81.00
   6 -17  -2  197.76   63.68
   6 -17  -2  240.28  105.24
   5 -17  -2   49.81   31.94
  -5 -17   2   59.31   71.20
   5 -17  -2  -34.66   42.64
   4 -17  -2   29.98   29.15
  -4 -17   2  -77.05   57.67
  -3 -17   2   92.68   63.33
   3 -17  -2  -15.80   18.81
  -2 -17   2  -46.78   46.95
   2 -17  -2    5.35   10.74
   1 -17  -2  328.29   82.14
  -1 -17   2  381.63  122.07
   0 -17  -2  -20.34   22.32
   0 -17   2 -105.98   69.14
   1 -17   2   47.68   55.47
  -1 -17  -2  -61.74   38.32
  -2 -17  -2  -11.02   28.56
   2 -17   2   25.02   41.32
  -3 -17  -2   89.49   43.54
   3 -17   2  -42.06   46.85
   4 -17   2  319.02  116.02
  -4 -17  -2  210.83   70.15
   5  17   2 -136.87   67.63
  -5 -17  -2   18.11   22.30
  -6 -17  -2    3.95   19.57
   6  17   2   10.28   20.07
   7  17   2    1.78   43.28
   7 -18  -2   -3.67   12.59
   6 -18  -2   -2.78   15.71
   5 -18  -2  113.38   46.67
   5 -18  -2  -48.84   53.76
   4 -18  -2   42.80   46.90
  -4 -18   2  -11.72   42.09
   4 -18  -2   11.20   14.28
  -3 -18   2   41.71   59.54
   3 -18  -2   29.38   25.77
  -2 -18   2  128.77   76.75
   2 -18  -2   78.04   39.61
   1 -18  -2  -18.45   24.42
  -1 -18   2  -10.30   77.16
   0 -18  -2   59.72   36.99
   0 -18   2  129.17   67.23
  -1 -18  -2  -24.89   30.44
   1 -18   2   55.77   46.65
  -2 -18  -2   14.68   24.19
   2 -18   2   -5.74   49.56
   3 -18   2   29.80   41.96
  -3 -18  -2   60.56   46.79
  -4 -18  -2   54.97   34.52
   5  18   2  -12.17   40.96
   6  18   2  104.04   68.75
   6 -19  -2  117.83   52.51
   5 -19  -2  -43.11   30.61
   4 -19  -2  136.86   52.83
  -3 -19   2  241.16  109.70
   3 -19  -2   20.63   23.52
   2 -19  -2   19.31   24.21
  -2 -19   2  -24.04   40.97
  -1 -19   2  137.14   70.40
   1 -19  -2  112.26   50.52
   0 -19   2   89.98   61.72
   0 -19  -2   57.21   36.79
  -1 -19  -2  168.36   64.48
   1 -19   2   87.47   53.52
   2 -19   2   68.99   47.93
   5 -20  -2  176.35   63.98
   4 -20  -2   69.25   39.99
   3 -20  -2  111.98   49.57
  -3 -20   2  114.44  101.06
  -2 -20   2  255.55  114.94
  -1 -20   2  -75.81   67.83
   0 -20   2  290.50  125.94
   1 -20   2 -127.57   89.83
  15   0  -3  -72.11   44.93
  14   0  -3  -35.94   33.00
  13   0  -3   15.47   17.94
  12   0  -3   -0.90   13.00
  11   0  -3   18.42   27.44
  10   0  -3    6.80   22.23
   9   0  -3   -6.18   18.90
   8   0  -3   -4.43   19.61
  -7   0   3   -4.06    7.51
   7   0  -3    0.33    7.40
   6   0  -3  -16.03   10.56
   6   0  -3   12.80    9.01
  -5   0   3   -3.13    6.72
   5   0  -3    0.07    7.83
  -4   0   3   10.39    9.50
   4   0  -3    9.80    8.18
  -3   0   3   -4.54   13.44
   3   0  -3   -1.64   11.09
   2   0  -3   15.34   17.01
   2   0  -3    2.51    9.31
  -1   0   3   -2.69    8.47
   1   0  -3   -0.68    6.60
   0   0   3   -0.48   13.70
   1   0   3   -6.24    9.08
   2   0   3   -4.41   14.75
   3   0   3  -23.83   18.08
   4   0   3  -20.50   17.85
   5   0   3  -11.97   15.40
   6   0   3    2.33    9.00
   7   0   3    0.59   14.94
   8   0   3   -0.67   15.48
   9   0   3   25.12   30.40
  10   0   3   18.70   14.56
  11   0   3  -19.55   26.29
  15   1  -3   59.45   45.12
  15  -1  -3   66.22   46.60
  14  -1  -3   13.12   14.55
  14   1  -3   10.74   22.53
  13   1  -3  -40.65   36.12
  13  -1  -3  -11.48   18.73
  12  -1  -3   16.30   11.61
  12  -1  -3   28.22   28.72
  11   1  -3  -10.73   27.15
  11  -1  -3   28.79   21.01
  10   1  -3  170.00   56.78
  10  -1  -3  142.97   56.23
   9  -1  -3  246.46   60.09
   9   1  -3  318.03   70.47
   8   1  -3  231.51   54.15
   8  -1  -3  285.61   56.52
  -8  -1   3  229.35   53.53
  -7  -1   3  126.61   37.35
  -7   1   3  113.57   38.99
   7   1  -3   65.29   22.51
   7  -1  -3  101.17   25.26
   7  -1  -3   78.98   24.25
   6  -1  -3   11.47   11.97
  -6  -1   3   14.56   12.64
   6   1  -3   16.15   12.02
   6  -1  -3    6.47    6.13
  -5  -1   3   29.59   15.57
  -5   1   3    8.95   10.28
   5  -1  -3   25.86   14.36
   5   1  -3   15.55   11.24
   4   1  -3 1320.43   80.76
   4  -1  -3 1342.40   99.52
  -4  -1   3 1272.86  113.82
  -4   1   3 1345.80  128.66
   3   1  -3  757.56   67.42
   3  -1  -3  762.34   85.35
  -3   1   3  799.48  103.08
  -3  -1   3  666.59   80.59
   3  -1  -3  811.51   85.87
   2   1  -3   19.27   17.66
   2  -1  -3   22.33   18.13
   2   1  -3   28.45   16.10
   2  -1  -3    1.06    6.77
   1  -1  -3   15.40   11.24
  -1   1   3   25.21   18.27
  -1  -1   3    4.09    9.25
   0  -1   3    7.20    9.98
   0   1   3   45.41   24.33
   0  -1  -3   42.86   20.12
   1  -1   3 1061.11  113.99
   1   1   3 1022.78  105.96
   2   1   3  693.81   91.20
   2  -1   3  732.70   96.62
   3  -1   3  179.41   51.42
   3   1   3  160.37   47.02
   4  -1   3   14.40   20.48
   4   1   3   20.63    6.45
   5  -1   3   88.37   40.11
   5   1   3   90.60   38.15
   6  -1   3  220.33   62.61
   6   1   3  291.99   73.66
   7  -1   3  126.35   51.44
   7   1   3  201.87   64.84
   8  -1   3  260.80   77.82
   8   1   3  285.88   79.25
   9  -1   3   50.23   28.17
   9   1   3  -46.58   35.79
  10  -1   3    2.14   13.49
  10   1   3   -0.34   20.40
  11  -1   3  -12.32   21.73
  11   1   3   63.83   34.28
  15   2  -3  -76.82   54.80
  14  -2  -3   21.14   23.31
  14   2  -3   -3.35   17.09
  13  -2  -3  -17.10   25.25
  13  -2  -3  -11.10   30.54
  12  -2  -3   -1.96   25.88
  12  -2  -3  -28.78   25.15
  11  -2  -3  247.93   78.62
  11  -2  -3  231.98   68.72
  10   2  -3   -8.35    7.44
  10  -2  -3  -40.51   29.59
   9   2  -3  184.35   54.27
   9  -2  -3  136.60   46.46
   8  -2  -3  239.91   50.42
   8   2  -3  174.26   50.89
  -8  -2   3  171.98   43.79
   8  -2  -3  159.82   37.50
  -7   2   3   -2.28   10.30
   7   2  -3   -4.04    5.22
   7  -2  -3   -3.50   10.16
   7  -2  -3  -11.18   10.50
   6   2  -3  428.37   52.19
   6  -2  -3  408.65   58.55
  -6  -2   3  386.52   59.98
  -6   2   3  314.65   66.50
   5  -2  -3   84.40   27.88
   5   2  -3   77.66   18.93
  -5  -2   3   90.96   28.63
   4   2  -3  896.71   59.12
   4  -2  -3  809.65   84.50
  -4  -2   3  821.03   84.27
  -4   2   3  936.93  113.55
   3   2  -3  484.72   45.51
   3  -2  -3  413.01   70.96
  -3  -2   3  534.07   64.95
   3  -2  -3  491.79   59.02
   2  -2  -3    6.10    7.15
   2   2  -3    8.10    5.16
   2  -2  -3   -7.92   15.50
  -1   2   3   -0.65    8.79
   1  -2  -3   10.67   11.42
   0  -2   3  469.77   78.41
   0   2   3  503.92   67.64
   0  -2  -3  572.71   60.31
   1  -2   3 1212.18  122.15
   1   2   3 1397.02  120.39
  -1  -2  -3 1259.60  101.03
   2  -2   3  393.98   71.87
   2   2   3  357.25   63.27
   3  -2   3   49.70   22.92
   3   2   3   70.84   27.99
  -4   2  -3  139.98   51.08
   4   2   3  177.34   49.86
   4  -2   3  187.13   52.96
   5  -2   3  308.69   69.92
   5   2   3  226.15   64.11
   6  -2   3  390.77   84.52
   6   2   3  438.29   91.81
   7  -2   3   43.89   30.29
   7   2   3   12.18   13.15
   8  -2   3   60.75   38.09
   8   2   3    8.97   15.90
   9  -2   3  203.91   72.15
   9   2   3  200.06   73.82
  10  -2   3   62.62   42.87
  10   2   3  117.15   59.68
  11   2   3   25.80   32.89
  11  -2   3   -1.27   17.56
  14   3  -3   14.71   25.23
  14  -3  -3   16.98   25.58
  13  -3  -3  256.08   90.67
  13  -3  -3  131.54   49.39
  12  -3  -3  -40.53   27.46
  12  -3  -3    5.46   11.28
  11  -3  -3  176.19   69.72
  11  -3  -3  243.11   62.92
  10  -3  -3   65.74   33.27
  10  -3  -3   95.11   37.78
   9   3  -3   24.43   24.13
   9  -3  -3  144.44   45.48
   8  -3  -3  576.70   79.46
  -8  -3   3  469.12   71.90
   8   3  -3  438.71   76.13
   7  -3  -3   -1.39   11.15
   7   3  -3   -3.19   11.79
   7  -3  -3   -7.12    9.50
   6   3  -3  956.30   87.35
   6  -3  -3 1182.18  105.29
  -6  -3   3 1037.91   93.00
  -6   3   3 1041.20  125.47
  -5  -3   3   21.84   13.75
   5  -3  -3   30.89   15.49
   5   3  -3   33.91   12.25
   4   3  -3  634.14   43.92
   4  -3  -3  609.56   80.07
  -4  -3   3  552.56   64.35
   3   3  -3  567.08   40.00
   3  -3  -3  552.41   51.73
   3  -3  -3  416.49   69.16
   3   3  -3  552.43   45.05
  -2   3   3    1.81    6.97
   2   3  -3    2.96    6.67
   2  -3  -3    3.10   15.32
   2  -3  -3    2.90    2.99
   1  -3  -3 1923.54   96.68
  -1   3   3 1837.26  120.11
   0  -3   3   -8.64   17.82
   0   3   3   17.58   14.84
   0  -3  -3    4.24    5.38
   1  -3   3 1415.57  134.74
   1   3   3 1783.85  131.42
  -1  -3  -3 1597.99  117.36
   2  -3   3  108.61   42.73
   2   3   3  106.38   33.29
  -3   3  -3  122.26   39.62
   3  -3   3  140.25   42.48
   3   3   3  105.21   33.25
  -4   3  -3  799.43  117.40
   4  -3   3  849.35  113.01
   4   3   3  780.38  107.87
  -4   3  -3  740.78  106.32
   5  -3   3   22.76   22.48
   5   3   3  -32.70   24.42
   6  -3   3  826.06  119.92
   6   3   3  919.19  135.46
   7  -3   3  -54.76   33.12
   7   3   3   -6.89    9.54
   8  -3   3  217.69   70.21
   8   3   3  282.65   83.60
   9  -3   3   66.70   40.21
   9   3   3  163.95   68.65
  10  -3   3   30.49   21.05
  10   3   3   83.14   52.80
  11  -3   3   30.69   38.08
  11   3   3   38.19   52.77
  14  -4  -3   62.72   58.08
  13  -4  -3   50.91   36.56
  13  -4  -3   28.00   25.79
  12  -4  -3   21.85   18.77
  12  -4  -3   -4.09    9.35
  11  -4  -3   -7.52   26.42
  11  -4  -3   -0.08   15.69
  10  -4  -3   60.13   39.75
  10  -4  -3  116.41   38.76
   9  -4  -3  199.52   51.24
   9  -4  -3  267.75   62.18
   9  -4  -3  226.85   50.79
   8  -4  -3   26.68   16.94
  -8  -4   3   12.80   15.46
   7  -4  -3  167.88   43.83
   7   4  -3  195.11   44.72
  -7  -4   3  218.69   44.52
   6   4  -3    4.05    6.09
   6  -4  -3    9.46    9.99
  -6  -4   3   -2.93    6.28
   5   4  -3  469.67   52.85
   5  -4  -3  432.74   67.69
  -5  -4   3  452.35   56.33
   4   4  -3  164.66   23.38
   4  -4  -3  175.97   47.40
   4  -4  -3  204.51   29.45
  -4  -4   3  166.69   33.12
   3  -4  -3   -8.54   12.12
   3   4  -3    3.51    3.31
   3  -4  -3   -0.10    2.17
   3   4  -3    1.19    3.56
   2   4  -3 1275.45   57.28
   2  -4  -3 1420.79  143.65
  -2   4   3 1200.70   90.65
   2  -4  -3 1342.99   66.04
   2   4  -3 1257.05   88.47
   1  -4  -3    3.62   15.35
  -1   4   3    6.41   10.16
   1  -4  -3    4.63    6.10
   1   4  -3   -4.29    9.92
   0   4   3  325.83   52.90
   0  -4  -3  357.97   50.58
   0  -4   3  330.70   69.83
  -1  -4  -3    1.94   11.44
  -1   4  -3   -3.57    9.97
   1  -4   3   -3.54    9.42
   1   4   3   -2.74   15.35
   2  -4   3   19.53   14.23
  -2   4  -3   21.83   17.53
   2   4   3    4.98   16.83
   3  -4   3 1287.91  138.00
   3   4   3 1135.23  124.45
  -3   4  -3 1147.00  122.75
  -3   4  -3 1207.34  130.56
   4   4   3    9.82   15.25
   4  -4   3    7.19   16.20
  -4   4  -3   16.12   20.09
   5  -4   3    9.36   10.17
   5   4   3   41.06   34.67
   6  -4   3   72.39   31.54
   6   4   3   53.48   38.92
   7  -4   3   40.53   35.46
   7   4   3   10.40   22.01
   8  -4   3  317.79   83.32
   8   4   3  330.48   93.72
   9  -4   3   -5.67   25.90
   9   4   3    4.31   11.89
  10  -4   3   86.22   49.39
  10   4   3   98.40   56.09
  11  -4   3  -40.67   38.26
  11   4   3   89.67   53.76
  13  -5  -3   65.99   54.46
  12  -5  -3   58.12   54.61
  12  -5  -3   24.04   18.70
  11  -5  -3   37.63   25.72
  11  -5  -3   39.69   19.68
  10  -5  -3   23.34   15.49
  10  -5  -3   -3.35   15.04
   9  -5  -3  126.29   43.80
   9  -5  -3  108.05   42.59
   9  -5  -3  130.97   33.66
   8  -5  -3   14.59   15.90
   8  -5  -3   -3.76    6.21
   7  -5  -3    8.38    8.04
  -7  -5   3    9.74    6.92
   7  -5  -3   16.60    5.96
  -6  -5   3  409.14   52.80
   6  -5  -3  388.06   40.88
   6  -5  -3  425.44   69.79
  -5  -5   3   -0.51    8.08
   5  -5  -3   40.02   23.12
   4  -5  -3   98.61   37.41
  -4  -5   3  150.19   26.90
   3  -5  -3   36.78   19.68
   3  -5  -3   41.43    7.85
   2  -5  -3   -6.16   23.05
  -2   5   3   -0.03    3.00
   2   5  -3    5.74    7.81
   2  -5  -3    1.44    2.39
   1   5  -3  817.08   48.52
   1  -5  -3  953.88  118.05
  -1   5   3  840.61   77.88
   1   5  -3  753.49   82.34
   0   5  -3    1.54    9.22
   0   5  -3   -2.03    6.74
   0   5   3   -3.11    7.01
  -1   5  -3    0.77    3.82
  -1   5  -3   -0.49   15.65
   1   5   3    0.23   11.01
   1  -5   3   -7.09   13.56
  -2   5  -3  344.30   57.26
   2  -5   3  411.44   78.77
  -2   5  -3  381.66   76.60
   2   5   3  320.30   61.00
  -2   5  -3  340.70   67.98
  -3   5  -3   16.01   20.04
   3  -5   3   -1.19   13.62
  -3   5  -3   19.38   16.49
   3   5   3    9.09   16.42
   4   5   3  416.61   87.02
  -4   5  -3  335.72   64.10
   4  -5   3  415.47   82.37
   5  -5   3   25.16   16.12
   5   5   3   -0.94   14.80
   6  -5   3   11.95    8.75
   6   5   3   41.33   29.71
   7  -5   3  187.84   63.06
   7   5   3  151.85   56.51
   8  -5   3   32.29   30.77
   8   5   3   20.11   30.60
   9  -5   3   -7.67   22.22
   9   5   3  -37.09   41.28
  10   5   3   29.79   14.70
  10  -5   3   42.86   33.62
  11  -5   3  -31.37   31.41
  11   5   3  -11.61   27.17
  13  -6  -3   24.56   27.73
  12  -6  -3   11.34   25.36
  11  -6  -3  -43.26   35.51
  11  -6  -3    8.44   12.28
  10  -6  -3   36.13   26.33
  10  -6  -3    9.28    5.40
   9  -6  -3   16.41    9.62
   9  -6  -3   -5.96   17.04
  -9  -6   3   -0.43   17.94
   9  -6  -3   17.20    8.68
   8  -6  -3    9.11   14.73
   8  -6  -3   10.57   14.01
   8  -6  -3   12.79    8.89
   7  -6  -3    6.44   14.31
   7  -6  -3   25.68   10.97
   7  -6  -3   13.07    8.10
  -7  -6   3  -17.77    9.49
   6  -6  -3   -0.25    2.16
   6  -6  -3   12.75    8.38
  -6  -6   3    4.24    8.41
  -5  -6   3    5.06    5.27
   5  -6  -3    4.21    8.68
   4  -6  -3  -21.84   18.51
  -4  -6   3   13.80    7.65
   3  -6  -3   48.66   34.31
   2  -6  -3  -25.32   20.43
  -2   6   3   -1.23    9.80
   1  -6  -3    7.27   17.96
   1   6  -3    1.65    2.00
  -1   6   3    2.37   19.08
   1   6  -3  -35.96   19.40
   0   6  -3   -1.80    4.65
   0   6   3   -1.88    7.01
  -1   6  -3   29.15   12.29
  -1   6  -3    1.61   11.28
   1   6   3   30.84   18.49
  -1   6  -3   26.65   18.46
  -2   6  -3   62.18   19.50
   2  -6   3   79.85   35.44
  -2   6  -3   45.12   28.70
  -2   6  -3   25.78   32.37
   2   6   3   31.34   20.05
   3  -6   3   25.52   23.36
  -3   6  -3    0.93   12.32
  -3   6  -3   21.99   24.81
   3   6   3   12.72   13.10
  -4   6  -3   10.07   10.47
   4  -6   3   -7.88   24.11
   4   6   3  -13.27   17.16
   5  -6   3   12.81   21.57
   5   6   3    8.58   19.97
   6  -6   3   56.93   29.86
   6   6   3   35.17   28.27
   7  -6   3   16.43    7.54
   7   6   3   49.41   38.79
   8  -6   3   15.05   20.56
   8   6   3   38.97   31.22
   9  -6   3    5.60   22.45
   9   6   3   18.15   12.87
  10  -6   3  -47.44   35.84
  10   6   3   -8.21   20.88
  11  -6   3    4.24   14.51
  13  -7  -3  136.81   76.90
  12  -7  -3   82.13   59.68
  11  -7  -3  145.45   64.61
  10  -7  -3   14.35   12.80
  10  -7  -3   20.62   26.53
  10  -7  -3   11.77   28.38
   9  -7  -3   18.39    8.23
   9  -7  -3    6.99    9.16
  -9  -7   3  -11.59   15.90
   9  -7  -3   13.54   18.71
   8  -7  -3  181.64   62.65
   8  -7  -3  168.21   48.73
   8  -7  -3  144.41   25.51
   7  -7  -3  235.40   24.59
   7  -7  -3  227.05   56.40
   7  -7  -3  283.26   78.86
  -7  -7   3  228.28   41.96
   6  -7  -3  857.35  107.58
  -6  -7   3  893.13   72.42
  -5  -7   3   43.98   15.45
   5  -7  -3   73.22   33.42
   4  -7  -3    2.31    9.63
   3  -7  -3   19.73   26.94
  -2   7   3  266.42   35.11
   2  -7  -3  233.05   64.85
   1  -7  -3 1605.81  165.29
  -1   7   3 1496.33   97.47
   1   7  -3 1514.00  172.13
   0   7  -3  185.28   22.51
   0   7  -3  149.24   53.48
   0   7  -3  235.66   55.75
   0   7   3  186.10   38.77
  -1   7  -3  159.39   54.93
  -1   7  -3  148.72   24.47
   1   7   3  145.88   38.19
  -1   7  -3  147.18   44.79
   2  -7   3   -2.91   14.11
  -2   7  -3   10.71    8.44
  -2   7  -3  -18.54   18.93
   2   7   3   20.22   14.61
   3  -7   3  102.25   36.30
  -3   7  -3  100.47   26.25
   3   7   3   42.06   20.87
  -4   7  -3  887.88   87.43
   4  -7   3  979.68  135.52
   4   7   3  865.18  130.77
   5  -7   3  217.03   62.82
   5   7   3  188.49   70.43
   6  -7   3  228.06   68.63
   6   7   3  170.13   67.36
   7  -7   3   27.33   26.26
   7   7   3   -6.82   27.88
   8  -7   3   34.25   28.17
   8   7   3   23.13   21.27
   9  -7   3  237.37   75.64
   9   7   3   41.00   27.91
  10   7   3  112.79   61.05
  10  -7   3   79.66   45.73
  11  -7   3   33.15   20.74
  12  -8  -3   -1.56   30.67
  11  -8  -3   -6.98   27.82
  10  -8  -3   70.67   35.28
  10  -8  -3  176.74   65.67
   9  -8  -3  138.32   49.86
   9  -8  -3  163.39   28.35
   9  -8  -3  226.86   72.96
   8  -8  -3   44.33   11.02
   8  -8  -3   54.94   31.26
   8  -8  -3  108.43   58.50
   7  -8  -3  180.77   68.07
   7  -8  -3  202.53   56.54
  -7  -8   3  162.69   34.89
  -6  -8   3   -0.69    6.25
   6  -8  -3   28.70   22.74
  -5  -8   3  261.60   29.73
  -5  -8   3  283.06   43.73
   5  -8  -3  262.91   62.39
   4  -8  -3  220.60   65.86
  -4  -8   3  243.07   45.30
   3  -8  -3   37.98   29.65
  -3  -8   3   23.48   17.38
   2  -8  -3  863.44  121.50
  -2   8   3  801.25   58.84
   1   8  -3   10.82   13.87
  -1   8   3    4.72   10.30
   1  -8  -3    3.75   10.17
   0   8  -3  164.97   22.91
   0   8  -3   88.40   41.26
   0  -8  -3  102.64   41.11
   0   8   3  194.52   42.80
  -1   8  -3    3.21   22.53
  -1   8  -3   29.88   24.54
  -1   8  -3   37.44   12.89
   1   8   3   37.00   23.65
  -2   8  -3   11.03   12.22
  -2   8  -3  -14.28    9.17
   2   8   3    7.02    7.69
  -3   8  -3  724.19   72.04
   3   8   3  664.82  110.27
   3  -8   3  676.50  113.62
   4  -8   3  -13.99   23.15
  -4   8  -3    9.57   11.46
   4   8   3   -6.43   15.76
   5  -8   3   -1.66    8.10
   5   8   3   -2.57   14.37
   6  -8   3   -3.11   18.35
   6   8   3   18.87   20.59
   7  -8   3   26.69   36.68
   7   8   3  -31.93   40.31
   8  -8   3  275.28   81.29
   8   8   3  174.23   75.72
   9   8   3  -48.39   50.59
   9  -8   3    1.35   11.46
  10  -8   3   53.03   37.61
  10   8   3   61.88   52.12
  11  -8   3  -26.59   34.20
  12  -9  -3   -4.35   20.10
  11  -9  -3   65.65   49.12
  10  -9  -3   48.75   33.94
  10  -9  -3    8.03   26.82
   9  -9  -3  -35.09   32.70
   9  -9  -3   11.75   19.10
   8  -9  -3  197.24   57.14
  -8  -9   3  266.41   48.96
   8  -9  -3  320.84   97.49
   7  -9  -3   -2.85    9.40
  -7  -9   3    1.70    3.16
  -6  -9   3  305.38   38.19
  -6  -9   3  316.25   48.62
   6  -9  -3  363.61   76.19
  -5  -9   3   12.53   12.14
   5  -9  -3    0.56   10.64
   4  -9  -3  133.78   48.93
  -4  -9   3  159.63   42.24
  -3  -9   3  224.35   53.12
   3  -9  -3  188.77   60.71
  -2  -9   3   32.63   24.14
   2  -9  -3   34.53   25.78
  -2   9   3   12.14    6.70
  -1   9   3  442.69   54.27
   1  -9  -3  327.94   75.56
   0  -9  -3   69.04   33.76
   0   9  -3   33.00   11.82
   0   9   3   58.78   26.60
  -1   9  -3  365.18   42.86
   1   9   3  247.84   55.83
  -2   9  -3   80.57   22.30
   2   9   3   69.06   34.23
  -3   9  -3  132.58   31.00
   3   9   3  107.54   44.75
   4  -9   3  280.79   77.12
  -4   9  -3  312.09   53.29
   4   9   3  269.44   70.60
   5  -9   3   73.50   43.07
   5   9   3   49.81   27.37
   6  -9   3  294.43   81.62
   6   9   3  257.52   83.33
   7  -9   3  -10.79   18.56
   7   9   3    8.85   26.67
   8  -9   3   77.09   49.57
   8   9   3  101.19   52.14
   9  -9   3  160.82   64.96
   9   9   3   93.73   58.29
  10  -9   3    1.18   26.52
  10   9   3   64.20   54.25
  11  -9   3   76.92   46.01
  12 -10  -3    6.71   24.46
  11 -10  -3   84.43   59.57
  11 -10  -3  150.40   70.84
  10 -10  -3    9.20   31.09
  10 -10  -3    0.67   16.60
   9 -10  -3   -9.68   20.89
   9 -10  -3   -1.95   22.23
   8 -10  -3  101.49   36.27
   8 -10  -3  189.27   81.31
   7 -10  -3    3.74   31.43
  -7 -10   3   21.42   13.67
   7 -10  -3  -29.57   23.33
  -7 -10   3   19.94   10.31
   6 -10  -3   62.11   35.57
  -6 -10   3   38.32   21.03
  -6 -10   3   44.44   11.65
  -5 -10   3    5.74   14.80
   5 -10  -3   43.94   27.93
   4 -10  -3  241.70   66.51
  -4 -10   3  187.51   50.99
  -3 -10   3  359.02   71.81
   3 -10  -3  401.55   86.14
  -2 -10   3    5.86   16.58
   2 -10  -3    1.22   15.25
  -2  10   3   12.10    4.67
  -1 -10   3   33.80   20.85
  -1  10   3   18.24   13.03
   1 -10  -3    4.15   15.76
   0  10  -3   88.89   20.41
   0  10   3  123.32   38.02
   0 -10  -3   72.25   38.24
  -1  10  -3  412.83   51.11
  -1 -10  -3  289.68   66.98
   1  10   3  314.39   66.43
   2  10   3  203.52   58.43
  -2  10  -3  134.62   30.72
   3  10   3  -11.99   10.55
  -3  10  -3    5.88    6.88
   4  10   3  146.81   58.86
   5  10   3   97.03   49.39
   5 -10   3  134.25   54.76
   6 -10   3  175.80   66.59
   6  10   3  161.73   69.31
   7 -10   3   -4.59   23.66
   7  10   3  -14.69   15.84
   8 -10   3   12.33   21.06
   8  10   3  -21.51   32.71
   9 -10   3  181.39   70.60
   9  10   3  157.24   77.80
  10 -10   3   -5.03   16.84
  11 -10   3   32.18   35.80
  11 -11  -3  -14.53   26.50
  11 -11  -3   17.44   31.88
  10 -11  -3  -20.24   28.90
  10 -11  -3   -2.80   12.17
   9 -11  -3  -83.22   54.51
   9 -11  -3   37.19   30.84
   8 -11  -3   28.33   20.11
   8 -11  -3   43.90   31.87
   7 -11  -3   91.11   40.00
   7 -11  -3  145.27   68.66
  -7 -11   3  127.66   39.15
  -6 -11   3   58.65   27.91
  -6 -11   3   40.35   11.48
   6 -11  -3   12.20   21.64
  -6 -11   3   45.38   10.84
  -5 -11   3  109.70   40.81
   5 -11  -3   85.77   43.43
   4 -11  -3    9.30   12.71
  -4 -11   3    3.87   12.11
   3 -11  -3   36.56   28.53
  -3 -11   3   39.06   26.50
   2 -11  -3  112.57   48.10
  -2  11   3  140.13   25.05
  -2 -11   3  101.71   40.92
   1 -11  -3  162.10   56.29
  -1 -11   3  137.22   55.81
  -1  11   3   90.03   25.40
   0  11  -3  312.01   43.75
   0 -11  -3  378.41   83.18
   0  11   3  281.02   56.04
   0 -11   3  312.50   82.73
  -1 -11  -3   36.29   22.16
  -1  11  -3   34.95   16.59
   1  11   3   19.56    8.20
  -2  11  -3   19.26   16.15
   2  11   3    9.74   11.01
  -3  11  -3   17.50   14.83
   3  11   3  -62.38   36.92
   4  11   3   44.10   26.44
   5  11   3  201.54   73.09
   6 -11   3  -51.91   37.05
   6  11   3  -14.41   45.16
   7 -11   3   39.07   37.21
   7  11   3  -12.21   22.41
   8 -11   3    9.20   25.79
   8  11   3  -12.51   25.10
   9 -11   3   61.72   44.70
   9  11   3   35.73   42.59
  10 -11   3   47.08   44.95
  11 -12  -3   45.65   45.31
  11 -12  -3  -11.06   26.33
  10 -12  -3   20.94   52.43
  10 -12  -3   -2.93    9.05
   9 -12  -3    7.21   20.51
   9 -12  -3    5.30   13.63
   8 -12  -3  -32.55   25.88
   8 -12  -3  -17.69   28.25
   7 -12  -3  -16.09   18.71
   7 -12  -3    5.44   18.08
  -6 -12   3   28.05   20.53
   6 -12  -3   79.44   39.81
  -5 -12   3   23.14    9.33
   5 -12  -3   17.65   10.71
   4 -12  -3  -30.36   24.37
  -4 -12   3    6.82   11.50
  -3 -12   3   15.91   21.39
   3 -12  -3  -27.97   25.15
   2 -12  -3    9.05   17.66
  -2 -12   3    8.54   37.50
  -2  12   3    5.13    5.98
  -1 -12   3   82.72   41.20
   1 -12  -3   80.17   39.89
  -1  12   3   58.41   23.96
   0 -12  -3   55.63   28.89
   0 -12   3   27.36   33.12
   0  12   3   48.09   23.51
  -1  12  -3    6.89    8.70
   1  12   3    3.11   18.02
  -1 -12  -3    9.38   13.83
  -2  12  -3    9.03   11.76
   2  12   3   -9.36   28.32
   3  12   3  -13.18   24.81
   4  12   3  -12.50   29.45
   5  12   3   17.91   22.15
   6  12   3  -13.82   26.14
   7  12   3  -44.41   39.41
   8 -12   3  -15.74   27.09
   8  12   3  -59.93   47.28
   9 -12   3   53.11   46.11
   9  12   3   39.85   31.88
  11 -13  -3  -24.81   34.99
  10 -13  -3   84.48   56.44
  10 -13  -3   40.89   17.87
   9 -13  -3  235.40   74.60
   9 -13  -3  408.20  129.80
   8 -13  -3  108.10   42.20
   8 -13  -3   61.66   50.77
   7 -13  -3  -14.41   58.33
   7 -13  -3   13.87   21.94
  -6 -13   3   13.46   25.14
   6 -13  -3    1.02   17.82
  -5 -13   3   51.29   36.68
   5 -13  -3   93.93   44.38
   4 -13  -3  510.86   98.59
  -4 -13   3  523.50  108.06
  -3 -13   3  310.21   86.21
   3 -13  -3  304.34   81.36
   2 -13  -3  -36.63   28.67
  -2 -13   3   -5.98   25.35
  -2  13   3   11.71    6.29
  -1 -13   3   15.03    9.63
  -1  13   3   -2.39   13.10
   1 -13  -3    8.70   15.45
   0 -13   3   26.80   27.76
   0 -13  -3   24.84   29.56
   0  13   3   -8.69   17.13
  -1 -13  -3  379.28   83.24
   1  13   3  377.18   78.27
  -2 -13  -3  282.27   69.28
   2  13   3  280.74   72.87
   3  13   3   21.11   15.51
   4  13   3    9.54   16.30
   5  13   3  -77.72   47.20
   6  13   3  135.83   63.30
   7  13   3   64.76   43.85
   8  13   3   38.66   33.53
  10 -14  -3  -28.58   37.31
  10 -14  -3  -32.43   32.73
   9 -14  -3  119.85   73.05
   9 -14  -3   34.67   11.96
   8 -14  -3  176.42   86.31
   8 -14  -3  136.66   51.86
   7 -14  -3  -38.08   40.82
   7 -14  -3   16.29   20.92
  -6 -14   3   44.66   32.67
   6 -14  -3  133.12   53.39
  -5 -14   3   97.14   54.63
   5 -14  -3   29.28   24.73
  -4 -14   3   60.40   36.97
   4 -14  -3   86.58   42.50
  -3 -14   3  201.84   79.15
   3 -14  -3  226.73   70.04
   2 -14  -3   35.78   32.28
  -2 -14   3  -26.21   28.90
   1 -14  -3   38.05   26.61
  -1  14   3   23.82   16.14
   0 -14   3  115.96   62.67
   0 -14  -3   64.39   35.15
   0  14   3   84.31   32.29
   1 -14   3  214.59   85.10
  -1 -14  -3  103.14   38.57
   1  14   3  110.80   39.16
  -2 -14  -3   75.84   38.16
   2  14   3   43.29   27.78
  -3 -14  -3   -0.33   20.53
   3  14   3   -5.50   21.61
   4  14   3  -38.04   32.50
   5  14   3   94.88   44.33
   6  14   3   46.79   40.55
   7  14   3   61.93   43.61
   8  14   3    7.67   31.28
   9 -15  -3   98.84   68.52
   9 -15  -3  -11.04   23.43
   8 -15  -3   99.28   67.79
   8 -15  -3   35.85   23.62
   7 -15  -3   47.85   38.31
   7 -15  -3   54.53   54.95
   6 -15  -3   56.10   38.76
  -5 -15   3  -21.97   34.58
   5 -15  -3    0.12   25.79
  -4 -15   3    1.21   35.78
   4 -15  -3   66.29   40.35
   3 -15  -3   11.50   19.68
  -3 -15   3  -13.60   38.82
   2 -15  -3   21.10   17.24
  -2 -15   3   -8.05   20.04
  -1 -15   3  100.05   56.96
   1 -15  -3   56.61   37.40
   0 -15  -3   33.46   33.60
   0  15   3   -3.64   14.51
   0 -15   3   51.41   42.21
   1 -15   3   76.10   51.37
  -1 -15  -3   53.67   36.84
   1  15   3   64.65   34.38
  -2 -15  -3  -12.54   24.61
   2  15   3    9.36   25.68
  -3 -15  -3   -2.66   21.78
   3  15   3    5.96   14.42
  -4 -15  -3   26.89   19.20
   4  15   3   -8.04   20.60
   5  15   3   17.48   13.23
   6  15   3   19.57   17.95
   7  15   3  -15.97   25.54
   8 -16  -3  -43.48   48.13
   8 -16  -3  -25.68   25.40
   7 -16  -3  -14.84   19.72
   7 -16  -3  111.63   72.25
   6 -16  -3  -89.95   64.54
   6 -16  -3   48.91   28.46
   5 -16  -3  176.26   60.86
  -4 -16   3   53.76   44.37
   4 -16  -3   -5.32   22.66
   3 -16  -3   15.78   16.19
  -3 -16   3    4.25   30.75
   2 -16  -3  152.53   60.58
  -2 -16   3  135.24   64.80
  -1 -16   3   57.22   57.63
   1 -16  -3   43.60   36.17
   0 -16   3   50.30   32.10
   0 -16  -3   62.10   30.58
   1 -16   3  113.68   73.68
  -1 -16  -3   63.21   37.67
  -2 -16  -3   29.80   22.66
   2  16   3    0.98   19.07
  -3 -16  -3   79.74   39.08
   3  16   3   20.08   27.27
  -4 -16  -3   14.87   22.24
   4  16   3  -37.82   32.45
  -5 -16  -3   -0.13   20.73
   5  16   3   16.19   36.39
   6  16   3   59.85   49.82
   7  16   3   -8.39   17.98
   7 -17  -3   -2.41    9.89
   6 -17  -3  -32.19   41.65
   6 -17  -3   64.23   38.93
   5 -17  -3  -12.16   17.94
  -4 -17   3  161.59   90.42
   4 -17  -3   39.83   26.11
  -3 -17   3   85.64   61.84
   3 -17  -3  133.84   53.88
   2 -17  -3  108.67   48.39
  -2 -17   3   -3.47   19.27
   1 -17  -3  -59.47   38.67
  -1 -17   3   85.11   45.52
   0 -17   3   -2.19   16.76
   0 -17  -3  -30.58   28.97
  -1 -17  -3   22.48   21.98
  -2 -17  -3  360.25   91.95
  -3 -17  -3   50.35   27.33
  -4 -17  -3    6.85   15.44
  -5 -17  -3   78.02   45.47
   5  17   3  -49.27   38.82
  -6 -17  -3   21.07   23.42
   6  17   3   18.34   36.36
   7 -18  -3    2.09   13.47
   6 -18  -3   53.32   34.86
   5 -18  -3    3.44   18.29
   4 -18  -3   29.63   24.05
  -3 -18   3   34.83   38.87
   3 -18  -3   75.69   41.17
  -2 -18   3   39.57   43.52
   2 -18  -3  -10.72   17.98
   1 -18  -3  -35.51   30.28
  -1 -18   3   62.89   56.23
   0 -18  -3   25.03   17.42
   0 -18   3   46.08   23.37
  -1 -18  -3   18.19   23.32
  -2 -18  -3   30.66   25.10
  -3 -18  -3   13.91   26.94
  -4 -18  -3    4.35   17.85
  -5 -18  -3   11.83   19.54
   5 -19  -3  -15.50   20.34
   4 -19  -3   -1.08    9.50
   3 -19  -3   17.85   24.87
  -3 -19   3   33.80   44.89
  -2 -19   3   95.50   80.99
   2 -19  -3   46.77   36.44
   1 -19  -3  258.73   82.38
  -1 -19   3  106.93   76.98
   0 -19  -3   -4.80   10.86
   0 -19   3    1.45   22.64
  -1 -19  -3   19.21   23.61
  -2 -19  -3   14.55   16.13
  -3 -19  -3   73.14   44.82
   4 -20  -3   35.21   23.89
   3 -20  -3    4.46   11.56
  -2 -20   3  -59.42   43.03
   2 -20  -3   84.59   45.73
   1 -20  -3   49.83   36.23
  -1 -20   3   -0.61   73.34
   0 -20  -3   89.42   50.71
  15   0  -4   71.92   45.18
  14   0  -4   65.99   48.80
  13   0  -4   97.58   46.77
  12   0  -4  602.38  121.96
  11   0  -4   95.12   49.03
  10   0  -4  442.49   87.90
   9   0  -4   27.46   14.50
   8   0  -4  389.63   60.32
   7   0  -4 3650.23  169.37
  -7   0   4 3367.20  240.51
   7   0  -4 3562.49  136.40
   6   0  -4  143.90   34.29
   5   0  -4 1260.66   98.02
  -5   0   4 1160.64  138.53
  -4   0   4   13.39   20.38
   4   0  -4  -21.88   14.67
   3   0  -4  516.97   81.75
   3   0  -4  352.56   64.88
   2   0  -4 9062.30  351.83
   2   0  -4 8737.70  322.07
  -1   0   4  139.47   48.06
   1   0  -4  178.51   44.51
   0   0   4  784.14  110.69
   1   0   4  429.32   81.20
   2   0   4  550.34   93.79
   3   0   4 5809.45  320.86
   4   0   4  134.72   51.63
   5   0   4   60.75   35.23
   6   0   4  351.70   90.47
   7   0   4  317.13   89.10
   8   0   4 1940.60  230.21
   9   0   4   73.97   45.67
  10   0   4   46.63   31.39
  15   1  -4    9.64   19.94
  14  -1  -4   26.90   17.71
  14  -1  -4    9.03   11.69
  13  -1  -4    7.86   19.77
  13  -1  -4   64.00   42.09
  12   1  -4  -21.60   21.36
  12  -1  -4  -32.38   28.84
  11   1  -4  777.79  126.88
  11  -1  -4  776.62  131.45
  10  -1  -4   53.23   34.10
  10   1  -4   57.75   35.48
   9   1  -4  149.13   45.54
   9  -1  -4  194.71   48.64
  -8  -1   4  160.26   52.39
   8   1  -4  214.36   44.39
   8  -1  -4  190.94   43.49
   8  -1  -4  158.39   32.88
  -7  -1   4   -4.21   21.42
   7  -1  -4   14.31    9.89
   7   1  -4   19.19   15.56
  -7   1   4   37.86   27.38
   7  -1  -4   33.04   15.45
   6   1  -4 3191.42  144.49
   6  -1  -4 3146.97  167.68
  -6   1   4 3151.07  235.23
  -5  -1   4  121.96   46.46
   5   1  -4  128.81   28.65
   5  -1  -4  103.91   31.94
   4   1  -4  129.93   31.36
  -4   1   4  185.18   58.09
  -4  -1   4  219.08   56.01
   4  -1  -4  116.66   34.94
   4  -1  -4  149.13   41.55
   3   1  -4 1151.40  104.89
   3  -1  -4  929.58  108.66
   3   1  -4  985.92  122.08
   3  -1  -4 1136.73  111.70
   2  -1  -4  196.70   56.08
   2   1  -4   93.90   32.18
   2   1  -4  121.22   41.82
   2  -1  -4   99.99   33.04
  -1   1   4 4571.14  256.31
   1  -1  -4 4372.81  204.21
   1   1  -4 4783.28  244.14
  -1  -1   4 4311.87  260.43
   0  -1   4  225.59   62.12
   0   1   4  253.98   60.02
   0  -1  -4  266.30   50.92
   1  -1   4   11.34   17.67
   1   1   4   10.30   10.72
   2  -1   4 1600.14  165.46
   2   1   4 1601.22  159.23
  -2  -1  -4 1546.14  137.55
   3  -1   4  281.95   70.92
   3   1   4  254.14   65.29
   4  -1   4 1815.86  183.31
   4   1   4 2036.91  197.53
   5  -1   4  189.72   59.69
   5   1   4  299.02   77.15
   6  -1   4   39.29   28.18
   6   1   4   32.58   29.17
   7  -1   4  659.28  128.99
   7   1   4  551.20  121.50
   8   1   4  152.69   64.81
   8  -1   4   94.58   47.31
   9  -1   4  333.96   99.50
   9   1   4  475.57  121.11
  10  -1   4  128.31   64.34
  10   1   4  142.27   70.85
  15   2  -4   60.60   48.19
  14  -2  -4   19.02   16.15
  14  -2  -4   14.06   23.27
  13  -2  -4  -26.10   30.22
  13  -2  -4  -17.33   21.28
  12  -2  -4  252.19   81.48
  11   2  -4  120.21   49.58
  11  -2  -4   54.55   22.99
  10   2  -4  189.02   54.12
  10  -2  -4   64.48   33.35
   9  -2  -4   54.35   24.04
   9   2  -4   42.89   20.88
   9  -2  -4   73.07   25.53
  -8  -2   4   26.92   21.36
   8  -2  -4    7.32    9.32
   8   2  -4   -0.37   14.15
   8  -2  -4    7.99    8.94
   7   2  -4  916.23   79.37
   7  -2  -4  682.87   81.91
  -6  -2   4  161.26   49.37
  -6   2   4  174.67   55.84
   6   2  -4  166.46   30.27
   6  -2  -4  143.31   39.74
   5  -2  -4  232.06   51.63
   5   2  -4  309.97   40.61
  -5  -2   4  269.63   60.84
  -5   2   4  275.96   73.59
   4   2  -4   74.17   20.35
   4  -2  -4   73.85   30.51
   4  -2  -4  100.81   32.95
   3   2  -4   25.97   12.73
   3  -2  -4   28.48   16.79
   3  -2  -4   55.63   29.11
   2  -2  -4 1521.69  155.10
   2   2  -4 1534.82  125.82
  -2   2   4 1598.32  148.87
   2  -2  -4 1595.09  115.31
  -1  -2   4   21.27   12.47
  -1   2   4    4.42   15.90
   1  -2  -4   32.05   17.93
   0  -2   4  152.11   53.79
   0   2   4  163.74   47.78
   0  -2  -4  197.81   42.45
   1  -2   4   45.63   30.57
   1   2   4   58.83   30.16
   2  -2   4  125.49   42.18
   2   2   4   99.92   40.71
  -2  -2  -4  121.04   39.78
   3  -2   4 1325.89  151.77
   3   2   4 1173.65  141.48
   4  -2   4   10.40   22.49
   4   2   4   32.55   10.52
   5  -2   4   56.35   28.29
   5   2   4   48.19   35.54
   6  -2   4   59.37   32.57
   6   2   4   76.91   47.57
   7  -2   4  181.13   65.80
   7   2   4  173.44   69.03
   8  -2   4  408.42  104.41
   8   2   4  517.25  121.98
   9  -2   4  -15.19   14.44
   9   2   4   41.90   34.23
  10  -2   4   73.05   50.35
  10   2   4   23.79   26.60
  14  -3  -4   51.72   47.54
  13  -3  -4  166.07   73.17
  13  -3  -4  244.63   67.10
  12  -3  -4   53.30   42.84
  12  -3  -4   70.12   37.88
  11  -3  -4   99.43   45.97
  10   3  -4  156.37   50.63
  10  -3  -4  247.85   59.98
   9   3  -4    2.96   13.49
   9  -3  -4   31.51   23.96
  -8  -3   4  333.37   70.01
   8   3  -4  281.80   57.98
   8  -3  -4  306.17   59.26
   8  -3  -4  369.66   69.45
   7  -3  -4  115.73   36.21
   7   3  -4   87.91   24.63
  -6  -3   4   86.38   32.88
   6   3  -4  132.04   26.21
  -6   3   4  112.59   46.14
   6  -3  -4  154.21   43.68
   5  -3  -4   41.94   22.05
   5   3  -4  132.40   23.73
  -5  -3   4   63.88   29.24
   5  -3  -4   72.45   24.91
   5   3  -4  100.29   14.83
  -5   3   4   96.38   49.25
  -4   3   4   10.02   25.09
   4  -3  -4   10.86   11.97
   4  -3  -4   20.07   13.00
   4   3  -4   20.74   10.32
   3   3  -4  283.19   41.35
   3  -3  -4  300.68   45.36
   3  -3  -4  345.84   73.91
   2   3  -4   30.80   14.84
  -2   3   4   -2.28   18.38
   2  -3  -4   15.88   10.04
  -1   3   4  143.99   41.46
   1  -3  -4  165.92   35.18
   0   3   4   -0.08   11.33
   0  -3   4   17.44   20.68
   0  -3  -4   16.29   13.38
   1  -3   4  278.47   70.90
   1   3   4  340.63   69.86
   2  -3   4  215.36   62.18
   2   3   4  205.47   57.49
  -2  -3  -4  172.53   48.03
   3  -3   4   16.02   16.05
   3   3   4   45.24   24.85
   4  -3   4  153.16   58.51
   4   3   4  129.72   44.71
   5  -3   4   20.50   12.02
   5   3   4  -37.86   29.18
   6  -3   4  343.36   86.11
   6   3   4  388.03   93.62
   7  -3   4   80.52   38.81
   7   3   4   79.79   41.62
   8  -3   4   76.87   41.86
   8   3   4   81.82   48.20
   9  -3   4  119.50   59.57
   9   3   4   89.33   49.66
  10  -3   4   -1.31   26.39
  10   3   4   34.85   26.15
  14  -4  -4   67.19   50.32
  13  -4  -4   96.28   64.51
  12  -4  -4   18.81   23.04
  12  -4  -4   47.17   24.92
  11  -4  -4    6.83   18.22
  11  -4  -4  -48.79   26.64
  10  -4  -4  238.46   61.53
  10  -4  -4  242.55   58.29
   9   4  -4  818.54  108.28
   9  -4  -4  908.48  110.98
  -9  -4   4  682.23  104.35
   9  -4  -4  708.70  102.89
   8   4  -4    1.16   15.82
   8  -4  -4   -5.68   14.85
   7   4  -4    3.86    6.08
   7  -4  -4   16.60   13.00
  -6  -4   4  -14.37   13.50
   6   4  -4    3.22    6.44
   6  -4  -4    2.57   15.62
   5   4  -4  629.24   48.65
   5  -4  -4  557.84   64.17
   5  -4  -4  534.91   85.52
  -5  -4   4  489.44   72.42
  -5   4   4  567.42  112.04
   4   4  -4 1330.67   65.02
   4  -4  -4 1309.93  143.99
  -4   4   4 1563.19  186.10
   4  -4  -4 1515.23   92.26
   4   4  -4 1459.30   84.62
   3   4  -4   25.85   10.46
   3   4  -4   24.55   13.68
   3  -4  -4   23.08   32.33
   3  -4  -4   33.93   14.33
  -2   4   4    0.13    7.40
   2  -4  -4   15.86   10.09
   2   4  -4   25.59   13.01
  -1   4   4    2.27   13.20
   1  -4  -4    8.76    8.56
   0  -4   4  991.11  137.63
   0   4   4 1172.61  122.13
   0  -4  -4 1162.80  101.55
   1   4   4  811.88  105.50
   1  -4   4  870.39  128.86
  -2  -4  -4   84.11   36.04
   2   4   4   84.03   41.66
   2  -4   4   11.74   10.85
  -3   4  -4   42.86   26.48
   3  -4   4    6.83   13.87
   3   4   4   20.64   17.85
   4  -4   4    8.17   16.05
   4   4   4    7.55   18.48
   5  -4   4  925.14  138.72
   5   4   4 1199.11  160.31
   6  -4   4  283.56   78.85
   6   4   4  239.83   74.68
   7  -4   4   19.87   16.10
   7   4   4   -9.90   26.59
   8  -4   4  -29.32   28.44
   8   4   4  -13.67   39.25
   9  -4   4    4.48   12.42
   9   4   4  -47.41   42.00
  10  -4   4  339.93  102.19
  10   4   4  392.56  121.62
  13  -5  -4  442.88  122.25
  12  -5  -4   80.62   47.52
  11  -5  -4    3.51   10.92
  11  -5  -4   25.45   15.04
  10  -5  -4   68.93   28.32
  10  -5  -4   36.02   27.14
  10  -5  -4   83.01   27.73
   9  -5  -4  749.35  104.97
  -9  -5   4  743.26  104.85
   9  -5  -4  777.96  117.75
   9  -5  -4  740.39   82.80
   8  -5  -4 1139.79  124.52
   8  -5  -4 1140.09  145.71
   7   5  -4  106.91   31.26
  -7  -5   4   74.80   30.26
   7  -5  -4   56.22   25.04
   6   5  -4  168.81   33.67
   6  -5  -4  209.82   36.78
  -6  -5   4  147.44   40.05
   6  -5  -4  143.74   42.62
   5   5  -4  314.63   37.96
   5  -5  -4  290.28   64.95
   5  -5  -4  408.46   40.99
  -5  -5   4  294.94   49.91
   4   5  -4 2572.16   74.21
   4  -5  -4 2302.49  197.63
   4  -5  -4 2480.80   94.60
   4   5  -4 2300.74  116.39
   3   5  -4 1894.54   63.13
   3  -5  -4 1702.27  174.05
   3  -5  -4 1962.03   88.90
   3   5  -4 1765.59  117.19
  -2   5   4   -4.22   14.75
   2   5  -4   -0.70    4.25
   2   5  -4    2.91    5.84
   2  -5  -4   -2.66    5.13
   2  -5  -4   16.40   18.33
   1  -5  -4  369.33   77.62
   1  -5  -4  391.65   53.13
  -1   5   4  352.25   62.13
   1   5  -4  463.66   69.07
   0   5   4  634.88   87.81
   0  -5  -4  714.10   83.32
   0   5  -4  666.28   88.31
  -1   5  -4 2370.26  156.90
   1  -5   4 2907.52  241.31
   1   5   4 2402.50  181.45
  -1   5  -4 2473.25  182.66
  -2   5  -4 1347.56  130.36
   2  -5   4 1366.46  163.55
   2   5   4 1126.44  130.87
  -3   5  -4  128.06   42.61
   3  -5   4  161.99   53.88
   3   5   4  134.49   46.81
   4  -5   4  304.46   79.46
   4   5   4  373.83   85.22
   5  -5   4  305.04   78.73
   5   5   4  323.78   82.57
   6  -5   4 1160.52  160.37
   6   5   4 1172.99  172.46
   7  -5   4  383.56   92.22
   7   5   4  402.84  104.28
   8  -5   4   72.08   32.79
   8   5   4  211.68   79.78
   9  -5   4  201.52   78.47
   9   5   4  259.23   95.76
  10  -5   4   35.78   45.09
  10   5   4   22.19   36.21
  13  -6  -4   49.27   56.85
  12  -6  -4  114.01   54.25
  11  -6  -4  222.92   68.92
  11  -6  -4  178.23   57.38
  10  -6  -4  472.16   97.50
  10  -6  -4  432.05   56.94
  10  -6  -4  438.60   87.74
   9  -6  -4 1100.95  130.89
  -9  -6   4  810.94  108.96
   9  -6  -4 1133.97  156.20
   9  -6  -4 1091.82   81.14
   8  -6  -4  370.89   42.38
   8  -6  -4  370.41   90.69
   8  -6  -4  387.75   75.20
  -7  -6   4  216.89   50.37
   7  -6  -4  246.55   35.65
   7  -6  -4  242.86   28.33
   7  -6  -4  198.01   54.60
  -6  -6   4   52.52   22.54
   6  -6  -4   75.99   12.81
   6  -6  -4   60.82   31.98
   5  -6  -4 1397.84  153.06
   4  -6  -4 2340.72  208.54
   4  -6  -4 2499.27   71.61
   3   6  -4  532.35   68.19
   3  -6  -4  580.86   47.61
   3  -6  -4  640.57  110.55
   2   6  -4  335.41   27.10
   2   6  -4  360.44   28.47
   2   6  -4  420.90   66.71
  -2   6   4  332.52   58.46
   2  -6  -4  350.97   81.01
   1  -6  -4   26.53   22.49
   1   6  -4   45.94   13.41
  -1   6   4   33.81   18.19
   1   6  -4   77.40   33.16
   0   6  -4 3238.04  145.93
   0   6   4 3099.69  193.04
   0   6  -4 3218.46  208.35
  -1   6  -4 2266.01  140.16
   1  -6   4 2687.01  234.28
   1   6   4 2427.50  180.40
  -1   6  -4 2636.42  201.48
  -2   6  -4  219.18   48.31
   2  -6   4  165.51   61.47
   2   6   4  270.98   63.79
   3  -6   4  177.19   60.28
  -3   6  -4  184.08   48.52
   3   6   4  226.03   63.60
   4  -6   4  176.46   59.86
   4   6   4  265.96   71.70
   5  -6   4 2061.73  213.53
   5   6   4 2119.34  218.82
   6  -6   4  877.64  145.64
   6   6   4  890.98  150.17
   7  -6   4    8.63   12.63
   7   6   4   18.97   10.85
   8  -6   4  107.14   51.44
   8   6   4   38.44   36.71
   9  -6   4  137.83   65.02
   9   6   4    7.62   24.24
  10  -6   4  489.10  124.02
  10   6   4  631.64  155.37
  13  -7  -4  260.49   98.71
  12  -7  -4   39.30   31.91
  11  -7  -4   69.72   40.71
  11  -7  -4   27.10   22.30
  10  -7  -4   68.55   38.07
  10  -7  -4   98.41   46.69
   9  -7  -4  397.31   97.95
   9  -7  -4  381.14   39.30
   9  -7  -4  317.59   73.17
   8  -7  -4  596.06   98.45
  -8  -7   4  650.97   90.39
   8  -7  -4  602.40   46.37
   8  -7  -4  752.26   41.25
  -7  -7   4   87.47   31.78
   7  -7  -4  100.91   39.08
  -6  -7   4  142.48   31.14
   6  -7  -4  258.27   65.10
   5  -7  -4  615.11  103.40
   4  -7  -4 1392.06  163.66
   3  -7  -4  977.37  137.78
  -2   7   4   11.08    9.50
   2   7  -4   30.99   18.45
   2  -7  -4   -0.44   22.94
   1   7  -4  492.36   31.14
   1  -7  -4  325.30   78.19
  -1   7   4  402.99   65.34
   1   7  -4  423.06   75.67
   0   7  -4  854.66   56.38
   0   7   4  673.08   87.49
   0   7  -4  695.84  103.93
  -1   7  -4 1921.99  102.28
   1   7   4 1555.46  143.28
  -2   7  -4  773.90   73.77
   2  -7   4  563.58  110.46
   2   7   4  554.97   90.28
   3  -7   4   14.90   17.97
  -3   7  -4   10.95    9.01
   3   7   4    4.22    9.67
   4  -7   4  425.07   98.19
   4   7   4  410.92   94.65
   5  -7   4  252.83   75.69
   5   7   4  287.41   81.11
   6  -7   4  716.96  132.96
   6   7   4  650.35  130.30
   7  -7   4  118.16   56.06
   7   7   4  133.25   61.99
   8  -7   4  108.42   53.83
   8   7   4   67.53   39.98
   9   7   4  162.15   70.76
   9  -7   4  244.44   90.01
  10  -7   4   76.59   52.91
  12  -8  -4  126.59   61.18
  11  -8  -4   84.03   46.96
  11  -8  -4   41.28   33.37
  10  -8  -4   50.85   33.81
  10  -8  -4   54.17   46.69
   9  -8  -4  331.14   75.90
   9  -8  -4  405.79  103.55
  -8  -8   4   60.41   28.17
   8  -8  -4  100.16   41.16
  -7  -8   4  259.29   48.82
   7  -8  -4  290.29   71.53
   6  -8  -4   73.69   38.93
   5  -8  -4   35.21   25.95
   4  -8  -4  428.47   92.97
   3  -8  -4  310.81   75.75
  -2   8   4  174.22   38.44
   2  -8  -4  267.05   71.70
   1   8  -4  138.25   14.98
   1   8  -4  114.25   40.38
  -1   8   4  139.42   37.14
   1  -8  -4  124.39   52.95
   0   8  -4  288.20   30.61
   0   8   4  213.11   49.73
  -1   8  -4  141.07   25.57
   1   8   4  173.56   47.62
  -2   8  -4  211.05   35.91
   2   8   4  204.68   55.35
  -3   8  -4  136.47   31.80
   3   8   4  108.95   45.93
   3  -8   4  156.08   63.95
   4  -8   4   22.41   16.11
   4   8   4   88.08   47.36
   5  -8   4  238.69   78.24
   5   8   4  244.42   77.11
   6  -8   4   49.39   37.65
   6   8   4    6.02   24.34
   7  -8   4   88.70   49.90
   7   8   4  112.01   56.10
   8  -8   4  149.64   66.84
   8   8   4   94.01   53.55
   9  -8   4   -2.15   15.39
   9   8   4   17.63   20.13
  10  -8   4  227.24   86.02
  12  -9  -4  -42.16   27.76
  11  -9  -4  214.02   77.93
  11  -9  -4  262.47   79.71
  10  -9  -4  183.61   80.41
  10  -9  -4  173.08   60.48
   9  -9  -4    7.89   18.75
   9  -9  -4  -10.53   21.50
   8  -9  -4   52.64   27.63
  -7  -9   4   10.60    7.83
   7  -9  -4    4.50   19.60
   6  -9  -4  226.49   65.01
   5  -9  -4  164.33   56.40
   4  -9  -4   17.77   18.39
   3  -9  -4   54.96   39.15
   2  -9  -4   41.86   25.57
  -2   9   4   35.58   16.61
  -1   9   4  203.27   43.73
   1  -9  -4  218.26   63.60
   0  -9  -4   43.22   11.09
   0   9   4   94.19   34.20
   0   9  -4   78.66   16.37
  -1   9  -4    3.67    4.09
   1   9   4    6.09    7.38
  -2   9  -4   21.14   11.61
   2   9   4   13.05   15.89
  -3   9  -4  136.43   31.97
   3   9   4  139.64   56.59
   4  -9   4  229.50   74.16
   4   9   4  313.01   82.71
   5  -9   4   27.93   35.94
   5   9   4   44.85   24.69
   6  -9   4   34.46   38.39
   6   9   4   33.74   20.71
   7  -9   4  -11.52   25.70
   7   9   4  -20.42   41.24
   8  -9   4  132.66   61.14
   8   9   4   62.95   46.47
   9  -9   4  226.05   84.97
   9   9   4  279.21  105.03
  10  -9   4  -15.37   29.57
  12 -10  -4  176.31   69.08
  11 -10  -4  159.57   72.13
  11 -10  -4  280.35   82.99
  10 -10  -4   91.73   55.71
  10 -10  -4   26.98   24.49
   9 -10  -4   52.25   42.72
   9 -10  -4  -16.19   19.40
   8 -10  -4    6.17   11.29
   7 -10  -4  630.48  109.42
   6 -10  -4  287.46   76.59
   5 -10  -4   39.90   28.68
   4 -10  -4  -19.77   31.85
   3 -10  -4  106.49   54.07
   2 -10  -4  976.88  144.78
  -2  10   4 1131.41   90.06
  -1  10   4  100.51   32.31
   1 -10  -4   99.84   44.76
   0 -10  -4   18.87    8.80
   0  10  -4   29.67   10.08
   0  10   4   10.30   10.76
   1  10   4   27.30   18.47
  -1  10  -4    1.08    3.49
   2  10   4  228.70   63.37
  -2  10  -4  202.03   36.66
  -3  10  -4  858.98   84.05
   3  10   4  787.80  122.47
   4  10   4    3.62   17.99
   5 -10   4   12.41   14.35
   5  10   4   69.12   45.23
   6 -10   4   -8.83   34.67
   6  10   4   35.39   31.49
   7 -10   4  120.32   59.94
   7  10   4  140.47   66.82
   8 -10   4  412.95  113.65
   8  10   4  443.86  122.73
   9 -10   4  -16.68   25.64
   9  10   4    4.30   34.57
  10 -10   4   65.04   54.55
  12 -11  -4  -13.11   20.62
  11 -11  -4  454.71  129.55
  11 -11  -4  408.90  102.92
  10 -11  -4   39.95   19.20
  10 -11  -4   -1.61    9.87
   9 -11  -4   48.19   30.82
   9 -11  -4  186.16   82.75
   8 -11  -4  109.53   64.73
   8 -11  -4  101.99   47.12
   7 -11  -4   15.70    9.66
   6 -11  -4 1425.15  167.56
   5 -11  -4   49.66   32.75
   4 -11  -4   32.95   24.37
   3 -11  -4  475.08  102.64
   2 -11  -4   35.69   27.16
  -2  11   4   30.21   13.32
   1 -11  -4 1652.58  181.89
  -1  11   4 1549.76  123.30
   0  11  -4  151.87   26.06
   0  11   4  104.27   32.90
   0 -11  -4   64.98   32.55
  -1  11  -4   22.78   14.49
  -1 -11  -4  -18.38   25.58
   1  11   4   30.00   20.97
  -2  11  -4  579.97   66.93
   2  11   4  469.83   89.95
   3  11   4   20.83   18.29
   4  11   4  668.35  123.05
   5  11   4  100.96   50.19
   6 -11   4  -26.59   30.03
   6  11   4    2.94   13.43
   7 -11   4  367.99  106.54
   7  11   4  363.30  107.77
   8 -11   4   80.28   56.19
   8  11   4  107.73   67.28
   9 -11   4  166.93   77.37
  12 -12  -4  240.88   96.47
  11 -12  -4    6.35   33.39
  10 -12  -4  521.14  142.73
  10 -12  -4  303.51   85.59
   9 -12  -4  -24.53   26.59
   9 -12  -4   73.49   54.30
   8 -12  -4   86.96   58.16
   8 -12  -4   99.04   47.79
   7 -12  -4 1032.62  145.53
   6 -12  -4   26.73   16.80
   5 -12  -4  673.00  118.21
   4 -12  -4   51.70   30.60
   3 -12  -4   94.56   43.56
   2 -12  -4 1939.01  206.02
  -2  12   4 1962.64  110.33
   1 -12  -4    9.71   16.07
  -1  12   4    3.82    9.62
   0  12   4  273.55   57.83
   0 -12  -4  333.71   79.72
  -1 -12  -4  176.31   57.71
   1  12   4  260.34   61.21
   2  12   4   73.51   36.19
   3  12   4 1341.14  165.16
   4  12   4   59.60   37.85
   5  12   4   58.24   36.96
   6  12   4  186.63   74.80
   7  12   4   57.76   41.34
   8 -12   4  270.58   98.52
   8  12   4  345.32  112.94
   9 -12   4   16.54   29.88
  12 -13  -4  -61.52   58.14
  11 -13  -4  218.95   96.51
  10 -13  -4   25.53   54.71
  10 -13  -4   53.86   33.95
   9 -13  -4  123.90   50.28
   9 -13  -4  149.34   71.73
   8 -13  -4  129.59   50.82
   8 -13  -4   66.53   61.19
   7 -13  -4   -8.56   16.66
   6 -13  -4  655.91  117.06
   5 -13  -4   48.32   40.95
   4 -13  -4  234.24   73.86
   3 -13  -4  464.26  103.33
   2 -13  -4   -8.63   25.46
  -1  13   4  604.81   75.07
   1 -13  -4  766.28  128.03
   0 -13  -4   12.97   13.01
   0  13   4    9.60    8.79
   1  13   4  114.43   40.25
  -1 -13  -4   45.27   27.34
  -2 -13  -4  435.39   90.13
   2  13   4  562.43  100.59
   3  13   4  -12.52   17.81
   4  13   4  249.83   77.22
   5  13   4   46.26   36.06
   6  13   4   23.50   31.72
   7  13   4  271.87   95.59
  10 -14  -4  138.75   79.70
   9 -14  -4   74.97   42.67
   9 -14  -4  266.87  114.95
   8 -14  -4  100.77   67.13
   8 -14  -4   53.14   36.65
   7 -14  -4   46.84   34.68
   6 -14  -4   15.03   17.13
   5 -14  -4  252.50   75.20
   4 -14  -4  131.75   58.08
   3 -14  -4   73.34   34.91
   2 -14  -4  107.89   48.50
   1 -14  -4   78.09   46.97
   0 -14  -4  235.58   71.14
   0  14   4  148.37   43.27
   1  14   4   87.81   38.91
  -1 -14  -4  116.27   49.41
  -2 -14  -4   -9.98   15.56
   2  14   4   -5.62   12.06
  -3 -14  -4   48.48   29.26
   3  14   4  110.03   47.76
   4  14   4   34.54   29.86
   5  14   4   66.32   42.27
   6  14   4   33.75   40.07
   7  14   4   -1.95   13.28
   9 -15  -4  223.13  121.25
   8 -15  -4  102.47   68.31
   8 -15  -4   72.93   35.88
   7 -15  -4   64.27   42.97
   6 -15  -4   31.41   23.11
   5 -15  -4   23.01   31.26
   4 -15  -4   54.98   31.40
   3 -15  -4  137.54   58.12
   2 -15  -4   41.84   25.31
   1 -15  -4    1.40   15.74
   0 -15  -4   37.19   30.52
  -1 -15  -4  109.65   48.00
   2  15   4   42.05   24.74
  -2 -15  -4   36.16   40.29
  -3 -15  -4   29.88   25.35
   3  15   4   -8.90   12.22
  -4 -15  -4   18.56   17.80
   4  15   4    8.67   18.56
   5  15   4   -7.58   17.46
   6  15   4   74.70   51.87
   7  15   4   74.57   57.46
   8 -16  -4    7.79   14.58
   8 -16  -4  -91.91   69.93
   7 -16  -4  -13.46   18.93
   6 -16  -4    1.95   25.94
   5 -16  -4  172.48   62.82
   4 -16  -4  340.38   86.67
   3 -16  -4   11.76   13.50
   2 -16  -4   -2.54   30.94
   1 -16  -4   10.60   17.08
   0 -16  -4  363.31   92.67
  -1 -16  -4  274.38   80.13
  -2 -16  -4  -36.05   28.85
  -3 -16  -4   37.50   30.32
  -4 -16  -4   33.45   30.10
  -5 -16  -4  124.85   48.31
   5  16   4  192.10   74.35
   6  16   4   54.36   45.54
   7 -17  -4  -11.56   23.32
   6 -17  -4  105.58   53.63
   5 -17  -4   54.09   39.14
   4 -17  -4  326.76   88.17
   3 -17  -4  372.87   94.61
   2 -17  -4  -18.43   23.97
   1 -17  -4   43.69   22.23
   0 -17  -4  169.63   63.43
  -1 -17  -4  293.17   86.63
  -2 -17  -4  213.46   70.91
  -3 -17  -4  -19.03   28.26
  -4 -17  -4   53.58   27.37
  -5 -17  -4   12.63   35.77
   5 -18  -4  153.29   63.52
   4 -18  -4  282.69   82.34
   3 -18  -4  142.70   59.56
   2 -18  -4  301.24   89.30
   1 -18  -4   43.95   19.46
   0 -18  -4  334.94   94.51
  -1 -18  -4  274.70   84.97
  -2 -18  -4  100.02   48.51
  -3 -18  -4   91.84   44.91
  -4 -18  -4    0.30   24.76
   4 -19  -4   75.31   45.64
   3 -19  -4   58.78   30.85
   2 -19  -4   77.15   47.27
   1 -19  -4   55.57   37.00
   0 -19  -4  123.06   58.78
  -1 -19  -4   44.20   40.23
  -2 -19  -4   67.67   47.50
  14   0  -5   -0.18   14.51
  13   0  -5   16.73   18.23
  12   0  -5   13.77   29.26
  11   0  -5  -15.68   18.48
  10   0  -5   -0.24   16.83
   9   0  -5   -5.48    9.93
   8   0  -5    5.05    8.34
   8   0  -5    6.06    3.86
   7   0  -5    9.58    9.52
  -7   0   5   16.96   17.82
  -6   0   5   -2.23   13.67
   6   0  -5   -3.46    4.64
   5   0  -5   -8.88   14.06
   4   0  -5    1.52    8.08
   3   0  -5   -2.48   17.30
   2   0  -5   13.52   13.74
  -1   0   5    6.35   13.62
   1   0  -5    6.26    7.19
   0   0   5    3.24   25.19
   0   0  -5  -27.21   19.27
   1   0   5    4.64    8.65
   2   0   5   18.05   23.91
   3   0   5    3.06   22.90
   4   0   5   12.06   35.46
   5   0   5    7.04   16.31
   6   0   5   -4.44   32.92
   7   0   5   13.20   35.92
   8   0   5  -53.60   43.41
   9   0   5  -67.28   50.19
  14  -1  -5   13.51   23.13
  13   1  -5   -4.32   25.34
  13  -1  -5   -1.65   21.30
  12   1  -5   78.14   46.10
  12  -1  -5   58.84   34.85
  11   1  -5   -4.64   18.23
  11  -1  -5   -3.45   12.35
  10   1  -5  -10.74   14.29
  10  -1  -5    8.74   15.19
   9   1  -5  148.49   39.35
   9  -1  -5  190.19   45.68
   9  -1  -5  118.73   29.55
   8  -1  -5   13.31    9.59
   8   1  -5    8.68   11.01
   8  -1  -5    2.95   12.42
   7   1  -5  119.45   30.42
  -7  -1   5  105.73   49.43
   7  -1  -5  103.10   30.98
  -6   1   5   21.00   24.37
   6   1  -5   57.61   22.46
   6  -1  -5   57.71   26.04
   5   1  -5  131.32   32.13
   5  -1  -5  174.71   47.71
   5   1  -5   86.79   38.55
   4   1  -5  384.57   66.81
   4  -1  -5  465.82   82.99
   4   1  -5  355.44   79.91
   3   1  -5   91.91   43.61
   3   1  -5   78.20   32.58
   3  -1  -5   65.71   32.06
   2  -1  -5   11.41   17.89
   2   1  -5  -10.07   22.55
   2   1  -5    9.89   14.57
  -2   1   5   -0.69    9.81
  -1  -1   5   74.24   39.90
  -1   1   5  208.15   60.69
   1   1  -5  130.19   46.20
   0  -1   5  350.75   86.36
   0   1   5  391.33   89.33
   0   1  -5  287.35   67.50
   0  -1  -5  236.24   52.94
   1  -1   5  169.03   59.36
   1   1   5  133.53   54.14
   2  -1   5   -0.50   23.83
   2   1   5   52.85   28.17
   3  -1   5   42.19   31.84
   3   1   5  190.23   64.97
   4  -1   5  125.38   58.16
   4   1   5  130.16   52.76
   5  -1   5  163.78   68.72
   5   1   5  144.87   58.82
   6  -1   5   19.39   25.47
   6   1   5   -6.70   33.78
   7  -1   5   -2.63   18.35
   7   1   5   25.40   26.75
   8  -1   5  140.42   72.03
   8   1   5  125.35   62.99
   9  -1   5   62.03   45.86
   9   1   5   31.13   35.42
  14  -2  -5  -29.99   33.22
  13   2  -5  -15.84   38.40
  13  -2  -5   40.16   44.21
  12   2  -5   15.99   30.47
  12  -2  -5   92.35   43.73
  11   2  -5  235.61   67.49
  11  -2  -5  106.76   42.92
  10   2  -5  174.75   51.00
  10  -2  -5  211.78   52.73
   9  -2  -5  369.07   59.79
   9   2  -5  250.18   53.94
   9  -2  -5  295.79   59.36
   8   2  -5   20.77   12.82
  -8  -2   5   53.48   30.35
   8  -2  -5   35.78   17.26
   7   2  -5  107.75   27.64
  -7  -2   5  148.44   54.50
   7  -2  -5  128.14   39.86
   6  -2  -5   67.07   28.95
   6   2  -5   99.20   27.18
   6  -2  -5  105.87   39.70
   5   2  -5  962.13   82.94
   5  -2  -5  849.07  109.84
   5  -2  -5  862.48  105.45
   4   2  -5  708.49   81.47
   4  -2  -5  905.70  124.86
   4   2  -5  686.48  113.25
   4  -2  -5  866.17  102.53
   3   2  -5   19.39   14.97
   3  -2  -5  -22.02   15.60
   3   2  -5   24.06   12.85
   3  -2  -5   -3.30   24.36
   2  -2  -5  265.71   70.95
   2   2  -5  338.47   69.67
  -2   2   5  222.97   64.39
   2   2  -5  131.74   48.11
  -1  -2   5   -1.14    9.64
  -1   2   5   11.94    9.02
   1   2  -5   -2.01   21.97
   0  -2   5 1502.35  179.13
   0   2   5 1395.44  161.86
   0  -2  -5 1270.84  119.46
   1   2   5  736.76  120.40
  -1  -2  -5  681.84   92.13
   1  -2   5  697.73  121.04
   2  -2   5   41.66   29.19
   2   2   5  117.37   51.31
   3  -2   5  195.92   68.27
   3   2   5  127.71   52.56
   4  -2   5   29.23   14.61
   4   2   5  -38.09   31.06
   5  -2   5  557.53  117.62
   5   2   5  657.57  132.27
   6  -2   5   67.51   40.10
   6   2   5  145.30   64.76
   7  -2   5  128.45   63.70
   7   2   5  308.59  102.45
   8  -2   5   79.32   48.53
   8   2   5   38.09   38.85
   9  -2   5    8.99   13.59
   9   2   5   64.72   43.11
  14  -3  -5  -25.58   33.48
  13  -3  -5    9.58   20.27
  12   3  -5   48.18   33.53
  12  -3  -5  -35.87   31.12
  11   3  -5   48.50   32.21
  11  -3  -5  101.86   41.82
  10   3  -5  108.89   43.53
  10  -3  -5   50.80   25.59
   9   3  -5   16.24   19.11
   9  -3  -5   10.04   16.03
   8   3  -5   -3.76   13.96
  -8  -3   5   29.98   22.14
   8  -3  -5   -6.06   11.64
   7   3  -5   19.94   13.59
   7  -3  -5   16.51   15.99
   6  -3  -5  118.23   41.24
   6   3  -5  152.81   21.26
  -6  -3   5  176.69   55.47
   6  -3  -5  110.26   36.44
   6   3  -5  134.64   27.45
   5   3  -5  240.95   37.89
   5  -3  -5  131.01   46.64
   5  -3  -5  270.81   55.04
   4   3  -5  101.89   27.43
   4   3  -5  124.01   47.18
   4  -3  -5  144.37   55.24
   4  -3  -5  126.93   34.33
   3   3  -5   93.67   43.52
   3   3  -5  128.11   35.72
   3  -3  -5  121.37   34.21
   3  -3  -5   20.78   18.81
   2  -3  -5   12.64   13.70
   2   3  -5    1.85   10.22
  -2   3   5   13.22   10.14
   2   3  -5   -2.36   16.89
   2  -3  -5   11.45   10.31
  -1   3   5   52.62   28.41
   0   3   5  110.82   42.09
   0  -3  -5  185.62   45.20
   1  -3   5  234.55   71.16
   1   3   5  148.06   50.73
  -1  -3  -5  139.41   41.66
   2  -3   5  336.38   89.13
   2   3   5  142.06   51.50
   3  -3   5  102.34   52.65
   3   3   5   84.88   44.71
   4  -3   5   -2.99   22.29
   4   3   5   -3.12   16.54
   5  -3   5   16.44   21.47
   5   3   5   71.44   38.67
   6  -3   5   37.13   34.16
   6   3   5   78.89   45.35
   7  -3   5   67.69   40.65
   7   3   5  138.27   59.31
   8  -3   5   47.08   27.42
   8   3   5   69.69   43.29
   9  -3   5    7.60   18.81
   9   3   5   22.06   29.38
  13  -4  -5  -61.63   44.38
  12  -4  -5   18.13   10.70
  11   4  -5    5.20   12.95
  11  -4  -5   15.83   20.39
  11  -4  -5   25.76   19.23
  10   4  -5   14.66   18.59
  10  -4  -5   35.22   28.87
  10  -4  -5   69.68   32.32
   9   4  -5  226.03   55.75
  -9  -4   5  157.15   55.90
   9  -4  -5  185.30   51.80
   9  -4  -5  246.04   65.26
   8   4  -5   46.13   20.49
   8  -4  -5   34.55   19.94
   7   4  -5  919.95   76.36
   7  -4  -5  823.16  108.37
   7  -4  -5  477.14   71.52
  -7  -4   5  644.28  105.81
   6  -4  -5    0.18   17.21
  -6  -4   5  -27.95   20.58
   6  -4  -5   13.01   10.18
   6   4  -5   -4.18    5.71
   5   4  -5   12.39    8.57
   5  -4  -5  -11.62   27.14
   5  -4  -5  -15.32   11.49
   5   4  -5    7.22    3.39
   4   4  -5   37.08   13.62
   4  -4  -5  124.89   51.84
   4  -4  -5  111.28   29.74
   3   4  -5   15.69    6.37
   3  -4  -5   23.59   20.69
   3  -4  -5   24.92   12.99
   2  -4  -5 1433.82  172.52
   2   4  -5 1535.95  129.16
  -2   4   5 1536.41  161.75
   2  -4  -5 1625.89  115.33
  -1   4   5    4.09   25.59
   0  -4   5   48.39   19.33
   0  -4  -5   41.62   20.38
   1  -4   5   24.96   27.19
   1   4   5    3.68   15.68
  -1  -4  -5    5.90   13.29
   2  -4   5   69.16   44.74
   2   4   5   53.11   28.97
   3  -4   5  838.02  141.24
   3   4   5  658.73  120.29
   4  -4   5   -2.05   26.26
   4   4   5   -5.71   14.76
   5  -4   5  192.51   69.65
   5   4   5  307.17   91.40
   6  -4   5   62.78   39.77
   6   4   5  136.17   63.97
   7  -4   5   53.05   50.85
   7   4   5   18.62   16.76
   8  -4   5  275.65   94.14
   8   4   5  167.59   79.62
   9  -4   5   71.75   51.40
   9   4   5  -52.62   36.96
  13  -5  -5   -8.68   31.87
  12  -5  -5    6.52   20.89
  11  -5  -5  127.76   49.53
  11  -5  -5   83.05   41.31
  10  -5  -5   54.34   34.11
  10  -5  -5   69.90   36.41
   9   5  -5   40.36   23.90
  -9  -5   5   14.45   18.04
   9  -5  -5   40.74   28.81
   9  -5  -5   28.31   22.39
   8   5  -5   35.52   18.69
   8  -5  -5   20.01   14.22
   8  -5  -5   25.60   17.74
   7   5  -5    2.00    8.63
   7  -5  -5   11.52   10.63
  -7  -5   5   26.35   21.16
   7  -5  -5   35.44   26.50
   6  -5  -5  263.35   67.56
   6   5  -5  384.63   42.66
   6  -5  -5  353.05   49.55
   5  -5  -5   29.18   29.57
   5   5  -5   14.80    7.46
   5  -5  -5   31.93   12.65
   5   5  -5   -6.36    6.76
   4  -5  -5   40.79   37.35
   4  -5  -5   29.92   15.12
   4   5  -5   38.16   18.65
   4   5  -5   40.46   12.49
   3   5  -5  244.33   36.72
   3   5  -5  259.71   49.69
   3  -5  -5  262.11   40.24
   3  -5  -5  215.47   67.18
   2   5  -5   31.04   17.44
   2   5  -5   29.19   20.45
  -2   5   5   10.10   19.72
   2  -5  -5   22.63   12.43
   2  -5  -5   27.13   30.81
  -1   5   5  144.88   50.10
   0   5   5   15.38   23.87
   0  -5  -5   -0.14   10.79
   1   5   5    1.73   15.37
  -1  -5  -5    2.39   18.46
  -2   5  -5  311.32   71.78
   2  -5   5  320.20   86.11
   2   5   5  323.33   81.26
   3  -5   5   -2.63   37.63
   3   5   5   -1.94   18.49
   4  -5   5   12.56   21.86
   4   5   5   69.74   35.99
   5  -5   5   42.71   45.09
   5   5   5   83.00   50.29
   6  -5   5   36.50   36.50
   6   5   5    4.31   15.11
   7  -5   5  123.83   59.85
   7   5   5   27.70   30.32
   8  -5   5  -47.13   39.92
   8   5   5  -17.94   53.92
   9  -5   5  -19.84   21.96
   9   5   5  -18.28   33.97
  13  -6  -5  -38.47   36.96
  12  -6  -5  -10.65   28.99
  11  -6  -5   22.16   30.23
  11  -6  -5   22.95   24.70
  10  -6  -5   62.88   37.01
  10  -6  -5   87.43   40.55
   9  -6  -5    3.99   16.18
   9  -6  -5   17.97   22.78
   9  -6  -5    3.40    5.60
   8  -6  -5   -1.42    8.52
  -8  -6   5  -12.42   14.99
   8  -6  -5   10.92   13.18
   7   6  -5   25.26   14.20
   7  -6  -5    3.83    8.06
  -7  -6   5   15.31    9.95
   6  -6  -5   69.64   33.55
   6   6  -5   62.65   17.09
   6  -6  -5   87.37   18.02
   5  -6  -5   82.61   39.12
   5   6  -5   56.46   13.50
   5  -6  -5   92.47   18.02
   4  -6  -5   -4.32   13.35
   4   6  -5   25.79    6.69
   4   6  -5   13.39    4.46
   4  -6  -5   18.19    8.20
   3   6  -5   37.64   10.44
   3   6  -5   26.61   19.96
   2   6  -5   86.17   33.58
  -2   6   5   83.72   39.91
   2   6  -5   41.74   14.31
   2  -6  -5   60.54   41.18
   2  -6  -5   30.06   15.36
   1  -6  -5   72.55   46.30
  -1   6   5  134.92   44.64
   1   6  -5   26.98   20.29
   1  -6  -5  100.72   31.34
   0   6  -5   81.49   27.24
   0   6   5   90.65   38.88
  -1   6  -5   18.62   16.57
   1  -6   5   53.23   38.26
   1   6   5   77.82   37.45
  -2   6  -5   19.76   15.09
   2  -6   5   10.45   26.22
   2   6   5    1.40   20.96
   3  -6   5   37.98   30.73
   3   6   5   92.42   46.32
   4  -6   5   98.83   51.11
   4   6   5   -6.95   28.85
   5  -6   5   25.16   39.78
   5   6   5   71.72   47.47
   6  -6   5  111.66   54.64
   6   6   5   18.69   20.00
   7  -6   5    4.67   26.81
   7   6   5   16.58   29.99
   8  -6   5   -8.22   20.18
   8   6   5  -84.46   57.97
   9  -6   5   53.47   46.46
   9   6   5   18.08   22.95
  12  -7  -5   -7.03   12.05
  12  -7  -5   22.02   28.66
  11  -7  -5   50.75   31.56
  11  -7  -5   81.21   44.06
  10  -7  -5   48.84   34.35
  10  -7  -5   24.66   17.05
   9  -7  -5   17.28   10.50
   9  -7  -5   28.23   22.83
  -8  -7   5   39.92   23.29
   8  -7  -5   42.66   33.21
   7  -7  -5   26.08   26.27
   6  -7  -5  198.11   61.89
   5  -7  -5  -28.71   34.12
   4  -7  -5   40.83   34.38
   3  -7  -5  324.80   84.05
   3   7  -5  234.24   53.01
   2   7  -5   10.39   21.33
   2   7  -5    7.65    4.10
  -2   7   5  -23.48   18.75
   2   7  -5   -2.40    5.83
   2  -7  -5    5.48   13.83
   1  -7  -5  110.24   49.37
   1   7  -5  145.37   27.47
   1   7  -5  132.53   47.08
  -1   7   5  213.08   58.00
   0   7  -5   -2.33    7.57
   0   7   5   -0.96   18.88
  -1   7  -5   11.14   11.32
   1   7   5  -10.04   22.20
  -2   7  -5  186.33   45.52
   2  -7   5  341.98   96.66
   2   7   5  350.09   83.91
   3  -7   5    6.78   19.63
   3   7   5  -39.10   30.11
   4  -7   5   29.50   13.52
   4   7   5   55.76   33.81
   5  -7   5  132.66   58.32
   5   7   5   29.60   31.68
   6  -7   5   70.56   51.34
   6   7   5   55.30   35.58
   7  -7   5   76.20   50.72
   7   7   5   11.97   19.05
   8  -7   5   54.49   44.75
   8   7   5  -55.24   47.23
   9  -7   5    4.36   20.65
  12  -8  -5   59.91   39.34
  12  -8  -5  130.26   54.09
  11  -8  -5   14.19   28.67
  11  -8  -5   20.20   30.91
  10  -8  -5    2.74   17.14
  10  -8  -5   11.26   20.24
   9  -8  -5  208.17   65.96
   8  -8  -5   49.85   37.10
   7  -8  -5  639.25  111.38
   6  -8  -5   28.74   24.46
   5  -8  -5   10.96   20.53
   4  -8  -5  131.26   55.76
   3  -8  -5    8.76   14.65
   2  -8  -5 1302.53  171.92
  -2   8   5 1151.92  125.52
   2   8  -5 1305.42  142.40
   1  -8  -5   99.78   46.05
   1   8  -5   85.31   14.83
  -1   8   5   61.10   32.23
   0   8  -5  120.06   22.71
   0   8   5   94.86   39.09
  -1   8  -5    4.81    6.18
   1   8   5  -21.95   20.64
  -2   8  -5   47.77   19.36
   2   8   5   32.25   23.68
   3  -8   5  828.18  155.51
   3   8   5  722.79  124.75
   4  -8   5  128.44   65.34
   4   8   5   41.86   36.42
   5  -8   5  251.69   86.08
   5   8   5  200.87   75.91
   6  -8   5   -4.54   30.26
   6   8   5  -18.88   30.31
   7  -8   5   31.06   33.24
   7   8   5    9.59   20.62
   8  -8   5  170.91   78.76
   8   8   5   84.65   58.35
   9  -8   5   39.04   52.64
  12  -9  -5   49.52   38.10
  12  -9  -5  126.97   55.28
  11  -9  -5   33.54   14.93
  11  -9  -5    4.72   17.58
  10  -9  -5   15.13   25.16
  10  -9  -5   41.62   37.58
   9  -9  -5   41.63   25.61
   8  -9  -5    3.52   17.57
   7  -9  -5   42.58   36.79
   6  -9  -5   17.19   13.19
   5  -9  -5    4.76   19.79
   4  -9  -5  150.81   56.88
   3  -9  -5   84.96   46.78
  -2   9   5    6.18   12.84
   2  -9  -5  -44.73   31.82
  -1   9   5   21.23   23.60
   1  -9  -5   30.44   29.63
   0  -9  -5    5.86   12.81
   0   9   5   52.66   30.08
   0   9  -5   47.50   13.42
  -1   9  -5  165.74   28.89
   1   9   5  203.05   58.44
  -2   9  -5   81.88   22.93
   2   9   5  133.90   52.10
   3   9   5   40.69   25.82
   4  -9   5   11.49   28.41
   4   9   5   -1.04   18.95
   5  -9   5   10.57   22.98
   5   9   5   32.09   36.01
   6  -9   5   69.45   51.68
   6   9   5   45.82   29.96
   7  -9   5   28.95   25.68
   7   9   5   -9.20   20.11
   8  -9   5    7.00   31.43
   8   9   5   53.08   19.92
  12 -10  -5  110.51   61.17
  11 -10  -5   65.80   39.19
  11 -10  -5   -8.95   22.65
  10 -10  -5   32.97   28.58
  10 -10  -5   80.60   38.55
   9 -10  -5   41.73   38.65
   9 -10  -5   66.20   44.93
   8 -10  -5  143.66   60.41
   7 -10  -5  -19.13   21.61
   6 -10  -5  -17.64   29.67
   5 -10  -5  118.06   51.30
   4 -10  -5  121.36   50.08
   3 -10  -5  205.91   67.80
  -2  10   5   -0.55    9.26
   2 -10  -5  -27.86   25.94
  -1  10   5   71.37   31.03
   1 -10  -5   95.54   48.80
   0 -10  -5  163.77   58.53
   0  10   5  164.39   49.05
   1  10   5   81.22   36.62
   2  10   5  -10.63   16.24
   3  10   5    0.13   28.41
   4  10   5   68.12   32.04
   5 -10   5  105.51   57.17
   5  10   5   61.06   31.40
   6 -10   5  -88.51   55.43
   6  10   5   34.88   38.62
   7 -10   5   37.94   33.96
   7  10   5  -15.15   29.40
   8 -10   5  105.02   67.25
   8  10   5 -165.58   82.12
  12 -11  -5 -147.17   75.00
  11 -11  -5  112.08   73.01
  11 -11  -5   28.51   40.60
  10 -11  -5    3.63   17.56
  10 -11  -5   40.07   55.29
   9 -11  -5  131.23   69.89
   9 -11  -5  105.77   50.74
   8 -11  -5  -15.70   23.29
   7 -11  -5  111.83   53.61
   6 -11  -5   37.85   32.18
   5 -11  -5   -5.44   14.94
   4 -11  -5  213.96   72.14
   3 -11  -5   34.07   28.09
  -2  11   5    8.18   18.38
   2 -11  -5   10.97   24.40
  -1  11   5   58.25   28.83
   1 -11  -5   54.65   32.56
   0 -11  -5   89.61   43.64
   0  11   5   48.41   25.00
  -1 -11  -5   40.82   23.31
   1  11   5   79.14   40.26
   2  11   5    4.68    7.06
   3  11   5    0.13    8.55
   4  11   5   17.88   13.50
   5  11   5  -11.01   32.12
   6 -11   5   -0.83   32.74
   6  11   5   41.30   44.39
   7 -11   5   22.85   23.30
   7  11   5  -21.86   29.29
   8 -11   5   39.64   31.20
  12 -12  -5  -44.15   47.09
  11 -12  -5   83.15   60.25
  10 -12  -5   16.36   29.53
  10 -12  -5  125.37   75.49
   9 -12  -5  102.72   64.14
   9 -12  -5   66.72   40.33
   8 -12  -5   28.57   16.63
   7 -12  -5   73.95   38.32
   6 -12  -5   15.42   22.26
   5 -12  -5   90.26   51.81
   4 -12  -5  101.92   53.93
   3 -12  -5  112.79   52.71
   2 -12  -5   74.03   43.04
  -1  12   5   16.02   13.26
   1 -12  -5  -65.60   38.04
   0  12   5   14.00   10.08
   0 -12  -5   18.50   22.39
  -1 -12  -5   60.28   30.52
   1  12   5  122.18   45.12
   2  12   5   50.43   32.08
   3  12   5   66.23   35.75
   4  12   5    6.66   24.89
   5  12   5   95.14   50.44
   6  12   5   54.19   43.50
   7  12   5    7.99   17.43
  11 -13  -5    8.20   25.72
  10 -13  -5   15.06   54.04
   9 -13  -5 -132.58   75.81
   9 -13  -5  106.33   48.60
   8 -13  -5    0.14   25.23
   7 -13  -5   15.17    9.89
   6 -13  -5   25.10   15.37
   5 -13  -5   35.47   31.82
   4 -13  -5   76.31   44.43
   3 -13  -5   28.36   24.77
   2 -13  -5   -4.20   30.93
   1 -13  -5   43.23   30.02
   0  13   5   77.60   31.43
   0 -13  -5  287.66   84.72
   1  13   5   30.67   11.06
  -1 -13  -5   43.08   32.67
  -2 -13  -5   25.18   17.71
   2  13   5   14.69   27.39
   3  13   5   -9.81   16.74
   4  13   5    9.84   19.32
   5  13   5  161.49   70.93
   6  13   5  -65.74   46.60
   7  13   5    1.04   28.96
  10 -14  -5  182.97   92.85
   9 -14  -5   86.89   63.26
   8 -14  -5  -25.31   26.52
   7 -14  -5   53.74   35.95
   6 -14  -5   68.29   45.84
   5 -14  -5  101.81   43.71
   4 -14  -5  159.17   57.83
   3 -14  -5    5.77   19.61
   2 -14  -5  -14.30   36.93
   1 -14  -5    2.60   18.35
   0 -14  -5  147.61   56.06
  -1 -14  -5  116.51   51.81
  -2 -14  -5   15.46   18.39
   2  14   5   11.69   15.13
  -3 -14  -5  -24.77   29.01
   3  14   5  -17.72   26.57
   4  14   5   52.78   28.62
   5  14   5   33.86   42.88
   6  14   5   37.38   35.65
   9 -15  -5  -85.07   98.87
   8 -15  -5  -21.27   27.20
   7 -15  -5   24.96   27.41
   6 -15  -5   65.35   37.45
   5 -15  -5   85.15   48.43
   4 -15  -5    1.07   18.80
   3 -15  -5   14.80   27.42
   2 -15  -5  -81.66   45.50
   1 -15  -5   20.83   23.71
   0 -15  -5   32.38   28.72
  -1 -15  -5  -42.17   31.04
  -2 -15  -5   11.46   18.16
  -3 -15  -5   52.25   37.27
  -4 -15  -5  -26.75   24.90
   5  15   5   20.45   27.56
   6 -16  -5  156.27   63.02
   5 -16  -5  116.49   53.08
   4 -16  -5   24.06   11.02
   3 -16  -5  -19.30   13.03
   2 -16  -5   -3.56   22.67
   1 -16  -5   84.81   48.04
   0 -16  -5   51.70   37.81
  -1 -16  -5   61.26   41.03
  -2 -16  -5   -8.04   15.31
  -3 -16  -5    0.27   16.60
   5 -17  -5  -12.85   22.48
   4 -17  -5  -62.53   40.84
   3 -17  -5  -46.81   35.94
   2 -17  -5   41.43   36.38
   1 -17  -5   55.50   41.01
   0 -17  -5  -13.26   23.77
  -1 -17  -5   30.55   31.27
  -2 -17  -5    2.67   15.71
   3 -18  -5    8.10   21.83
   2 -18  -5  -24.39   29.69
   1 -18  -5   66.01   45.67
   0 -18  -5   69.44   47.11
  14   0  -6  339.43  101.46
  13   0  -6   86.33   50.62
  12   0  -6  -14.92   26.33
  11   0  -6   62.19   30.66
  10   0  -6  128.06   40.22
   9   0  -6  881.15   98.63
   9   0  -6  786.41   64.27
   8   0  -6   16.39   10.05
   7   0  -6  101.11   32.15
   6   0  -6  154.31   43.41
   5   0  -6  410.88   77.06
   5   0  -6  529.25   96.60
   4   0  -6  725.44  108.33
   4   0  -6  552.90  100.49
   3   0  -6   -1.93   15.37
   3   0  -6   24.98   20.19
   2   0  -6  197.67   64.94
  -1   0   6   68.91   39.19
   0   0   6 1208.22  177.08
   1   0   6  217.51   69.80
   2   0   6   90.04   49.38
   3   0   6   41.57   35.65
   4   0   6  -28.59   29.95
   5   0   6 1149.02  186.56
   6   0   6   28.67   31.32
   7   0   6   -3.85   31.70
   8   0   6   46.12   54.92
  14   1  -6    3.82   19.88
  14  -1  -6   26.50   34.23
  13   1  -6   39.70   31.23
  13  -1  -6   14.26   26.68
  12   1  -6    0.66   18.11
  12  -1  -6    7.00   16.46
  11   1  -6   53.51   28.93
  11  -1  -6   90.49   39.19
  10   1  -6  876.98  103.57
  10  -1  -6  724.23   95.64
   9   1  -6   19.25   17.63
   9  -1  -6   -0.90   10.33
   9  -1  -6    8.28   12.56
   8   1  -6   42.91   20.58
   8  -1  -6   46.35   24.45
   7  -1  -6   -8.32   17.29
   7   1  -6    8.71    7.79
   7  -1  -6   -4.78    7.97
   6  -1  -6  217.21   54.49
   6  -1  -6  221.06   61.45
   6   1  -6  242.54   49.52
   5   1  -6 1177.73  119.78
   5  -1  -6 1007.57  129.53
   5  -1  -6  964.11  126.98
   4   1  -6   99.03   38.54
   4  -1  -6  144.09   54.07
   4  -1  -6   77.41   35.52
   3  -1  -6   24.11   16.84
   3   1  -6   58.52   34.29
   3  -1  -6   13.83   17.58
   2  -1  -6    5.67   16.91
   2   1  -6  -29.22   25.83
  -2   1   6    9.89   25.74
   2  -1  -6    6.40   15.83
  -1  -1   6  575.15  121.59
  -1   1   6  761.01  143.05
   0  -1   6  601.02  123.96
   0   1   6  741.90  135.34
   1  -1   6  134.66   63.70
   1   1   6  150.50   59.22
   2  -1   6  -30.33   30.44
   2   1   6   82.22   51.29
   3  -1   6   -8.43   26.46
   3   1   6   46.19   42.07
   4  -1   6  816.95  152.43
   4   1   6  761.52  149.31
   5  -1   6   77.50   45.61
   5   1   6  173.74   72.31
   6  -1   6   83.04   51.35
   6   1   6  142.09   76.63
   7  -1   6  -71.04   46.22
   7   1   6  -54.74   47.02
   8  -1   6 -115.25   67.00
   8   1   6  -82.84   59.55
  14   2  -6  197.18   78.16
  14  -2  -6  122.24   66.31
  13   2  -6   22.26   24.53
  13  -2  -6    6.43   14.73
  12   2  -6   71.36   37.23
  12  -2  -6   39.84   24.26
  11   2  -6   19.45   25.13
  11  -2  -6   11.45   14.97
  10   2  -6  217.82   54.06
  10  -2  -6  294.59   53.65
  10  -2  -6  295.16   63.26
   9   2  -6  663.14   79.95
   9  -2  -6  495.56   80.22
   8   2  -6   79.64   26.71
   8  -2  -6   80.15   32.82
   8  -2  -6   29.62   25.02
   7  -2  -6  246.30   61.76
   7   2  -6  272.55   48.61
   7  -2  -6  397.64   75.53
   6  -2  -6  121.47   41.60
   6  -2  -6   76.28   33.70
   6   2  -6  192.57   40.91
   5   2  -6 1112.73  106.37
   5  -2  -6  782.09  121.35
   4   2  -6 1027.85  112.86
   4  -2  -6  874.91  133.20
   4  -2  -6  995.93  117.23
   3  -2  -6   35.37   24.49
   3   2  -6    9.66   13.86
   3  -2  -6   63.29   33.22
   2  -2  -6  713.24  133.27
   2   2  -6  486.37   96.42
   2  -2  -6  579.52   87.64
  -2   2   6  482.49  106.49
  -1  -2   6  290.68   93.15
  -1   2   6  348.71   91.80
   0  -2   6 1416.07  196.94
   0   2   6 1293.12  178.73
   1  -2   6  997.90  162.64
   1   2   6  768.31  141.12
   2  -2   6   12.74   13.08
   2   2   6   33.94   35.06
   3  -2   6  535.26  122.23
   3   2   6  502.26  114.94
   4  -2   6  165.39   73.57
   4   2   6  222.30   77.71
   5  -2   6  531.85  128.86
   5   2   6  548.24  132.00
   6  -2   6  316.49  103.32
   6   2   6  425.84  122.84
   7  -2   6    5.63   30.90
   7   2   6   34.42   35.50
   8  -2   6  260.94  100.10
   8   2   6   80.49   70.01
  14  -3  -6  174.89   82.08
  13   3  -6  196.92   66.99
  13  -3  -6   98.35   54.03
  12   3  -6  -13.31   27.61
  12  -3  -6    3.77    9.10
  11   3  -6  326.97   77.16
  11  -3  -6  352.25   75.06
  10   3  -6   76.10   34.39
  10  -3  -6   58.04   28.09
   9   3  -6  555.93   74.41
   9  -3  -6  346.01   69.02
   8   3  -6  966.97   86.67
  -8  -3   6  707.74  132.15
   8  -3  -6  808.87  108.55
   7   3  -6   -3.47    4.09
   7   3  -6    2.89    6.83
   6   3  -6  944.18   83.26
   6  -3  -6 1024.48  133.45
   5   3  -6  439.65   59.01
   5  -3  -6  289.69   76.03
   4   3  -6  648.51   83.02
   4  -3  -6  588.12  111.54
   3   3  -6 1949.22  157.07
   3  -3  -6 1782.14  204.66
   2  -3  -6  -10.71   27.97
   2   3  -6   13.69   17.75
  -2   3   6   39.78   34.81
   2  -3  -6  -53.66   25.03
  -1   3   6 1387.23  178.70
   1  -3  -6 1130.07  118.31
   0  -3   6  368.88  102.09
   0   3   6  699.34  129.66
   1  -3   6  332.73   99.20
   1   3   6  391.19   94.95
   2  -3   6 1633.33  216.79
   2   3   6 1658.69  204.22
   3  -3   6   92.50   31.84
   3   3   6  127.49   63.93
   4  -3   6  690.00  144.87
   4   3   6  542.54  123.94
   5  -3   6  257.69   92.57
   5   3   6  383.30  111.79
   6  -3   6  141.56   73.38
   6   3   6   53.45   36.89
   7  -3   6  463.20  123.61
   7   3   6  527.16  141.53
   8  -3   6   25.46   17.33
   8   3   6  -17.06   23.28
  13  -4  -6   22.64   21.52
  12   4  -6  385.31   91.22
  12  -4  -6  567.46  104.36
  11   4  -6   24.03   21.79
  11  -4  -6   59.97   27.04
  10   4  -6   77.44   34.89
  10  -4  -6   83.31   33.83
  10  -4  -6   83.19   34.19
   9   4  -6   75.50   28.92
   9  -4  -6   47.94   29.04
  -8  -4   6   78.79   41.90
   8   4  -6  141.60   33.01
   8  -4  -6   90.25   35.96
   7   4  -6 1672.13  102.06
   7  -4  -6 1311.76  149.67
   7  -4  -6 1239.05  120.45
   6  -4  -6   78.75   41.96
   6  -4  -6  141.73   38.54
   6   4  -6  139.19   28.66
   6   4  -6  121.55   26.01
   5  -4  -6  138.52   54.11
   5  -4  -6   96.08   29.80
   5   4  -6  169.75   32.69
   4   4  -6  333.17   52.34
   4  -4  -6  343.93   89.97
   3   4  -6   81.72   26.91
   3  -4  -6  143.35   57.48
   2  -4  -6 1860.74  217.37
   2   4  -6 1999.18  167.11
  -2   4   6 2261.22  227.18
   2  -4  -6 2227.99  153.85
  -1   4   6  317.99   84.83
   1  -4  -6  225.50   52.43
   0  -4   6   79.08   47.53
   0   4   6  116.07   50.27
   1  -4   6  645.42  137.02
   1   4   6  488.06  107.45
   2  -4   6  140.98   66.92
   2   4   6  142.58   61.21
   3  -4   6 1352.15  199.58
   3   4   6 1260.67  184.74
   4  -4   6  347.22  105.08
   4   4   6  142.13   63.94
   5  -4   6   30.76   39.88
   5   4   6    0.78   14.67
   6  -4   6  176.68   79.81
   6   4   6  230.09   89.28
   7  -4   6   23.66   42.16
   7   4   6  101.54   52.35
   8  -4   6  415.73  129.53
   8   4   6  271.26  107.40
  13  -5  -6  144.38   65.22
  12  -5  -6  241.76   71.26
  11  -5  -6   93.92   43.63
  10   5  -6   -2.46   11.54
  10  -5  -6    1.76   14.59
  10  -5  -6   -0.72   20.41
   9   5  -6   11.64   17.88
   9  -5  -6   31.02   26.91
   8   5  -6  572.12   74.10
   8  -5  -6  765.34  115.88
   7   5  -6  329.72   43.90
   7  -5  -6  192.96   42.06
   7  -5  -6  301.91   76.39
   6  -5  -6  150.95   58.07
   6   5  -6   51.51   17.30
   6   5  -6  115.02   23.55
   6  -5  -6   62.30   21.65
   5  -5  -6  -17.08   21.78
   5  -5  -6    8.47   12.12
   5   5  -6    3.30    4.68
   5   5  -6   20.52   13.81
   4   5  -6   28.52   10.43
   4   5  -6   26.35   14.59
   4  -5  -6   33.58   34.11
   4  -5  -6   10.03    8.98
   3   5  -6 1491.20  112.98
   3  -5  -6 1380.04  183.12
   2  -5  -6   99.03   53.12
   2   5  -6   50.75   23.12
  -2   5   6   34.67   16.61
  -1   5   6    3.61   17.77
   1  -5  -6   35.19   19.23
   0   5   6   25.88   20.95
   1  -5   6    7.10   11.95
   1   5   6   81.65   50.49
   2  -5   6  829.75  158.37
   2   5   6  864.53  144.86
   3  -5   6    1.81   18.88
   3   5   6   22.31   33.60
   4  -5   6    6.12   26.63
   4   5   6    4.81   17.42
   5  -5   6   59.76   44.11
   5   5   6   18.98   20.02
   6  -5   6  202.42   84.57
   6   5   6  141.20   65.94
   7  -5   6  448.08  125.44
   7   5   6  360.35  119.34
   8  -5   6    8.87   42.85
   8   5   6  -16.11   28.05
  13  -6  -6   44.47   31.65
  12  -6  -6  357.58   87.97
  11  -6  -6  230.81   70.99
  11  -6  -6  136.52   50.66
  10  -6  -6    6.28   27.65
  10  -6  -6    6.05   16.08
   9   6  -6   -0.59   10.28
   9  -6  -6   16.70   22.24
   8   6  -6    6.89   10.07
   8  -6  -6   67.77   39.85
   7  -6  -6  625.36  113.20
   7   6  -6  610.79   66.35
   7  -6  -6  699.54   63.22
   6  -6  -6   65.34   37.97
   6   6  -6   90.20   18.84
   6  -6  -6   57.05   18.58
   5  -6  -6  193.86   70.99
   5   6  -6  134.09   20.73
   5  -6  -6  103.57   25.08
   5   6  -6   99.22   30.46
   4  -6  -6   14.41   16.70
   4   6  -6   38.60   19.71
   4  -6  -6   34.77   15.77
   4   6  -6   20.98    8.94
   3   6  -6   10.45    6.31
   3   6  -6   -1.56    6.73
   3  -6  -6  -11.30    9.61
   2   6  -6  847.77   89.87
  -2   6   6  872.64  134.45
   2  -6  -6  690.94  133.97
   1  -6  -6  -10.08   27.96
  -1   6   6   13.97   23.62
   1  -6  -6    5.40    9.57
   0   6   6  101.80   45.28
  -1   6  -6   14.68   11.76
   1  -6   6   26.54   24.49
   2  -6   6  222.04   82.42
   2   6   6  126.23   47.03
   3  -6   6  579.86  137.30
   3   6   6  441.69  110.54
   4  -6   6   12.19   15.68
   4   6   6  -49.52   39.78
   5  -6   6   44.65   34.74
   5   6   6  -10.74   45.11
   6  -6   6   90.21   53.20
   6   6   6   16.74   27.30
   7  -6   6  288.07   97.71
   7   6   6  197.83   84.05
  12  -7  -6  112.78   54.68
  11  -7  -6  180.15   65.74
  11  -7  -6  102.10   41.76
  10  -7  -6 -104.41   53.27
  10  -7  -6   12.46   17.33
   9  -7  -6   18.40   24.45
   8  -7  -6  331.49   81.24
   7  -7  -6   94.80   49.46
   6  -7  -6  230.10   76.55
   6   7  -6  195.10   24.39
   6  -7  -6  198.73   25.21
   5   7  -6    7.14    3.61
   5  -7  -6  -19.45   29.42
   5  -7  -6    2.06    3.79
   4  -7  -6    7.09   20.78
   4   7  -6    3.48    1.66
   4   7  -6   -9.80   17.63
   4  -7  -6  -16.92   10.81
   3   7  -6  866.37   56.25
   3  -7  -6 1005.17  157.92
   3   7  -6  696.31  101.34
   3  -7  -6  635.55   74.13
   2   7  -6    1.62    7.10
  -2   7   6   23.73   21.28
   2   7  -6   -0.04    6.89
   2  -7  -6    4.13   21.07
   1  -7  -6  125.11   55.57
   1   7  -6   92.43   26.56
  -1   7   6   96.42   46.49
   0   7  -6   -5.38    9.66
   0   7   6   11.29   13.95
  -1   7  -6   -3.82    6.71
   1   7   6   21.10   20.46
   2  -7   6  905.95  170.17
   2   7   6  542.49  117.10
   3  -7   6   -5.10   32.07
   3   7   6   71.67   39.83
   4  -7   6   59.07   32.55
   4   7   6   67.49   37.77
   5  -7   6   82.45   43.26
   5   7   6   30.00   13.42
   6  -7   6  102.81   60.25
   6   7   6   53.82   49.06
   7  -7   6  296.75  102.94
   7   7   6  197.84   91.89
  12  -8  -6  138.52   56.81
  11  -8  -6   -3.97   29.80
  11  -8  -6  -28.45   26.15
  10  -8  -6  190.13   78.88
  10  -8  -6  224.68   74.14
   9  -8  -6  184.26   64.50
   8  -8  -6   26.92   30.77
   7  -8  -6  883.71  141.04
   6  -8  -6   50.95   38.48
   5  -8  -6  352.70   94.76
   4  -8  -6  557.36  123.55
   3  -8  -6   16.55   15.55
   3   8  -6  -19.72   19.01
   2   8  -6 1099.51   54.72
   2   8  -6 1057.24   68.12
   2  -8  -6  983.16  154.99
  -2   8   6  982.46  137.52
   1  -8  -6    9.33   19.47
   1   8  -6   31.92   13.05
   0   8   6  275.32   74.77
   1   8   6  783.06  132.09
   2   8   6  -21.48   33.18
   3  -8   6  643.55  148.01
   3   8   6  485.72  114.74
   4  -8   6  -14.93   25.73
   4   8   6   15.50   20.30
   5  -8   6   82.56   58.77
   5   8   6  211.38   82.30
   6  -8   6  274.62   99.26
   6   8   6  434.66  126.55
   7  -8   6  -14.73   19.00
   7   8   6  -60.50   51.43
  11  -9  -6  497.89  126.24
  11  -9  -6  369.83   92.36
  10  -9  -6  216.19   79.45
  10  -9  -6  229.75   73.12
   9  -9  -6  146.35   57.58
   8  -9  -6  275.18   78.68
   7  -9  -6   19.98   16.67
   6  -9  -6 1139.68  168.17
   5  -9  -6  480.11  113.52
   4  -9  -6  226.25   78.24
   3  -9  -6  629.04  128.05
  -2   9   6    0.10   18.53
   2  -9  -6  -24.62   28.38
   1  -9  -6  865.95  147.50
  -1   9   6 1002.49  138.44
   0  -9  -6  617.71  119.00
   0   9   6  701.04  119.55
   1   9   6   54.04   33.87
   2   9   6  453.30  105.85
   3   9   6   -0.32   16.39
   4  -9   6  524.20  136.84
   4   9   6  508.43  123.45
   5  -9   6  515.05  138.25
   5   9   6  373.18  113.95
   6  -9   6   51.61   45.01
   6   9   6   82.57   60.12
   7  -9   6  181.59   89.67
   7   9   6  141.60   72.95
  11 -10  -6   86.12   57.27
  11 -10  -6  -41.10   34.77
  10 -10  -6  285.17  101.17
  10 -10  -6  305.00   85.34
   9 -10  -6  415.35  101.53
   8 -10  -6  -17.33   25.90
   7 -10  -6   96.00   51.94
   6 -10  -6   32.56   21.46
   5 -10  -6  665.90  134.55
   4 -10  -6  657.44  133.73
   3 -10  -6    5.13   14.13
  -2  10   6  196.36   58.58
   2 -10  -6  106.43   49.04
  -1  10   6   31.67   24.18
   1 -10  -6   23.12   13.30
   0 -10  -6  631.95  120.81
   0  10   6  924.40  134.29
   1  10   6  502.71  105.15
   2  10   6  -37.22   31.42
   3  10   6   55.65   45.07
   4  10   6   45.57   33.00
   5 -10   6  562.27  145.14
   5  10   6  376.59  110.05
   6 -10   6  230.53   90.62
   6  10   6  370.23  119.34
   7  10   6   39.47   55.17
  11 -11  -6   72.69   75.95
  10 -11  -6  357.11  117.17
  10 -11  -6  346.70   93.32
   9 -11  -6  -11.79   19.42
   8 -11  -6    7.89   20.18
   7 -11  -6   -5.82   21.47
   6 -11  -6   96.59   56.16
   5 -11  -6  444.14  109.17
   4 -11  -6   42.25   31.58
   3 -11  -6   34.08   30.34
   2 -11  -6   -0.72   10.13
  -1  11   6  295.57   70.93
   1 -11  -6  202.57   70.48
   0 -11  -6  130.97   52.62
   0  11   6  250.97   67.52
  -1 -11  -6  105.68   46.83
   1  11   6   23.06   26.50
   2  11   6   27.61   14.43
   3  11   6  -15.19   22.47
   4  11   6  156.39   62.72
   5  11   6   61.64   50.26
   6  11   6   94.78   52.53
  11 -12  -6  248.69  116.27
  10 -12  -6  -21.43   42.67
   9 -12  -6  227.94   78.00
   8 -12  -6   28.67   28.17
   7 -12  -6   14.47   23.18
   6 -12  -6  180.50   66.90
   5 -12  -6   66.65   47.58
   4 -12  -6  136.28   59.20
   3 -12  -6    4.45   19.52
   2 -12  -6   39.27   24.02
   1 -12  -6   99.39   46.63
   0 -12  -6  278.79   78.30
  -1 -12  -6   64.55   41.30
   1  12   6    8.79   13.88
  -2 -12  -6    1.70   21.52
   2  12   6   -2.59   11.65
   3  12   6  -51.49   38.27
   4  12   6   12.03   20.82
   5  12   6  363.94  110.87
   6  12   6   42.41   41.73
  11 -13  -6  223.22   96.01
  10 -13  -6   17.76   31.16
   8 -13  -6  184.83   72.09
   7 -13  -6   64.22   47.31
   6 -13  -6   16.23   22.90
   5 -13  -6  153.26   59.78
   4 -13  -6  123.19   58.51
   3 -13  -6   26.25   36.90
   2 -13  -6   13.50   20.29
   1 -13  -6   56.78   34.28
   0 -13  -6   68.62   39.02
  -1 -13  -6   65.40   38.09
  -2 -13  -6   42.82   36.19
   3  13   6   39.72   32.07
   4  13   6  153.97   67.59
   5  13   6    9.10   24.95
   6  13   6   16.95   40.10
   7 -14  -6  138.99   60.24
   6 -14  -6  157.55   62.66
   5 -14  -6  144.69   64.01
   4 -14  -6  230.54   79.34
   3 -14  -6   62.71   40.46
   2 -14  -6  394.87   98.07
   1 -14  -6  210.58   68.96
   0 -14  -6  167.79   60.59
  -1 -14  -6  135.88   55.21
  -2 -14  -6   46.58   36.58
  -3 -14  -6  243.31   74.84
   6 -15  -6  108.08   53.31
   5 -15  -6  119.31   56.75
   4 -15  -6  277.67   87.06
   3 -15  -6  474.68  113.29
   2 -15  -6   -5.02   29.26
   1 -15  -6  197.58   69.46
   0 -15  -6  113.05   51.87
  -1 -15  -6   51.93   33.83
  -2 -15  -6  348.54   89.77
   4 -16  -6   49.32   46.65
   3 -16  -6   66.97   39.23
   2 -16  -6  421.66  103.68
   1 -16  -6   11.00   26.81
   0 -16  -6  -17.37   24.97
  14   0  -7   82.71   52.54
  13   0  -7   -2.01   13.47
  12   0  -7   -4.47   19.21
  11   0  -7   27.97   22.24
  10   0  -7   -6.72   12.11
   9   0  -7   -8.28   10.56
   8   0  -7  -12.15   12.65
   7   0  -7    5.75   13.83
   6   0  -7    8.23   15.78
   5   0  -7    2.18    7.33
   4   0  -7   11.70   24.15
   3   0  -7  -94.04   46.44
   2   0  -7   -1.12   16.53
  -1   0   7  -15.97   35.67
   0   0   7  -12.36   34.40
   1   0   7   32.72   40.11
   2   0   7   30.69   32.64
   3   0   7   33.64   38.30
   4   0   7   10.24   22.59
   5   0   7   48.99   40.73
   6   0   7    0.72   15.12
  14  -1  -7   24.19   30.82
  13   1  -7    0.62   20.69
  13  -1  -7   16.23   23.53
  12   1  -7   57.28   32.39
  12  -1  -7  118.89   44.60
  11   1  -7  121.73   42.79
  11  -1  -7   92.45   36.84
  10   1  -7   94.83   33.67
  10  -1  -7   51.18   27.16
   9   1  -7   37.65   21.36
   9  -1  -7   24.23   16.12
   8   1  -7   25.16   15.99
   8  -1  -7   15.80   12.48
   7   1  -7   83.81   31.88
   7  -1  -7   57.06   28.32
   6   1  -7  191.17   49.45
   6  -1  -7  288.82   69.54
   5   1  -7  235.39   60.58
   5  -1  -7  166.75   57.87
   4   1  -7   43.06   32.65
   4  -1  -7   53.71   37.57
   3   1  -7    4.13   11.55
   3  -1  -7   28.71   24.13
   2  -1  -7    5.67   28.20
   2   1  -7  -81.53   45.29
  -1  -1   7  275.66   97.51
  -1   1   7  396.38  113.31
   0  -1   7  177.32   77.51
   0   1   7  217.80   83.32
   1  -1   7   27.42   24.97
   1   1   7   -4.91   25.20
   2  -1   7   -4.58   19.59
   2   1   7 -100.32   57.93
   3  -1   7   -4.77   35.17
   3   1   7   18.30   20.84
   4  -1   7  114.71   68.14
   4   1   7  117.43   63.21
   5  -1   7  106.90   62.75
   5   1   7   78.78   57.08
   6  -1   7   58.36   35.48
   6   1   7   13.49   24.49
  14  -2  -7  -33.49   45.01
  13  -2  -7   33.62   26.94
  12   2  -7   13.83   20.54
  12  -2  -7   -5.71   18.13
  11   2  -7    3.66   10.06
  11  -2  -7   -6.43    7.58
  10   2  -7  163.32   44.69
  10  -2  -7   68.15   33.57
   9   2  -7   38.98   20.10
   9  -2  -7   16.67   16.48
   8   2  -7   59.67   25.46
   8  -2  -7  109.27   44.01
   7  -2  -7   37.12   27.39
   7   2  -7    6.65   13.72
   6   2  -7   86.72   30.03
   6  -2  -7   42.38   28.36
   5   2  -7  311.56   64.39
   5  -2  -7  386.16   90.61
   4   2  -7   19.51   25.51
   4  -2  -7   31.27   32.77
   3   2  -7    7.25   25.02
   3  -2  -7   -8.19   12.38
   2  -2  -7  -12.76   37.01
   2   2  -7    0.26   15.92
  -2   2   7   -0.19   41.35
  -1   2   7  181.72   74.77
   0  -2   7  418.57  116.27
   0   2   7  372.52  109.79
   1  -2   7   17.06   39.29
   1   2   7   17.11   22.05
   2  -2   7   43.66   48.87
   2   2   7   98.66   57.16
   3  -2   7  -18.38   43.47
   3   2   7  -24.59   33.86
   4  -2   7   38.72   39.51
   4   2   7   63.28   46.24
   5  -2   7  181.34   78.73
   5   2   7   81.04   55.60
   6  -2   7   81.20   59.10
   6   2   7   -6.62   30.31
  13  -3  -7    0.14   16.51
  12  -3  -7   48.92   29.68
  11   3  -7   -4.66   15.47
  11  -3  -7   -4.92   12.01
  10   3  -7  107.92   34.48
  10  -3  -7  171.79   52.60
   9   3  -7    5.36    8.04
   9  -3  -7  -24.13   20.73
   8   3  -7  319.59   53.01
   8  -3  -7  263.56   64.99
   7  -3  -7   77.91   36.47
   7   3  -7   38.99   18.50
   6  -3  -7   67.57   36.50
   6  -3  -7  113.92   40.02
   6   3  -7  103.25   31.50
   5   3  -7  298.78   58.02
   5  -3  -7  219.82   69.67
   5  -3  -7  235.01   59.14
   4   3  -7    4.58   10.88
   4  -3  -7   12.11   33.68
   3   3  -7  473.05   86.05
   3  -3  -7  544.42  120.39
   2  -3  -7  -10.46   27.32
   2   3  -7   -3.17   21.45
  -2   3   7   -3.44   30.41
  -1   3   7  310.43   99.29
   0  -3   7   87.77   60.30
   0   3   7  121.38   60.51
   1  -3   7   74.84   43.91
   1   3   7   21.20   24.79
   2  -3   7  328.99  107.54
   2   3   7  375.37  108.05
   3  -3   7   59.86   48.13
   3   3   7  -53.67   43.49
   4  -3   7  288.65  101.10
   4   3   7  244.86   91.14
   5  -3   7   22.19   18.09
   5   3   7   62.18   43.34
   6  -3   7   23.23   28.59
   6   3   7   72.32   63.29
  13  -4  -7   25.78   23.64
  12  -4  -7   96.56   40.37
  11  -4  -7   14.65   18.47
  10   4  -7  -13.61   17.03
  10  -4  -7   17.36   26.68
   9   4  -7   -4.02    9.65
   9  -4  -7    7.79   22.06
   8   4  -7   24.46   13.54
   8  -4  -7   -9.29   18.41
   7  -4  -7  302.46   77.24
   7   4  -7  316.29   47.88
   6  -4  -7   35.52   18.53
   6  -4  -7    2.73    6.96
   6   4  -7   36.65   18.62
   5   4  -7  -27.33   15.87
   5  -4  -7   14.53   24.43
   5  -4  -7   -4.42   11.08
   4   4  -7   89.96   30.38
   4  -4  -7  101.62   47.29
   4  -4  -7  138.99   42.53
   3   4  -7    4.46    6.94
   3  -4  -7   -4.43   40.56
   2  -4  -7  235.48   83.08
   2   4  -7  309.66   70.70
  -2   4   7  341.69   98.53
  -1   4   7   -4.64   21.31
   0   4   7    7.49   17.82
   1  -4   7  229.25   90.63
   1   4   7  220.84   82.97
   2  -4   7   -6.08   30.52
   2   4   7   -0.55   12.20
   3  -4   7   52.89   48.31
   3   4   7   77.73   51.77
   4  -4   7    9.07   19.38
   4   4   7   44.47   39.41
   5  -4   7   77.11   62.40
   5   4   7   91.26   64.30
   6  -4   7  133.55   70.36
   6   4   7  133.88   79.86
  12  -5  -7   49.16   33.77
  11  -5  -7   -6.74   10.72
  10  -5  -7    9.68    8.90
   9  -5  -7    3.50   17.90
   8   5  -7  132.97   31.90
   8  -5  -7   59.21   39.50
   7  -5  -7   24.65   15.22
   7   5  -7    5.63    5.98
   6  -5  -7   51.56   36.27
   6   5  -7   97.02   23.98
   5   5  -7   13.49   12.65
   5  -5  -7  -11.39   25.74
   5   5  -7    2.01    6.61
   4   5  -7  -11.34    9.73
   4  -5  -7   -3.98   22.75
   4  -5  -7  -11.25   11.48
   3   5  -7  271.41   55.36
   3  -5  -7  273.62   56.17
   2  -5  -7   -3.31   15.95
   2   5  -7    0.99   12.87
  -2   5   7   16.32   45.11
   1  -5  -7  -88.40   54.63
  -1   5   7   -8.49   20.58
   0   5   7   55.70   45.55
   1  -5   7 -103.44   62.28
   1   5   7    8.33   22.95
   2  -5   7  121.77   67.60
   2   5   7  154.89   69.33
   3  -5   7   60.93   49.25
   3   5   7  -11.37   38.19
   4  -5   7    3.20   16.51
   4   5   7  -43.78   41.04
   5  -5   7   52.36   47.36
   5   5   7  133.31   77.82
   6  -5   7   40.93   52.47
   6   5   7   19.80   22.98
  12  -6  -7   23.20   19.45
  11  -6  -7    3.76   15.96
  10  -6  -7  -18.08   15.50
   9  -6  -7  -24.95   31.97
   8  -6  -7  -14.57   33.39
   7  -6  -7   -5.18   31.37
   6  -6  -7  -55.95   39.16
   6   6  -7   -1.02    5.59
   5  -6  -7    2.34   22.54
   5   6  -7    3.19   19.69
   5   6  -7    1.35    3.93
   4   6  -7    9.55   10.16
   4   6  -7  -26.41   21.40
   3   6  -7    7.92   12.16
   3  -6  -7  -12.62   21.07
   3  -6  -7   25.73   18.97
  -2   6   7   32.29   32.18
   2  -6  -7   55.88   54.32
   2   6  -7   -1.31   13.81
   1  -6  -7  -16.40   35.96
  -1   6   7   51.16   37.83
   0   6   7   -1.32   15.57
   1   6   7   35.51   17.89
   2  -6   7  -33.63   38.21
   2   6   7   10.48   28.23
   3  -6   7  -20.84   24.75
   3   6   7  -15.82   36.90
   4  -6   7    6.58   23.90
   4   6   7    6.57   18.53
   5  -6   7 -124.35   71.02
   5   6   7   -3.05   21.51
   6  -6   7  -11.64   25.32
   6   6   7  -58.06   51.84
  11  -7  -7  -42.71   34.39
  10  -7  -7   65.01   36.35
   9  -7  -7  108.60   51.73
   8  -7  -7  365.31   92.01
   7  -7  -7    6.08   15.11
   6  -7  -7   -1.15   38.47
   5  -7  -7   15.54   18.45
   4  -7  -7  202.33   75.94
   3   7  -7  473.92   56.79
   3  -7  -7  547.25  126.29
  -2   7   7   28.61   28.81
   2   7  -7   19.49   15.32
   2  -7  -7  -13.57   25.33
   1  -7  -7    1.79   20.10
  -1   7   7    4.64   13.74
   0   7   7   22.98   15.92
   1   7   7   31.83   27.93
   2   7   7  409.47  110.42
   3  -7   7   36.28   23.58
   3   7   7   76.02   46.21
   4  -7   7   78.89   49.72
   4   7   7   71.42   51.72
   5  -7   7    5.21   28.59
   5   7   7   59.83   60.57
   6   7   7   15.20   37.63
  11  -8  -7   -9.32   18.14
  10  -8  -7   20.23   23.41
   9  -8  -7  -27.58   40.97
   8  -8  -7   95.06   51.28
   7  -8  -7  162.27   63.88
   6  -8  -7  -23.27   35.80
   5  -8  -7   40.66   35.61
   4  -8  -7   96.88   59.21
   3  -8  -7   82.17   50.95
  -2   8   7  146.22   57.60
   2  -8  -7  225.01   83.00
   1  -8  -7    9.84   34.38
  -1   8   7  -63.69   40.45
   0  -8  -7  -25.70   36.31
   0   8   7   18.28   24.16
   1   8   7  126.32   59.57
   2   8   7    5.43   20.56
   3   8   7  114.76   60.15
   4  -8   7  -43.05   51.45
   4   8   7   61.62   33.74
   5  -8   7  -30.70   40.08
   5   8   7   13.51   37.61
   6   8   7  -29.16   40.57
  10  -9  -7  186.98   68.42
   9  -9  -7   13.10   20.79
   8  -9  -7  117.96   54.60
   7  -9  -7  -14.38   23.55
   6  -9  -7   27.79   40.74
   5  -9  -7  174.54   71.52
   4  -9  -7   10.99   30.74
   3  -9  -7  163.94   69.63
  -2   9   7  -14.92   35.44
   2  -9  -7  -14.00   21.74
  -1   9   7  115.32   49.63
   1  -9  -7   68.96   48.73
   0  -9  -7   27.04   20.99
   0   9   7   14.98   12.13
   1   9   7   90.76   55.99
   2   9   7  142.31   58.60
   3   9   7   39.51   47.48
   4   9   7   -0.21   22.46
   5  -9   7  -13.95   35.48
   5   9   7  -52.18   47.37
   6   9   7   18.58   25.10
  10 -10  -7   60.85   48.59
   9 -10  -7   76.67   51.24
   8 -10  -7   48.87   37.49
   7 -10  -7   -9.35   19.00
   6 -10  -7   64.86   42.49
   5 -10  -7  262.66   90.06
   4 -10  -7   39.58   31.47
   3 -10  -7   -4.03   24.89
   2 -10  -7  -28.70   36.22
  -1  10   7   87.12   41.20
   1 -10  -7   91.22   41.07
   0 -10  -7  107.00   53.15
   0  10   7  109.61   47.70
  -1 -10  -7    5.75   13.09
   1  10   7   37.38   39.99
   2  10   7   77.53   49.63
   3  10   7  -12.11   23.27
   4  10   7   49.27   32.74
   5  10   7  -45.73   43.88
   9 -11  -7   70.18   49.12
   8 -11  -7   31.55   36.18
   7 -11  -7   57.87   41.87
   6 -11  -7   27.87   29.33
   5 -11  -7   21.88   31.77
   4 -11  -7   60.10   25.27
   3 -11  -7   57.45   47.43
   2 -11  -7  103.70   55.11
   1 -11  -7    6.76   35.85
   0 -11  -7   41.29   35.79
  -1 -11  -7   31.85   26.65
   1  11   7   33.70   34.97
   2  11   7   92.71   54.53
   3  11   7   86.51   55.19
   4  11   7  -62.03   49.09
   5  11   7   43.65   43.71
   8 -12  -7  -35.44   40.92
   7 -12  -7   50.37   46.79
   6 -12  -7   31.84   22.55
   5 -12  -7  -58.79   42.53
   4 -12  -7   57.60   42.01
   3 -12  -7  -42.26   35.24
   2 -12  -7   20.22   34.10
   1 -12  -7   28.58   33.99
   0 -12  -7   38.00   34.23
  -1 -12  -7  -11.89   14.96
  -2 -12  -7   11.03   13.41
   4  12   7  -53.23   46.04
   6 -13  -7  241.97   83.61
   5 -13  -7   81.41   38.44
   4 -13  -7  -11.97   21.12
   3 -13  -7  -16.30   22.63
   2 -13  -7   65.54   41.50
   1 -13  -7  100.87   52.84
   0 -13  -7   92.97   49.65
  -1 -13  -7  -42.04   34.59
   5 -14  -7   78.40   43.13
   4 -14  -7  -36.17   27.82
   3 -14  -7   -7.45   19.08
   2 -14  -7   62.94   38.16
   1 -14  -7   53.58   44.18
  12   0  -8  384.58   80.95
  11   0  -8   -5.18   17.48
  10   0  -8  154.29   46.50
   9   0  -8  687.70   97.27
   8   0  -8   21.66   21.81
   7   0  -8  804.68  110.17
   6   0  -8    4.53    8.66
   5   0  -8  195.63   64.44
   4   0  -8 1563.88  191.73
   3   0  -8    8.44   21.02
   2   0  -8  806.93  157.87
  -1   0   8  110.30   65.95
   0   0   8   97.80   71.78
   1   0   8 1967.96  280.04
   2   0   8  -14.72   40.77
   3   0   8  232.19   94.98
   4   0   8   97.35   64.41
   5   0   8   18.85   43.85
  13  -1  -8  133.61   56.83
  12  -1  -8   68.67   34.88
  11   1  -8   61.23   28.03
  11  -1  -8   87.16   38.15
  10   1  -8   18.67   16.42
  10  -1  -8   11.14    8.62
   9   1  -8   47.88   26.96
   9  -1  -8   44.66   25.36
   8   1  -8 1218.51  124.15
   8  -1  -8 1154.20  135.20
   7  -1  -8   70.63   39.93
   7   1  -8   56.50   29.96
   6   1  -8   79.66   38.30
   6  -1  -8   16.75    9.07
   5   1  -8   93.06   42.09
   5  -1  -8  101.46   45.86
   4   1  -8   74.52   43.60
   4  -1  -8   75.02   47.02
   3   1  -8 1578.80  193.84
   3  -1  -8 1542.61  214.08
   2  -1  -8   31.71   43.95
   2   1  -8  -14.17   25.21
  -1   1   8 -140.26   75.28
   0  -1   8  383.28  123.14
   0   1   8  292.85   97.37
   1  -1   8   65.47   40.45
   1   1   8  110.15   58.09
   2  -1   8 1000.35  205.58
   2   1   8 1297.86  225.82
   3  -1   8   34.90   21.79
   3   1   8  -49.86   47.68
   4  -1   8   27.38   37.60
   4   1   8  -12.29   47.34
   5  -1   8  219.97  100.88
   5   1   8  252.55  110.69
  13  -2  -8   19.37   22.55
  12  -2  -8   75.75   37.09
  11  -2  -8   40.15   26.50
  10   2  -8   -2.17    7.23
  10  -2  -8  -12.18   19.43
   9   2  -8  235.93   51.07
   9  -2  -8  249.60   66.00
   8   2  -8   54.28   22.99
   8  -2  -8   35.59   20.19
   7  -2  -8  190.05   62.54
   7   2  -8  213.14   51.10
   6   2  -8   56.69   29.39
   6  -2  -8   22.50   13.12
   5   2  -8  -16.17   19.87
   5  -2  -8  -12.64   19.15
   4   2  -8  397.71   84.36
   4  -2  -8  346.62   99.64
   3   2  -8   14.56   22.66
   3  -2  -8    0.75   28.19
   2  -2  -8  184.57   89.23
   2   2  -8  108.54   47.39
  -1   2   8  -21.99   52.29
   0  -2   8  -13.27   44.93
   0   2   8    6.66   26.00
   1  -2   8  476.35  139.84
   1   2   8  321.25  114.66
   2  -2   8  -26.62   26.93
   2   2   8   17.66   30.73
   3  -2   8   89.35   52.30
   3   2   8  116.20   79.17
   4  -2   8   60.99   56.93
   4   2   8    6.48   26.85
   5  -2   8  118.57   77.59
   5   2   8   20.83   36.64
  13  -3  -8   65.91   39.75
  12  -3  -8    6.98   20.85
  11  -3  -8   14.95   19.11
  10  -3  -8  141.64   51.63
   9   3  -8   16.58   14.08
   9  -3  -8   -6.07   10.89
   8   3  -8   74.35   28.24
   8  -3  -8   19.00   21.76
   7  -3  -8   56.72   38.69
   7   3  -8   41.21   22.58
   6   3  -8   46.88   25.45
   6  -3  -8   19.40   20.80
   5   3  -8  214.70   55.08
   5  -3  -8   84.61   47.47
   4   3  -8   -6.86   12.31
   4  -3  -8   42.96   41.62
   3   3  -8   70.17   34.69
   3  -3  -8   92.54   62.44
   2  -3  -8   58.04   56.32
   2   3  -8   40.06   28.36
   1  -3  -8   97.59   43.46
  -1   3   8  132.07   77.91
   0   3   8   76.50   50.44
   1  -3   8  -10.80   34.73
   1   3   8  -57.87   47.92
   2  -3   8  160.10   89.71
   2   3   8   38.04   20.23
   3  -3   8   24.24   36.66
   3   3   8   -2.45   18.09
   4  -3   8  114.46   78.46
   4   3   8  226.22   98.98
   5   3   8  -38.29   46.67
  12  -4  -8   20.70   26.01
  11  -4  -8  203.96   61.95
  10  -4  -8   13.32   20.73
   9  -4  -8   62.08   31.02
   8  -4  -8   -4.06   22.37
   7  -4  -8   73.42   36.45
   7   4  -8  158.81   38.22
   6  -4  -8  338.57   96.98
   6   4  -8  297.76   53.66
   5   4  -8   67.26   27.13
   5  -4  -8   96.35   61.80
   4   4  -8   52.68   25.37
   4  -4  -8   45.95   47.38
   3   4  -8  -10.16   14.01
   3  -4  -8  -17.09   49.62
   2  -4  -8  264.93  103.01
   2   4  -8  220.08   66.25
  -2   4   8  186.21   82.57
   1  -4  -8  344.08  126.31
  -1   4   8  172.30   81.49
   0   4   8   33.15   31.50
   1  -4   8  -11.19   54.63
   1   4   8   80.75   54.83
   2  -4   8   82.44   62.54
   2   4   8   43.43   49.30
   3  -4   8  307.57  113.25
   3   4   8  233.59  102.32
   4  -4   8    7.95   36.73
   4   4   8   78.05   68.38
   5   4   8   71.12   58.47
  12  -5  -8  -31.65   37.03
  11  -5  -8  257.34   73.62
  10  -5  -8  555.78  107.54
   9  -5  -8   76.00   44.02
   8  -5  -8  120.89   55.54
   7  -5  -8   49.35   30.18
   6  -5  -8  631.20  135.73
   5   5  -8  851.45   88.16
   5  -5  -8  916.17  170.20
   4   5  -8   10.56    8.17
   4  -5  -8   45.79   43.93
   3   5  -8   59.41   29.72
   3  -5  -8   39.02   15.42
  -2   5   8  -24.25   52.81
   2  -5  -8   28.08   29.45
   2   5  -8   46.22   29.74
   1  -5  -8 1632.63  269.75
  -1   5   8 1086.59  193.87
   0   5   8  504.96  132.95
   1   5   8   27.28   30.38
   2  -5   8   45.03   32.57
   2   5   8   24.93   42.59
   3  -5   8   72.64   60.12
   3   5   8   88.66   56.95
   4  -5   8  399.54  141.60
   4   5   8  532.60  150.70
   5   5   8  242.35  102.86
  11  -6  -8  216.16   68.66
  10  -6  -8  213.96   69.81
   9  -6  -8  197.27   70.04
   8  -6  -8  107.42   52.33
   7  -6  -8  385.32  103.08
   6  -6  -8  613.19  140.32
   5  -6  -8  366.54  106.60
   4  -6  -8  258.50   96.23
   3  -6  -8   -1.04   33.62
   2   6  -8  698.02   95.76
  -2   6   8  553.54  139.64
   2  -6  -8  766.12  171.22
   1  -6  -8  599.37  159.81
  -1   6   8  629.45  147.99
   0   6   8  320.35  100.81
   1   6   8  106.76   55.97
   2   6   8   84.21   54.58
   3  -6   8  458.00  148.23
   3   6   8  565.35  148.58
   4  -6   8  287.92  123.31
   4   6   8  195.79   89.21
   5   6   8    2.73   34.45
  11  -7  -8   92.41   49.43
  10  -7  -8  274.45   82.12
   9  -7  -8   44.28   31.13
   8  -7  -8   97.29   49.17
   7  -7  -8   52.58   37.14
   6  -7  -8  505.39  127.48
   5  -7  -8  479.62  126.21
   4  -7  -8   14.42   36.02
   3  -7  -8  188.03   85.65
  -2   7   8   74.18   22.84
   2  -7  -8   39.76   26.58
   1  -7  -8  744.98  168.72
  -1   7   8  478.94  125.01
   0  -7  -8  507.04  147.22
   0   7   8  362.24  106.82
   1   7   8   25.23   28.06
   2   7   8  154.96   79.38
   3  -7   8  265.07  112.76
   3   7   8   95.56   55.96
   4   7   8  320.03  117.43
   5   7   8  141.07   87.83
  10  -8  -8    2.21   17.43
   9  -8  -8  149.19   65.55
   8  -8  -8   41.81   37.17
   7  -8  -8   34.82   31.45
   6  -8  -8   86.63   51.07
   5  -8  -8   41.21   37.54
   4  -8  -8  201.72   81.49
   3  -8  -8  -22.03   30.10
  -2   8   8  115.87   62.76
   2  -8  -8   80.31   55.91
   1  -8  -8   84.50   60.31
  -1   8   8   52.90   39.95
   0  -8  -8   33.36   23.47
   0   8   8  104.41   53.52
   1   8   8   84.12   48.74
   2   8   8  -23.00   31.37
   3   8   8  125.66   73.39
   4   8   8  -16.47   28.65
   9  -9  -8   -9.33   30.25
   8  -9  -8  139.04   66.20
   7  -9  -8  118.73   52.77
   6  -9  -8  -20.07   30.48
   5  -9  -8  -53.58   64.01
   4  -9  -8   40.47   39.89
   3  -9  -8  206.30   76.98
   2  -9  -8   -0.80   41.10
   1  -9  -8  -27.17   37.98
   0  -9  -8    4.58   33.76
   0   9   8   -7.82   29.44
  -1  -9  -8  -32.65   37.87
   1   9   8   46.76   38.32
   2   9   8   86.85   56.84
   3   9   8  -20.15   31.77
   4   9   8   45.49   50.47
   8 -10  -8   11.45   16.72
   7 -10  -8   36.49   31.68
   6 -10  -8 -126.62   65.04
   5 -10  -8  -12.85   24.49
   4 -10  -8  365.47  109.66
   3 -10  -8   20.26   24.39
   2 -10  -8   16.13   29.97
   1 -10  -8    7.88   45.05
   0 -10  -8   14.97   21.10
  -1 -10  -8  230.76   92.49
   2  10   8   68.48   59.98
   3  10   8   64.35   51.01
   4  10   8   52.64   43.78
   7 -11  -8    8.59   23.42
   6 -11  -8   52.43   52.56
   5 -11  -8   95.32   59.39
   4 -11  -8  124.50   68.50
   3 -11  -8  760.08  153.88
   2 -11  -8   -0.19   22.54
   1 -11  -8   -8.85   36.48
   0 -11  -8  131.42   69.39
   4 -12  -8  477.84  119.67
   3 -12  -8   15.60   33.72
   2 -12  -8  262.54   90.16
  10   0  -9   23.32   22.67
   9   0  -9    3.96   11.07
   8   0  -9   -1.53   15.13
   7   0  -9  -23.78   18.88
   6   0  -9  -14.87   25.20
   5   0  -9   -1.61   11.15
   4   0  -9   -9.42   15.21
   3   0  -9   -5.08   17.61
   2   0  -9   33.61   21.36
   1   0  -9   18.20   43.70
   0   0   9 -158.37   88.94
   1   0   9   41.52   45.84
   2   0   9   44.12   53.31
   3   0   9   40.76   23.33
  11  -1  -9   57.27   29.20
  10  -1  -9   -0.59    9.41
   9   1  -9   14.09   15.61
   9  -1  -9   39.65   26.30
   8   1  -9  -15.83   13.95
   8  -1  -9    3.59   10.05
   7  -1  -9  -36.52   27.42
   7   1  -9   26.55   24.96
   6   1  -9  225.81   63.40
   6  -1  -9  104.12   45.80
   5   1  -9  -22.51   22.41
   5  -1  -9    5.71   11.76
   4   1  -9   34.89   37.22
   4  -1  -9   -2.85   20.68
   3   1  -9   -1.23   21.31
   3  -1  -9   -3.56   20.72
   2  -1  -9  -14.26   19.77
   2   1  -9   63.09   56.11
   1  -1  -9  210.48  106.10
   1   1  -9  176.30   76.17
   0  -1   9   62.66   45.56
   0   1   9   40.65   60.55
   1  -1   9   89.64   49.84
   1   1   9  -69.54   60.56
   2  -1   9  -19.57   35.04
   2   1   9  -49.19   51.40
   3  -1   9   -6.54   52.05
   3   1   9   89.43   75.48
  12  -2  -9   30.55   25.74
  11  -2  -9   66.43   33.25
  10  -2  -9   30.98   21.29
   9  -2  -9   20.57   15.37
   8  -2  -9   -1.76   17.70
   7  -2  -9  107.09   42.03
   7   2  -9  123.64   39.66
   6   2  -9  196.05   56.36
   6  -2  -9  186.53   67.45
   5   2  -9   43.63   20.38
   5  -2  -9  -27.01   36.75
   4   2  -9   29.14   31.53
   4  -2  -9   82.28   53.54
   3   2  -9  -15.70   39.19
   3  -2  -9    3.07   21.12
   2  -2  -9  432.48  145.21
   2   2  -9  204.91   73.87
   1  -2  -9  307.86  146.83
   1   2  -9  368.90  113.82
  -1   2   9  247.69  107.13
   0   2   9  -49.20   50.22
   1  -2   9  -34.89   46.35
   1   2   9    0.56   20.13
   2  -2   9  -47.35   51.94
   2   2   9  -46.93   49.93
   3   2   9  101.08   90.58
  12  -3  -9  -21.21   27.75
  11  -3  -9   61.57   37.63
  10  -3  -9   47.36   33.32
   9  -3  -9  -27.11   24.63
   8  -3  -9  106.08   46.73
   7  -3  -9  -21.30   27.75
   6  -3  -9   -4.47   23.07
   5   3  -9  -24.50   20.14
   5  -3  -9  -40.09   45.78
   4   3  -9   22.72   18.83
   4  -3  -9  -16.29   26.28
   3   3  -9   30.61   23.64
   3  -3  -9  112.12   58.44
   2  -3  -9   37.45   41.69
   2   3  -9   76.04   46.13
   1  -3  -9  223.41  122.57
   1   3  -9  107.40   59.12
  -1   3   9  206.21   96.91
   0   3   9   11.86   41.28
   1  -3   9  146.47   94.15
   1   3   9    7.15   65.17
   2  -3   9    4.09   28.00
   2   3   9   26.31   33.11
   3   3   9   27.86   21.32
  11  -4  -9   75.95   38.36
  10  -4  -9   36.46   30.94
   9  -4  -9  111.33   52.94
   8  -4  -9    9.79   16.97
   7  -4  -9   48.26   38.29
   6  -4  -9   38.66   33.62
   5  -4  -9   26.18   48.64
   4  -4  -9  324.75  109.76
   3   4  -9   -7.89   15.81
   3  -4  -9   -6.74   40.54
   2   4  -9   16.68   29.48
   2  -4  -9   -6.99   41.19
   1  -4  -9  -74.90   84.24
   1   4  -9  -38.12   46.58
  -1   4   9  -76.43   59.90
   0   4   9  -54.36   51.37
   1   4   9  273.29  111.06
   2  -4   9    2.22   44.55
   2   4   9  -82.38   63.07
   3   4   9 -130.18   80.47
  11  -5  -9    5.07   17.76
  10  -5  -9   12.79   13.69
   9  -5  -9   11.37   15.31
   8  -5  -9   96.82   52.54
   7  -5  -9    9.58   21.16
   6  -5  -9  -20.41   34.53
   5  -5  -9   39.14   42.29
   4  -5  -9   25.18   33.29
   3  -5  -9   39.20   26.23
   2  -5  -9  -33.43   36.90
   1  -5  -9  -74.98   73.29
  -1   5   9  -11.83   27.79
   0  -5  -9   35.68   78.25
   0   5   9  -35.80   53.33
   1   5   9   14.11   40.06
   2   5   9   15.73   30.21
   3   5   9  -47.67   72.43
  10  -6  -9   13.73   24.45
   9  -6  -9  -22.11   17.55
   8  -6  -9   13.03   30.81
   7  -6  -9   51.84   39.52
   6  -6  -9  -40.38   40.08
   5  -6  -9  -86.53   58.12
   4  -6  -9   48.25   44.42
   3  -6  -9   52.90   50.60
   2  -6  -9  -50.64   67.87
   1  -6  -9   -8.83   41.97
  -1   6   9  -18.89   32.50
   0  -6  -9  -32.59   76.54
   0   6   9    6.78   22.57
   1   6   9   34.10   42.20
   2   6   9    0.27   19.25
   3   6   9  -45.07   40.15
   9  -7  -9   16.40   28.08
   8  -7  -9   52.49   49.69
   7  -7  -9  -38.01   36.76
   6  -7  -9  -24.77   41.66
   5  -7  -9   -4.56   25.63
   4  -7  -9   48.18   60.01
   3  -7  -9  282.40  113.80
   2  -7  -9   -7.09   62.19
  -1   7   9  -30.16   44.33
   1  -7  -9   38.94   36.55
   0  -7  -9    3.49   29.05
   0   7   9   -8.94   38.16
   1   7   9   -0.50   16.29
   2   7   9  -13.86   47.80
   3   7   9  -19.00   37.80
   8  -8  -9   38.01   39.09
   7  -8  -9   16.01   15.37
   6  -8  -9    1.11   19.62
   5  -8  -9 -151.76   77.11
   4  -8  -9  342.55  120.27
   3  -8  -9  -21.22   37.83
   2  -8  -9  -87.97   64.01
   1  -8  -9   -1.50   45.93
   0  -8  -9 -109.77   84.49
   1   8   9  197.80   91.20
   2   8   9  -21.99   33.02
   3   8   9  -30.41   56.62
   6  -9  -9  102.73   52.91
   5  -9  -9  -81.67   57.99
   4  -9  -9   26.19   30.17
   3  -9  -9   25.11   36.70
   2  -9  -9  -86.30   81.92
   7   0 -10   74.22   31.27
   6   0 -10  274.02   76.48
   5   0 -10   18.56   15.55
   4   0 -10    6.89   24.07
   3   0 -10   12.49   27.37
   2   0 -10  189.22   89.74
   1   0 -10  222.19  103.87
   9  -1 -10  -87.00   40.35
   8  -1 -10   37.42   29.51
   7  -1 -10  155.39   57.58
   6  -1 -10   62.24   40.06
   5   1 -10   34.03   31.32
   5  -1 -10   -1.46   20.33
   4   1 -10   30.71   31.67
   4  -1 -10   27.86   12.53
   3   1 -10  133.21   57.60
   3  -1 -10   79.93   47.26
   2   1 -10  114.55   64.50
   2  -1 -10   96.45   71.53
   1  -1 -10  104.29   79.74
   1   1 -10   44.85   35.15
   0   1  10   35.58   48.69
   1   1  10  -96.13   92.37
  10  -2 -10   48.53   30.89
   9  -2 -10  117.13   49.09
   8  -2 -10  -12.20   17.73
   7  -2 -10  325.53   86.89
   6  -2 -10  162.64   65.99
   5  -2 -10   83.19   48.13
   4  -2 -10  155.22   72.14
   3  -2 -10  -21.07   30.36
   2   2 -10  197.02   72.23
   2  -2 -10  576.86  169.00
   1  -2 -10  563.40  210.47
   1   2 -10  115.12   70.05
   0  -2 -10  -83.47  120.55
   0   2  10  -32.06   45.65
   1   2  10  154.02  102.08
  10  -3 -10  150.94   60.28
   9  -3 -10   90.12   46.67
   8  -3 -10  236.11   75.54
   7  -3 -10   10.88   19.75
   6  -3 -10   66.38   41.25
   5  -3 -10  363.04  106.96
   4  -3 -10   13.40   29.13
   3  -3 -10  526.32  154.51
   2  -3 -10   31.73   32.93
   1  -3 -10  349.73  174.48
   0  -3 -10 1351.06  468.21
   0   3  10  332.79  134.25
   1   3  10   92.21   90.98
  10  -4 -10   41.99   36.34
   9  -4 -10  307.45   87.32
   8  -4 -10   61.50   40.65
   7  -4 -10  -10.73   28.62
   6  -4 -10  135.62   67.95
   5  -4 -10   78.57   53.37
   4  -4 -10  770.56  178.30
   3  -4 -10   -6.01   58.52
   2  -4 -10  -75.86   72.97
   1  -4 -10  242.76  152.85
   0  -4 -10  716.91  345.64
   0   4  10  138.93   98.58
   1   4  10  205.21  115.65
   9  -5 -10  -32.67   32.80
   8  -5 -10   84.74   47.08
   7  -5 -10   -0.19   14.47
   6  -5 -10  -59.40   47.82
   5  -5 -10  291.87  108.23
   4  -5 -10   40.34   22.10
   3  -5 -10   90.91   60.78
   2  -5 -10   74.16   59.22
   1  -5 -10  144.54  121.99
   0   5  10  264.74  124.98
   1   5  10   21.10   41.41
   7  -6 -10   68.45   53.22
   6  -6 -10  -23.50   27.76
   5  -6 -10  -94.50   65.16
   4  -6 -10  430.58  143.11
   3  -6 -10  -55.57   70.15
   2  -6 -10  -80.41   98.70
   4  -1 -11   -6.01   22.70
   3  -1 -11  -26.30   36.51
   6  -2 -11  -15.18   29.86
   5  -2 -11   48.35   33.38
   4  -2 -11   -4.01   22.63
   3  -2 -11  -40.57   68.99
   6  -3 -11  -24.05   35.06
   5  -3 -11    3.31   28.85
   4  -3 -11   -7.90   29.59
   0   0   0    0.00    0.00


TITL DGC-HXF-0719-5 in P2(1)/c
REM P2(1)/c (#14 in standard setting)
CELL 0.71073  10.837873  15.005657   7.907746  90.0000 107.5946  90.0000
ZERR    5.00   0.001290   0.001412   0.001003   0.0000   0.0133   0.0000
LATT  1
SYMM -x, y+1/2,-z+1/2
SFAC C H N O
UNIT 55.00 50.00 5.00 5.00
TREF
HKLF 4
END
_computing_structure_solution     'SHELXT 2014/5 (Sheldrick, 2014)'
;
_shelx_hkl_checksum              84167
loop_
_space_group_symop_operation_xyz
'x, y, z'
'-x, y+1/2, -z+1/2'
'-x, -y, -z'
'x, -y-1/2, z-1/2'
loop_
_atom_site_label
_atom_site_type_symbol
_atom_site_fract_x
_atom_site_fract_y
_atom_site_fract_z
_atom_site_U_iso_or_equiv
_atom_site_adp_type
_atom_site_occupancy
_atom_site_site_symmetry_order
_atom_site_calc_flag
_atom_site_refinement_flags_posn
_atom_site_refinement_flags_adp
_atom_site_refinement_flags_occupancy
_atom_site_disorder_assembly
_atom_site_disorder_group
Pb1 Pb 0.29888(9) 0.74836(6) 0.01997(13) 0.0225(3) Uani 1 1 d . . . . .
I2 I 0.49919(15) 0.65276(10) 0.3510(2) 0.0261(4) Uani 1 1 d . . . . .
I3 I 0.31636(16) 0.91775(10) 0.2726(2) 0.0272(4) Uani 1 1 d . . . . .
I1 I 0.08178(16) 0.66684(11) 0.1790(2) 0.0305(4) Uani 1 1 d . . . . .
N1 N 0.866(2) 0.6055(17) 0.760(3) 0.081(9) Uani 1 1 d D U . . .
C1 C 0.909(3) 0.580(2) 0.594(4) 0.071(12) Uani 1 1 d D . . . .
H1C H 0.8645 0.5267 0.5401 0.107 Uiso 1 1 calc R U . . .
H1D H 1.0008 0.5692 0.6300 0.107 Uiso 1 1 calc R U . . .
H1E H 0.8886 0.6276 0.5090 0.107 Uiso 1 1 calc R U . . .
N2 N 0.676(2) 0.5578(13) 0.825(3) 0.066(8) Uani 1 1 d D U . . .
H2A H 0.7297 0.5672 0.7613 0.079 Uiso 1 1 calc DR U . . .
H2B H 0.5946 0.5624 0.7556 0.079 Uiso 1 1 calc R U . . .
H2C H 0.6891 0.5035 0.8723 0.079 Uiso 1 1 calc R U . . .
C2 C 0.701(2) 0.6280(15) 0.975(3) 0.038(7) Uani 1 1 d D U . . .
H2D H 0.6853 0.6865 0.9244 0.056 Uiso 1 1 calc R U . . .
H2E H 0.7894 0.6238 1.0490 0.056 Uiso 1 1 calc R U . . .
H2F H 0.6443 0.6171 1.0456 0.056 Uiso 1 1 calc R U . . .
H1A H 0.933(3) 0.589(4) 0.858(3) 0.045 Uiso 1 1 d D U . . .
H1B H 0.871(4) 0.6672(19) 0.768(7) 0.045 Uiso 1 1 d D U . . .
loop_
_atom_site_aniso_label
_atom_site_aniso_U_11
_atom_site_aniso_U_22
_atom_site_aniso_U_33
_atom_site_aniso_U_23
_atom_site_aniso_U_13
_atom_site_aniso_U_12
Pb1 0.0231(5) 0.0249(5) 0.0181(5) -0.0004(4) 0.0042(4) 0.0001(4)
I2 0.0224(9) 0.0298(9) 0.0233(10) -0.0010(7) 0.0026(7) 0.0037(7)
I3 0.0331(10) 0.0236(8) 0.0241(10) -0.0001(7) 0.0076(8) 0.0003(7)
I1 0.0240(9) 0.0377(9) 0.0266(10) -0.0013(8) 0.0030(8) -0.0072(7)
N1 0.100(17) 0.083(15) 0.061(16) 0.019(13) 0.026(14) 0.034(14)
C1 0.10(3) 0.07(2) 0.06(3) -0.014(19) 0.06(3) -0.02(2)
N2 0.065(14) 0.030(11) 0.072(16) 0.005(11) -0.026(12) 0.008(11)
C2 0.039(13) 0.039(12) 0.038(15) 0.015(11) 0.018(11) 0.030(11)
loop_
_atom_type_symbol
_atom_type_description
_atom_type_scat_dispersion_real
_atom_type_scat_dispersion_imag
_atom_type_scat_source
C C 0.0033 0.0016 'International Tables Vol C Tables 4.2.6.8 and 6.1.1.4'
H H 0.0000 0.0000 'International Tables Vol C Tables 4.2.6.8 and 6.1.1.4'
I I -0.4742 1.8119 'International Tables Vol C Tables 4.2.6.8 and 6.1.1.4'
N N 0.0061 0.0033 'International Tables Vol C Tables 4.2.6.8 and 6.1.1.4'
Pb Pb -3.3944 10.1111 'International Tables Vol C Tables 4.2.6.8 and 6.1.1.4'
loop_
_geom_angle_atom_site_label_1
_geom_angle_atom_site_label_2
_geom_angle_atom_site_label_3
_geom_angle
_geom_angle_site_symmetry_1
_geom_angle_site_symmetry_3
_geom_angle_publ_flag
I2 Pb1 I3 87.00(5) . . ?
I2 Pb1 I3 90.00(5) . 4_575 ?
I3 Pb1 I3 173.35(6) . 4_575 ?
I2 Pb1 I1 84.56(5) . . ?
I3 Pb1 I1 88.30(5) . . ?
I3 Pb1 I1 97.33(5) 4_575 . ?
I2 Pb1 I2 99.78(5) . 4_575 ?
I3 Pb1 I2 88.45(5) . 4_575 ?
I3 Pb1 I2 86.21(4) 4_575 4_575 ?
I1 Pb1 I2 174.43(5) . 4_575 ?
I2 Pb1 I1 175.91(5) . 4_575 ?
I3 Pb1 I1 95.63(5) . 4_575 ?
I3 Pb1 I1 87.69(5) 4_575 4_575 ?
I1 Pb1 I1 92.37(5) . 4_575 ?
I2 Pb1 I1 83.44(5) 4_575 4_575 ?
Pb1 I2 Pb1 75.96(4) . 4_576 ?
Pb1 I3 Pb1 76.15(3) . 4_576 ?
Pb1 I1 Pb1 75.21(4) . 4_576 ?
C1 N1 H1A 106.1(11) . . ?
C1 N1 H1B 106.0(11) . . ?
H1A N1 H1B 101.2(13) . . ?
N1 C1 H1C 109.5 . . ?
N1 C1 H1D 109.5 . . ?
H1C C1 H1D 109.5 . . ?
N1 C1 H1E 109.5 . . ?
H1C C1 H1E 109.5 . . ?
H1D C1 H1E 109.5 . . ?
C2 N2 H2A 109.5 . . ?
C2 N2 H2B 109.5 . . ?
H2A N2 H2B 109.5 . . ?
C2 N2 H2C 109.5 . . ?
H2A N2 H2C 109.5 . . ?
H2B N2 H2C 109.5 . . ?
N2 C2 H2D 109.5 . . ?
N2 C2 H2E 109.5 . . ?
H2D C2 H2E 109.5 . . ?
N2 C2 H2F 109.5 . . ?
H2D C2 H2F 109.5 . . ?
H2E C2 H2F 109.5 . . ?
loop_
_geom_bond_atom_site_label_1
_geom_bond_atom_site_label_2
_geom_bond_distance
_geom_bond_site_symmetry_2
_geom_bond_publ_flag
Pb1 I2 3.192(2) . ?
Pb1 I3 3.2030(18) . ?
Pb1 I3 3.2091(18) 4_575 ?
Pb1 I1 3.2252(18) . ?
Pb1 I2 3.2330(17) 4_575 ?
Pb1 I1 3.254(2) 4_575 ?
I2 Pb1 3.2330(17) 4_576 ?
I3 Pb1 3.2092(18) 4_576 ?
I1 Pb1 3.254(2) 4_576 ?
N1 C1 1.572(9) . ?
N1 H1A 0.927(9) . ?
N1 H1B 0.928(9) . ?
C1 H1C 0.9600 . ?
C1 H1D 0.9600 . ?
C1 H1E 0.9600 . ?
N2 C2 1.548(10) . ?
N2 H2A 0.8900 . ?
N2 H2B 0.8900 . ?
N2 H2C 0.8900 . ?
C2 H2D 0.9600 . ?
C2 H2E 0.9600 . ?
C2 H2F 0.9600 . ?
