#------------------------------------------------------------------------------
#$Date: 2020-05-04 05:35:48 +0300 (Mon, 04 May 2020) $
#$Revision: 251456 $
#$URL: file:///home/coder/svn-repositories/cod/cif/4/13/46/4134679.cif $
#------------------------------------------------------------------------------
#
# This file is available in the Crystallography Open Database (COD),
# http://www.crystallography.net/
#
# All data on this site have been placed in the public domain by the
# contributors.
#
data_4134679
loop_
_publ_author_name
'Nisbet, Matthew L.'
'Pendleton, Ian M.'
'Nolis, Gene M.'
'Griffith, Kent J.'
'Schrier, Joshua'
'Cabana, Jordi'
'Norquist, Alexander J.'
'Poeppelmeier, Kenneth R.'
_publ_section_title
;
 Machine-Learning-Assisted Synthesis of Polar Racemates.
;
_journal_issue                   16
_journal_name_full               'Journal of the American Chemical Society'
_journal_page_first              7555
_journal_page_last               7566
_journal_paper_doi               10.1021/jacs.0c01239
_journal_volume                  142
_journal_year                    2020
_chemical_formula_moiety         '0.5(C20 H24 Cu2 F12 Hf2 N4 O4)'
_chemical_formula_sum            'C10 H12 Cu F6 Hf N2 O2'
_chemical_formula_weight         548.25
_space_group_crystal_system      monoclinic
_space_group_IT_number           13
_space_group_name_Hall           '-P 2yac'
_space_group_name_H-M_alt        'P 1 2/n 1'
_atom_sites_solution_hydrogens   mixed
_atom_sites_solution_primary     dual
_audit_creation_date             2019-12-16
_audit_creation_method
;
Olex2 1.2
(compiled 2018.05.29 svn.r3508 for OlexSys, GUI svn.r5506)
;
_cell_angle_alpha                90
_cell_angle_beta                 90.846(2)
_cell_angle_gamma                90
_cell_formula_units_Z            2
_cell_length_a                   6.2590(3)
_cell_length_b                   9.2167(5)
_cell_length_c                   12.2518(7)
_cell_measurement_reflns_used    5208
_cell_measurement_temperature    100
_cell_measurement_theta_max      30.562
_cell_measurement_theta_min      3.255
_cell_volume                     706.70(7)
_computing_cell_refinement       'SAINT V8.38A (?, 2016)'
_computing_data_collection       'APEX2 V2017.3 (Bruker, 2017)'
_computing_data_reduction        'SAINT V8.38A (?, 2016)'
_computing_molecular_graphics    'Olex2 (Dolomanov et al., 2009)'
_computing_publication_material  'Olex2 (Dolomanov et al., 2009)'
_computing_structure_refinement  'XL (Sheldrick, 2008)'
_computing_structure_solution    'XT (Sheldrick, 2015)'
_diffrn_ambient_temperature      100.11
_diffrn_detector_area_resol_mean 8
_diffrn_measured_fraction_theta_full 0.995
_diffrn_measured_fraction_theta_max 0.994
_diffrn_measurement_device_type  'Bruker Kappa APEX CCD area detector'
_diffrn_measurement_method       '\w and \f scans'
_diffrn_radiation_monochromator  'MX optics'
_diffrn_radiation_type           MoK\a
_diffrn_radiation_wavelength     0.71073
_diffrn_reflns_av_R_equivalents  0.0212
_diffrn_reflns_av_unetI/netI     0.0200
_diffrn_reflns_Laue_measured_fraction_full 0.995
_diffrn_reflns_Laue_measured_fraction_max 0.994
_diffrn_reflns_limit_h_max       7
_diffrn_reflns_limit_h_min       -8
_diffrn_reflns_limit_k_max       11
_diffrn_reflns_limit_k_min       -13
_diffrn_reflns_limit_l_max       17
_diffrn_reflns_limit_l_min       -11
_diffrn_reflns_number            6434
_diffrn_reflns_point_group_measured_fraction_full 0.995
_diffrn_reflns_point_group_measured_fraction_max 0.994
_diffrn_reflns_theta_full        25.242
_diffrn_reflns_theta_max         30.562
_diffrn_reflns_theta_min         3.326
_diffrn_source                   microsource
_diffrn_standards_number         0
_exptl_absorpt_coefficient_mu    8.919
_exptl_absorpt_correction_T_max  0.7461
_exptl_absorpt_correction_T_min  0.5859
_exptl_absorpt_correction_type   multi-scan
_exptl_absorpt_process_details
'SADABS-2016/2 (Bruker,2016/2) was used for absorption correction. wR2(int) was 0.0622 before and 0.0302 after correction. The Ratio of minimum to maximum transmission is 0.7853. The \l/2 correction factor is Not present.'
_exptl_crystal_colour            blue
_exptl_crystal_colour_primary    blue
_exptl_crystal_density_diffrn    2.576
_exptl_crystal_description       block
_exptl_crystal_F_000             514
_exptl_crystal_size_max          0.132
_exptl_crystal_size_mid          0.127
_exptl_crystal_size_min          0.07
_refine_diff_density_max         1.152
_refine_diff_density_min         -1.699
_refine_diff_density_rms         0.136
_refine_ls_extinction_method     none
_refine_ls_goodness_of_fit_ref   1.120
_refine_ls_hydrogen_treatment    mixed
_refine_ls_matrix_type           full
_refine_ls_number_parameters     110
_refine_ls_number_reflns         2156
_refine_ls_number_restraints     0
_refine_ls_restrained_S_all      1.120
_refine_ls_R_factor_all          0.0166
_refine_ls_R_factor_gt           0.0162
_refine_ls_shift/su_max          0.001
_refine_ls_shift/su_mean         0.000
_refine_ls_structure_factor_coef Fsqd
_refine_ls_weighting_details
'w=1/[\s^2^(Fo^2^)+(0.0230P)^2^+0.3458P] where P=(Fo^2^+2Fc^2^)/3'
_refine_ls_weighting_scheme      calc
_refine_ls_wR_factor_gt          0.0425
_refine_ls_wR_factor_ref         0.0428
_reflns_Friedel_coverage         0.000
_reflns_number_gt                2109
_reflns_number_total             2156
_reflns_threshold_expression     'I > 2\s(I)'
_cod_data_source_file            ja0c01239_si_004.cif
_cod_data_source_block           work2
_cod_depositor_comments
'Adding full bibliography for 4134676--4134681.cif.'
_cod_database_code               4134679
_shelx_shelxl_version_number     2018/3
_shelx_space_group_comment
;
The symmetry employed for this shelxl refinement is uniquely defined
by the following loop, which should always be used as a source of
symmetry information in preference to the above space-group names.
They are only intended as comments.
;
_shelx_estimated_absorpt_t_max   0.574
_shelx_estimated_absorpt_t_min   0.386
_olex2_refinement_description
;
1. Fixed Uiso
 At 1.2 times of:
  All C(H) groups
2.a Aromatic/amide H refined with riding coordinates:
 C1(H1), C2(H2), C3(H3), C4(H4)
;
_shelx_res_file
;
TITL work2_a.res in P2/n
    work2.res
    created by SHELXL-2018/3 at 15:37:41 on 16-Dec-2019
REM Old TITL work2 in P2/n
REM SHELXT solution in P2/n
REM R1 0.051, Rweak 0.004, Alpha 0.026, Orientation as input
REM Formula found by SHELXT: C10 N2 O2 F6 Cu Hf
CELL 0.71073 6.259 9.2167 12.2518 90 90.846 90
ZERR 2 0.0003 0.0005 0.0007 0 0.002 0
LATT 1
SYMM 0.5-X,+Y,0.5-Z
SFAC C H Cu F Hf N O
UNIT 20 24 2 12 2 4 4
EQIV $1 -0.5+X,-Y,0.5+Z
EQIV $2 1-X,-Y,1-Z

L.S. 4 0 0
PLAN  20
SIZE 0.07 0.127 0.132
TEMP -173.04
HTAB O1 F2_$1
HTAB O1 F3_$2
FREE H1b H1a
BOND $H
list 4
fmap 2 53
acta
REM <olex2.extras>
REM <HklSrc "%.\\work2.hkl">
REM </olex2.extras>

WGHT    0.023000    0.345800
FVAR       0.50721
HF1   5    0.500000    0.000000    0.500000    10.50000    0.01035    0.00898 =
         0.00488   -0.00044    0.00044    0.00238
CU1   3    0.250000    0.211022    0.750000    10.50000    0.00812    0.00694 =
         0.00638    0.00000   -0.00099    0.00000
F1    4    0.422386    0.181481    0.580471    11.00000    0.01707    0.01022 =
         0.00986   -0.00149    0.00235    0.00192
F2    4    0.394096    0.084607    0.359005    11.00000    0.02415    0.01713 =
         0.00764    0.00054   -0.00234    0.00864
F3    4    0.789857    0.079627    0.468748    11.00000    0.01483    0.01878 =
         0.01617   -0.00599    0.00425   -0.00289
O1    7    0.043093    0.066757    0.695063    11.00000    0.01711    0.01755 =
         0.00686   -0.00241    0.00178   -0.00620
H1A   2   -0.012267    0.025763    0.732836    11.00000    0.04994
H1B   2    0.070306    0.023788    0.649931    11.00000    0.03326
N1    6    0.427046    0.373621    0.806785    11.00000    0.01528    0.01428 =
         0.01077   -0.00180    0.00197   -0.00502
C1    1    0.607781    0.360501    0.865429    11.00000    0.01742    0.03338 =
         0.01572   -0.00294   -0.00060   -0.01112
AFIX  43
H1    2    0.662351    0.266399    0.880810    11.00000   -1.20000
AFIX   0
C2    1    0.717621    0.481114    0.904389    11.00000    0.03176    0.05448 =
         0.02219   -0.00981   -0.00107   -0.03113
AFIX  43
H2    2    0.846262    0.469596    0.945602    11.00000   -1.20000
AFIX   0
C3    1    0.638480    0.617333    0.882767    11.00000    0.05818    0.03756 =
         0.03191   -0.01277    0.00873   -0.03651
AFIX  43
H3    2    0.710778    0.700966    0.909585    11.00000   -1.20000
AFIX   0
C4    1    0.452224    0.631186    0.821464    11.00000    0.05805    0.01673 =
         0.02930   -0.00688    0.01249   -0.01773
AFIX  43
H4    2    0.395431    0.724517    0.805500    11.00000   -1.20000
AFIX   0
C5    1    0.348933    0.507045    0.783431    11.00000    0.02810    0.01190 =
         0.01436   -0.00224    0.00762   -0.00544
HKLF 4




REM  work2_a.res in P2/n
REM wR2 = 0.042802, GooF = S = 1.11956, Restrained GooF = 1.11956 for all data
REM R1 = 0.016177 for 2109 Fo > 4sig(Fo) and 0.016639 for all 2156 data
REM 110 parameters refined using 0 restraints

END

WGHT      0.0230      0.3458

REM Highest difference peak  1.152,  deepest hole -1.699,  1-sigma level  0.136
Q1    1   0.4261 -0.0633  0.4748  11.00000  0.05    1.15
Q2    1   0.5695 -0.0634  0.5247  11.00000  0.05    1.05
Q3    1   0.4084  0.0808  0.5629  11.00000  0.05    0.55
Q4    1   0.4368  0.0161  0.3946  11.00000  0.05    0.54
Q5    1   0.3411 -0.0039  0.5109  11.00000  0.05    0.53
Q6    1   0.3895  0.1172  0.5377  11.00000  0.05    0.51
Q7    1   0.5876  0.0799  0.4314  11.00000  0.05    0.50
Q8    1   0.3931  0.4363  0.7978  11.00000  0.05    0.49
Q9    1   0.3767  0.0132  0.4182  11.00000  0.05    0.49
Q10   1   0.1455  0.1211  0.7140  11.00000  0.05    0.48
Q11   1   0.4816  0.0544  0.3865  11.00000  0.05    0.47
Q12   1   0.6230  0.1158  0.4647  11.00000  0.05    0.46
Q13   1   0.4365  0.1451  0.5218  11.00000  0.05    0.44
Q14   1   0.4130  0.5603  0.8035  11.00000  0.05    0.42
Q15   1   0.3645  0.2983  0.7933  11.00000  0.05    0.41
Q16   1   0.2500  0.4989  0.7500  10.50000  0.05    0.40
Q17   1   0.5064  0.2340  0.5933  11.00000  0.05    0.39
Q18   1   0.6589  0.4257  0.8842  11.00000  0.05    0.38
Q19   1   0.2500  0.0553  0.7500  10.50000  0.05    0.36
Q20   1   0.4776  0.1425  0.5060  11.00000  0.05    0.35
;
_shelx_res_checksum              99443
_shelx_hkl_file
;
   2   0   0 2414.06   64.09
  -2   0   0 2459.05   64.59
   3   0   0   12.40    1.50
   4   0   0 2982.30   81.49
  -4   0   0 3153.58   81.89
  -4   0   0 3097.79   82.29
   5   0   0    3.70    1.30
  -5   0   0    2.50    1.20
  -5   0   0    1.20    1.00
  -6   0   0  171.98    8.30
  -6   0   0  168.88    8.20
  -7   0   0    6.40    2.20
  -7   0   0    0.60    1.40
  -8   0   0  972.50   31.40
  -8   0   0  991.80   31.80
  -1  -1   0  970.30   26.40
  -1  -1   0 1020.90   26.30
   1  -1   0 1024.60   26.50
  -1   1   0  994.50   26.60
   2  -1   0 3950.60  100.79
  -2  -1   0 3705.13   99.79
  -2   1   0 3526.75   99.89
  -2   1   0 4050.89  100.59
   2   1   0 3658.73  100.29
   3  -1   0    3.90    0.90
  -3   1   0    4.00    1.10
  -3   1   0    2.80    0.90
   3   1   0    2.70    0.70
  -3   1   0    4.50    0.70
  -4  -1   0 3517.15   91.09
   4  -1   0 3182.08   88.69
  -4   1   0 3412.46   89.89
   4   1   0 3157.58   88.39
  -4   1   0 3468.15   89.39
  -4   1   0 3390.96   87.29
   5  -1   0  326.77   12.10
  -5  -1   0  361.26   12.50
  -5   1   0  360.56   13.20
  -5   1   0  361.66   12.80
  -6  -1   0  840.52   27.00
  -6  -1   0  925.31   27.40
  -6   1   0  863.11   27.60
  -6   1   0  926.41   28.20
  -7  -1   0  114.09    6.80
  -7  -1   0  108.99    6.80
  -7   1   0  114.49    7.10
  -7   1   0  115.09    7.30
  -8  -1   0  643.54   23.50
  -8  -1   0  681.33   23.10
  -8   1   0  698.43   24.20
  -8   1   0  701.83   24.30
   0  -2   0 5072.79  132.19
  -1  -2   0  243.58    7.20
   1  -2   0  243.98    7.30
  -1  -2   0  249.28    7.10
  -1   2   0  247.68    7.50
  -2  -2   0 4788.92  123.09
   2  -2   0 4794.82  123.39
  -2  -2   0 4621.64  123.19
  -2   2   0 4618.04  122.89
  -2   2   0 4456.65  123.99
  -3  -2   0  260.37    8.40
   3  -2   0  257.07    8.60
  -3   2   0  252.77    8.90
   3   2   0  237.88    8.10
  -3   2   0  263.77    9.40
   4  -2   0 1194.18   33.70
  -4  -2   0 1233.08   33.40
  -4   2   0 1260.07   32.20
   4   2   0 1153.08   33.00
  -4   2   0 1212.18   34.10
  -4   2   0 1126.49   34.60
  -5  -2   0  112.09    5.50
   5  -2   0  104.39    5.50
  -5   2   0  106.29    6.30
  -5   2   0  109.89    5.90
  -6  -2   0 2408.76   65.19
  -6   2   0 2348.07   66.99
  -6   2   0 2369.56   66.29
  -7  -2   0   65.89    5.00
  -7  -2   0   70.99    5.30
  -7   2   0   76.19    6.10
  -7   2   0   72.69    5.90
  -8  -2   0  321.67   13.10
  -8  -2   0  331.87   13.90
  -8   2   0  321.07   14.50
  -8   2   0  319.67   14.40
   0  -3   0 2373.16   62.49
   0  -3   0 2289.17   63.69
   0   3   0 2420.86   61.69
  -1  -3   0  433.76   12.20
  -1  -3   0  430.96   12.40
   1  -3   0  431.06   12.50
  -1   3   0  445.46   12.70
  -2  -3   0 6726.03  169.68
   2  -3   0 6212.38  170.08
   2   3   0 6428.46  169.88
  -2   3   0 6443.86  169.38
  -3  -3   0 1309.17   34.60
   3  -3   0 1287.57   35.20
  -3  -3   0 1243.18   34.60
  -3   3   0 1322.37   35.60
  -3   3   0 1263.97   36.20
   3   3   0 1206.58   34.40
  -4  -3   0 1140.29   31.80
   4  -3   0 1164.98   32.50
   4   3   0 1063.99   32.40
  -4   3   0 1135.99   33.50
  -4   3   0 1169.28   32.80
  -5  -3   0  163.48    6.80
   5  -3   0  157.18    7.30
  -5   3   0  161.38    7.70
  -5   3   0  152.58    8.00
  -6  -3   0 1775.12   48.40
   6  -3   0 1700.73   49.10
  -6   3   0 1746.43   50.89
  -6   3   0 1697.03   49.80
  -7  -3   0   45.20    4.10
  -7   3   0   50.39    5.40
  -7   3   0   41.50    5.20
  -8  -3   0  378.26   15.40
  -8  -3   0  383.96   14.40
  -8   3   0  395.56   16.60
  -8   3   0  401.76   16.90
   0  -4   0 1990.60   53.79
   0   4   0 2050.39   53.39
  -1  -4   0  625.44   16.90
  -1  -4   0  558.44   16.90
   1  -4   0  582.54   17.10
  -1   4   0  626.64   17.40
   1   4   0  610.14   16.80
  -2  -4   0  797.82   22.60
   2  -4   0  809.42   23.10
  -2  -4   0  833.32   22.60
   2   4   0  822.02   22.50
  -2   4   0  815.02   23.40
  -3  -4   0  376.16   11.70
  -3  -4   0  379.56   11.70
   3  -4   0  375.56   12.40
   3   4   0  350.76   11.60
  -3   4   0  393.46   12.80
  -3   4   0  408.56   13.70
   4  -4   0 3226.78   87.19
  -4  -4   0 3379.56   86.99
  -4   4   0 3301.07   87.69
  -4   4   0 3131.49   88.59
   5  -4   0  157.38    7.40
  -5  -4   0  153.98    6.60
  -5   4   0  148.19    7.60
  -5   4   0  155.38    8.30
  -6  -4   0 1128.79   32.50
   6  -4   0 1111.29   33.70
  -6   4   0 1099.99   35.30
  -6   4   0 1144.09   34.60
  -7  -4   0   57.19    4.20
  -7   4   0   47.80    5.60
  -7   4   0   54.39    5.90
  -8  -4   0  892.91   26.60
  -8   4   0  878.11   30.50
  -8   4   0  835.22   29.60
   0  -5   0 4032.40  109.09
   0   5   0 4131.69  107.09
   1  -5   0    2.50    0.80
  -1  -5   0    4.70    1.00
  -1  -5   0    5.10    1.00
  -1   5   0    4.40    1.00
   1   5   0    1.80    0.60
   2  -5   0 2134.59   56.99
  -2  -5   0 2124.09   56.39
  -2  -5   0 2159.38   56.39
  -2   5   0 2089.39   57.19
   2   5   0 2080.39   56.19
  -3  -5   0    2.20    0.90
  -3  -5   0    0.40    0.60
   3  -5   0    2.40    1.10
  -3   5   0    7.30    1.70
  -4  -5   0 2835.92   75.29
  -4  -5   0 2797.72   74.99
   4  -5   0 2822.92   76.39
  -4   5   0 2828.62   77.89
  -4   5   0 2828.22   76.89
   5  -5   0    3.10    1.50
  -5   5   0    3.00    1.70
  -5   5   0    3.60    1.90
   6  -5   0  321.87   13.20
  -6  -5   0  327.77   11.60
  -6   5   0  348.57   14.80
  -6   5   0  334.77   13.90
  -7  -5   0   20.80    2.70
  -7   5   0   16.60    4.10
  -7   5   0   17.40    3.60
  -8  -5   0  817.62   24.90
  -8   5   0  886.41   30.70
  -8   5   0  831.82   29.40
   0  -6   0 1626.94   44.60
   0   6   0 1667.83   44.60
  -1  -6   0  591.74   17.20
  -1  -6   0  557.94   17.10
   1  -6   0  603.84   17.50
   1   6   0  577.24   16.90
  -1   6   0  578.84   17.60
   2  -6   0 2502.05   67.89
  -2  -6   0 2501.55   67.09
  -2  -6   0 2658.13   67.39
  -2   6   0 2453.85   68.09
  -3  -6   0  122.09    5.30
   3  -6   0  116.59    5.80
  -3  -6   0  115.39    5.00
  -3   6   0  119.79    6.00
  -4  -6   0 1076.69   30.80
  -4  -6   0 1091.29   30.30
   4  -6   0 1072.89   31.80
  -4   6   0 1072.29   32.40
   5  -6   0  170.38    8.40
  -5  -6   0  180.58    7.00
  -5   6   0  176.58    9.00
   6  -6   0  876.71   28.30
  -6  -6   0  895.21   25.70
  -6   6   0  884.21   29.20
  -7  -6   0   96.09    4.80
  -7   6   0   87.69    7.30
   0  -7   0   53.39    3.20
   0   7   0   39.10    2.80
  -1  -7   0    2.20    0.90
   1  -7   0    0.80    0.80
  -1   7   0    2.30    1.00
   2  -7   0 2847.52   76.69
  -2  -7   0 2908.81   76.19
  -2  -7   0 2874.41   75.79
  -2   7   0 2793.12   76.89
  -3  -7   0    3.20    1.00
   3  -7   0    2.10    1.30
  -3  -7   0    3.20    1.20
  -3   7   0    3.80    1.50
   4  -7   0  715.73   22.90
  -4  -7   0  743.33   21.80
  -4  -7   0  699.53   21.00
  -4   7   0  721.93   23.40
  -5  -7   0   18.10    2.80
   5  -7   0   17.60    3.20
  -5  -7   0   20.20    2.20
  -5   7   0   19.40    3.60
   6  -7   0 1674.23   49.20
  -6  -7   0 1659.63   45.60
  -6   7   0 1690.23   50.19
  -7  -7   0    4.90    1.20
  -7   7   0    2.10    2.40
   0  -8   0 1065.69   30.60
   1  -8   0   57.79    3.90
  -1  -8   0   61.29    3.70
  -1   8   0   60.89    4.70
  -2  -8   0 1844.72   49.70
   2  -8   0 1790.32   50.19
  -2   8   0 1777.22   50.49
   3  -8   0   27.60    3.50
  -3  -8   0   34.00    2.70
  -3  -8   0   34.90    3.00
  -3   8   0   32.80    3.80
   4  -8   0  662.53   21.50
  -4  -8   0  635.34   20.10
  -4  -8   0  629.84   19.10
  -4   8   0  654.93   21.90
  -5  -8   0  110.99    6.20
  -5  -8   0  117.89    5.10
   5  -8   0  133.99    7.60
  -5   8   0  110.19    7.40
   6  -8   0  991.90   31.90
  -6  -8   0  980.90   27.20
  -6   8   0 1002.90   32.80
  -7   8   0   28.80    5.20
   0  -9   0  992.80   29.10
   1  -9   0  127.29    6.40
  -1  -9   0  128.49    6.20
   2  -9   0  484.35   16.40
  -2  -9   0  477.75   15.90
   3  -9   0    7.70    2.20
  -3  -9   0    8.90    2.00
   4  -9   0 1664.23   47.60
  -4  -9   0 1601.94   46.00
   5  -9   0   72.39    5.90
  -5  -9   0   67.39    4.90
   6  -9   0  323.07   14.40
   0 -10   0 2036.80   56.59
   1 -10   0   45.00    3.90
  -1 -10   0   40.10    3.50
   2 -10   0  420.16   14.90
  -2 -10   0  390.46   14.20
   3 -10   0  329.07   13.20
  -3 -10   0  330.57   12.40
   4 -10   0 1074.99   33.20
  -4 -10   0 1036.50   31.60
  -5 -10   0    5.80    2.10
   5 -10   0    4.20    2.40
   0 -11   0 1242.28   36.60
   1 -11   0   76.39    5.40
  -1 -11   0   80.49    5.30
  -2 -11   0 1374.36   40.00
   2 -11   0 1370.26   40.60
   3 -11   0  120.69    7.40
  -3 -11   0  117.99    6.70
  -4 -11   0  393.56   14.90
   4 -11   0  412.06   16.20
   0 -12   0  454.65   16.40
   1 -12   0    8.60    2.50
  -1 -12   0    3.40    1.90
   2 -12   0  919.31   29.30
  -2 -12   0  901.71   28.60
   3 -12   0    2.90    2.20
  -3 -12   0    1.10    1.70
   0 -13   0  719.43   24.00
   1 -13   0   79.99    6.20
  -1 -13   0   71.09    5.80
  -8   0   1    0.40    1.60
  -8   0   1   -0.50    1.70
  -7   0   1 1295.37   39.40
  -7   0   1 1340.87   39.20
  -6   0   1   -0.20    1.10
  -6   0   1    0.50    1.10
  -5   0   1   45.80    3.40
  -5   0   1   29.90    2.90
  -4   0   1    0.90    0.80
   4   0  -1    2.80    0.90
  -4   0   1    1.20    0.80
   3   0  -1 5215.98  140.69
  -3   0   1 5213.88  141.39
  -3   0   1 5554.54  141.79
  -3   0   1 5447.35  140.69
  -2   0   1    0.80    0.40
  -2   0   1    1.80    0.50
  -2   0   1    1.30    0.50
  -1   0   1  831.92   22.30
  -1   0   1  827.42   21.90
  -1   0   1  836.02   22.50
  -2   0  -1    2.10    0.70
   2   0   1    0.50    0.40
  -3   0  -1 3114.89   81.99
   3   0   1 3056.39   81.19
   4   0   1    1.20    0.90
  -4   0  -1    0.00    0.80
   5   0   1 2945.71   81.49
  -5   0  -1 3097.39   82.09
  -5   0  -1 3082.09   82.69
  -6   0  -1    5.10    1.80
  -6   0  -1    0.10    1.20
  -7   0  -1  854.51   27.90
  -7   0  -1  846.32   27.60
  -8   0  -1    1.80    2.00
  -8   0  -1    1.20    2.00
  -8  -1   1    8.80    2.40
  -8  -1   1    6.20    2.50
  -8   1   1    9.10    2.90
  -8   1   1    8.00    2.70
  -7  -1   1 1027.10   30.20
  -7  -1   1  988.00   30.80
  -7   1   1  975.60   31.00
  -7   1   1  969.50   31.00
  -6  -1   1  225.18    9.30
  -6  -1   1  216.88    9.40
  -6   1   1  213.88    9.60
  -6   1   1  241.38   10.10
   5  -1  -1  523.15   17.30
  -5  -1   1  601.64   17.80
  -5   1   1  559.54   18.40
  -5   1   1  549.85   18.00
  -4  -1   1  466.05   14.10
   4  -1  -1  446.36   14.00
  -4   1   1  458.75   14.90
  -4   1   1  457.65   13.10
  -4   1   1  439.86   14.40
   4   1  -1  423.46   13.50
   3  -1  -1 4179.68  104.99
  -3  -1   1 4079.99  106.69
  -3   1   1 4049.69  109.29
  -3   1   1 3928.81  105.89
   3   1  -1 3696.73  104.79
  -3   1   1 4162.28  106.39
   2  -1  -1    5.30    0.80
  -2  -1   1    7.00    0.70
  -2   1   1    4.10    0.90
  -2   1   1    9.40    0.90
  -2  -1  -1  925.11   25.90
   2  -1   1  942.91   25.70
   2   1   1  932.51   25.60
  -2   1  -1  957.30   25.80
  -2   1  -1  950.50   26.30
   3  -1   1 1492.75   42.20
  -3  -1  -1 1576.54   42.60
  -3   1  -1 1596.14   42.50
  -3   1  -1 1560.94   43.20
   3   1   1 1580.84   42.10
  -4  -1  -1  207.28    7.90
   4  -1   1  180.48    7.30
  -4   1  -1  198.28    8.30
  -4   1  -1  202.18    7.80
   4   1   1  182.48    7.20
  -5  -1  -1 1600.84   45.20
   5  -1   1 1614.24   44.60
  -5   1  -1 1587.04   45.20
  -5   1  -1 1614.04   45.90
   5   1   1 1565.84   44.30
  -6  -1  -1  278.77   11.40
   6  -1   1  266.87   12.70
  -6   1  -1  268.07   11.30
  -6   1  -1  286.57   12.00
  -7  -1  -1 1004.70   30.80
  -7  -1  -1  937.61   30.20
  -7   1  -1  982.20   31.30
  -7   1  -1  940.11   30.60
  -8  -1  -1  102.39    7.50
  -8  -1  -1  127.29    7.90
  -8   1  -1  114.29    8.00
  -8   1  -1  124.09    8.00
  -8  -2   1    6.80    2.50
  -8  -2   1    6.80    2.10
  -8   2   1    1.00    2.00
  -8   2   1    5.20    2.50
  -7  -2   1  517.65   18.20
  -7  -2   1  546.25   17.60
  -7   2   1  507.25   18.90
  -7   2   1  511.25   19.10
  -6  -2   1    2.30    1.30
  -6   2   1   -1.20    1.10
  -6   2   1    1.40    1.50
   5  -2  -1 2538.35   69.19
  -5  -2   1 2563.34   68.49
  -5   2   1 2607.94   70.59
  -5   2   1 2513.65   69.79
  -4  -2   1  199.78    6.80
   4  -2  -1  182.18    7.20
   4   2  -1  165.18    6.50
  -4   2   1  185.28    8.00
  -4   2   1  193.18    6.60
  -4   2   1  186.08    7.60
  -3  -2   1 1474.05   38.70
   3  -2  -1 1366.16   39.20
  -3   2   1 1441.16   39.70
  -3   2   1 1401.36   40.10
  -3   2   1 1545.15   39.20
  -2  -2   1  271.57    7.80
   2  -2  -1  249.28    8.20
  -2  -2   1  261.27    7.60
  -2   2   1  271.07    8.50
   1  -2  -1 5419.26  141.29
  -1   2   1 5384.76  141.79
   0  -2  -1  156.68    4.90
   0  -2   1  146.89    4.40
   0  -2  -1  149.09    4.70
   0   2   1  150.08    4.70
  -1  -2  -1 1045.10   28.80
  -1  -2  -1 1088.29   28.60
   1  -2   1 1093.99   28.70
  -1   2  -1 1060.99   28.80
   1   2   1 1089.89   28.60
   2  -2   1  487.45   14.70
  -2  -2  -1  497.05   14.70
  -2  -2  -1  519.75   14.50
  -2   2  -1  524.55   14.90
   2   2   1  510.55   14.50
  -2   2  -1  506.15   15.30
   3  -2   1 4946.21  134.79
  -3  -2  -1 5327.37  137.29
  -3   2  -1 5176.98  135.99
   3   2   1 5218.38  136.39
  -3   2  -1 5027.70  135.99
   4  -2   1  269.17    9.90
  -4  -2  -1  284.97   10.00
  -4   2  -1  284.37   10.90
  -4   2  -1  292.67    8.20
   4   2   1  271.47    9.60
  -4   2  -1  278.67   10.20
   5  -2   1  489.55   16.10
  -5  -2  -1  503.65   16.10
  -5   2  -1  457.55   16.90
  -5   2  -1  468.55   16.20
  -6  -2  -1    6.50    1.90
   6  -2   1    7.50    2.00
  -6   2  -1    5.00    2.10
  -6   2  -1    7.60    2.20
  -7  -2  -1 2083.59   59.19
  -7   2  -1 2089.09   60.79
  -7   2  -1 2103.49   60.19
  -8  -2  -1   30.80    4.50
  -8  -2  -1   53.59    5.10
  -8   2  -1   45.70    5.60
  -8   2  -1   47.50    5.60
  -8  -3   1  177.98    9.30
  -8  -3   1  186.18    8.00
  -8   3   1  176.68   10.20
  -8   3   1  163.88    9.90
  -7  -3   1  554.64   17.30
  -7   3   1  526.55   20.00
  -7   3   1  515.75   19.50
  -6  -3   1   68.29    4.10
  -6   3   1   61.79    5.00
  -6   3   1   67.19    5.50
   5  -3  -1 2393.26   65.59
  -5  -3   1 2419.76   64.39
  -5   3   1 2389.86   66.29
  -5   3   1 2411.86   66.99
   4  -3  -1  188.78    7.50
  -4  -3   1  184.88    6.60
  -4   3   1  185.58    7.80
  -4   3   1  185.18    7.00
  -4   3   1  187.98    8.30
  -3  -3   1 1490.95   39.90
   3  -3  -1 1497.65   40.90
  -3  -3   1 1485.95   40.20
  -3   3   1 1452.05   41.80
  -3   3   1 1559.64   41.30
   2  -3  -1  864.81   24.40
  -2  -3   1  888.41   23.80
  -2  -3   1  909.61   23.60
  -2   3   1  859.41   24.70
   1  -3  -1 3291.97   91.09
  -1  -3   1 3497.85   89.79
  -1  -3   1 3341.87   89.59
  -1   3   1 3538.75   91.19
   0  -3   1  439.86   12.20
   0  -3  -1  431.66   12.40
   0  -3  -1  444.76   12.80
   0   3   1  439.26   12.50
   1  -3   1  373.86   11.30
  -1  -3  -1  374.16   11.50
  -1  -3  -1  403.56   11.30
  -1   3  -1  408.36   11.50
   1   3   1  391.06   11.30
   2  -3   1  356.16   10.90
  -2  -3  -1  356.06   10.50
  -2  -3  -1  349.47   10.80
   2   3   1  361.26   10.60
  -2   3  -1  333.27   10.90
  -3  -3  -1 3525.05   96.79
   3  -3   1 3579.54   94.79
  -3  -3  -1 3702.93   95.69
  -3   3  -1 3663.63   95.09
  -3   3  -1 3613.54   95.89
   3   3   1 3471.15   94.19
  -4  -3  -1    1.50    0.90
   4  -3   1    8.30    1.70
  -4   3  -1    1.30    1.00
  -4   3  -1    4.80    1.70
   4   3   1    2.40    0.90
   5  -3   1 1919.31   54.99
  -5  -3  -1 1997.20   54.79
  -5   3  -1 1976.40   56.49
  -5   3  -1 2054.39   55.79
   6  -3   1   46.90    4.20
  -6  -3  -1   45.80    3.90
  -6   3  -1   50.89    5.10
  -6   3  -1   45.60    4.40
  -7  -3  -1 1656.13   47.80
  -7   3  -1 1709.33   50.39
  -7   3  -1 1621.34   49.20
  -8  -3  -1    8.90    2.50
  -8  -3  -1    8.60    2.60
  -8   3  -1    9.40    3.40
  -8   3  -1    5.70    2.80
  -8  -4   1  105.19    5.10
  -8  -4   1  101.09    6.80
  -8   4   1  111.19    8.10
  -8   4   1  108.49    8.30
  -7  -4   1 1351.66   37.30
  -7   4   1 1267.27   40.60
  -7   4   1 1375.96   41.90
  -6  -4   1  149.49    6.20
  -6   4   1  157.88    8.80
  -6   4   1  136.89    8.00
  -5  -4   1 1579.94   42.20
   5  -4  -1 1555.04   43.90
  -5   4   1 1564.74   44.60
  -5   4   1 1487.85   45.20
  -4  -4   1  398.26   12.00
   4  -4  -1  389.36   13.20
  -4   4   1  401.56   14.40
  -4   4   1  378.96   13.60
   3  -4  -1 3038.30   82.19
  -3  -4   1 3091.39   81.79
  -3  -4   1 3283.17   82.49
  -3   4   1 2979.00   82.69
  -2  -4   1  544.35   15.40
   2  -4  -1  541.75   16.00
  -2  -4   1  546.75   15.20
  -2   4   1  533.15   16.30
   1  -4  -1 2037.00   55.89
  -1  -4   1 2105.59   56.19
  -1   4   1 2196.78   56.29
   0  -4  -1  606.64   16.80
   0  -4   1  597.94   16.20
   0  -4  -1  558.24   16.40
   0   4  -1  547.55   16.10
   0   4   1  587.04   16.50
  -1  -4  -1 5696.13  151.58
   1  -4   1 5607.34  150.28
  -1  -4  -1 5775.62  150.78
  -1   4  -1 5688.13  149.88
   1   4   1 5795.52  149.99
  -2  -4  -1  403.76   11.70
  -2  -4  -1  387.86   11.90
   2  -4   1  368.56   11.90
   2   4   1  372.86   11.60
  -2   4  -1  384.16   12.20
   3  -4   1 1671.23   45.40
  -3  -4  -1 1674.83   45.00
  -3  -4  -1 1637.14   44.60
  -3   4  -1 1603.84   45.40
  -3   4  -1 1704.63   46.60
   3   4   1 1613.44   44.60
   4  -4   1   14.70    2.20
  -4  -4  -1   11.70    1.80
  -4   4  -1   11.20    2.40
  -4   4  -1   12.10    2.20
  -5  -4  -1 1411.86   39.80
   5  -4   1 1367.26   40.40
  -5   4  -1 1383.86   41.90
  -5   4  -1 1469.95   41.20
  -6  -4  -1  276.17   10.80
   6  -4   1  276.67   11.60
  -6   4  -1  270.97   11.90
  -6   4  -1  275.47   12.80
  -7  -4  -1  402.96   15.10
  -7   4  -1  431.46   17.00
  -7   4  -1  435.66   17.90
  -8  -4  -1   26.60    3.70
  -8   4  -1   30.50    5.40
  -8   4  -1   26.00    4.90
  -8   5   1   -0.40    2.10
  -8   5   1    1.80    2.20
  -7  -5   1 1163.78   32.40
  -7   5   1 1169.98   37.30
  -7   5   1 1206.68   38.40
   6  -5  -1    9.40    2.70
  -6  -5   1    7.50    1.40
  -6   5   1    8.30    2.60
  -6   5   1    6.50    2.40
  -5  -5   1  640.34   18.60
   5  -5  -1  637.14   20.80
  -5   5   1  672.43   21.70
  -5   5   1  635.34   22.30
  -4  -5   1   11.40    1.70
  -4  -5   1   15.80    1.50
   4  -5  -1   12.00    2.10
  -4   5   1   14.30    2.90
  -4   5   1   12.20    2.30
  -3  -5   1 2744.83   74.09
   3  -5  -1 2787.62   75.19
  -3  -5   1 2761.72   74.29
  -3   5   1 2935.51   75.89
  -2  -5   1   24.10    1.60
   2  -5  -1   19.90    2.00
  -2  -5   1   23.40    1.80
  -2   5   1   22.70    2.20
   1  -5  -1 1151.58   31.60
  -1  -5   1 1129.59   31.00
  -1   5   1 1153.68   31.90
   0  -5  -1   17.00    1.60
   0  -5   1   18.20    1.50
   0  -5  -1   18.20    1.80
   0   5  -1   23.00    1.60
   0   5   1   18.40    1.70
   1  -5   1 5087.99  138.79
  -1  -5  -1 5268.27  136.99
  -1  -5  -1 5212.78  138.59
  -1   5  -1 5242.98  136.79
   1   5   1 5332.97  138.39
  -2  -5  -1    7.00    1.20
   2  -5   1   10.30    1.60
  -2  -5  -1    7.50    1.30
   2   5   1    7.30    1.20
  -2   5  -1    7.50    1.50
  -3  -5  -1 1163.68   33.40
   3  -5   1 1189.68   34.00
  -3  -5  -1 1228.48   33.30
  -3   5  -1 1205.68   34.30
   3   5   1 1199.48   33.20
   4  -5   1  406.76   14.10
  -4  -5  -1  408.16   13.50
  -4  -5  -1  422.16   13.50
  -4   5  -1  404.06   15.40
  -4   5  -1  409.56   14.50
  -5  -5  -1 3314.67   89.69
   5  -5   1 3433.06   90.99
  -5   5  -1 3407.26   91.49
  -5   5  -1 3265.37   94.49
   6  -5   1    2.30    1.90
  -6  -5  -1    4.10    1.60
  -6   5  -1    8.00    2.60
  -7  -5  -1  130.69    6.90
  -7   5  -1  142.49    8.70
  -8  -5  -1   32.60    3.60
  -8   5  -1   27.90    4.90
  -7   6   1  584.14   22.30
  -7   6   1  543.75   21.30
  -6  -6   1  237.78    7.80
   6  -6  -1  245.98   11.00
  -6   6   1  238.98   11.60
  -6   6   1  256.57   12.50
  -5  -6   1 1874.81   50.09
   5  -6  -1 1781.32   52.99
  -5   6   1 1916.91   54.09
  -5   6   1 1953.30   55.59
   4  -6  -1  120.29    6.30
  -4  -6   1  122.99    5.50
  -4  -6   1  125.79    4.70
  -4   6   1  125.09    7.50
  -4   6   1  115.39    6.60
  -3  -6   1 1242.58   32.70
   3  -6  -1 1202.58   34.40
  -3  -6   1 1168.68   33.30
  -3   6   1 1206.98   34.90
   2  -6  -1  112.29    5.20
  -2  -6   1  110.99    4.70
  -2   6   1  104.09    5.30
   1  -6  -1 2221.98   58.99
  -1  -6   1 2325.67   58.59
  -1   6   1 2168.38   59.19
   1   6  -1 2073.29   58.09
   0  -6   1  706.63   19.90
   0  -6  -1  739.53   20.50
   0  -6  -1  652.93   19.90
   0   6  -1  663.03   19.70
   0   6   1  676.43   20.10
  -1  -6  -1 2974.40   77.39
  -1  -6  -1 2921.61   77.49
   1  -6   1 2811.82   77.39
  -1   6  -1 2948.70   77.59
   1   6   1 2946.71   77.29
  -2  -6  -1  135.99    5.70
   2  -6   1  138.79    6.00
  -2  -6  -1  129.49    5.70
  -2   6  -1  144.09    6.20
   2   6   1  124.89    5.40
  -3  -6  -1 2545.05   66.99
  -3  -6  -1 2468.35   66.89
   3  -6   1 2489.75   67.69
  -3   6  -1 2481.95   68.09
   4  -6   1  133.59    6.80
  -4  -6  -1  130.89    6.00
  -4  -6  -1  137.29    6.30
  -4   6  -1  147.79    7.30
   5  -6   1 1169.18   34.40
  -5  -6  -1 1127.69   32.70
  -5   6  -1 1118.69   34.80
  -6  -6  -1  140.19    6.80
   6  -6   1  145.99    8.20
  -6   6  -1  141.09    8.40
  -7  -6  -1  448.86   15.40
  -7   6  -1  452.05   18.30
  -7   7   1  356.26   16.00
   6  -7  -1   32.30    4.60
  -6   7   1   26.40    4.40
   5  -7  -1 2669.23   72.19
  -5   7   1 2522.05   72.79
  -4  -7   1    8.90    1.80
   4  -7  -1   14.00    2.60
  -4   7   1    5.00    1.80
  -3  -7   1  595.74   18.30
   3  -7  -1  616.44   19.50
  -3   7   1  619.64   19.90
  -2  -7   1    6.60    1.40
   2  -7  -1    7.90    1.70
  -2   7   1    8.70    1.80
  -1  -7   1 4121.99  111.39
   1  -7  -1 4250.77  111.99
  -1   7   1 4364.06  112.29
   0  -7   1  111.39    5.00
   0  -7  -1  113.19    5.10
   0   7   1  104.59    5.00
   1  -7   1  952.30   27.30
  -1  -7  -1  903.61   27.20
  -1  -7  -1  943.51   27.20
  -1   7  -1  919.11   27.20
   1   7   1 1037.80   27.30
  -2  -7  -1    6.30    1.40
   2  -7   1    8.50    1.70
  -2  -7  -1    8.10    1.60
  -2   7  -1    8.00    1.70
   3  -7   1 2309.27   62.69
  -3  -7  -1 2290.17   61.79
  -3  -7  -1 2261.77   61.79
  -3   7  -1 2271.67   62.99
  -4  -7  -1    2.20    1.20
   4  -7   1    2.90    1.60
  -4  -7  -1    3.60    1.30
  -4   7  -1    2.40    1.60
  -5  -7  -1  389.06   13.40
   5  -7   1  419.46   15.30
  -5  -7  -1  388.86   14.10
  -5   7  -1  395.96   15.60
   6  -7   1    3.10    2.00
  -6  -7  -1    1.60    1.30
  -6   7  -1    4.50    2.50
  -7  -7  -1  582.94   18.50
  -7   7  -1  598.04   22.60
  -7   8   1  489.85   20.10
   6  -8  -1   11.10    3.00
  -6   8   1   13.90    3.50
  -5  -8   1 1680.23   47.60
   5  -8  -1 1730.73   49.50
  -5   8   1 1670.63   50.09
   4  -8  -1  153.68    7.80
  -4  -8   1  148.49    6.80
  -4   8   1  151.78    8.20
   3  -8  -1 1035.40   30.40
  -3  -8   1  998.50   29.20
  -3   8   1 1003.90   30.80
   2  -8  -1   53.29    4.00
  -2  -8   1   60.29    3.70
  -2   8   1   61.29    4.30
  -1  -8   1 1319.17   37.00
   1  -8  -1 1374.46   37.70
  -1   8   1 1286.47   37.60
   0  -8  -1   87.49    4.70
   0  -8   1   83.39    4.50
   0   8   1   82.79    5.60
   1  -8   1  714.43   22.40
  -1  -8  -1  782.12   22.50
  -2  -8  -1  374.76   12.90
  -2  -8  -1  369.06   12.70
   2  -8   1  386.76   13.20
   3  -8   1 1686.53   47.70
  -3  -8  -1 1722.73   46.60
  -3  -8  -1 1730.83   47.10
  -3   8  -1 1601.64   47.90
   4  -8   1  215.28    9.70
  -4  -8  -1  210.18    8.90
  -4  -8  -1  217.18    8.50
  -4   8  -1  207.38    9.90
  -5  -8  -1  854.41   26.50
   5  -8   1  876.41   27.90
  -5  -8  -1  856.41   25.50
  -5   8  -1  854.61   28.20
  -6  -8  -1   76.89    4.50
   6  -8   1   77.29    6.40
  -6   8  -1   77.79    6.80
   7  -8   1  728.23   29.00
  -7  -8  -1  655.93   20.20
  -7   8  -1  707.63   26.00
   6  -9  -1   -1.20    1.90
  -6   9   1    1.60    2.10
  -5  -9   1  629.04   20.90
   5  -9  -1  675.63   22.90
  -5   9   1  663.63   23.50
   4  -9  -1  104.79    6.70
  -4  -9   1  112.99    6.00
  -4   9   1  116.59    7.30
  -3  -9   1 1962.00   55.99
   3  -9  -1 2103.19   57.49
  -3   9   1 2060.29   57.89
  -2  -9   1    6.00    1.60
   2  -9  -1    4.60    1.80
  -2   9   1    5.20    2.70
   1  -9  -1  927.61   27.60
  -1  -9   1  913.41   27.00
   0  -9   1   39.10    3.20
   0  -9  -1   37.20    3.40
  -1  -9  -1 1833.72   51.59
   1  -9   1 1895.81   51.89
  -2  -9  -1  118.19    6.10
   2  -9   1  119.89    6.40
   3  -9   1  285.27   11.50
  -3  -9  -1  264.67   10.70
  -3  -9  -1  299.57   10.50
   4  -9   1   32.10    4.20
  -4  -9  -1   33.20    3.10
  -4  -9  -1   35.20    3.60
  -5  -9  -1 1139.69   32.40
  -5  -9  -1 1111.19   33.90
   5  -9   1 1153.58   35.50
   6  -9   1   27.30    4.60
  -6  -9  -1   27.60    2.60
   5 -10  -1  319.77   14.00
  -5 -10   1  313.67   12.40
   4 -10  -1    3.40    2.10
  -4 -10   1    5.60    1.80
   3 -10  -1 1559.14   45.20
  -3 -10   1 1523.35   43.70
   2 -10  -1  264.17   10.80
  -2 -10   1  242.58    9.90
   1 -10  -1  667.83   21.30
  -1 -10   1  652.53   20.70
   0 -10  -1   42.80    3.80
   0 -10   1   44.70    3.70
  -1 -10  -1 1960.60   54.79
   1 -10   1 1971.00   54.89
  -2 -10  -1   15.90    2.70
   2 -10   1   15.90    2.80
   3 -10   1  498.65   18.00
  -3 -10  -1  514.05   17.40
  -4 -10  -1   33.40    4.10
   4 -10   1   21.80    3.70
  -5 -10  -1  592.54   21.00
   5 -10   1  678.53   22.90
   4 -11  -1   48.60    5.60
  -4 -11   1   40.80    4.00
   3 -11  -1  505.45   18.70
  -3 -11   1  530.45   17.70
  -2 -11   1  177.68    8.40
   2 -11  -1  192.68    9.20
  -1 -11   1 1281.17   37.20
   1 -11  -1 1270.37   37.70
   0 -11  -1   57.19    4.50
   0 -11   1   46.60    4.20
   1 -11   1  641.44   21.20
  -1 -11  -1  645.24   21.20
  -2 -11  -1   45.70    4.30
   2 -11   1   44.10    4.40
   3 -11   1  905.81   28.80
  -3 -11  -1  887.71   27.90
   4 -11   1   40.90    5.10
  -4 -11  -1   38.90    4.50
  -3 -12   1  421.06   15.40
   3 -12  -1  408.46   16.40
  -2 -12   1    1.90    1.70
   2 -12  -1    5.30    2.30
   1 -12  -1 1369.26   41.00
  -1 -12   1 1388.86   40.50
   0 -12   1    3.30    1.90
   0 -12  -1    8.10    2.50
   1 -12   1  437.66   16.20
  -1 -12  -1  439.26   16.20
   2 -12   1    3.20    2.10
  -2 -12  -1    3.80    2.00
  -3 -12  -1  985.10   30.80
   3 -12   1  991.40   31.60
  -1 -13   1  574.04   19.70
   1 -13  -1  543.55   19.90
   0 -13  -1  111.59    7.20
   0 -13   1  109.29    6.90
   1 -13   1  376.66   15.10
  -1 -13  -1  378.76   15.00
  -8   0   2  354.06   13.70
  -8   0   2  343.97   14.60
  -7   0   2    4.10    1.80
  -7   0   2    0.50    1.40
  -6   0   2 2482.95   68.29
  -6   0   2 2482.75   67.89
  -5   0   2    1.00    1.00
  -5   0   2    1.00    1.00
   4   0  -2 1648.04   45.70
  -4   0   2 1719.33   45.70
  -4   0   2 1772.02   46.40
  -4   0   2 1658.63   46.40
   3   0  -2    0.70    0.50
  -3   0   2    2.40    0.70
  -3   0   2    3.00    0.80
  -3   0   2    0.90    0.50
  -2   0   2 3880.51  103.69
  -2   0   2 4039.70  102.99
  -2   0   2 3813.12  103.09
  -2   0   2 3950.50  103.79
  -1   0   2    2.60    0.40
  -1   0   2    1.60    0.30
  -1   0   2    2.60    0.60
  -1   0   2    1.90    0.30
   0   0   2  829.62   21.70
   0   0   2  791.92   21.30
   1   0   2   23.40    1.30
  -2   0  -2 2895.51   77.59
  -3   0  -2    0.60    0.80
   3   0   2    4.10    1.00
  -4   0  -2  872.71   26.10
   4   0   2  871.51   25.30
   5   0   2    1.60    1.10
  -5   0  -2    1.90    1.40
  -5   0  -2    0.60    1.00
   6   0   2 2036.10   56.79
  -6   0  -2 1983.20   57.59
  -6   0  -2 2041.60   56.89
  -7   0  -2    4.20    2.30
  -7   0  -2    0.50    1.60
  -8   0  -2  209.88   11.20
  -8   0  -2  214.18   11.00
  -8  -1   2  412.86   14.60
  -8  -1   2  399.26   16.00
  -8   1   2  427.66   16.00
  -8   1   2  395.06   16.30
  -7  -1   2   54.79    4.70
  -7  -1   2   58.09    4.20
  -7   1   2   49.80    4.80
  -7   1   2   50.19    4.60
  -6  -1   2 1437.66   40.10
  -6  -1   2 1423.06   40.80
  -6   1   2 1450.85   41.20
  -6   1   2 1367.56   41.10
  -5  -1   2  183.08    7.20
  -5  -1   2  184.48    7.60
  -5   1   2  186.78    7.90
  -5   1   2  181.98    8.00
  -4  -1   2 1444.76   38.40
   4  -1  -2 1392.16   38.70
  -4   1   2 1395.46   39.50
  -4   1   2 1430.86   38.40
   4   1  -2 1371.66   38.30
  -4   1   2 1448.06   39.30
  -3  -1   2  605.74   17.30
   3  -1  -2  648.84   17.70
  -3   1   2  651.73   17.90
  -3   1   2  591.24   17.80
  -3   1   2  627.54   18.40
  -3   1   2  607.24   18.10
   2  -1  -2 5017.80  132.89
  -2   1   2 5278.97  135.39
  -2   1   2 5212.38  133.29
  -2   1   2 4810.32  135.39
  -1  -1   2  957.80   25.20
  -1   1   2  965.20   26.30
  -1   1   2  982.90   25.80
   1  -1   2  990.90   27.20
  -1  -1  -2 1017.20   27.10
   1   1   2 1036.40   27.20
  -1   1  -2 1035.20   27.20
  -2  -1  -2 1579.24   41.80
   2  -1   2 1523.85   41.30
  -2   1  -2 1547.35   41.40
   2   1   2 1568.14   41.30
  -2   1  -2 1515.35   42.00
   3  -1   2  567.34   17.00
   3   1   2  562.44   16.90
  -3   1  -2  598.74   17.20
  -3   1  -2  569.04   17.90
   4  -1   2 1962.60   53.19
  -4  -1  -2 1975.30   53.89
  -4   1  -2 1943.81   53.49
   4   1   2 1932.71   52.99
  -4   1  -2 1953.70   54.39
  -5  -1  -2  353.26   13.20
   5  -1   2  361.06   12.60
  -5   1  -2  350.36   13.60
   5   1   2  347.97   12.30
  -5   1  -2  361.56   13.00
   6  -1   2 1405.56   40.00
  -6  -1  -2 1354.16   40.80
  -6   1  -2 1397.06   41.50
  -6   1  -2 1370.86   40.70
  -7  -1  -2  101.99    6.70
  -7  -1  -2   99.79    6.90
  -7   1  -2  104.19    7.00
  -7   1  -2  102.39    7.30
  -8  -1  -2  567.94   21.30
  -8  -1  -2  592.54   21.60
  -8   1  -2  587.54   21.60
  -8   1  -2  592.94   22.20
  -8  -2   2 1067.89   30.00
  -8  -2   2  983.70   32.20
  -8   2   2 1041.70   32.80
  -8   2   2  997.80   33.00
  -7  -2   2   11.20    2.60
  -7  -2   2   13.70    2.20
  -7   2   2   18.40    3.50
  -7   2   2   10.60    2.70
  -6  -2   2  540.35   16.50
  -6  -2   2  535.05   17.50
  -6   2   2  529.15   18.40
  -6   2   2  520.25   18.60
   5  -2  -2   92.39    5.20
  -5  -2   2   85.29    4.10
  -5   2   2   86.09    5.20
  -5   2   2   80.99    5.30
  -4  -2   2 5559.44  139.99
   4  -2  -2 5126.99  139.29
  -4   2   2 5388.56  139.49
  -4   2   2 5477.55  141.49
  -4   2   2 4961.60  139.59
  -3  -2   2  226.78    6.80
   3  -2  -2  229.68    7.70
  -3   2   2  220.08    7.90
  -3   2   2  221.08    8.40
  -3   2   2  239.08    8.10
   2  -2  -2 1835.82   49.40
  -2  -2   2 1922.91   49.00
  -2   2   2 1849.02   49.70
   1  -2  -2  884.81   23.60
  -1  -2   2  884.11   22.90
  -1   2   2  866.11   23.90
   0  -2  -2 5264.67  141.59
   0   2   2 5498.55  141.19
  -1  -2  -2  310.27    9.00
   1  -2   2  282.57    8.90
  -1  -2  -2  315.37    9.40
   1   2   2  312.27    9.00
  -1   2  -2  303.87    9.00
  -2  -2  -2   78.89    3.40
  -2   2  -2   77.49    4.00
   2   2   2   84.19    3.50
   3  -2   2  295.17    9.80
  -3  -2  -2  279.97    9.90
  -3   2  -2  318.37   10.70
   3   2   2  266.87    9.40
   4  -2   2 3411.96   88.59
  -4  -2  -2 3256.57   88.89
  -4   2  -2 3205.48   88.79
  -4   2  -2 3244.18   89.79
   4   2   2 3511.55   88.39
   5  -2   2   53.99    3.90
  -5  -2  -2   61.49    4.40
  -5   2  -2   55.39    4.20
   5   2   2   52.39    3.60
  -5   2  -2   56.59    4.70
   6  -2   2  643.24   21.20
  -6  -2  -2  646.14   21.50
  -6   2  -2  627.34   21.50
  -6   2  -2  668.23   22.70
  -7  -2  -2   43.10    4.60
  -7   2  -2   45.30    5.20
  -7   2  -2   39.90    5.20
  -8  -2  -2 1034.50   34.20
  -8  -2  -2 1075.59   34.50
  -8   2  -2 1123.79   36.20
  -8   2  -2 1132.39   35.60
  -8  -3   2 1007.60   27.60
  -8  -3   2 1022.90   31.30
  -8   3   2  966.20   32.30
  -8   3   2  937.41   31.90
  -7  -3   2   49.60    3.20
  -7  -3   2   43.40    4.10
  -7   3   2   42.90    5.00
  -7   3   2   43.60    4.90
  -6  -3   2 1538.55   40.90
  -6   3   2 1445.26   43.70
  -6   3   2 1509.95   44.50
  -5  -3   2  158.98    5.60
   5  -3  -2  145.59    6.80
  -5   3   2  140.79    7.50
  -5   3   2  146.79    7.20
   4  -3  -2 3781.62  100.79
  -4  -3   2 3925.71  100.09
  -4   3   2 3631.84  101.29
  -4   3   2 3815.62  100.79
  -4   3   2 3898.41  102.19
  -3  -3   2  422.06   11.60
   3  -3  -2  422.26   13.10
  -3   3   2  452.75   13.80
  -3   3   2  411.76   14.10
   2  -3  -2 1276.57   35.10
  -2  -3   2 1334.97   34.30
  -2   3   2 1280.87   35.50
   1  -3  -2  423.46   12.70
  -1  -3   2  414.06   11.50
   1  -3  -2  410.46   12.20
  -1   3   2  436.76   12.60
   0  -3  -2 3702.93   98.19
   0  -3   2 3570.64   95.49
   0  -3  -2 3616.04   96.39
   0   3   2 3702.63   96.59
  -1  -3  -2  298.37    9.50
   1  -3   2  300.67    9.10
  -1  -3  -2  291.87    9.10
  -1   3  -2  307.27    9.20
   1   3   2  305.67    9.20
   2  -3   2  607.94   18.00
  -2  -3  -2  621.94   18.10
  -2  -3  -2  573.94   17.60
  -2   3  -2  629.04   18.80
  -2   3  -2  620.94   18.00
   2   3   2  672.83   17.90
   3  -3   2  168.58    6.80
  -3  -3  -2  165.08    6.70
  -3  -3  -2  178.88    6.50
  -3   3  -2  172.18    7.50
   3   3   2  176.08    6.50
  -3   3  -2  180.38    7.00
  -4  -3  -2 2222.28   60.99
   4  -3   2 2192.78   60.89
  -4   3  -2 2310.57   61.39
   4   3   2 2232.58   60.39
  -5  -3  -2   35.30    3.30
   5  -3   2   36.70    3.40
  -5   3  -2   36.70    3.60
  -5   3  -2   44.50    4.40
  -6  -3  -2  568.14   19.90
   6  -3   2  626.44   20.20
  -6   3  -2  589.94   20.60
  -6   3  -2  602.54   21.70
  -7  -3  -2  135.99    7.80
  -7   3  -2  139.39    9.00
  -7   3  -2  141.29    8.50
  -8  -3  -2 1184.68   36.40
  -8   3  -2 1175.88   38.40
  -8   3  -2 1153.18   37.60
  -8  -4   2  356.56   14.70
  -8   4   2  392.86   16.60
  -8   4   2  393.26   16.70
  -7  -4   2  124.49    4.50
  -7  -4   2  124.39    4.50
  -7   4   2  136.69    8.60
  -7   4   2  122.69    7.90
  -6  -4   2  932.21   24.90
  -6   4   2  914.41   29.40
  -6   4   2  860.91   28.60
  -5  -4   2  175.38    5.70
   5  -4  -2  174.88    7.80
  -5   4   2  178.48    8.80
  -5   4   2  154.98    8.00
  -4  -4   2 1075.69   28.70
   4  -4  -2 1107.69   31.10
  -4   4   2 1103.09   31.70
  -4   4   2 1034.80   32.30
   3  -4  -2  446.26   13.90
  -3  -4   2  445.66   12.90
  -3   4   2  429.76   14.30
   2  -4  -2 4958.90  129.89
  -2  -4   2 4831.62  129.59
  -2   4   2 5017.60  129.99
  -1  -4   2  391.96   11.10
   1  -4  -2  380.56   12.20
  -1   4   2  392.16   12.10
   0  -4   2 2112.09   56.69
   0  -4  -2 2268.77   58.59
   0  -4  -2 2190.78   57.19
   0   4   2 2076.09   57.29
  -1  -4  -2  683.53   19.30
   1  -4   2  643.34   18.70
  -1  -4  -2  675.53   18.90
  -1   4  -2  646.74   18.70
   1   4   2  670.13   18.80
  -2  -4  -2 5473.15  138.89
  -2  -4  -2 5103.99  139.29
   2  -4   2 5019.00  137.39
   2   4   2 5445.16  138.99
  -2   4  -2 5208.88  137.09
   3  -4   2  342.57   12.00
  -3  -4  -2  361.26   11.70
  -3  -4  -2  358.86   12.10
  -3   4  -2  377.96   12.40
   3   4   2  363.36   11.70
  -3   4  -2  387.46   13.20
   4  -4   2 1389.46   39.20
  -4  -4  -2 1370.86   38.90
  -4   4  -2 1428.16   40.60
  -4   4  -2 1415.16   39.60
   4   4   2 1300.57   38.30
   5  -4   2    9.00    2.10
  -5  -4  -2    8.30    1.90
  -5   4  -2   10.00    2.40
  -5   4  -2   17.10    3.00
   6  -4   2 1766.82   49.40
  -6  -4  -2 1733.23   49.00
  -6   4  -2 1634.54   49.70
   7  -4   2  156.18   12.10
  -7  -4  -2  137.69    7.80
  -7   4  -2  139.29    8.60
  -8  -4  -2  287.47   12.50
  -8   4  -2  279.07   13.70
  -8   5   2  319.37   15.20
  -8   5   2  343.27   15.80
  -7   5   2    3.60    2.30
  -7   5   2    0.50    2.10
  -6   5   2 2151.98   60.39
  -6   5   2 1986.60   59.29
   5  -5  -2   71.79    4.90
  -5   5   2   72.19    5.30
  -5   5   2   68.49    5.60
  -4  -5   2  315.97   10.60
   4  -5  -2  326.07   11.60
  -4   5   2  317.77   12.10
  -4   5   2  330.47   13.00
  -3  -5   2    1.70    0.70
   3  -5  -2    1.00    0.90
  -3   5   2    0.60    1.00
  -2  -5   2 3271.07   83.99
   2  -5  -2 3169.58   84.89
  -2   5   2 3191.08   85.39
  -1  -5   2  627.44   17.30
   1  -5  -2  609.94   18.00
   1  -5  -2  620.84   18.50
  -1   5   2  601.74   18.30
   0  -5  -2 1167.48   31.40
   0  -5  -2 1158.88   31.90
   0  -5   2 1120.19   30.90
   0   5   2 1146.79   31.50
   0   5  -2 1096.39   31.20
  -1  -5  -2   30.50    2.20
  -1  -5  -2   30.60    2.40
   1  -5   2   38.20    2.40
  -1   5  -2   32.40    2.20
   1   5   2   37.50    2.40
  -2  -5  -2 7520.25  196.18
   2  -5   2 7474.25  196.08
  -2  -5  -2 7459.75  195.18
   2   5   2 7491.75  194.88
  -2   5  -2 6960.10  193.68
  -3  -5  -2   43.20    3.10
  -3  -5  -2   38.30    2.80
   3  -5   2   44.10    3.30
  -3   5  -2   38.40    3.20
   3   5   2   41.00    2.80
   4  -5   2  650.23   20.90
  -4  -5  -2  673.43   20.20
  -4  -5  -2  665.43   20.50
  -4   5  -2  662.23   21.20
  -5  -5  -2  122.59    6.40
   5  -5   2  126.99    6.90
  -5   5  -2  131.49    7.20
  -6  -5  -2 1581.84   45.20
   6  -5   2 1617.74   46.10
  -6   5  -2 1511.65   46.40
  -7  -5  -2    1.30    1.60
   7  -5   2    3.40    2.20
  -7   5  -2    2.80    2.20
  -8  -5  -2  260.67   11.50
  -8   5  -2  273.27   13.50
  -7   6   2   28.00    4.80
  -7   6   2   27.90    4.60
  -6   6   2  653.53   23.00
  -6   6   2  655.23   23.80
   5  -6  -2  155.98    7.90
  -5   6   2  159.58    8.50
  -5   6   2  173.78    9.40
  -4  -6   2 1078.09   30.90
   4  -6  -2 1116.39   32.40
  -4   6   2 1106.79   33.00
  -3  -6   2  143.59    5.60
   3  -6  -2  143.59    6.40
  -3   6   2  133.79    6.70
   2  -6  -2 1765.12   47.10
  -2  -6   2 1702.13   46.00
  -2   6   2 1679.23   47.40
   1  -6  -2  363.36   11.90
  -1  -6   2  361.96   11.20
   0  -6   2 2134.59   59.19
   0  -6  -2 2307.77   59.79
   0  -6  -2 2202.88   60.19
   0   6  -2 2169.88   59.09
   0   6   2 2333.57   59.99
  -1  -6  -2  409.06   12.70
  -1  -6  -2  396.56   13.00
   1  -6   2  390.16   12.50
  -1   6  -2  377.76   12.40
   1   6   2  405.06   12.60
  -2  -6  -2 4228.48  117.09
   2  -6   2 4557.34  114.79
  -2  -6  -2 4197.68  115.29
   2   6   2 4415.96  114.39
  -2   6  -2 4349.46  114.79
  -3  -6  -2  172.58    7.00
   3  -6   2  173.98    7.50
  -3  -6  -2  175.98    7.20
  -3   6  -2  151.58    7.30
   4  -6   2 1940.71   54.59
  -4  -6  -2 1892.81   53.59
  -4  -6  -2 1963.00   53.89
  -4   6  -2 2017.40   55.09
   5  -6   2  233.08   10.30
  -5  -6  -2  227.48    9.50
  -5   6  -2  242.18   10.70
  -6  -6  -2  743.33   23.30
   6  -6   2  711.63   24.30
  -6   6  -2  728.13   24.90
  -7  -6  -2   27.20    3.70
   7  -6   2   26.40    4.40
  -7   6  -2   28.80    4.80
  -7   7   2   26.20    4.80
  -7   7   2   30.90    7.90
  -6   7   2  250.87   12.20
   5  -7  -2   80.69    5.70
  -5   7   2   81.09    6.10
  -4  -7   2 1725.93   46.90
   4  -7  -2 1741.33   48.50
  -4   7   2 1661.23   49.10
   3  -7  -2   28.20    3.30
  -3  -7   2   25.40    2.30
  -3   7   2   19.90    3.00
  -2  -7   2  866.91   25.10
   2  -7  -2  881.81   26.10
  -2   7   2  906.31   26.60
  -1  -7   2   60.19    3.30
   1  -7  -2   56.59    3.70
  -1   7   2   58.79    3.80
   0  -7  -2 4202.28  108.29
   0  -7   2 4145.89  107.39
   0  -7  -2 3887.51  107.69
   0   7   2 4098.09  107.89
  -1  -7  -2   26.30    2.50
   1  -7   2   24.10    2.30
  -1  -7  -2   26.40    2.60
   1   7   2   30.20    2.50
   2  -7   2 1755.42   46.50
  -2  -7  -2 1654.33   46.40
  -2  -7  -2 1688.33   46.20
  -2   7  -2 1586.94   46.30
  -3  -7  -2    5.90    1.60
   3  -7   2    6.40    1.70
  -3  -7  -2    9.20    1.90
  -3   7  -2    9.10    2.10
   4  -7   2 2247.48   61.19
  -4  -7  -2 2191.98   60.19
  -4  -7  -2 2064.69   59.99
  -4   7  -2 2275.47   61.79
  -5  -7  -2   17.30    2.80
   5  -7   2   17.10    3.20
  -5  -7  -2   19.30    2.90
   6  -7   2  427.86   16.60
  -6  -7  -2  430.46   15.00
  -6   7  -2  406.46   16.90
   7  -7   2    2.90    2.40
  -7  -7  -2    3.10    1.70
  -7   7  -2    4.40    2.70
  -7   8   2   71.79    7.00
  -6   8   2  670.03   24.30
  -5  -8   2   36.50    3.40
   5  -8  -2   43.30    4.90
  -5   8   2   42.70    5.10
   4  -8  -2 1783.22   50.79
  -4  -8   2 1790.82   49.00
  -4   8   2 1762.12   51.49
  -3  -8   2  239.58    9.00
   3  -8  -2  247.88   10.20
  -3   8   2  257.97   10.70
   2  -8  -2 1063.49   31.60
  -2  -8   2 1080.29   30.70
  -2   8   2 1103.29   32.10
   1  -8  -2  500.95   16.10
  -1  -8   2  473.65   15.30
  -1   8   2  506.55   16.40
   0  -8  -2 1277.67   36.60
   0  -8   2 1328.57   36.30
   0   8   2 1271.67   36.70
   1  -8   2  121.09    5.70
  -1  -8  -2  113.59    5.90
  -1  -8  -2  129.89    6.00
  -2  -8  -2 1239.88   34.60
   2  -8   2 1196.28   34.60
  -2  -8  -2 1169.08   34.40
  -3  -8  -2  166.08    7.50
  -3  -8  -2  161.98    7.40
   3  -8   2  173.88    8.00
   4  -8   2 1196.38   35.60
  -4  -8  -2 1193.58   34.50
  -4  -8  -2 1171.78   34.60
  -5  -8  -2  157.98    7.40
   5  -8   2  156.68    8.40
  -5  -8  -2  134.99    7.30
   6  -8   2  558.44   20.20
  -6  -8  -2  527.95   17.90
   7  -8   2   82.39    7.10
  -7  -8  -2   88.39    5.40
  -6   9   2 1010.80   33.80
  -5  -9   2    3.50    1.60
   5  -9  -2    4.80    2.40
  -5   9   2    2.70    2.30
  -4  -9   2  429.66   14.60
   4  -9  -2  443.06   16.30
  -4   9   2  432.46   16.70
   3  -9  -2   81.79    5.60
  -3  -9   2   89.99    4.90
  -3   9   2   85.49    5.90
  -2  -9   2 2172.08   60.19
   2  -9  -2 2215.08   61.39
  -2   9   2 2260.17   61.79
   1  -9  -2  132.09    6.50
  -1  -9   2  129.99    6.00
  -1   9   2  122.19    6.60
   0  -9   2  864.61   25.40
   0  -9  -2  845.02   25.80
  -1  -9  -2   99.59    5.50
   1  -9   2   93.59    5.20
   2  -9   2 1948.80   55.29
  -2  -9  -2 2003.60   55.19
  -2  -9  -2 2017.60   55.39
   3  -9   2  122.29    6.80
  -3  -9  -2  129.09    6.30
  -3  -9  -2  111.89    6.30
   4  -9   2  491.85   17.70
  -4  -9  -2  488.85   16.90
  -4  -9  -2  480.15   16.20
   5  -9   2   13.70    3.20
  -5  -9  -2   15.10    2.60
  -5  -9  -2   12.40    2.70
  -6  -9  -2  978.50   29.90
   6  -9   2 1061.09   33.30
   5 -10  -2   32.20    4.70
  -5 -10   2   36.80    3.80
  -5  10   2   43.30    6.20
   4 -10  -2  441.86   17.20
  -4 -10   2  467.45   15.70
  -3 -10   2   15.60    2.50
   3 -10  -2   17.00    3.10
   2 -10  -2 1727.33   49.20
  -2 -10   2 1708.23   48.00
  -1 -10   2   27.20    3.20
   1 -10  -2   24.90    3.40
   0 -10   2  609.14   19.80
   0 -10  -2  640.94   20.30
  -1 -10  -2   28.60    3.50
   1 -10   2   27.30    3.30
   2 -10   2 1597.54   45.70
  -2 -10  -2 1588.54   45.60
   3 -10   2   12.20    2.80
  -3 -10  -2   10.10    2.10
  -3 -10  -2    5.50    2.00
  -4 -10  -2  487.95   17.20
  -4 -10  -2  478.35   16.30
   4 -10   2  486.75   18.00
   5 -10   2   13.10    3.40
  -5 -10  -2   16.50    2.60
  -5 -10  -2   17.00    3.30
   4 -11  -2  722.43   24.90
  -4 -11   2  721.23   23.00
   3 -11  -2   37.70    4.70
  -3 -11   2   36.00    3.70
  -2 -11   2  445.76   15.50
   2 -11  -2  445.86   16.40
  -1 -11   2   20.70    2.90
   1 -11  -2   15.10    2.90
   0 -11   2 1263.37   37.10
   0 -11  -2 1277.87   37.60
   1 -11   2   89.49    5.80
  -1 -11  -2   92.29    6.00
   2 -11   2  440.46   16.20
  -2 -11  -2  446.36   16.10
  -3 -11  -2   48.00    4.60
   3 -11   2   44.80    5.10
   4 -11   2  894.91   28.50
  -4 -11  -2  822.32   27.20
   3 -12  -2    4.00    2.30
  -3 -12   2    1.00    1.60
  -2 -12   2  358.66   13.60
   2 -12  -2  349.77   14.40
  -1 -12   2   17.80    3.00
   1 -12  -2   22.20    3.60
   0 -12  -2 1342.17   40.00
   0 -12   2 1342.17   39.50
  -1 -12  -2    0.60    1.70
   1 -12   2    2.40    1.90
  -2 -12  -2  238.48   10.80
   2 -12   2  232.68   10.90
  -3 -12  -2    5.90    2.30
   3 -12   2    8.50    2.90
  -1 -13   2  103.39    6.60
   1 -13  -2   96.29    6.80
   0 -13  -2  561.44   20.20
   0 -13   2  564.84   19.60
   1 -13   2   48.00    4.90
  -1 -13  -2   47.60    5.40
  -8   0   3    0.80    1.40
  -8   0   3    0.70    1.80
  -7   0   3  416.36   15.80
  -7   0   3  437.06   14.80
  -6   0   3    2.50    1.30
  -6   0   3   -0.10    1.10
  -5   0   3 2124.49   56.99
  -5   0   3 2126.99   57.59
  -5   0   3 2066.39   56.69
  -4   0   3    1.90    0.80
  -4   0   3    2.90    1.00
  -4   0   3    1.60    0.90
  -4   0   3    3.40    0.90
  -3   0   3 2470.65   66.79
  -3   0   3 2568.74   66.89
  -3   0   3 2614.64   66.59
  -3   0   3 2419.96   67.19
  -2   0   3    1.20    0.40
  -2   0   3    1.20    0.60
  -2   0   3    2.80    0.50
  -2   0   3    0.70    0.30
   0   0   3    0.30    0.20
   0   0   3    1.80    0.50
   0   0   3    0.90    0.30
   1   0   3 2430.26   64.19
   1   0   3 2393.96   64.19
   2   0   3    1.50    0.30
  -2   0  -3    3.70    1.00
   2   0   3    1.60    0.60
  -3   0  -3 5119.69  140.99
   3   0   3 5496.75  141.39
  -4   0  -3    0.80    1.00
   4   0   3    2.40    1.00
   5   0   3  704.83   21.60
  -5   0  -3  689.23   22.80
  -6   0  -3    1.20    1.50
  -6   0  -3    0.50    1.40
   6   0   3    9.10    2.20
  -7   0  -3 1715.43   50.99
  -7   0  -3 1699.13   49.99
  -8   0  -3   -0.80    1.80
  -8   0  -3    0.50    2.00
  -8  -1   3   79.19    6.00
  -8  -1   3   71.49    4.30
  -8   1   3   66.99    5.90
  -8   1   3   65.99    5.20
  -7  -1   3  937.71   29.40
  -7  -1   3  962.50   27.60
  -7   1   3  926.51   29.90
  -7   1   3  970.20   29.30
  -6  -1   3  172.58    6.80
  -6  -1   3  163.98    7.70
  -6   1   3  169.58    8.10
  -6   1   3  166.88    7.80
  -5  -1   3 2378.86   61.29
  -5  -1   3 2198.88   60.99
  -5  -1   3 2330.07   62.29
  -5   1   3 2190.18   61.69
  -5   1   3 2353.96   62.79
  -5   1   3 2341.97   62.89
  -4  -1   3  471.05   14.10
  -4  -1   3  489.45   13.40
  -4  -1   3  446.46   13.20
   4  -1  -3  454.35   13.90
  -4   1   3  459.85   14.30
  -4   1   3  458.85   14.60
  -4   1   3  444.76   14.00
  -4   1   3  448.56   14.60
   3  -1  -3 4414.36  117.69
  -3  -1   3 4504.75  115.69
  -3  -1   3 4438.56  115.69
  -3   1   3 4459.55  119.89
  -3   1   3 4466.45  118.09
  -3   1   3 4499.65  117.09
  -3   1   3 4289.47  118.09
  -2  -1   3  724.13   21.00
  -2   1   3  763.92   21.10
  -2   1   3  726.53   20.70
  -2   1   3  770.42   20.50
  -2   1   3  724.53   20.40
  -1  -1   3  465.75   13.70
  -1   1   3  478.85   13.10
  -1   1   3  467.25   13.40
   0  -1   3  541.25   14.40
   0  -1   3  539.05   15.40
   0   1   3  548.65   14.90
   1  -1   3 3803.62  103.19
  -1  -1  -3 3942.51  103.19
   1   1   3 3974.50  103.69
  -1   1  -3 3931.01  104.49
   2  -1   3 1000.30   26.90
  -2   1  -3  965.80   27.60
   2   1   3  956.50   26.80
  -3  -1  -3 4873.91  130.69
   3  -1   3 4808.52  131.39
   3   1   3 4874.41  129.19
  -3   1  -3 4914.01  130.19
   3   1   3 5356.66  128.39
  -3   1  -3 4821.52  131.19
   4  -1   3  334.77   11.20
  -4  -1  -3  323.67   11.80
  -4   1  -3  317.27   11.30
   4   1   3  309.97   10.90
  -4   1  -3  311.07   12.10
   5  -1   3 1653.33   45.30
  -5  -1  -3 1534.75   46.00
  -5   1  -3 1609.54   46.60
  -5   1  -3 1650.43   45.70
   5   1   3 1583.74   44.90
  -6  -1  -3   17.10    3.30
   6  -1   3   20.50    3.00
  -6   1  -3   18.20    3.30
  -6   1  -3   18.70    3.10
   6   1   3   20.00    3.40
  -7  -1  -3 1085.49   33.90
  -7  -1  -3 1140.69   35.00
  -7   1  -3 1140.39   35.50
  -7   1  -3 1002.30   33.80
  -8  -1  -3   70.09    6.50
  -8  -1  -3   82.69    6.60
  -8   1  -3   83.39    7.30
  -8   1  -3   81.19    6.70
  -8  -2   3   44.90    5.20
  -8  -2   3   38.50    2.50
  -8   2   3   35.60    4.40
  -8   2   3   32.10    4.70
  -7  -2   3 1600.14   46.70
  -7  -2   3 1674.03   43.90
  -7   2   3 1591.64   47.10
  -7   2   3 1607.44   47.60
  -6  -2   3   99.49    4.10
  -6  -2   3   96.19    4.20
  -6  -2   3   99.39    5.50
  -6   2   3   97.89    6.10
  -6   2   3  100.89    6.10
  -5  -2   3  930.61   25.10
  -5  -2   3  911.41   25.00
  -5   2   3  931.11   26.70
  -5   2   3  919.61   27.90
  -5   2   3  897.01   27.50
  -4  -2   3  253.37    7.20
  -4  -2   3  251.47    7.20
   4  -2  -3  254.67    8.70
  -4   2   3  240.78    9.50
  -4   2   3  260.17    9.20
  -4   2   3  251.77    9.30
   3  -2  -3 6690.23  174.88
  -3   2   3 6691.33  175.78
  -3   2   3 6256.67  174.58
  -3   2   3 6675.93  175.08
  -3   2   3 6790.22  173.28
   2  -2  -3  244.78    7.60
  -2   2   3  244.38    8.00
  -2   2   3  238.78    8.50
   1  -2  -3 3090.19   83.19
  -1   2   3 3215.18   83.99
   0  -2  -3  252.77    7.70
   0  -2   3  257.37    7.20
  -1  -2  -3 4624.64  125.99
  -1  -2  -3 4578.44  123.59
   1  -2   3 4613.04  124.49
   1   2   3 5018.00  125.29
  -2  -2  -3  384.76   11.20
   2  -2   3  362.36   11.20
  -2  -2  -3  338.57   11.50
   2   2   3  373.36   11.20
   3  -2   3  925.21   27.30
  -3  -2  -3  972.80   27.90
  -3   2  -3  966.50   27.60
  -3   2  -3  976.20   28.40
   3   2   3  980.20   27.20
  -4  -2  -3   58.69    4.10
   4  -2   3   63.89    4.00
  -4   2  -3   59.19    4.50
   4   2   3   59.59    3.70
  -5  -2  -3 2639.14   74.59
   5  -2   3 2769.12   73.99
  -5   2  -3 2882.91   74.69
  -5   2  -3 2663.23   75.59
   5   2   3 2646.44   73.59
   6  -2   3    5.60    1.90
  -6  -2  -3    3.90    1.80
  -6   2  -3    3.50    2.10
  -6   2  -3    2.70    1.70
  -7  -2  -3  468.35   17.70
  -7   2  -3  467.25   18.60
  -7   2  -3  451.65   17.60
  -8  -2  -3   50.69    5.50
  -8  -2  -3   32.30    4.70
  -8   2  -3   44.20    6.40
  -8   2  -3   49.90    6.20
  -8  -3   3   56.89    5.10
  -8   3   3   50.59    5.30
  -8   3   3   61.09    6.00
  -7  -3   3  945.91   28.70
  -7   3   3  925.41   30.00
  -7   3   3  931.51   30.10
  -6   3   3    4.80    1.90
  -6   3   3    3.50    1.80
  -5   3   3  920.41   27.70
  -5   3   3  918.11   28.20
  -5   3   3  899.11   26.80
   4  -3  -3   90.29    4.50
  -4   3   3   90.39    4.90
  -4   3   3   83.99    5.10
  -4   3   3   96.99    5.00
   3  -3  -3 6887.51  178.18
  -3   3   3 6388.26  178.38
  -3   3   3 7108.59  180.38
  -3   3   3 6798.12  181.28
  -2  -3   3  351.06    9.60
   2  -3  -3  331.27   10.50
  -2   3   3  353.86   11.00
   1  -3  -3 3473.65   96.49
  -1  -3   3 3593.94   94.49
   1  -3  -3 3964.00   98.79
  -1   3   3 3493.25   96.09
   0  -3   3   55.39    2.20
   0  -3  -3   58.19    2.60
   0  -3  -3   55.29    2.90
   0   3   3   55.69    2.70
  -1  -3  -3 7126.89  184.28
  -1  -3  -3 7024.00  186.38
   1  -3   3 6633.84  183.48
   1   3   3 7090.89  183.58
  -1   3  -3 7080.19  182.68
  -2  -3  -3  364.36   12.10
  -2  -3  -3  376.56   11.50
   2  -3   3  378.16   11.70
  -2   3  -3  384.06   11.80
  -3  -3  -3  685.13   19.90
  -3  -3  -3  664.83   20.50
   3  -3   3  641.04   20.00
  -3   3  -3  708.23   21.30
  -3   3  -3  681.43   20.30
   3   3   3  684.73   20.00
   4  -3   3  348.67   12.00
  -4  -3  -3  339.47   12.30
  -4   3  -3  335.87   12.20
   4   3   3  333.87   11.60
  -4   3  -3  342.27   13.10
   5  -3   3 1542.15   42.50
  -5  -3  -3 1458.85   42.60
  -5   3  -3 1448.16   42.70
  -5   3  -3 1488.85   44.00
   5   3   3 1450.85   41.70
   6  -3   3  224.08   10.00
  -6  -3  -3  218.08   10.10
  -6   3  -3  213.68   10.30
  -6   3  -3  228.68   12.80
   7  -3   3  515.75   18.40
  -7  -3  -3  501.55   18.70
  -7   3  -3  483.25   18.90
  -8  -3  -3   61.69    5.90
  -8   3  -3   60.89    6.20
  -8  -4   3   62.39    5.30
  -8   4   3   72.19    6.60
  -8   4   3   66.69    6.30
  -7   4   3  695.93   24.00
  -7   4   3  651.03   23.40
  -6   4   3    9.50    2.50
  -6   4   3   11.50    2.70
  -5   4   3 2226.18   61.49
  -5   4   3 2206.48   61.99
  -5   4   3 2173.18   60.49
   4  -4  -3   73.79    4.20
  -4   4   3   71.59    4.60
  -4   4   3   72.89    5.00
  -4   4   3   68.89    4.50
  -3  -4   3  481.85   13.80
   3  -4  -3  474.35   14.90
  -3   4   3  489.95   15.50
   2  -4  -3  519.05   14.90
  -2  -4   3  480.15   13.70
  -2   4   3  479.05   15.20
  -1  -4   3 3758.02   98.09
   1  -4  -3 3598.94   99.19
   1  -4  -3 3904.71  100.99
  -1   4   3 3738.13   99.29
   0  -4  -3  124.09    5.10
   0  -4  -3  119.19    4.60
   0  -4   3  113.49    4.10
   1  -4   3  919.51   25.90
  -1  -4  -3  963.20   26.20
  -1  -4  -3  982.90   26.80
  -1   4  -3  922.01   25.80
   1   4   3  915.71   26.10
  -2  -4  -3  301.47    9.40
   2  -4   3  273.27    9.40
   2   4   3  282.07    9.40
  -2   4  -3  271.97    9.40
   3  -4   3 3434.76   93.99
  -3  -4  -3 3688.63   93.69
  -3  -4  -3 3445.06   94.19
  -3   4  -3 3770.82   95.49
   3   4   3 3496.35   93.59
  -3   4  -3 3418.06   94.09
  -4  -4  -3  251.77   10.00
   4  -4   3  261.07    9.90
   4   4   3  247.18    9.40
  -4   4  -3  251.07   10.00
   5  -4   3 1158.18   34.50
  -5  -4  -3 1128.79   34.60
  -5   4  -3 1218.18   35.10
  -6  -4  -3  118.59    7.10
   6  -4   3  118.99    7.10
  -6   4  -3  129.29    7.60
  -7  -4  -3 1075.69   33.50
   7  -4   3 1081.39   33.50
  -7   4  -3 1029.10   34.00
  -8  -4  -3   85.49    6.60
  -8   4  -3   70.19    6.70
  -8  -5   3    9.30    2.60
  -8   5   3    7.70    3.20
  -8   5   3    7.00    3.00
  -7   5   3  235.78   11.80
  -7   5   3  231.98   12.00
  -6   5   3   64.09    5.50
  -6   5   3   65.79    5.80
   5  -5  -3 1834.72   51.49
  -5   5   3 1878.11   52.49
  -5   5   3 1882.21   53.39
  -5   5   3 1744.73   51.49
   4  -5  -3   22.80    2.90
  -4   5   3   23.40    3.60
  -4   5   3   19.20    2.90
   3  -5  -3  341.47   11.70
  -3  -5   3  339.77   10.50
  -3   5   3  356.66   12.30
   2  -5  -3    3.10    1.00
  -2  -5   3    2.40    0.70
  -2   5   3    8.30    1.60
   1  -5  -3 5253.07  141.69
   1  -5  -3 5282.17  139.39
  -1  -5   3 5208.18  137.09
  -1   5   3 5194.38  139.89
   0  -5  -3  261.27    8.80
   0  -5  -3  254.57    9.30
   0  -5   3  267.67    8.30
   0   5   3  263.77    9.00
   1  -5   3 2307.77   61.69
  -1  -5  -3 2312.57   62.49
  -1  -5  -3 2368.66   61.99
   1   5   3 2325.57   61.99
  -1   5  -3 2292.97   61.59
  -2  -5  -3    5.40    1.30
  -2  -5  -3    2.50    0.90
   2  -5   3    7.70    1.50
   2   5   3    3.10    1.00
  -2   5  -3    2.60    1.00
  -3  -5  -3 3782.52  104.39
   3  -5   3 4089.79  104.39
  -3  -5  -3 3980.10  103.89
  -3   5  -3 3800.42  104.29
   3   5   3 4004.10  103.89
   4  -5   3    5.00    1.60
  -4  -5  -3    6.60    1.70
  -4   5  -3    4.80    1.60
   4   5   3    7.20    2.10
  -5  -5  -3  456.95   16.60
   5  -5   3  507.35   17.10
  -5   5  -3  485.55   17.30
  -6  -5  -3    5.30    2.20
   6  -5   3    7.20    2.50
  -6   5  -3    7.60    2.60
   7  -5   3 1004.60   32.30
  -7  -5  -3  983.20   31.70
  -7   5  -3 1043.70   33.20
  -8  -5  -3    2.50    2.00
  -8   5  -3    1.60    2.60
  -7   6   3  697.03   24.40
  -7   6   3  585.64   23.10
  -6   6   3   88.59    6.70
  -6   6   3   90.99    7.10
   5  -6  -3  721.73   23.10
  -5   6   3  704.13   23.60
  -5   6   3  694.93   23.80
  -5   6   3  762.22   25.10
   4  -6  -3  192.98    8.40
  -4  -6   3  197.98    7.30
  -4   6   3  192.38    8.90
   3  -6  -3  553.14   17.70
  -3  -6   3  563.44   16.30
   2  -6  -3  510.75   15.90
  -2  -6   3  502.45   14.70
  -2   6   3  497.35   16.30
   1  -6  -3 2830.72   76.29
   1  -6  -3 2816.52   75.59
  -1  -6   3 2830.92   74.59
  -1   6   3 2869.61   75.99
   0  -6   3  436.66   13.30
   0  -6  -3  445.06   14.50
   0  -6  -3  449.76   13.90
   0   6   3  433.76   14.00
  -1  -6  -3 2842.02   73.29
  -1  -6  -3 2719.03   72.69
   1  -6   3 2711.93   72.29
  -1   6  -3 2698.63   72.39
   1   6   3 2631.84   72.49
   2  -6   3  230.38    8.80
  -2  -6  -3  232.48    9.10
  -2   6  -3  247.98    8.90
   2   6   3  244.78    8.80
  -3  -6  -3 1640.04   46.90
   3  -6   3 1699.53   46.90
  -3  -6  -3 1703.23   46.50
   3   6   3 1641.04   46.30
  -3   6  -3 1719.73   47.10
   4  -6   3  213.28    9.40
  -4  -6  -3  228.98    9.40
  -4  -6  -3  214.78    8.90
  -4   6  -3  230.88    9.80
  -5  -6  -3 1252.27   36.70
   5  -6   3 1239.48   37.10
  -5   6  -3 1234.18   37.50
  -6  -6  -3   64.49    5.10
   6  -6   3   66.69    5.70
  -6   6  -3   68.69    5.90
   7  -6   3  492.75   18.80
  -7  -6  -3  487.35   17.80
  -7   6  -3  485.65   19.40
  -7   7   3 1151.58   37.30
  -7   7   3 1069.29   36.10
  -6   7   3   22.90    4.00
  -6   7   3   19.80    4.30
   5  -7  -3  572.74   20.10
  -5   7   3  647.14   22.50
  -5   7   3  580.04   21.00
  -4  -7   3   11.60    1.80
   4  -7  -3    7.00    1.90
  -4   7   3    4.90    2.00
  -3  -7   3 1450.15   39.40
   3  -7  -3 1470.45   41.00
  -3   7   3 1402.16   41.50
   2  -7  -3    4.80    1.50
  -2   7   3    4.80    1.60
  -1  -7   3  276.47    9.20
   1  -7  -3  267.17    9.90
  -1   7   3  281.27   10.30
   0  -7  -3  127.89    6.30
   0  -7  -3  131.79    6.00
   0  -7   3  135.59    5.60
   0   7   3  147.59    6.30
  -1  -7  -3 2939.61   78.99
   1  -7   3 2809.02   77.89
  -1  -7  -3 2995.40   78.59
   1   7   3 2973.20   78.49
  -2  -7  -3    7.10    1.60
  -2  -7  -3   12.40    2.30
   2  -7   3   19.80    2.50
   2   7   3    9.00    1.80
  -3  -7  -3  711.63   21.90
   3  -7   3  695.03   22.20
  -3  -7  -3  733.43   22.30
   4  -7   3   37.70    3.90
  -4  -7  -3   38.10    3.50
  -4  -7  -3   36.30    3.60
  -5  -7  -3 1918.81   53.99
  -5  -7  -3 1900.01   53.99
   5  -7   3 1921.71   54.79
  -5   7  -3 1904.31   61.89
   6  -7   3    2.60    2.10
  -6  -7  -3    1.30    1.60
   7  -7   3  259.97   12.40
  -7  -7  -3  242.98   11.00
  -6   8   3  243.68   12.30
   5  -8  -3  568.84   20.20
  -5  -8   3  568.84   18.40
  -5   8   3  600.24   21.20
   4  -8  -3  108.89    6.50
  -4  -8   3  105.09    5.30
  -4   8   3  124.09    7.30
   3  -8  -3 1570.44   44.10
  -3  -8   3 1509.75   42.30
  -2  -8   3   46.40    3.10
   2  -8  -3   44.50    3.70
  -2   8   3   45.70    3.90
  -1  -8   3 2296.67   60.39
   1  -8  -3 2198.58   61.39
   0  -8  -3  230.78    9.40
   0  -8  -3  236.88    9.10
   0  -8   3  226.88    8.50
   0   8   3  232.08    9.20
   1  -8   3 1843.72   50.89
  -1  -8  -3 1911.01   51.69
  -1  -8  -3 1871.61   51.39
   1   8   3 1792.92   51.19
  -2  -8  -3  192.48    8.30
   2  -8   3  189.58    8.20
  -2  -8  -3  202.98    8.60
  -3  -8  -3  418.86   14.80
   3  -8   3  411.36   14.90
  -3  -8  -3  441.46   14.80
   4  -8   3   69.99    5.30
  -4  -8  -3   80.59    5.10
  -4  -8  -3   68.09    4.90
   5  -8   3  944.61   29.50
  -5  -8  -3  898.81   28.20
  -5  -8  -3  914.91   28.50
   6  -8   3   20.80    4.00
  -6  -8  -3   13.30    2.70
  -6   9   3   94.29    7.60
  -5  -9   3 1313.97   38.40
   5  -9  -3 1383.66   41.00
  -5   9   3 1339.47   41.70
   4  -9  -3   63.29    5.20
  -4  -9   3   66.79    4.20
  -4   9   3   54.69    5.30
   3  -9  -3  468.45   16.90
  -3  -9   3  490.45   15.50
  -3   9   3  485.35   17.50
  -2  -9   3  145.09    6.50
   2  -9  -3  166.58    7.80
  -2   9   3  156.98    7.90
  -1  -9   3 1312.87   37.30
   1  -9  -3 1354.46   38.40
  -1   9   3 1322.37   38.70
   0  -9  -3  110.39    6.10
   0  -9   3  129.09    6.00
   0   9   3  128.19    9.10
  -1  -9  -3  447.96   15.60
  -1  -9  -3  467.95   15.90
   1  -9   3  443.76   15.10
  -2  -9  -3  112.79    6.20
   2  -9   3  114.29    6.20
  -2  -9  -3  112.49    6.20
   3  -9   3 1572.74   44.50
  -3  -9  -3 1515.95   44.00
  -3  -9  -3 1524.75   44.00
  -4  -9  -3   49.30    4.30
   4  -9   3   45.50    5.10
  -4  -9  -3   41.30    4.10
   5  -9   3  333.47   14.10
  -5  -9  -3  336.07   13.00
  -5  -9  -3  335.37   13.40
   6  -9   3    6.70    2.90
  -6  -9  -3    6.90    2.20
   5 -10  -3  895.21   28.90
  -5 -10   3  830.82   26.20
  -5  10   3  862.81   29.50
   4 -10  -3   49.99    5.00
  -4 -10   3   54.59    4.10
  -4  10   3   53.69    5.30
   3 -10  -3  421.56   15.10
  -3 -10   3  379.36   13.20
  -3  10   3  343.97   14.70
  -2 -10   3   23.10    2.90
   2 -10  -3   24.80    3.60
  -1 -10   3 1360.46   38.40
   1 -10  -3 1341.37   39.40
   0 -10   3   53.19    4.00
   0 -10  -3   54.99    4.40
   1 -10   3  411.36   14.40
  -1 -10  -3  402.76   14.70
  -2 -10  -3   54.09    4.50
   2 -10   3   52.59    4.40
  -2 -10  -3   49.40    4.30
   3 -10   3 1294.17   38.50
  -3 -10  -3 1260.37   38.10
  -3 -10  -3 1315.77   38.00
   4 -10   3   21.00    3.60
  -4 -10  -3   17.70    2.90
  -4 -10  -3   21.80    3.50
  -5 -10  -3  622.54   21.10
   5 -10   3  595.24   21.80
  -5 -10  -3  595.94   19.90
   4 -11  -3   50.89    5.70
  -4 -11   3   44.30    4.00
   3 -11  -3 1093.69   34.00
  -3 -11   3 1077.59   32.00
  -2 -11   3   51.59    4.20
   2 -11  -3   54.39    4.90
   1 -11  -3  516.95   18.30
  -1 -11   3  528.65   17.40
   0 -11   3   44.40    3.90
   0 -11  -3   43.30    4.20
  -1 -11  -3 1324.77   38.80
   1 -11   3 1281.07   38.20
  -2 -11  -3   62.59    5.00
   2 -11   3   61.39    5.10
  -3 -11  -3  653.73   22.00
   3 -11   3  646.44   22.20
  -4 -11  -3   14.60    2.70
   4 -11   3   12.40    3.20
  -4 -11  -3   16.70    3.30
  -3 -12   3  954.10   29.20
   3 -12  -3  969.10   31.10
  -2 -12   3    8.00    2.20
   2 -12  -3    6.80    2.60
   1 -12  -3  140.79    8.10
  -1 -12   3  150.48    7.50
   0 -12  -3   24.70    3.80
   0 -12   3   30.10    3.80
  -1 -12  -3  945.91   29.60
   1 -12   3  911.71   28.90
  -2 -12  -3   16.60    3.20
   2 -12   3   19.90    3.50
  -3 -12  -3  292.77   12.80
   3 -12   3  311.47   13.30
  -8   0   4  854.61   28.70
  -8   0   4  912.41   26.00
  -7   0   4   -0.60    1.40
  -7   0   4    3.70    1.40
  -6   0   4  683.63   22.00
  -6   0   4  706.23   20.70
  -5   0   4    4.50    1.10
  -5   0   4    0.70    0.90
  -5   0   4    2.50    1.10
  -5   0   4    0.30    0.60
  -4   0   4 2861.21   77.39
  -4   0   4 3020.30   78.09
  -4   0   4 2983.20   78.69
  -4   0   4 2904.81   78.09
  -3   0   4    1.50    0.50
  -3   0   4    1.20    0.80
  -3   0   4    1.30    0.40
  -3   0   4    6.20    1.10
  -2   0   4   53.19    2.40
  -2   0   4   55.29    3.10
  -2   0   4   63.69    1.90
  -1   0   4    1.90    0.40
  -1   0   4    0.60    0.50
   0   0   4 3854.91  101.69
   0   0   4 3851.91  103.49
   0   0   4 3869.81  101.49
   1   0   4    3.50    0.70
   2   0   4 3216.78   86.49
  -2   0  -4 3301.67   87.29
   2   0   4 3372.16   86.69
  -3   0  -4    2.50    1.20
   3   0   4    1.40    0.80
  -4   0  -4 8479.35  222.48
   4   0   4 8431.06  223.98
  -5   0  -4    0.30    1.20
   5   0   4    9.70    2.00
   6   0   4  977.30   28.40
  -6   0  -4  858.11   28.30
  -6   0  -4  909.31   29.70
  -7   0  -4   -0.20    1.60
  -7   0  -4    1.40    2.10
  -8   0  -4  975.30   32.30
  -8   0  -4  973.90   33.00
  -8  -1   4  579.14   20.80
  -8   1   4  583.94   21.30
  -8   1   4  615.44   19.60
  -7  -1   4  225.18    7.60
  -7  -1   4  236.28    8.20
  -7  -1   4  208.98    9.70
  -7   1   4  207.08   10.10
  -7   1   4  226.88    9.40
  -6  -1   4 1196.48   35.50
  -6  -1   4 1251.47   33.40
  -6  -1   4 1226.38   33.30
  -6   1   4 1200.28   35.30
  -6   1   4 1257.67   36.20
  -5  -1   4   79.79    4.40
  -5  -1   4   78.19    3.20
  -5  -1   4   80.49    3.20
  -5   1   4   77.09    4.50
  -5   1   4   74.89    4.30
  -5   1   4   81.09    4.70
  -4  -1   4 2396.76   59.49
  -4  -1   4 2291.27   61.19
  -4   1   4 2235.18   61.69
  -4   1   4 2335.47   61.59
  -4   1   4 2242.08   61.09
  -4   1   4 2244.68   61.99
  -3  -1   4  474.95   15.80
  -3  -1   4  525.35   14.80
  -3   1   4  526.15   15.30
  -3   1   4  512.85   14.90
  -3   1   4  525.85   16.00
  -3   1   4  524.95   15.30
  -2  -1   4 2059.29   52.09
  -2  -1   4 2004.20   53.89
  -2   1   4 1956.80   53.79
  -2   1   4 1885.11   52.89
  -2   1   4 2050.39   52.89
  -2   1   4 2050.29   52.69
  -1  -1   4 1261.97   31.00
  -1  -1   4 1156.08   32.80
  -1   1   4 1134.09   32.70
  -1   1   4 1255.57   31.90
  -1   1   4 1160.28   31.70
   0  -1   4 5715.03  148.19
   0  -1  -4 5446.56  145.79
   0   1   4 5471.75  145.69
   0   1   4 5620.34  148.29
  -1  -1  -4   51.39    2.40
   1  -1   4   45.80    2.40
   1  -1   4   47.10    2.20
   1  -1   4   44.70    2.50
   1   1   4   51.79    2.50
   1   1   4   47.40    2.30
  -2  -1  -4 1440.96   41.00
   2  -1   4 1498.25   40.40
   2   1   4 1486.55   40.40
   2   1   4 1560.74   39.80
   3  -1   4  442.66   13.80
  -3  -1  -4  428.96   14.40
   3   1   4  409.86   13.60
  -3   1  -4  442.76   14.80
   3   1   4  456.95   12.20
  -4  -1  -4 4364.26  118.99
   4  -1   4 4580.34  118.09
  -4   1  -4 4442.66  119.39
  -4   1  -4 4483.35  118.29
  -5  -1  -4  294.97   12.30
   5  -1   4  319.17   11.60
  -5   1  -4  299.37   11.70
  -5   1  -4  300.67   12.60
   5   1   4  304.47   11.30
  -6  -1  -4  895.51   29.30
   6  -1   4  917.71   28.10
  -6   1  -4  915.61   29.80
  -6   1  -4  891.51   28.60
   6   1   4  914.81   28.00
  -7  -1  -4   24.00    3.90
  -7  -1  -4   33.80    5.10
  -7   1  -4   31.30    5.10
  -7   1  -4   32.20    4.60
  -8  -1  -4  769.72   27.30
  -8  -1  -4  759.82   26.50
  -8   1  -4  766.42   27.80
  -8   1  -4  777.52   27.00
  -8  -2   4  188.38    9.30
  -8   2   4  172.58    8.80
  -8   2   4  181.88    9.90
  -7  -2   4   18.40    3.00
  -7   2   4   14.10    2.90
  -7   2   4   16.40    3.00
  -6  -2   4 1946.91   55.89
  -6   2   4 2043.00   56.99
  -6   2   4 2091.79   56.89
  -5  -2   4   29.40    2.50
  -5   2   4   30.10    2.90
  -5   2   4   29.90    3.00
  -5   2   4   25.80    2.90
  -4   2   4 1039.70   29.70
  -4   2   4 1034.80   29.40
  -4   2   4  993.90   29.50
  -4   2   4 1013.60   29.50
   3  -2  -4  247.18    7.80
  -3   2   4  230.88    8.50
  -3   2   4  228.08    8.20
  -3   2   4  230.78    8.10
  -3   2   4  234.48    8.70
   2  -2  -4 5114.49  135.79
  -2   2   4 5282.97  136.29
  -2   2   4 5064.59  138.89
  -2   2   4 5245.98  136.49
   1  -2  -4  152.68    5.20
  -1   2   4  167.18    5.60
  -1   2   4  155.08    6.30
   0  -2   4 2242.18   58.29
   0  -2  -4 2192.78   58.89
   0   2   4 2251.37   59.19
   1  -2   4  508.25   15.00
  -1  -2  -4  555.54   15.80
  -1  -2  -4  517.75   15.10
   1   2   4  537.95   15.20
  -2  -2  -4 5565.74  149.59
   2  -2   4 5235.68  145.19
  -2  -2  -4 5550.24  146.89
   2   2   4 5666.83  146.79
  -2   2  -4 5698.33  147.19
   3  -2   4  341.27   11.70
  -3  -2  -4  349.77   12.30
  -3   2  -4  363.06   11.90
  -3   2  -4  362.26   12.70
   3   2   4  365.06   11.70
   4  -2   4  900.21   25.80
  -4  -2  -4  835.02   26.40
  -4   2  -4  878.61   27.20
   4   2   4  869.91   25.50
  -4   2  -4  855.01   26.00
  -5  -2  -4    5.00    1.70
   5  -2   4    1.30    1.20
  -5   2  -4    4.80    1.70
  -5   2  -4    2.00    1.70
   5   2   4    3.30    1.40
  -6  -2  -4 2000.70   57.39
   6  -2   4 2052.09   56.39
  -6   2  -4 1939.91   56.89
  -7  -2  -4    5.50    2.30
   7  -2   4    5.70    2.30
  -7   2  -4    2.70    2.10
  -8  -2  -4  346.37   15.40
  -8  -2  -4  332.87   14.70
  -8   2  -4  357.36   15.60
  -8  -3   4  220.48   10.30
  -8   3   4  232.58   11.60
  -8   3   4  218.48   10.70
  -7  -3   4   10.60    2.50
  -7   3   4   17.90    3.40
  -7   3   4   11.10    2.70
  -6  -3   4 1302.07   37.70
  -6   3   4 1324.37   39.50
  -6   3   4 1360.06   39.50
  -5   3   4   38.90    3.60
  -5   3   4   46.00    3.70
  -5   3   4   45.60    4.00
   4  -3  -4 1272.57   35.40
  -4   3   4 1284.47   36.40
  -4   3   4 1266.07   36.70
  -4   3   4 1256.07   36.20
   3  -3  -4  106.29    4.50
  -3   3   4  104.49    5.30
  -3   3   4   97.19    4.80
  -2  -3   4 5077.49  132.99
   2  -3  -4 5210.48  136.29
  -2   3   4 5121.59  137.29
   1  -3  -4  254.07    8.10
  -1  -3   4  246.78    7.00
  -1   3   4  271.57    8.50
   0  -3  -4 1695.63   44.30
   0  -3  -4 1585.64   43.50
   0  -3   4 1610.94   42.80
  -1  -3  -4 2108.29   55.59
  -1  -3  -4 1975.50   54.69
   1  -3   4 2035.40   54.49
   1   3   4 2135.99   54.99
  -2  -3  -4 3922.51  103.09
  -2  -3  -4 3681.43  103.69
   2  -3   4 3779.72  101.89
  -2   3  -4 4012.30  101.99
   2   3   4 3881.41  101.99
   3  -3   4  201.08    7.80
  -3  -3  -4  203.68    8.30
  -3  -3  -4  205.98    7.70
  -3   3  -4  205.38    8.00
   3   3   4  204.58    7.70
  -3   3  -4  207.58    8.70
   4  -3   4 1706.93   47.80
  -4  -3  -4 1691.93   48.40
  -4   3  -4 1777.22   48.20
   4   3   4 1697.43   47.40
   5  -3   4   66.09    4.60
  -5  -3  -4   63.29    4.80
  -5   3  -4   65.49    4.80
   5   3   4   62.09    4.30
   6  -3   4 1691.73   47.10
  -6  -3  -4 1631.24   47.60
  -6   3  -4 1531.15   47.20
   7  -3   4  101.69    6.90
  -7  -3  -4   98.89    7.20
  -7   3  -4  102.09    7.30
  -8  -3  -4  298.47   14.10
  -8   3  -4  325.67   14.80
  -8  -4   4  849.02   27.70
  -8   4   4  903.21   29.20
  -8   4   4  845.92   29.60
  -7  -4   4   65.89    4.80
  -7   4   4   62.59    5.70
  -7   4   4   65.89    5.80
  -6   4   4  680.93   23.30
  -6   4   4  704.63   23.50
  -5   4   4   32.50    3.30
  -5   4   4   31.90    3.80
  -5   4   4   30.40    3.60
   4  -4  -4 2635.94   69.19
  -4   4   4 2555.04   70.59
  -4   4   4 2564.14   70.09
  -4   4   4 2527.25   70.29
   3  -4  -4  266.97    9.10
  -3  -4   4  252.17    7.80
  -3   4   4  253.37    9.50
   2  -4  -4 2401.46   66.29
   2  -4  -4 2609.34   67.29
  -2  -4   4 2442.16   64.89
  -2   4   4 2537.45   66.99
   1  -4  -4  464.95   13.80
   1  -4  -4  449.76   14.50
  -1  -4   4  457.95   12.60
  -1   4   4  460.85   14.10
   0  -4  -4 5982.00  154.68
   0  -4  -4 5963.70  153.78
   0  -4   4 5625.74  152.58
   0   4   4 5715.83  154.58
   1  -4   4  765.82   22.20
  -1  -4  -4  801.82   22.50
  -1  -4  -4  788.42   23.20
  -1   4  -4  796.42   23.50
   1   4   4  812.42   22.60
  -2  -4  -4 1832.72   47.70
   2  -4   4 1753.92   47.60
  -2  -4  -4 1644.24   48.20
  -2   4  -4 1800.42   47.60
  -3  -4  -4  343.57   12.40
  -3  -4  -4  345.77   11.70
   3  -4   4  343.67   11.90
  -3   4  -4  355.06   12.00
   3   4   4  358.36   11.80
  -4  -4  -4  902.51   28.40
   4  -4   4  924.41   27.90
  -4   4  -4  990.40   28.30
   4   4   4  929.71   27.60
  -5  -4  -4  323.37   12.80
   5  -4   4  324.57   12.50
  -5   4  -4  318.67   12.70
   6  -4   4  592.14   19.90
  -6  -4  -4  580.24   20.30
  -6   4  -4  540.05   20.10
   7  -4   4   74.39    6.10
  -7  -4  -4   77.09    6.40
  -7   4  -4   80.19    6.50
  -8  -4  -4  859.51   29.50
  -8   4  -4  897.91   30.60
  -8  -5   4 1083.49   33.90
  -8   5   4 1099.49   36.30
  -8   5   4 1175.18   37.00
  -7   5   4    8.90    2.90
  -7   5   4   12.60    3.40
  -6   5   4  277.07   12.50
  -6   5   4  268.87   12.10
  -5   5   4   87.69    5.80
  -5   5   4   72.59    5.30
  -5   5   4   88.29    6.20
   4  -5  -4 2297.67   62.19
  -4   5   4 2239.28   63.49
  -4   5   4 2267.57   63.99
  -4   5   4 2314.87   63.09
  -3  -5   4   34.30    2.00
   3  -5  -4   35.60    2.80
  -3   5   4   33.30    3.10
   2  -5  -4  966.30   27.70
   2  -5  -4  949.51   26.80
  -2  -5   4  913.31   25.30
  -2   5   4  937.91   27.40
   1  -5  -4    7.00    1.60
   1  -5  -4    9.80    1.60
  -1  -5   4    7.70    1.00
  -1   5   4    8.20    1.50
   0  -5  -4 3684.63   98.59
   0  -5  -4 3587.44   97.79
   0  -5   4 3782.82   98.59
   0   5   4 3818.92   98.19
  -1  -5  -4   12.00    1.70
  -1  -5  -4    7.20    1.50
   1  -5   4    6.10    1.20
  -1   5  -4    4.60    1.00
   1   5   4    5.70    1.30
  -2  -5  -4 1268.67   36.00
  -2  -5  -4 1272.17   35.20
   2  -5   4 1234.98   35.20
  -2   5  -4 1236.68   35.10
   2   5   4 1301.97   35.40
   3  -5   4   82.79    4.70
  -3  -5  -4   84.79    5.00
  -3  -5  -4   94.79    4.70
   3   5   4   81.19    4.50
  -3   5  -4   75.59    4.60
   4  -5   4 3102.09   81.39
  -4  -5  -4 3014.50   80.89
  -4  -5  -4 2858.31   81.49
  -4   5  -4 2923.71   81.39
   4   5   4 3099.29   80.89
  -5  -5  -4    1.60    1.60
   5  -5   4    1.30    1.60
  -5   5  -4    2.50    1.70
   6  -5   4  471.15   17.40
  -6  -5  -4  474.35   17.60
  -6   5  -4  472.45   17.90
   7  -5   4   16.40    3.60
  -7  -5  -4   23.00    3.90
  -7   5  -4   28.20    4.60
  -8  -5  -4  774.02   26.70
  -7   6   4  166.18   10.10
  -7   6   4  201.18   11.00
  -6   6   4  897.81   30.00
  -6   6   4  938.41   30.70
  -5   6   4   55.99    4.80
  -5   6   4   47.40    4.50
  -5   6   4   52.69    5.20
  -4  -6   4 1128.79   31.90
   4  -6  -4 1207.58   33.90
  -4   6   4 1134.59   34.50
   3  -6  -4  173.48    7.60
  -3  -6   4  184.98    6.40
  -3   6   4  192.68    8.30
   2  -6  -4 1850.11   50.19
  -2  -6   4 1845.42   48.60
  -2   6   4 1799.32   50.79
   1  -6  -4  505.35   15.70
   1  -6  -4  510.05   16.50
  -1  -6   4  500.05   14.60
  -1   6   4  504.05   16.10
   0  -6  -4 1921.01   51.19
   0  -6   4 1868.11   50.29
   0  -6  -4 1873.11   52.09
   0   6   4 1872.21   51.49
  -1  -6  -4   39.40    3.20
   1  -6   4   35.90    2.60
  -1  -6  -4   38.70    2.90
   1   6   4   32.10    2.70
  -2  -6  -4 2830.82   74.19
   2  -6   4 2740.23   73.99
  -2  -6  -4 2686.33   74.69
   2   6   4 2788.62   74.09
  -3  -6  -4  172.48    7.30
  -3  -6  -4  161.18    7.70
   3  -6   4  160.68    7.30
   3   6   4  168.28    7.20
  -3   6  -4  165.78    9.80
   4  -6   4  725.23   23.40
  -4  -6  -4  756.42   23.70
  -4  -6  -4  745.13   23.00
  -4   6  -4  740.53   23.60
  -5  -6  -4  169.18    8.60
   5  -6   4  185.48    8.90
  -5   6  -4  179.98    9.00
   6  -6   4 1123.89   34.30
  -6  -6  -4 1090.19   34.00
  -6   6  -4 1074.79   34.80
  -7  -6  -4   41.40    4.80
   7  -6   4   51.79    6.10
  -7   7   4   20.20    4.30
  -7   7   4   20.90    4.20
  -6   7   4 1306.17   40.40
  -6   7   4 1207.18   39.20
  -5   7   4   13.40    3.30
  -5   7   4    9.90    2.70
  -5   7   4   10.40    2.80
  -4  -7   4  644.04   19.10
   4  -7  -4  652.23   21.00
  -4   7   4  639.04   21.70
  -3  -7   4    3.90    1.00
   3  -7  -4    6.80    1.90
  -3   7   4    5.50    1.80
   2  -7  -4 4424.16  114.79
  -2  -7   4 4205.28  113.49
  -2   7   4 4356.66  115.29
  -1  -7   4   57.69    3.10
   1  -7  -4   57.59    4.20
   1  -7  -4   48.90    3.60
  -1   7   4   59.39    4.00
   0  -7  -4  945.81   27.80
   0  -7  -4  935.61   27.00
   0  -7   4  900.01   26.10
   0   7   4  921.41   27.30
  -1  -7  -4    4.00    1.40
  -1  -7  -4    6.80    1.70
   1  -7   4    8.60    1.60
   1   7   4    8.70    1.80
  -2  -7  -4 2473.45   69.99
  -2  -7  -4 2669.13   69.59
   2  -7   4 2463.15   69.29
   2   7   4 2659.43   69.59
   3  -7   4   71.89    4.70
  -3  -7  -4   72.99    5.00
  -3  -7  -4   77.39    4.70
  -4  -7  -4  113.59    6.60
  -4  -7  -4  118.49    6.40
   4  -7   4  128.99    6.90
  -5  -7  -4    1.10    1.40
   5  -7   4    2.70    2.00
   6  -7   4 1038.90   32.40
  -6  -7  -4  985.80   31.60
  -7  -7  -4   15.40    3.20
   7  -7   4   14.50    3.60
  -6   8   4  790.22   28.10
  -6   8   4  852.71   29.70
  -5   8   4  154.98   10.90
  -5   8   4  132.39    8.40
   4  -8  -4  918.51   28.30
  -4  -8   4  895.51   26.10
  -4   8   4  911.01   29.10
   3  -8  -4  116.89    6.30
  -3  -8   4  111.69    5.00
  -3   8   4   98.29    6.30
  -2  -8   4 1758.92   49.10
   2  -8  -4 1813.12   50.79
  -2   8   4 1884.31   51.49
   1  -8  -4  131.69    6.40
  -1  -8   4  125.39    5.50
  -1   8   4  130.29    6.60
   0  -8   4 1026.20   29.70
   0  -8  -4 1028.50   31.20
   0  -8  -4 1029.20   30.50
   0   8   4 1101.89   31.00
  -1  -8  -4  100.69    5.50
   1  -8   4   93.59    5.00
  -1  -8  -4  108.29    6.00
   1   8   4   95.99    5.40
  -2  -8  -4 1925.21   53.49
  -2  -8  -4 1892.01   52.89
   2  -8   4 1886.61   52.69
  -3  -8  -4  119.69    6.40
  -3  -8  -4  123.09    6.70
   3  -8   4  117.79    6.50
   4  -8   4  426.66   15.80
  -4  -8  -4  435.56   15.70
  -4  -8  -4  417.36   15.30
  -5  -8  -4   73.29    5.60
   5  -8   4   79.99    6.10
  -5  -8  -4   80.09    5.80
  -6  -8  -4  791.62   26.20
   6  -8   4  818.72   27.30
  -6   9   4  410.66   17.60
  -5  -9   4   49.10    3.90
  -5   9   4   56.69    5.70
  -4  -9   4 1631.64   44.70
   4  -9  -4 1609.14   47.10
  -4   9   4 1598.24   48.00
   3  -9  -4   61.89    4.90
  -3  -9   4   65.99    3.90
  -3   9   4   60.29    5.10
   2  -9  -4  966.50   29.70
  -2  -9   4  985.10   28.20
  -2   9   4 1004.30   30.40
  -1  -9   4   57.69    3.70
   1  -9  -4   59.19    4.40
  -1   9   4   63.99    4.70
   0  -9  -4 2031.00   56.19
   0  -9  -4 2029.10   56.69
   0  -9   4 1931.31   55.09
   0   9   4 2087.79   56.49
   1  -9   4   29.00    3.00
  -1  -9  -4   24.30    3.20
  -1  -9  -4   33.00    3.60
  -2  -9  -4  336.77   12.50
  -2  -9  -4  336.97   12.90
   2  -9   4  313.87   12.20
   3  -9   4   32.40    3.90
  -3  -9  -4   42.00    4.10
  -3  -9  -4   41.30    4.00
  -4  -9  -4 1085.99   32.00
  -4  -9  -4 1010.60   31.90
   4  -9   4 1036.50   32.30
   5  -9   4   15.50    3.40
  -5  -9  -4   14.50    2.90
  -5  -9  -4   17.50    3.40
   6  -9   4  269.37   12.70
  -6  -9  -4  257.27   11.50
  -5 -10   4   17.80    2.70
  -5  10   4   14.10    3.60
  -4 -10   4 1160.18   33.70
   4 -10  -4 1175.58   36.20
  -4  10   4 1184.38   37.00
  -3 -10   4   40.00    3.30
   3 -10  -4   35.60    4.50
  -3  10   4   43.40    5.10
   2 -10  -4  386.76   14.30
  -2 -10   4  363.66   12.80
  -2  10   4  371.86   14.60
   1 -10  -4   12.20    2.60
  -1 -10   4   17.40    2.50
   0 -10   4 1590.44   44.60
   0 -10  -4 1584.44   45.60
  -1 -10  -4  298.07   12.10
   1 -10   4  298.07   11.50
  -1 -10  -4  313.67   12.30
  -2 -10  -4  529.45   18.60
   2 -10   4  542.15   18.30
  -2 -10  -4  544.65   18.50
  -3 -10  -4   28.40    3.80
   3 -10   4   37.50    4.40
  -3 -10  -4   29.10    3.80
  -4 -10  -4  961.50   30.40
   4 -10   4 1004.30   31.20
  -4 -10  -4  968.90   30.60
  -5 -10  -4    6.60    2.40
   5 -10   4    5.10    2.60
  -5 -10  -4    6.10    2.50
  -4 -11   4  344.87   12.50
   4 -11  -4  335.47   14.60
   3 -11  -4   98.09    6.90
  -3 -11   4  103.09    5.70
   2 -11  -4  650.03   22.20
  -2 -11   4  656.43   20.70
   1 -11  -4   41.10    4.30
  -1 -11   4   42.80    3.70
   0 -11   4  353.66   13.10
   0 -11  -4  354.46   13.90
   1 -11   4  134.29    7.20
  -1 -11  -4  138.49    7.70
  -2 -11  -4  945.91   29.50
   2 -11   4  936.41   29.20
  -2 -11  -4  938.41   29.50
   3 -11   4   85.29    6.20
  -3 -11  -4   92.29    6.40
  -3 -11  -4   94.09    6.30
  -4 -11  -4  982.50   30.90
   4 -11   4 1013.30   32.10
  -4 -11  -4  990.90   31.50
  -3 -12   4    4.70    1.90
   3 -12  -4    4.70    2.40
   2 -12  -4  922.11   29.70
  -2 -12   4  920.01   28.10
   1 -12  -4    5.70    2.40
  -1 -12   4    0.60    1.40
   0 -12   4  339.27   13.00
   0 -12  -4  342.37   14.00
  -1 -12  -4    2.20    1.90
   1 -12   4    1.40    1.80
  -2 -12  -4  938.01   30.20
   2 -12   4  961.90   30.10
  -3 -12  -4    2.70    2.20
   3 -12   4    3.50    2.30
  -8   0   5   -0.90    1.50
  -7   0   5 2476.25   66.19
  -7   0   5 2601.34   67.29
  -7   0   5 2439.86   69.49
  -6   0   5    0.50    0.70
  -6   0   5    0.90    1.30
  -6   0   5    0.90    0.80
  -5   0   5 1025.40   31.00
  -5   0   5 1095.69   28.80
  -5   0   5 1066.59   28.80
  -5   0   5 1050.99   30.60
  -4   0   5    4.90    0.70
  -4   0   5    2.00    0.90
  -4   0   5    2.90    0.60
  -4   0   5    2.50    1.20
  -3   0   5 2988.60   76.49
  -3   0   5 2834.22   77.89
  -2   0   5    2.30    0.60
  -2   0   5    3.30    1.00
  -1   0   5  603.14   18.40
  -1   0   5  641.54   16.90
   0   0   5    0.80    0.60
   0   0   5    1.70    0.40
   0   0   5    0.60    0.30
   1   0   5 5296.07  140.99
   1   0   5 5358.76  140.49
   2   0   5    2.50    0.70
   2   0   5    0.70    0.60
   3   0   5 1131.39   32.30
  -3   0  -5 1138.49   33.50
   3   0   5 1187.58   30.70
   4   0   5    1.40    1.10
  -4   0  -5    0.40    1.10
  -5   0  -5 2884.31   82.49
   5   0   5 3097.39   81.09
   6   0   5    2.50    1.60
  -6   0  -5    1.90    1.60
  -6   0  -5    0.30    1.50
  -7   0  -5  368.76   15.10
  -7   0  -5  370.66   16.20
  -8   0  -5    1.50    2.20
  -8   0  -5    0.40    2.40
  -8  -1   5   75.69    5.90
  -8   1   5   70.79    4.30
  -8   1   5   73.99    6.10
  -7  -1   5 1281.37   38.20
  -7   1   5 1278.67   38.70
  -7   1   5 1324.67   36.70
  -6  -1   5  193.68    8.30
  -6   1   5  191.88    7.60
  -6   1   5  182.28    8.50
  -5  -1   5  825.52   24.10
  -5   1   5  823.62   23.90
  -5   1   5  836.92   23.60
  -5   1   5  800.92   24.60
  -5   1   5  827.42   25.10
  -4  -1   5    3.30    1.20
  -4  -1   5    3.30    1.00
  -4   1   5    2.40    0.90
  -4   1   5    1.50    1.00
  -4   1   5    5.20    1.10
  -4   1   5    1.60    0.90
  -3  -1   5 3173.08   84.59
  -3  -1   5 3204.48   82.79
  -3   1   5 3128.39   83.19
  -3   1   5 3016.10   83.09
  -3   1   5 3276.97   84.79
  -3   1   5 3218.28   83.49
  -2  -1   5  501.55   12.90
  -2  -1   5  464.55   14.90
  -2   1   5  473.55   13.70
  -2   1   5  480.15   13.40
  -2   1   5  455.25   14.90
  -2   1   5  455.15   13.50
  -1  -1   5 1051.79   26.10
  -1  -1   5  932.81   27.90
  -1   1   5  961.90   26.70
  -1   1   5 1046.30   26.90
  -1   1   5  971.60   28.00
   0  -1  -5  862.61   23.10
   0  -1   5  860.91   22.80
   0  -1   5  881.61   24.20
   0   1   5  845.82   24.10
   0   1   5  856.71   23.40
   0   1   5  815.72   23.20
   1  -1   5 4186.68  109.29
   1  -1   5 4263.57  109.69
  -1  -1  -5 4139.59  109.49
   1  -1   5 4244.78  109.89
   1   1   5 3806.02  108.39
   1   1   5 4181.58  110.99
  -2  -1  -5    5.60    1.30
   2  -1   5   11.80    1.60
   2   1   5    7.00    1.10
   2   1   5    8.00    1.30
  -3  -1  -5 2249.18   63.99
   3  -1   5 2383.86   63.09
   3   1   5 2398.76   63.09
   3   1   5 2422.56   61.49
  -3   1  -5 2274.67   64.29
   4  -1   5  522.35   16.60
  -4  -1  -5  502.65   17.60
   4   1   5  507.35   16.50
  -4   1  -5  518.65   17.90
  -4   1  -5  529.45   16.80
  -5  -1  -5 1797.92   51.59
   5  -1   5 1807.92   50.19
  -5   1  -5 1777.02   50.39
  -5   1  -5 1742.53   51.79
   5   1   5 1802.82   50.09
  -6  -1  -5  143.69    8.70
   6  -1   5  162.68    8.20
  -6   1  -5  165.88    8.50
   6   1   5  169.78    8.10
  -7  -1  -5  825.02   26.70
   7  -1   5  811.72   26.30
  -7  -1  -5  788.32   27.70
  -7   1  -5  774.92   26.80
  -8  -1  -5   51.19    6.70
  -8  -1  -5   37.60    5.30
  -8   1  -5   39.20    5.60
  -8  -2   5    1.90    1.90
  -8   2   5    1.90    2.00
  -8   2   5    0.90    1.40
  -7  -2   5  325.97   12.20
  -7   2   5  298.27   12.80
  -7   2   5  305.07   11.90
  -6  -2   5  119.29    6.00
  -6   2   5  119.59    6.30
  -6   2   5  114.99    6.60
  -5  -2   5 2669.53   70.29
  -5   2   5 2606.44   71.39
  -5   2   5 2611.94   71.59
  -5   2   5 2601.54   71.19
  -4  -2   5  129.69    5.10
  -4   2   5  127.99    5.50
  -4   2   5  143.59    6.60
  -4   2   5  129.69    5.90
  -4   2   5  119.09    5.70
   3  -2  -5 1418.86   38.70
  -3  -2   5 1486.75   38.10
  -3   2   5 1425.26   39.60
  -3   2   5 1438.26   39.50
  -3   2   5 1363.66   40.30
  -3   2   5 1489.35   39.30
   2  -2  -5   57.49    2.70
  -2   2   5   49.99    2.90
  -2   2   5   61.09    3.00
  -2   2   5   58.49    3.70
   1  -2  -5 4037.90  108.19
  -1   2   5 4170.58  108.29
  -1   2   5 4068.29  107.59
   0  -2  -5  281.37    8.60
   0  -2   5  291.17    8.20
   0   2   5  286.47    9.70
   0   2   5  269.87    8.80
   1  -2   5 1495.95   41.90
  -1  -2  -5 1604.64   42.20
   1   2   5 1546.45   42.30
   1   2   5 1650.83   42.90
  -2  -2  -5   59.09    3.20
   2  -2   5   62.79    3.30
   2   2   5   60.69    3.10
  -2   2  -5   58.09    3.20
  -3  -2  -5 3869.91  103.59
   3  -2   5 3836.72  102.59
   3   2   5 4125.29  102.09
  -3   2  -5 3782.52  103.89
  -3   2  -5 3760.52  102.69
   3   2   5 3929.71  102.59
  -4  -2  -5   19.30    2.90
   4  -2   5   15.70    2.30
  -4   2  -5   17.80    2.60
   4   2   5   18.90    2.40
   5  -2   5  533.15   17.40
  -5  -2  -5  499.35   18.30
   5   2   5  528.45   17.20
  -5   2  -5  491.75   17.50
  -6  -2  -5  105.59    7.10
   6  -2   5  106.49    6.50
  -6   2  -5  106.49    6.70
   6   2   5   95.99    6.00
   7  -2   5 1205.68   36.20
  -7  -2  -5 1116.99   37.20
  -7   2  -5 1219.28   37.20
  -8  -2  -5   77.59    6.60
  -8  -2  -5   74.49    7.10
  -8   2  -5   78.19    6.80
  -8  -3   5   23.00    3.70
  -8   3   5   23.40    3.70
  -8   3   5   23.10    4.20
  -7  -3   5  699.73   22.70
  -7   3   5  742.93   24.50
  -7   3   5  709.83   23.60
  -6  -3   5   46.60    3.60
  -6   3   5   49.30    4.40
  -6   3   5   44.20    4.20
  -5  -3   5 2007.60   53.89
  -5   3   5 1995.10   55.79
  -5   3   5 2001.90   55.79
  -5   3   5 1972.50   55.69
  -4   3   5  757.12   23.90
  -4   3   5  759.82   23.60
  -4   3   5  796.32   23.40
   3  -3  -5 1233.88   33.30
  -3   3   5 1101.79   34.80
  -3   3   5 1265.17   34.10
  -3   3   5 1242.28   34.20
   2  -3  -5  314.87    9.80
  -2   3   5  302.77   11.30
  -2   3   5  315.77   10.30
  -2   3   5  301.67   11.80
  -1  -3   5 4931.31  129.79
   1  -3  -5 5115.79  131.89
  -1   3   5 5005.30  133.09
   0  -3   5  255.57    7.50
   0  -3  -5  257.27    8.90
   0  -3  -5  259.97    8.30
   0   3   5  237.68    8.30
   1  -3   5 1723.33   45.80
   1   3   5 1706.03   46.20
  -2  -3  -5  555.54   17.50
  -2  -3  -5  578.94   16.70
   2  -3   5  535.85   16.50
  -2   3  -5  552.84   16.60
   2   3   5  561.94   16.80
   3  -3   5 2455.85   66.49
  -3  -3  -5 2411.06   67.39
   3   3   5 2532.45   66.39
  -3   3  -5 2469.35   66.49
  -4  -3  -5   65.89    4.70
   4  -3   5   68.49    4.40
   4   3   5   62.09    4.10
  -4   3  -5   70.09    4.50
  -5  -3  -5  430.16   15.80
   5  -3   5  414.26   14.80
   5   3   5  406.86   14.60
  -5   3  -5  416.26   15.10
  -6  -3  -5   84.99    6.50
   6  -3   5   92.89    6.10
  -6   3  -5  105.39    6.70
  -7  -3  -5 1295.47   40.80
   7  -3   5 1390.06   40.10
  -7   3  -5 1222.28   40.10
  -8  -3  -5    8.40    3.00
  -8   3  -5    5.10    2.90
  -8  -4   5   93.59    6.30
  -8   4   5   92.99    7.50
  -8   4   5   98.09    6.90
  -7  -4   5  545.65   17.70
  -7   4   5  488.35   19.20
  -7   4   5  523.95   19.20
  -6  -4   5   79.09    4.60
  -6   4   5   73.19    5.70
  -6   4   5   80.19    5.90
  -5   4   5  896.31   27.70
  -5   4   5  890.11   27.40
  -5   4   5  848.82   27.20
  -4   4   5  373.86   13.80
  -4   4   5  353.46   13.00
  -4   4   5  367.66   13.50
   3  -4  -5 3811.62  100.89
  -3   4   5 3793.72  101.69
  -3   4   5 3881.01  102.99
   2  -4  -5  395.36   12.80
  -2  -4   5  349.96   10.30
  -2  -4   5  410.96   10.40
   2  -4  -5  364.26   11.80
  -2   4   5  365.86   12.40
  -1  -4   5 2957.60   76.99
   1  -4  -5 3038.50   77.89
   1  -4  -5 3084.29   78.99
  -1   4   5 2726.93   78.19
   0  -4  -5  636.74   18.30
   0  -4   5  573.04   16.50
   0  -4  -5  583.94   17.30
   0   4   5  570.74   17.50
   1  -4   5 3572.84   94.69
  -1  -4  -5 3621.94   96.09
  -1  -4  -5 3653.53   95.89
  -2  -4  -5  340.27   10.90
  -2  -4  -5  316.97   11.60
   2  -4   5  324.67   10.70
   2   4   5  328.97   11.00
  -2   4  -5  314.37   10.60
  -3  -4  -5 1435.56   38.60
   3  -4   5 1364.16   38.50
  -3  -4  -5 1337.97   39.50
  -3   4  -5 1365.16   38.60
   3   4   5 1375.06   38.50
   4  -4   5  207.78    8.70
  -4  -4  -5  207.48    9.40
   4   4   5  216.38    8.70
  -4   4  -5  198.78    8.80
  -5  -4  -5 2017.40   55.99
   5  -4   5 2011.40   55.09
  -5   4  -5 1957.20   55.39
   5   4   5 1817.92   54.29
  -6  -4  -5  100.69    6.90
   6  -4   5   93.79    6.40
  -6   4  -5   89.49    6.50
  -7  -4  -5  380.46   16.20
   7  -4   5  374.86   15.50
  -7   4  -5  401.86   16.30
  -8  -4  -5    3.10    2.50
  -8   4  -5    2.30    2.50
  -7  -5   5 1348.17   39.90
  -7   5   5 1441.96   43.20
  -7   5   5 1391.06   42.80
  -6   5   5   37.80    4.80
  -6   5   5   41.40    4.60
  -5   5   5  679.13   22.50
  -5   5   5  657.43   21.70
  -5   5   5  614.24   21.60
  -4   5   5    6.30    2.00
  -4   5   5    8.50    2.30
  -4   5   5    8.20    2.00
  -3  -5   5 2530.25   64.69
   3  -5  -5 2446.26   66.59
  -3   5   5 2440.66   67.39
  -2  -5   5   11.30    1.00
   2  -5  -5   14.80    2.00
  -2   5   5   11.30    1.90
  -1  -5   5 1458.35   38.40
   1  -5  -5 1461.55   39.80
   1  -5  -5 1456.05   40.80
  -1   5   5 1416.66   40.20
   0  -5  -5   12.90    2.20
   0  -5   5   13.50    1.30
   0  -5  -5    9.60    1.60
   0   5   5   11.50    1.80
  -1  -5  -5 3193.38   85.59
   1  -5   5 3105.59   84.09
  -1  -5  -5 3230.68   84.69
   1   5   5 3240.08   84.89
  -2  -5  -5   41.70    3.50
   2  -5   5   56.39    3.40
  -2  -5  -5   52.59    3.40
   2   5   5   43.60    3.20
   3  -5   5  592.04   18.50
  -3  -5  -5  584.44   18.30
  -3  -5  -5  583.74   19.20
   3   5   5  579.34   18.30
  -3   5  -5  567.34   18.30
  -4  -5  -5   10.00    2.10
  -4  -5  -5   12.90    2.60
   4  -5   5   17.90    2.70
   4   5   5   14.20    2.40
  -4   5  -5   10.80    2.30
  -5  -5  -5 2316.47   64.39
   5  -5   5 2271.57   63.49
  -5   5  -5 2234.08   63.89
  -6  -5  -5    5.90    2.40
   6  -5   5    7.10    2.50
  -6   5  -5    5.90    2.50
  -7  -5  -5  502.15   19.50
   7  -5   5  509.45   19.20
  -7   6   5  478.85   19.20
  -7   6   5  489.25   19.30
  -6   6   5  112.19    7.50
  -6   6   5  114.29    7.90
  -5   6   5 1429.06   42.20
  -5   6   5 1440.66   42.90
  -5   6   5 1348.86   41.80
   4  -6  -5   21.50    2.90
  -4   6   5   18.90    3.40
  -4   6   5   18.30    2.90
   3  -6  -5 1357.06   37.60
  -3  -6   5 1304.97   35.50
  -3   6   5 1309.87   38.30
  -2  -6   5  376.66   11.00
   2  -6  -5  388.26   12.60
  -2   6   5  356.16   13.00
  -1  -6   5 2720.83   71.39
   1  -6  -5 2737.23   72.89
   1  -6  -5 2743.03   73.89
  -1   6   5 2681.83   73.29
   0  -6  -5  286.57   10.90
   0  -6  -5  287.87   10.20
   0  -6   5  290.67    9.30
   0   6   5  287.97   10.40
  -1  -6  -5 1401.96   40.00
   1  -6   5 1419.16   38.50
  -1  -6  -5 1368.66   39.10
   1   6   5 1407.86   39.30
   2  -6   5   75.19    4.30
  -2  -6  -5   78.59    5.00
  -2  -6  -5   78.49    4.50
   2   6   5   83.59    4.60
  -3  -6  -5 1976.70   56.59
   3  -6   5 2087.19   55.89
  -3  -6  -5 1975.40   55.59
   3   6   5 2042.30   55.69
   4  -6   5  402.76   14.60
  -4  -6  -5  415.26   14.50
  -4  -6  -5  399.76   15.20
   4   6   5  414.76   15.30
  -5  -6  -5 1249.68   38.30
   5  -6   5 1278.67   37.80
  -6  -6  -5   27.70    4.10
   6  -6   5   29.50    4.40
   7  -6   5  621.64   22.40
  -7  -6  -5  606.64   22.30
  -7   7   5  142.69    9.50
  -7   7   5  150.88    9.80
  -6   7   5   63.39    6.30
  -6   7   5   59.39    5.80
  -5   7   5 1472.55   44.80
  -5   7   5 1429.16   44.10
  -5   7   5 1495.95   44.10
  -4  -7   5    2.30    1.00
   4  -7  -5    1.50    1.40
  -4   7   5    1.40    1.60
   3  -7  -5  753.52   23.00
  -3  -7   5  745.73   20.90
  -3   7   5  714.43   23.60
  -2  -7   5   52.59    2.80
   2  -7  -5   52.49    3.80
  -2   7   5   57.69    4.20
   1  -7  -5 5454.45  140.09
  -1  -7   5 5231.68  140.29
   1  -7  -5 5314.57  141.19
  -1   7   5 5288.47  140.69
   0  -7   5    7.10    1.40
   0  -7  -5   13.90    2.40
   0  -7  -5    9.90    2.00
   0   7   5    8.50    1.90
   1  -7   5  747.33   22.10
  -1  -7  -5  722.93   23.40
  -1  -7  -5  783.42   23.00
   1   7   5  753.22   22.90
   2  -7   5    1.10    1.10
  -2  -7  -5    2.10    1.50
  -2  -7  -5    3.50    1.40
   2   7   5    1.50    1.10
   3  -7   5 2297.77   64.29
  -3  -7  -5 2389.66   64.39
  -3  -7  -5 2335.67   65.19
   3   7   5 2337.27   64.29
  -4  -7  -5   31.40    3.80
  -4  -7  -5   26.00    3.40
   4  -7   5   31.50    3.90
  -5  -7  -5  531.65   19.50
   5  -7   5  559.94   19.40
  -6  -7  -5    1.30    1.70
   6  -7   5    1.10    2.10
  -7  -7  -5  996.10   33.10
   7  -7   5 1063.29   33.80
  -6   8   5   54.19    6.80
  -6   8   5   48.50    6.30
  -5   8   5 1187.68   38.20
  -5   8   5 1266.57   39.80
  -5   8   5 1245.88   39.10
   4  -8  -5   89.19    5.80
  -4  -8   5   82.59    4.20
  -4   8   5   73.99    5.90
  -3  -8   5  895.11   25.30
   3  -8  -5  887.21   27.50
  -3   8   5  900.91   28.20
  -2  -8   5   47.30    2.90
   2  -8  -5   42.60    3.70
  -2   8   5   49.90    4.20
  -1  -8   5 2325.07   63.09
   1  -8  -5 2430.46   65.69
   1  -8  -5 2379.26   64.59
  -1   8   5 2312.77   65.09
   0  -8  -5  127.79    6.90
   0  -8   5  117.59    5.50
   0  -8  -5  137.79    6.60
   0   8   5  130.89    6.60
  -1  -8  -5 1056.79   33.10
   1  -8   5 1100.29   31.70
  -1  -8  -5 1097.49   32.50
   1   8   5 1175.98   32.80
  -2  -8  -5   90.99    5.50
  -2  -8  -5  103.19    6.10
   2  -8   5   93.89    5.30
   2   8   5   86.59    5.40
  -3  -8  -5 1331.67   39.20
  -3  -8  -5 1315.97   38.40
   3  -8   5 1309.47   38.40
   4  -8   5   30.20    4.00
  -4  -8  -5   34.80    4.50
  -4  -8  -5   30.20    3.80
   5  -8   5  542.35   19.20
  -5  -8  -5  501.65   18.50
  -5  -8  -5  515.95   18.90
  -6  -8  -5  126.39    8.00
   6  -8   5  139.99    8.70
  -6   9   5   12.20    3.50
  -5   9   5  262.87   12.80
  -4  -9   5    8.00    1.70
   4  -9  -5    4.70    2.00
  -4   9   5    5.10    2.30
  -3  -9   5 1648.14   45.60
   3  -9  -5 1766.82   48.20
  -3   9   5 1591.74   48.50
  -2  -9   5   18.90    2.30
   2  -9  -5   18.90    2.90
  -2   9   5   21.20    3.50
  -1  -9   5 1086.59   31.50
   1  -9  -5 1116.19   33.00
  -1   9   5 1141.39   33.70
   0  -9  -5   97.29    5.90
   0  -9   5   95.89    5.10
   0  -9  -5  105.09    6.40
   0   9   5  109.89    6.20
   1  -9   5 2247.38   61.79
  -1  -9  -5 2154.98   62.59
  -1  -9  -5 2334.57   63.49
   1   9   5 2311.87   62.89
   2  -9   5    5.00    1.80
  -2  -9  -5    3.40    1.70
  -2  -9  -5    4.20    2.00
  -3  -9  -5  567.44   19.80
   3  -9   5  569.04   19.30
  -3  -9  -5  566.34   19.30
  -4  -9  -5    5.10    2.00
  -4  -9  -5    5.00    2.20
   4  -9   5    6.10    2.40
  -5  -9  -5 1057.49   32.70
   5  -9   5 1022.40   33.00
  -5  -9  -5 1040.20   32.70
  -5 -10   5  372.96   12.80
  -5  10   5  330.67   15.40
  -4 -10   5  156.08    6.90
   4 -10  -5  159.88    8.90
  -4  10   5  157.48    9.20
  -3 -10   5 1235.68   35.20
   3 -10  -5 1268.47   37.60
  -3  10   5 1232.48   38.30
  -2 -10   5   60.99    4.00
   2 -10  -5   58.49    5.00
  -2  10   5   60.89    5.20
   1 -10  -5  391.96   14.30
  -1 -10   5  367.26   12.80
  -1  10   5  375.96   14.60
   0 -10  -5   17.30    3.10
   0 -10  -5   17.40    3.00
   0 -10   5   22.20    2.80
   1 -10   5 1656.13   47.10
  -1 -10  -5 1632.14   48.00
  -1 -10  -5 1726.23   48.80
  -2 -10  -5  147.89    8.00
  -2 -10  -5  137.69    7.60
   2 -10   5  140.99    7.40
   3 -10   5  553.14   19.00
  -3 -10  -5  535.75   19.00
  -3 -10  -5  534.65   19.30
  -4 -10  -5   14.10    3.10
   4 -10   5    9.20    2.80
  -4 -10  -5   13.80    3.10
  -5 -10  -5 1129.79   34.70
  -5 -10  -5 1069.09   34.30
   5 -10   5 1100.79   35.00
  -4 -11   5   56.69    4.20
  -4  11   5   65.29    6.30
  -3 -11   5  331.97   11.90
   3 -11  -5  314.97   13.60
  -3  11   5  330.97   14.90
  -2 -11   5   65.29    4.40
   2 -11  -5   69.09    5.50
  -1 -11   5  608.84   19.30
   1 -11  -5  603.04   20.90
   0 -11  -5   77.99    5.90
   0 -11   5   91.09    5.40
   1 -11   5  526.75   18.20
  -1 -11  -5  561.94   19.30
  -1 -11  -5  527.95   19.20
   2 -11   5   85.09    5.80
  -2 -11  -5   80.39    6.20
  -2 -11  -5   89.09    6.20
   3 -11   5  889.81   28.20
  -3 -11  -5  859.61   28.20
  -3 -11  -5  883.01   28.40
  -4 -11  -5   95.69    6.60
   4 -11   5   95.89    7.10
  -4 -11  -5   91.29    6.80
   2 -12  -5    1.70    2.00
  -2 -12   5    0.40    1.30
   1 -12  -5  794.22   26.40
  -1 -12   5  794.72   24.70
   0 -12   5    0.50    1.40
   0 -12  -5    1.30    1.80
  -1 -12  -5  411.66   16.10
   1 -12   5  404.56   15.20
  -2 -12  -5   28.70    4.20
   2 -12   5   31.10    4.20
  -8   0   6  281.97   12.30
  -7   0   6    1.70    1.70
  -6   0   6 2652.33   72.29
  -5   0   6    2.30    1.30
  -5   0   6    4.30    1.40
  -4   0   6  714.73   22.00
  -4   0   6  684.83   20.30
  -3   0   6    0.30    0.80
  -3   0   6    1.10    0.60
  -2   0   6 9999.00  253.47
  -2   0   6 9483.75  259.27
  -1   0   6    5.30    1.30
  -1   0   6    3.00    0.60
   0   0   6 1762.02   46.40
   0   0   6 1763.02   46.70
   0   0   6 1744.23   47.70
   1   0   6    1.00    0.70
   1   0   6    2.90    0.80
   1   0   6    0.60    0.50
   2   0   6 3641.74   96.99
   2   0   6 3662.13   96.09
   3   0   6    8.40    1.50
  -3   0  -6   -0.20    0.80
   3   0   6    2.20    0.70
   4   0   6  879.81   26.00
  -4   0  -6  862.11   27.40
   5   0   6    4.00    1.50
   6   0   6 1419.56   41.90
  -6   0  -6 1444.06   42.30
  -7   0  -6   -0.40    1.70
   7   0   6    0.70    1.90
  -8   0  -6  253.37   12.90
  -8  -1   6  583.44   20.30
  -8   1   6  569.04   20.60
  -7  -1   6   67.49    4.90
  -7   1   6   69.89    3.60
  -7   1   6   82.49    5.70
  -6  -1   6 2147.59   60.09
  -6   1   6 2242.68   58.39
  -6   1   6 2180.38   58.39
  -6   1   6 2178.68   60.69
  -5  -1   6  243.78    8.90
  -5   1   6  233.48    9.90
  -5   1   6  247.48    8.10
  -5   1   6  239.78    9.40
  -5   1   6  240.28    8.10
  -4  -1   6 1384.56   40.90
  -4  -1   6 1448.56   39.10
  -4   1   6 1447.46   39.70
  -4   1   6 1441.16   38.50
  -4   1   6 1445.46   41.10
  -4   1   6 1450.45   38.70
  -3  -1   6   46.30    2.30
  -3  -1   6   51.29    3.60
  -3   1   6   45.00    2.20
  -3   1   6   43.40    2.30
  -3   1   6   44.00    3.50
  -3   1   6   44.90    2.70
  -2  -1   6 1125.49   27.50
  -2  -1   6 1025.80   29.90
  -2   1   6 1044.30   28.40
  -2   1   6 1012.40   28.00
  -2   1   6 1022.00   30.00
  -2   1   6  981.10   27.60
  -1  -1   6  585.04   15.30
  -1  -1   6  559.34   17.40
  -1   1   6  556.34   15.80
  -1   1   6  585.64   16.10
  -1   1   6  536.75   17.30
   0  -1   6 3584.84   96.79
   0  -1   6 3838.92   99.79
   0  -1  -6 3681.93   96.29
   0   1   6 3669.03   98.29
   0   1   6 3688.73   96.69
   0   1   6 3638.34   98.09
   1  -1   6  826.52   22.60
   1  -1   6  797.12   22.30
   1  -1   6  814.82   23.00
   1   1   6  773.92   22.40
   1   1   6  800.32   22.90
   2  -1   6 4001.00  100.79
   2  -1   6 3896.91  100.79
  -2  -1  -6 3713.93  101.79
   2   1   6 3679.73  100.69
   2   1   6 3881.31  102.29
  -3  -1  -6  352.76   12.80
   3  -1   6  346.17   11.60
   3   1   6  344.67   10.50
   3   1   6  357.46   11.80
  -3   1  -6  328.17   13.30
  -4  -1  -6 1852.51   54.19
   4  -1   6 1991.30   52.99
  -4   1  -6 1948.11   53.09
   4   1   6 1870.71   52.79
   5  -1   6  207.58    8.90
  -5  -1  -6  193.08    9.80
   5   1   6  209.78    9.00
  -5   1  -6  201.68    9.10
   6  -1   6  890.11   27.80
   6   1   6  897.11   27.70
  -6   1  -6  876.31   28.30
   7  -1   6   98.19    6.80
  -7  -1  -6   93.79    6.70
  -7   1  -6   91.99    6.90
  -8  -1  -6  419.26   17.60
  -8   1  -6  443.76   18.20
  -8  -2   6  896.21   28.90
  -8   2   6  935.81   26.90
  -8   2   6  923.21   30.10
  -7  -2   6    1.40    1.40
  -7   2   6    0.80    1.60
  -7   2   6    2.70    1.40
  -6  -2   6  634.94   19.50
  -6   2   6  603.24   19.30
  -6   2   6  621.74   20.50
  -5  -2   6   94.09    4.60
  -5   2   6   93.39    5.00
  -5   2   6   89.39    5.30
  -5   2   6  107.99    6.10
  -4  -2   6 2589.74   65.99
  -4   2   6 2516.95   67.29
  -4   2   6 2468.55   68.49
  -4   2   6 2415.86   66.89
  -4   2   6 2484.05   66.59
  -3  -2   6    4.20    0.70
  -3   2   6    1.50    0.70
  -3   2   6    5.90    1.20
  -3   2   6    0.90    1.00
  -3   2   6    3.80    1.10
   2  -2  -6 2242.08   58.89
  -2   2   6 2248.08   59.39
  -2   2   6 2297.57   59.69
  -2   2   6 2156.28   60.99
  -1  -2   6   50.19    1.70
   1  -2  -6   50.29    2.50
  -1   2   6   49.50    2.70
  -1   2   6   42.90    3.30
  -1   2   6   54.19    2.80
   0  -2   6 6710.93  167.98
   0  -2  -6 6154.18  168.58
   0   2   6 6399.96  172.28
   0   2   6 6455.35  170.38
  -1  -2  -6  288.47   10.90
  -1  -2  -6  288.57    9.20
   1  -2   6  291.07    9.00
   1   2   6  280.07    9.30
   1   2   6  285.67    9.80
  -2  -2  -6 1379.86   39.00
   2  -2   6 1357.56   37.90
   2   2   6 1369.46   38.00
  -2   2  -6 1371.46   37.90
   2   2   6 1435.36   38.00
   3  -2   6  357.16   11.90
  -3  -2  -6  356.26   12.90
   3   2   6  365.56   11.10
   3   2   6  344.57   11.90
  -3   2  -6  338.47   11.90
   4  -2   6 3209.18   83.99
  -4  -2  -6 2932.41   85.09
  -4   2  -6 3199.98   84.29
   4   2   6 3131.69   83.79
   5  -2   6   83.09    5.20
  -5  -2  -6   78.19    5.90
   5   2   6   73.79    5.00
  -5   2  -6   78.89    5.40
   6  -2   6  220.58   10.00
  -6  -2  -6  209.68   10.80
  -6   2  -6  207.78   10.10
   6   2   6  215.58    9.80
  -7  -2  -6   48.80    5.50
   7  -2   6   58.89    5.30
  -7   2  -6   39.80    5.20
  -8  -2  -6  806.52   28.10
  -8  -2  -6  832.12   29.60
  -8   2  -6  843.52   28.90
  -8  -3   6  591.54   19.90
  -8   3   6  561.24   21.30
  -8   3   6  574.14   19.20
  -7  -3   6  117.59    6.30
  -7   3   6  109.89    7.30
  -7   3   6  108.09    6.40
  -6  -3   6  461.35   14.60
  -6   3   6  423.56   16.00
  -6   3   6  419.86   15.40
  -5  -3   6  130.79    5.70
  -5   3   6  142.39    7.00
  -5   3   6  138.59    6.90
  -5   3   6  136.69    7.30
  -4  -3   6 3309.47   83.89
  -4   3   6 3087.59   85.99
  -4   3   6 3189.48   87.09
  -4   3   6 3226.38   85.99
  -3   3   6  204.78    8.90
  -3   3   6  202.08    7.90
   2  -3  -6 2373.56   63.29
  -2   3   6 2262.77   65.39
  -2   3   6 2403.56   64.09
  -2   3   6 2521.75   64.19
  -1  -3   6  271.27    7.40
   1  -3  -6  261.27    8.60
  -1  -3   6  278.77    7.40
  -1   3   6  265.17   10.20
  -1   3   6  253.77    9.00
   0  -3   6 7486.65  204.28
   0  -3  -6 8941.91  217.98
   0  -3  -6 7468.05  206.58
   0   3   6 7529.65  207.78
  -1  -3  -6  335.47   10.60
   1  -3   6  334.07   10.30
   1   3   6  324.87   10.80
  -2  -3  -6 1288.97   35.50
   2  -3   6 1256.27   35.30
  -2  -3  -6 1278.17   36.60
  -2   3  -6 1308.57   35.40
   2   3   6 1265.87   35.60
   3  -3   6   14.70    2.10
  -3   3  -6    9.20    1.80
   3   3   6   18.50    2.40
  -4  -3  -6 1665.53   48.30
   4  -3   6 1649.93   47.00
  -4   3  -6 1660.33   47.10
   4   3   6 1729.93   47.10
  -5  -3  -6  119.49    7.40
   5  -3   6  129.79    7.00
   5   3   6  134.09    6.80
  -5   3  -6  122.59    6.90
   6  -3   6  436.36   15.30
  -6  -3  -6  376.76   15.90
   6   3   6  379.66   15.20
  -6   3  -6  374.16   15.20
   7  -3   6   57.29    5.50
  -7  -3  -6   67.09    6.40
  -7   3  -6   55.39    5.80
  -8  -3  -6  796.62   28.30
  -8   3  -6  756.82   27.70
  -8   4   6  471.95   17.30
  -7  -4   6   81.39    5.20
  -7   4   6   77.79    6.30
  -7   4   6   79.19    6.00
  -6  -4   6 1315.27   36.00
  -6   4   6 1311.67   38.60
  -6   4   6 1181.68   37.80
  -5   4   6  122.09    7.00
  -5   4   6  111.79    6.60
  -5   4   6  116.69    6.60
  -4   4   6  698.33   22.70
  -4   4   6  768.32   24.00
  -4   4   6  731.43   23.10
   3  -4  -6   97.89    4.70
  -3   4   6  101.89    6.10
  -3   4   6   97.29    5.20
   2  -4  -6 2581.94   67.09
  -2   4   6 2427.86   69.39
  -2   4   6 2545.65   67.89
   1  -4  -6  322.57   11.10
   1  -4  -6  305.87   10.10
  -1  -4   6  299.27    8.70
  -1   4   6  307.67   10.50
   0  -4  -6  686.23   20.20
   0  -4   6  714.63   19.30
   0  -4  -6  699.63   21.20
   0   4   6  686.93   20.60
  -1  -4  -6  264.97    9.20
   1  -4   6  267.67    8.80
   1   4   6  265.87    9.40
  -2  -4  -6 3410.56   87.89
  -2  -4  -6 3227.88   88.99
   2  -4   6 3284.87   87.69
   2   4   6 3314.07   87.99
  -3  -4  -6   75.09    5.10
   3  -4   6   78.59    4.50
  -3  -4  -6   85.79    4.60
  -3   4  -6   73.19    4.40
   3   4   6   77.99    4.50
   4  -4   6 1229.68   35.20
  -4  -4  -6 1199.38   36.40
   4   4   6 1239.68   35.20
  -4   4  -6 1166.58   35.30
  -5  -4  -6  142.79    8.20
   5  -4   6  143.09    7.50
   5   4   6  145.89    7.40
  -5   4  -6  145.99    7.80
  -6  -4  -6 1519.55   46.90
   6  -4   6 1570.44   45.90
  -6   4  -6 1589.54   46.60
  -7  -4  -6   65.19    6.40
   7  -4   6   59.59    5.90
  -7  -5   6    4.50    1.70
  -7   5   6    2.90    2.30
  -7   5   6    3.20    2.10
  -6   5   6 1240.58   38.20
  -6   5   6 1259.17   38.30
  -5   5   6    3.90    1.90
  -5   5   6    6.60    2.30
  -5   5   6    9.10    2.40
  -4   5   6 1151.48   34.60
  -4   5   6 1179.38   35.80
  -4   5   6 1188.08   35.50
  -3  -5   6   20.40    1.30
   3  -5  -6   17.70    2.30
  -3   5   6   26.20    3.70
  -3   5   6   18.60    2.70
  -2  -5   6 3104.49   83.29
   2  -5  -6 3289.07   85.39
  -2   5   6 3246.78   85.99
   1  -5  -6    4.90    1.30
  -1  -5   6    5.40    0.80
  -1   5   6    4.60    1.30
   0  -5   6  596.84   17.30
   0  -5  -6  617.94   18.40
   0  -5  -6  617.44   19.40
   1  -5   6    8.80    1.40
  -1  -5  -6    6.30    1.80
  -2  -5  -6 2760.72   74.99
  -2  -5  -6 2790.42   76.29
   2  -5   6 2793.82   74.79
   2   5   6 2845.02   75.29
  -3  -5  -6  275.57   11.10
   3  -5   6  249.68    9.80
  -3  -5  -6  239.88    9.70
   3   5   6  265.77   10.00
  -4  -5  -6  434.26   16.60
   4  -5   6  461.45   15.80
   4   5   6  465.05   15.70
  -5  -5  -6   12.30    2.90
   5  -5   6   13.10    2.80
   6  -5   6 2021.70   58.29
  -6  -5  -6 2050.49   59.49
   7  -5   6    1.10    2.30
  -7  -5  -6    3.30    2.60
  -7  -6   6   65.19    4.50
  -7   6   6   61.09    6.20
  -7   6   6   63.09    6.10
  -6   6   6  537.85   19.80
  -6   6   6  494.45   19.20
  -5   6   6  159.28    9.10
  -5   6   6  174.28    9.40
  -5   6   6  171.58    8.90
  -4   6   6 1489.15   45.10
  -4   6   6 1542.35   44.10
   3  -6  -6  112.19    5.60
  -3  -6   6  107.39    4.00
  -3   6   6  100.99    5.90
  -2  -6   6 1669.13   45.10
   2  -6  -6 1786.42   47.30
  -2   6   6 1670.33   47.80
   1  -6  -6  611.34   18.50
  -1  -6   6  591.34   16.80
  -1   6   6  593.34   18.90
   0  -6  -6  921.71   27.20
   0  -6   6  968.40   26.00
   0  -6  -6  971.30   28.30
   0   6   6  871.41   27.30
   1  -6   6  227.08    8.20
  -1  -6  -6  224.28    9.50
  -1  -6  -6  222.78    8.70
   1   6   6  225.88    8.90
  -2  -6  -6 1173.58   33.90
  -2  -6  -6 1172.18   35.00
   2  -6   6 1165.88   33.60
   2   6   6 1218.38   34.20
  -3  -6  -6  145.89    7.80
   3  -6   6  161.68    7.20
  -3  -6  -6  147.49    7.00
   3   6   6  143.39    7.00
   4  -6   6 1299.27   37.30
  -4  -6  -6 1232.28   36.90
  -4  -6  -6 1240.28   38.20
   4   6   6 1290.47   37.10
  -5  -6  -6  181.38    9.70
   5  -6   6  191.48    9.30
  -6  -6  -6 1235.18   39.00
   6  -6   6 1249.68   38.20
  -7  -6  -6   30.70    4.70
   7  -6   6   35.50    5.20
  -6   7   6  284.57   13.30
  -6   7   6  248.38   12.50
  -5   7   6   23.10    3.90
  -5   7   6   29.10    4.40
  -5   7   6   24.00    4.10
  -4  -7   6 1835.02   48.10
  -4   7   6 1717.23   51.39
  -4   7   6 1812.02   53.09
  -3  -7   6   62.09    3.00
   3  -7  -6   61.49    4.30
  -3   7   6   57.39    4.60
   2  -7  -6  197.18    8.20
  -2  -7   6  184.28    6.40
  -2   7   6  193.58    8.60
   1  -7  -6   15.00    2.30
  -1  -7   6   15.60    1.70
  -1   7   6   14.90    2.60
   0  -7  -6 2170.08   57.19
   0  -7  -6 2020.00   57.99
   0  -7   6 2011.50   55.59
   0   7   6 2101.59   57.39
  -1  -7  -6   14.00    2.70
   1  -7   6   14.20    2.10
  -1  -7  -6    9.70    1.90
   1   7   6   12.80    2.40
  -2  -7  -6  875.81   26.30
  -2  -7  -6  866.61   27.20
   2  -7   6  836.92   25.70
   2   7   6  888.21   26.40
   3  -7   6   27.20    3.40
  -3  -7  -6   22.70    3.30
  -3  -7  -6   20.20    3.20
   3   7   6   23.80    3.20
  -4  -7  -6 1996.20   55.89
  -4  -7  -6 1885.91   56.79
   4  -7   6 2066.79   56.19
   5  -7   6   14.40    3.10
  -5  -7  -6   19.20    3.70
   6  -7   6  558.44   20.40
  -6  -7  -6  546.65   20.70
  -6   8   6  182.18   10.90
  -6   8   6  157.78    9.80
  -5   8   6   32.20    4.90
  -5   8   6   33.50    4.90
  -5   8   6   35.20    4.80
  -4  -8   6 1197.68   32.90
  -4   8   6 1172.48   36.60
  -3  -8   6   65.49    3.40
   3  -8  -6   64.09    4.70
  -3   8   6   64.89    5.10
   2  -8  -6 1779.42   48.80
  -2  -8   6 1678.33   46.40
  -2   8   6 1728.63   49.40
   1  -8  -6   16.10    2.60
  -1  -8   6   19.50    2.00
  -1   8   6   13.70    2.60
   0  -8  -6 2025.60   58.09
   0  -8   6 1949.90   53.99
   0  -8  -6 2031.40   55.59
   0   8   6 1987.70   55.89
  -1  -8  -6  161.18    7.70
   1  -8   6  165.98    7.10
  -1  -8  -6  169.48    8.50
   1   8   6  169.78    7.90
  -2  -8  -6  893.91   27.10
   2  -8   6  847.42   26.40
  -2  -8  -6  892.21   28.00
   2   8   6  899.41   27.30
  -3  -8  -6  349.77   13.20
  -3  -8  -6  331.37   13.80
   3  -8   6  351.46   13.10
  -4  -8  -6 1023.20   31.80
  -4  -8  -6 1046.00   32.70
   4  -8   6 1034.20   31.90
   5  -8   6   31.90    4.60
  -5  -8  -6   26.90    4.10
  -6  -8  -6  484.25   19.00
   6  -8   6  499.35   19.10
  -5   9   6   23.80    4.40
  -5   9   6   26.10    4.80
  -5   9   6   26.00    5.00
  -4  -9   6  290.97   10.00
  -4   9   6  282.87   12.80
   3  -9  -6   45.90    4.40
  -3  -9   6   47.70    3.10
  -3   9   6   48.90    5.50
  -2  -9   6 1135.09   31.60
   2  -9  -6 1148.99   33.80
  -2   9   6 1098.69   34.40
  -1  -9   6   46.10    3.20
   1  -9  -6   47.00    4.10
  -1   9   6   42.10    4.20
   0  -9  -6  616.84   20.50
   0  -9   6  640.94   19.30
   0   9   6  622.44   21.00
   1  -9   6  111.19    5.70
  -1  -9  -6   97.69    6.00
  -1  -9  -6  100.29    6.60
   1   9   6  101.09    6.20
  -2  -9  -6 1980.90   57.69
   2  -9   6 2003.20   57.09
  -2  -9  -6 2188.28   59.19
  -3  -9  -6  127.99    7.30
   3  -9   6  117.59    6.90
  -3  -9  -6  127.69    7.70
  -4  -9  -6  383.66   14.90
  -4  -9  -6  352.76   15.00
   4  -9   6  400.56   15.00
   5  -9   6   13.60    3.30
  -5  -9  -6   11.80    3.10
  -5  -9  -6   14.90    3.30
  -5  10   6   54.59    7.10
  -4 -10   6  221.18    8.70
  -4  10   6  251.07   11.90
  -3 -10   6  101.19    4.90
   3 -10  -6   83.09    6.10
  -3  10   6   83.09    6.40
  -2 -10   6 1178.68   32.50
   2 -10  -6 1152.28   34.70
  -2  10   6 1093.09   35.20
   1 -10  -6   41.60    4.20
  -1 -10   6   40.70    3.30
  -1  10   6   43.20    4.40
   0 -10  -6  355.76   13.90
   0 -10   6  359.56   12.70
   0  10   6  358.66   14.10
   1 -10   6   49.00    4.00
  -1 -10  -6   42.90    4.60
  -1 -10  -6   40.40    4.20
  -2 -10  -6 1382.16   41.10
   2 -10   6 1338.97   39.50
  -2 -10  -6 1349.56   40.30
  -3 -10  -6    6.10    2.40
   3 -10   6    7.00    2.40
  -3 -10  -6    9.60    2.70
  -4 -10  -6  637.64   22.60
   4 -10   6  666.93   22.40
  -4 -10  -6  604.94   22.00
  -3 -11   6   49.20    3.70
   3 -11  -6   50.39    5.20
  -3  11   6   51.79    6.00
   2 -11  -6  493.45   18.00
  -2 -11   6  480.55   15.90
  -2  11   6  490.95   18.70
   1 -11  -6   62.29    5.40
  -1 -11   6   62.99    4.40
   0 -11   6 1093.09   31.80
   0 -11  -6 1054.29   33.20
  -1 -11  -6   48.70    5.10
  -1 -11  -6   48.80    5.40
   1 -11   6   50.59    4.40
   2 -11   6  512.45   18.30
  -2 -11  -6  533.55   19.10
  -2 -11  -6  526.55   19.40
   3 -11   6    2.30    2.10
  -3 -11  -6    4.50    2.30
  -3 -11  -6    1.10    1.90
  -2 -12   6  167.08    7.80
   2 -12  -6  170.08    9.40
   1 -12  -6    5.70    2.60
  -1 -12   6    3.60    1.70
   0 -12  -6  986.00   31.20
   0 -12   6  954.60   29.50
   1 -12   6   14.20    2.90
  -1 -12  -6    6.30    2.60
  -2 -12  -6  264.07   11.90
   2 -12   6  233.98   10.90
  -2 -12  -6  234.78   11.50
  -8   0   7   -0.10    1.60
  -7   0   7  359.66   13.70
  -6   0   7    1.50    1.30
  -5   0   7 1999.00   54.49
  -5   0   7 1993.30   56.29
  -4   0   7   -0.10    1.00
  -4   0   7    1.20    0.80
  -3   0   7  755.02   20.80
  -3   0   7  715.33   22.90
  -1   0   7 3372.26   90.19
  -1   0   7 3388.46   88.29
   0   0   7    0.80    0.70
   0   0   7    3.10    0.70
   0   0   7    0.90    0.50
   1   0   7 3782.82   94.99
   1   0   7 3488.55   94.99
   1   0   7 3547.85   95.19
   2   0   7    0.10    0.60
   2   0   7    1.40    0.80
   3   0   7 3909.41  107.59
   3   0   7 4229.88  106.89
   4   0   7    0.40    1.00
   5   0   7  837.02   26.00
  -6   0  -7   -0.30    1.40
   6   0   7    1.40    1.60
  -7   0  -7 1511.35   46.10
   7   0   7 1553.04   45.50
  -8   0  -7   -2.00    1.80
  -8  -1   7   66.69    5.50
  -8   1   7   63.19    5.60
  -7  -1   7  605.64   20.10
  -7   1   7  617.04   20.80
  -6  -1   7   97.19    5.40
  -6   1   7  104.29    5.90
  -5  -1   7 1282.57   35.40
  -5   1   7 1269.97   37.60
  -5   1   7 1242.88   36.10
  -4  -1   7  238.48   10.40
  -4  -1   7  265.57    8.60
  -4   1   7  259.57   10.70
  -4   1   7  267.87    9.30
  -4   1   7  260.67    7.40
  -4   1   7  260.07    7.50
  -3  -1   7 2689.23   68.99
  -3  -1   7 2646.34   71.99
  -3   1   7 2599.14   72.09
  -3   1   7 2661.23   68.59
  -3   1   7 2592.64   69.89
  -3   1   7 2620.64   68.49
  -2  -1   7  602.74   15.30
  -2  -1   7  549.65   17.80
  -2   1   7  549.15   15.40
  -2   1   7  541.55   15.20
  -2   1   7  495.35   17.60
  -2   1   7  573.74   16.10
  -1  -1   7 3999.20   98.49
  -1  -1   7 3789.02  101.19
  -1   1   7 3792.82   98.19
  -1   1   7 3416.46   99.69
  -1   1   7 3793.12   99.19
   0  -1  -7  556.94   15.90
   0  -1   7  560.44   15.70
   0  -1   7  561.14   17.40
   0   1   7  561.74   16.30
   0   1   7  577.74   16.20
   0   1   7  551.44   17.40
   1  -1   7 2721.83   74.79
   1  -1   7 2872.81   74.09
   1  -1   7 2820.92   73.89
   1   1   7 2734.33   74.69
   1   1   7 2847.32   74.19
   1   1   7 2835.02   74.69
   2  -1   7  334.57   10.70
   2  -1   7  343.87   11.30
   2  -1   7  316.97   10.70
   2   1   7  309.07   10.70
   2   1   7  323.77   10.60
   3  -1   7 2176.38   60.59
   3   1   7 2276.57   59.49
   3   1   7 2257.97   60.79
   4  -1   7  228.08    9.50
  -4   1  -7  252.37    9.70
   4   1   7  243.48    9.60
   5  -1   7  856.71   27.30
   5   1   7  911.11   27.60
  -5   1  -7  922.51   27.90
   6  -1   7  169.78    8.70
  -6   1  -7  174.78    9.00
   6   1   7  172.98    8.60
   7  -1   7 1168.98   35.20
  -7  -1  -7 1104.59   35.20
  -7   1  -7 1156.28   35.90
   7   1   7 1061.19   34.60
  -8  -1  -7   56.69    6.40
  -8   1  -7   57.29    6.80
  -8  -2   7    1.90    1.80
  -8   2   7    0.30    1.90
  -7  -2   7 1135.09   33.00
  -7   2   7 1129.29   31.00
  -7   2   7 1078.19   34.30
  -6  -2   7   32.10    3.10
  -6   2   7   33.30    4.00
  -6   2   7   35.60    2.80
  -5  -2   7  340.87   11.30
  -5   2   7  353.06   13.60
  -5   2   7  331.37   11.40
  -5   2   7  318.57   12.20
  -5   2   7  371.06   12.60
  -4  -2   7   95.79    3.90
  -4   2   7   92.39    5.80
  -4   2   7   94.79    4.50
  -4   2   7   86.39    4.70
  -4   2   7   92.39    4.20
  -3  -2   7 3515.55   87.59
  -3   2   7 3399.66   89.29
  -3   2   7 3325.57   91.19
  -3   2   7 3431.56   88.59
  -3   2   7 3187.18   88.99
  -2  -2   7  272.57   10.60
  -2  -2   7  274.07    7.70
  -2  -2   7  304.17    7.80
  -2   2   7  268.67   10.70
  -2   2   7  282.17    9.00
  -2   2   7  280.87    9.40
   1  -2  -7 1631.84   44.80
  -1  -2   7 1764.62   43.90
  -1  -2   7 1729.83   46.90
  -1   2   7 1699.23   45.40
  -1   2   7 1597.34   45.20
  -1   2   7 1683.23   47.00
   0  -2   7  281.77    8.40
   0  -2  -7  279.97    8.80
   0   2   7  266.67    9.20
   0   2   7  278.07   10.10
   0   2   7  273.37    9.10
   1  -2   7 7913.81  208.88
  -1  -2  -7 7952.90  209.48
   1   2   7 7801.02  210.58
   1   2   7 8066.19  209.78
   2  -2   7  270.07    9.20
   2   2   7  263.37    9.30
  -2   2  -7  250.17    9.00
   2   2   7  270.07    9.30
  -3  -2  -7  669.63   22.30
   3  -2   7  700.53   21.10
   3   2   7  728.23   20.30
  -3   2  -7  675.33   21.00
   3   2   7  704.33   21.20
   4  -2   7    5.50    1.70
  -4   2  -7    2.90    1.50
   4   2   7    1.10    1.20
   5  -2   7 2254.17   61.29
  -5   2  -7 2233.08   61.79
   5   2   7 2107.89   60.99
   6  -2   7   37.60    4.40
   6   2   7   44.80    4.50
  -6   2  -7   37.70    4.70
   7  -2   7  384.56   15.30
  -7   2  -7  366.56   15.70
  -8  -2  -7   12.60    3.40
  -8   2  -7    5.40    3.00
  -8   3   7    4.20    1.60
  -7  -3   7  779.32   24.00
  -7   3   7  765.72   23.70
  -7   3   7  777.82   25.90
  -6  -3   7   69.89    4.30
  -6   3   7   69.19    5.30
  -6   3   7   68.29    4.60
  -5  -3   7  517.25   15.40
  -5   3   7  510.45   17.30
  -5   3   7  515.65   18.30
  -5   3   7  497.75   16.70
  -4  -3   7  157.38    5.30
  -4   3   7  148.19    6.80
  -4   3   7  154.38    7.90
  -4   3   7  142.59    6.80
  -3   3   7 2542.05   68.29
  -3   3   7 2529.05   70.09
   2  -3  -7  118.69    4.80
  -2   3   7  111.09    5.20
  -2   3   7  131.69    5.40
  -2   3   7  111.29    6.30
  -1  -3   7 1442.76   36.20
   1  -3  -7 1333.17   37.50
  -1   3   7 1387.96   39.70
  -1   3   7 1352.26   38.10
  -1   3   7 1390.36   38.10
   0  -3  -7  227.38    7.50
   0  -3   7  210.58    6.80
   0   3   7  210.58    8.70
   0   3   7  206.18    7.70
  -1  -3  -7 4476.55  121.99
  -1  -3  -7 4696.53  122.19
   1  -3   7 4786.72  120.89
   1   3   7 4392.66  121.79
   1   3   7 4715.83  123.29
   2  -3   7  219.68    8.20
  -2  -3  -7  218.58    9.30
  -2  -3  -7  228.78    8.40
   2   3   7  240.68    8.70
   2   3   7  240.88    8.80
  -3  -3  -7 2460.35   69.49
   3  -3   7 2391.76   67.79
   3   3   7 2583.24   68.09
  -3   3  -7 2568.84   71.19
   3   3   7 2557.44   67.39
   4  -3   7   10.20    2.20
  -4  -3  -7    3.80    1.80
   4   3   7    5.70    1.80
  -4   3  -7    5.80    1.80
   5  -3   7 1913.41   53.39
  -5   3  -7 1840.32   53.49
   5   3   7 1899.21   53.29
   6  -3   7   49.70    4.80
   6   3   7   50.89    4.70
  -6   3  -7   51.69    5.90
   7  -3   7  275.17   12.50
  -7  -4   7  566.34   18.20
  -7   4   7  569.84   19.50
  -7   4   7  549.45   20.50
  -6  -4   7  113.19    5.40
  -6   4   7  107.99    6.50
  -6   4   7   96.69    6.50
  -5  -4   7 1930.01   50.29
  -5   4   7 1815.52   52.69
  -5   4   7 1847.22   52.89
  -5   4   7 1867.01   53.99
  -4  -4   7  266.67    7.90
  -4   4   7  241.78   10.00
  -4   4   7  239.18   10.20
  -4   4   7  250.17   11.10
  -3   4   7 1264.67   35.90
  -3   4   7 1249.28   37.60
   2  -4  -7  105.69    4.70
  -2   4   7  112.99    5.30
  -2   4   7  100.99    6.10
  -1  -4   7 4012.50  101.19
   1  -4  -7 3829.12  102.39
  -1   4   7 3923.61  103.09
  -1   4   7 3818.02  104.89
   0  -4   7  220.78    7.10
   0  -4  -7  229.18    8.10
   0   4   7  219.38    8.30
   1  -4   7 1073.29   29.10
  -1  -4  -7  999.80   30.70
  -1  -4  -7 1063.39   29.60
  -2  -4  -7  336.37   11.50
  -2  -4  -7  340.77   12.70
   2  -4   7  336.37   11.30
   2   4   7  325.97   11.60
  -3  -4  -7 1516.15   43.20
  -3  -4  -7 1503.25   44.70
   3  -4   7 1526.95   43.00
   3   4   7 1603.14   43.40
   4  -4   7   29.10    3.50
  -4  -4  -7   33.90    4.00
   4   4   7   36.00    3.50
   5  -4   7  739.23   23.10
  -5  -4  -7  684.53   24.30
   5   4   7  705.03   23.00
   6  -4   7  110.79    7.10
  -6  -4  -7  106.99    7.80
  -7  -4  -7 1007.70   34.40
   7  -4   7 1034.70   33.00
  -7  -5   7  331.17   12.20
  -7   5   7  355.36   15.00
  -7   5   7  327.07   14.00
  -6  -5   7   11.40    1.90
  -6   5   7    9.60    2.70
  -6   5   7   13.80    3.20
  -5   5   7 2367.86   66.39
  -5   5   7 2350.16   66.09
  -5   5   7 2357.56   67.09
  -4   5   7   15.30    2.80
  -4   5   7   16.70    3.30
  -4   5   7   17.70    3.20
  -3   5   7  660.73   22.90
  -3   5   7  706.23   21.70
  -2  -5   7  230.48    6.70
   2  -5  -7  228.18    8.60
  -2   5   7  250.97   10.90
  -2   5   7  243.48    9.40
   1  -5  -7 2593.64   70.19
  -1  -5   7 2651.83   68.29
  -1   5   7 2611.04   70.79
   0  -5   7   33.50    2.10
   0  -5  -7   28.90    2.60
   0   5   7   30.10    2.70
   1  -5   7  161.08    6.20
  -1  -5  -7  160.58    6.70
  -1  -5  -7  152.28    8.10
   1   5   7  167.38    7.10
   2  -5   7   85.19    4.50
  -2  -5  -7   95.09    4.90
  -2  -5  -7   82.09    5.40
   2   5   7   81.99    4.80
  -3  -5  -7 3685.23   96.19
   3  -5   7 3620.34   95.99
  -3  -5  -7 3485.75   97.69
   3   5   7 3570.84   96.29
  -4  -5  -7   58.99    5.20
   4  -5   7   40.90    3.90
   4   5   7   44.50    4.00
  -5  -5  -7  556.84   20.60
   5  -5   7  536.55   19.20
   5   5   7  583.54   19.40
   6  -5   7   21.40    3.80
  -6  -5  -7   12.20    3.20
  -7  -5  -7 1025.60   34.50
   7  -5   7 1024.10   33.10
  -7   6   7  796.42   27.20
  -7   6   7  794.72   27.80
  -6   6   7   32.20    4.60
  -6   6   7   36.00    4.90
  -5   6   7 1453.45   43.60
  -5   6   7 1447.96   44.00
  -5   6   7 1442.16   43.10
  -4   6   7  163.48    8.30
  -4   6   7  167.08    9.30
  -3  -6   7 1256.97   33.20
  -3   6   7 1289.57   36.80
  -3   6   7 1204.08   38.40
  -2  -6   7  199.48    6.10
   2  -6  -7  193.78    7.90
  -2   6   7  187.58    8.40
  -1  -6   7 1321.87   35.90
   1  -6  -7 1362.66   37.90
  -1   6   7 1346.17   38.40
   0  -6  -7  149.39    6.80
   0  -6   7  157.78    5.80
   0   6   7  159.58    7.20
   1  -6   7  749.62   22.30
  -1  -6  -7  772.82   23.20
   1   6   7  783.62   23.60
   2  -6   7  143.49    6.50
  -2  -6  -7  151.58    6.90
  -2  -6  -7  141.49    7.70
   2   6   7  143.89    7.00
  -3  -6  -7 1116.39   33.10
   3  -6   7 1152.98   33.10
  -3  -6  -7 1078.99   34.40
   3   6   7 1159.98   33.40
  -4  -6  -7  107.39    7.20
   4  -6   7  120.59    6.70
  -4  -6  -7  109.49    6.50
   4   6   7  128.09    6.90
   5  -6   7 1272.87   38.50
  -5  -6  -7 1300.27   40.10
   6  -6   7   58.89    5.60
  -6  -6  -7   57.09    6.00
   7  -6   7  541.15   20.20
  -7  -6  -7  514.15   20.90
  -6   7   7    2.10    2.20
  -6   7   7    3.10    2.20
  -5   7   7  591.14   21.30
  -5   7   7  626.24   22.20
  -5   7   7  584.54   22.20
  -4   7   7   30.50    4.10
  -4   7   7   29.90    4.60
  -3  -7   7 2373.96   61.29
  -3   7   7 2283.77   64.89
  -2  -7   7   51.09    2.60
   2  -7  -7   54.39    4.00
  -2   7   7   51.39    4.20
   1  -7  -7  781.12   22.70
  -1  -7   7  746.83   20.70
  -1   7   7  662.53   22.70
   0  -7  -7   23.00    2.80
   0  -7   7   28.70    2.30
   0   7   7   26.10    3.20
   1  -7   7 1499.75   41.00
  -1  -7  -7 1493.75   42.10
   1   7   7 1446.86   42.30
  -2  -7  -7   87.09    5.20
   2  -7   7   75.99    4.70
  -2  -7  -7   70.09    5.50
   2   7   7   78.69    5.10
   3  -7   7  431.16   15.10
  -3  -7  -7  412.46   16.20
  -3  -7  -7  437.26   15.30
   3   7   7  428.76   15.40
  -4  -7  -7   54.59    4.70
   4  -7   7   46.40    4.40
  -4  -7  -7   48.70    5.00
   5  -7   7 1164.48   35.70
  -5  -7  -7 1154.08   36.80
   6  -7   7   30.10    4.50
  -6  -7  -7   28.40    4.60
  -6   8   7   76.89    7.10
  -6   8   7   60.39    6.30
  -5   8   7  523.65   19.90
  -5   8   7  523.55   20.60
  -5   8   7  534.55   20.80
  -4   8   7   27.20    4.10
  -4   8   7   21.40    4.30
  -3  -8   7  819.32   23.40
  -3   8   7  860.61   27.10
   2  -8  -7  423.66   14.70
  -2  -8   7  410.56   12.50
  -2   8   7  408.26   15.30
   1  -8  -7 1005.90   29.40
  -1  -8   7  948.21   27.20
  -1   8   7  961.60   29.70
   0  -8   7  204.48    7.70
   0  -8  -7  201.48    8.90
   0   8   7  208.28    9.40
  -1  -8  -7 1789.42   50.59
   1  -8   7 1777.42   49.50
   1   8   7 1825.92   51.09
  -2  -8  -7   99.39    6.70
   2  -8   7  107.49    5.80
  -2  -8  -7  102.89    6.10
   2   8   7   97.09    6.10
  -3  -8  -7  994.80   31.50
   3  -8   7  960.30   29.90
  -3  -8  -7  981.80   30.30
   3   8   7 1009.70   31.70
   4  -8   7  217.58    9.90
  -4  -8  -7  203.48   10.60
  -4  -8  -7  197.18    9.70
  -5  -8  -7  879.71   30.10
   5  -8   7  927.21   29.40
   6  -8   7   64.19    6.30
  -6  -8  -7   65.19    6.40
  -5   9   7  992.80   33.70
  -5   9   7  971.40   32.50
  -5   9   7  992.30   34.00
  -4   9   7   34.60    5.50
  -4   9   7   38.50    5.20
  -3  -9   7  556.74   16.80
  -3   9   7  570.94   20.20
   2  -9  -7  124.39    6.90
  -2  -9   7  117.49    5.10
  -2   9   7  123.49    7.30
   1  -9  -7 1819.02   50.29
  -1  -9   7 1708.93   47.90
  -1   9   7 1755.72   50.79
   0  -9   7   62.99    3.90
   0  -9  -7   60.09    4.70
   0   9   7   56.09    4.80
   1  -9   7  410.16   14.20
  -1  -9  -7  420.46   15.30
   1   9   7  430.16   15.70
  -2  -9  -7   50.79    4.70
   2  -9   7   46.70    4.00
  -2  -9  -7   39.60    4.70
   2   9   7   56.69    5.30
  -3  -9  -7 1311.67   41.10
  -3  -9  -7 1386.76   40.40
   3  -9   7 1359.16   39.80
  -4  -9  -7   11.60    3.00
  -4  -9  -7    9.70    2.90
   4  -9   7   14.70    3.10
   5  -9   7  279.37   12.80
  -5  -9  -7  287.37   13.00
  -5  -9  -7  277.37   13.30
  -4  10   7   35.50    5.00
  -3 -10   7  392.56   14.70
  -3  10   7  364.56   15.50
   2 -10  -7    2.00    1.90
  -2 -10   7    0.80    1.10
  -2  10   7    2.80    2.10
  -1 -10   7 1376.26   38.50
   1 -10  -7 1347.97   40.60
  -1  10   7 1391.66   41.40
   0 -10  -7   24.10    3.50
   0 -10   7   23.60    2.90
   0  10   7   22.70    3.60
   1 -10   7  550.24   18.20
  -1 -10  -7  557.04   19.30
  -2 -10  -7   23.80    4.10
  -2 -10  -7   25.20    3.90
   2 -10   7   21.80    3.30
   3 -10   7  723.03   23.90
  -3 -10  -7  733.63   24.40
  -3 -10  -7  719.73   25.20
  -4 -10  -7    1.00    2.00
   4 -10   7    1.40    2.00
  -4 -10  -7    2.10    2.20
  -3  11   7  801.52   27.60
   2 -11  -7    2.90    2.20
  -2 -11   7    3.50    1.50
  -2  11   7    4.80    2.50
   1 -11  -7  356.86   14.40
  -1 -11   7  329.37   12.30
  -1  11   7  389.06   17.50
   0 -11  -7   49.40    5.00
   0 -11   7   49.60    4.10
   1 -11   7  913.61   28.20
  -1 -11  -7  929.61   29.60
  -2 -11  -7   61.89    5.60
  -2 -11  -7   73.89    6.20
   2 -11   7   65.29    5.20
  -3 -11  -7  513.45   19.30
   3 -11   7  548.95   19.00
  -3 -11  -7  499.55   19.60
   0 -12  -7    5.90    2.50
   0 -12   7    5.60    2.10
  -8   0   8  900.41   28.90
  -7   0   8    1.80    1.60
  -6   0   8  866.31   27.60
  -6   0   8  843.32   25.90
  -5   0   8    1.90    1.20
  -5   0   8    1.50    1.40
  -4   0   8 2103.69   59.79
  -4   0   8 2148.78   57.09
  -3   0   8    1.90    1.30
  -3   0   8    0.80    0.70
  -2   0   8  872.61   27.10
  -2   0   8  914.91   24.60
  -1   0   8    5.80    1.00
  -1   0   8   -0.20    0.70
   0   0   8 3849.01  102.69
   0   0   8 3802.82  102.69
   0   0   8 3947.10  101.59
   1   0   8    2.80    0.90
   1   0   8    0.50    0.70
   1   0   8    0.20    0.50
   2   0   8  119.59    5.30
   2   0   8  110.99    5.10
   3   0   8    4.40    1.20
   3   0   8    3.70    1.40
   4   0   8 2411.16   66.09
   5   0   8    2.70    1.60
  -6   0  -8  330.57   13.70
   6   0   8  347.97   13.70
  -7   0  -8    1.40    2.10
   7   0   8   -0.10    1.90
  -7  -1   8   77.09    5.20
  -7   1   8   77.39    5.70
  -6  -1   8  710.63   21.30
  -6   1   8  690.33   23.50
  -6   1   8  664.93   21.80
  -5  -1   8  177.08    7.10
  -5   1   8  186.48    7.90
  -5   1   8  192.58    9.40
  -4  -1   8 1668.63   48.10
  -4  -1   8 1712.13   44.90
  -4   1   8 1652.73   45.70
  -4   1   8 1634.54   48.10
  -3  -1   8  412.96   11.90
  -3  -1   8  388.66   14.60
  -3   1   8  406.06   12.70
  -3   1   8  410.26   14.80
  -2  -1   8 3148.89   79.59
  -2  -1   8 3057.69   82.89
  -2   1   8 3008.80   80.49
  -2   1   8 3011.80   82.89
  -1  -1   8  100.59    3.60
  -1  -1   8   90.99    5.20
  -1   1   8  100.09    4.20
  -1   1   8   93.59    3.70
  -1   1   8  106.49    5.60
   0  -1   8 3080.99   80.89
   0  -1   8 2958.60   79.09
   0   1   8 3021.70   79.29
   0   1   8 3030.40   80.89
   0   1   8 2953.10   79.29
   1  -1   8  425.86   14.40
   1  -1   8  422.56   13.40
   1  -1   8  474.85   13.70
   1   1   8  457.35   14.50
   1   1   8  438.26   14.10
   1   1   8  449.66   13.70
   2  -1   8 1044.60   29.00
   2  -1   8  986.10   28.70
   2  -1   8 1020.70   30.30
   2   1   8 1028.50   29.00
   2   1   8 1001.70   28.90
   3  -1   8  458.15   14.80
   3   1   8  458.95   13.90
   3   1   8  425.46   14.70
   4  -1   8 1693.83   46.20
   4   1   8 1550.24   45.80
  -4   1  -8 1646.94   46.10
   5  -1   8    3.60    1.80
  -5   1  -8    5.50    1.90
   5   1   8    4.50    1.80
   6  -1   8  849.72   27.10
  -6   1  -8  815.32   27.30
   6   1   8  856.01   27.00
  -7  -1  -8   68.49    6.10
   7  -1   8   71.29    6.10
  -7   1  -8   75.99    6.50
   7   1   8   66.09    5.90
  -7  -2   8   70.49    4.90
  -7   2   8   74.69    5.70
  -6  -2   8 1707.63   45.90
  -6   2   8 1625.44   48.70
  -6   2   8 1626.04   47.30
  -5  -2   8   95.39    4.40
  -5   2   8   93.59    3.90
  -5   2   8   95.29    5.40
  -5   2   8   86.99    6.30
  -5   2   8   89.99    3.90
  -4  -2   8  459.05   13.10
  -4   2   8  431.76   13.40
  -4   2   8  455.05   16.50
  -4   2   8  445.46   14.60
  -4   2   8  432.66   13.10
  -3  -2   8  133.49    4.10
  -3   2   8  114.79    5.30
  -3   2   8  114.29    6.60
  -3   2   8  115.49    4.60
  -3   2   8  110.99    4.80
  -2  -2   8 3682.53   89.59
  -2  -2   8 3388.66   93.19
  -2   2   8 3548.24   91.29
  -2   2   8 3265.37   90.99
  -2   2   8 3411.46   93.49
  -1  -2   8   10.70    2.00
  -1  -2   8   13.40    1.00
  -1   2   8   13.10    1.70
  -1   2   8   11.40    2.10
  -1   2   8   18.30    1.70
   0  -2   8 1357.46   35.60
   0  -2  -8 1293.07   35.90
   0  -2   8 1341.37   37.70
   0   2   8 1346.97   36.40
   0   2   8 1306.97   37.80
   0   2   8 1303.67   36.60
   1  -2   8  210.88    7.60
  -1  -2  -8  235.88    8.00
   1   2   8  229.18    8.80
   1   2   8  219.48    8.10
   2  -2   8 3648.33   95.19
   2   2   8 3680.93   95.49
   2   2   8 3461.55   95.29
   3  -2   8   15.10    2.30
   3   2   8   12.20    2.10
   3   2   8    8.10    1.50
   4  -2   8  850.71   25.90
   4   2   8  857.01   26.00
   5  -2   8   10.80    2.60
   5   2   8   12.30    2.50
   6  -2   8 1270.07   38.80
   6   2   8 1317.07   38.90
   7  -2   8   95.09    7.00
  -7  -3   8    2.00    1.50
  -7   3   8    4.20    2.20
  -7   3   8    4.00    1.30
  -6  -3   8 1185.28   32.20
  -6   3   8 1087.89   34.00
  -6   3   8 1120.89   35.60
  -6   3   8 1120.59   32.30
  -5  -3   8   54.59    3.10
  -5   3   8   51.89    5.00
  -5   3   8   51.99    3.70
  -5   3   8   54.49    4.30
  -4  -3   8  463.05   12.20
  -4   3   8  420.96   14.40
  -4   3   8  400.46   15.90
  -4   3   8  395.96   13.90
  -3   3   8   93.89    5.00
  -3   3   8  105.09    6.40
  -3   3   8  107.69    5.30
  -2   3   8 2550.54   68.99
  -2   3   8 2591.34   71.19
  -2   3   8 2587.54   69.89
  -1  -3   8   82.49    2.90
   1  -3  -8   73.89    3.70
  -1   3   8   69.69    4.90
  -1   3   8   78.19    4.10
   0  -3  -8 1535.75   42.10
   0  -3   8 1594.94   41.40
   0   3   8 1544.45   42.60
   0   3   8 1524.75   44.10
  -1  -3  -8  127.59    5.50
   1  -3   8  130.59    5.20
   1   3   8  129.09    5.70
   1   3   8  126.99    6.30
  -2  -3  -8 3126.99   85.89
   2  -3   8 3183.08   85.59
   2   3   8 3312.57   86.49
   2   3   8 3279.77   86.19
   3  -3   8   77.69    4.60
   3   3   8   76.79    4.70
   3   3   8   79.69    4.40
   4  -3   8  844.42   25.20
   4   3   8  776.32   25.00
   5  -3   8  356.86   13.60
   5   3   8  351.56   13.60
   6  -3   8 1406.46   42.40
   6   3   8 1437.26   42.30
   7  -3   8   58.29    5.80
  -7   4   8    7.00    2.00
  -7   4   8    5.30    2.50
  -6   4   8  562.04   18.80
  -6   4   8  550.74   19.70
  -5   4   8   55.59    4.40
  -5   4   8   65.09    5.60
  -5   4   8   60.39    4.80
  -4   4   8 2401.46   65.29
  -4   4   8 2467.85   67.49
  -4   4   8 2255.87   65.19
  -3   4   8  164.08    8.50
  -3   4   8  144.29    6.90
  -2   4   8 1103.19   33.80
  -2   4   8 1103.39   31.70
   1  -4  -8   45.10    3.00
  -1  -4   8   48.10    2.10
  -1   4   8   48.00    3.40
  -1   4   8   45.00    4.10
   0  -4   8 3084.69   83.39
   0  -4  -8 3181.68   84.59
   0   4   8 3123.89   86.69
   0   4   8 3371.06   85.39
  -1  -4  -8  269.77    9.60
   1  -4   8  274.77    9.20
   1   4   8  273.17   10.00
   1   4   8  265.97   10.80
  -2  -4  -8 1758.52   49.80
   2  -4   8 1814.12   49.50
   2   4   8 1854.91   50.79
   2   4   8 1813.02   50.09
   3  -4   8  192.68    8.40
   3   4   8  222.58    8.70
   3   4   8  211.78    8.80
   4  -4   8 2195.28   60.79
   4   4   8 2188.58   60.99
   5  -4   8  205.18    9.60
   5   4   8  209.28    9.60
   6  -4   8  465.85   17.20
   6   4   8  444.46   19.10
   7  -4   8   32.10    4.90
  -7   5   8  101.49    6.70
  -7   5   8  110.29    7.70
  -6   5   8  465.85   17.40
  -6   5   8  440.26   16.70
  -5   5   8    4.10    1.90
  -5   5   8    2.00    1.70
  -5   5   8    2.60    2.10
  -4   5   8 2422.86   68.59
  -4   5   8 2448.46   68.19
  -4   5   8 2535.35   70.29
  -3   5   8   16.40    3.40
  -3   5   8   16.90    2.60
  -2   5   8  606.74   21.20
  -2   5   8  609.54   19.30
   1  -5  -8   86.29    4.50
  -1  -5   8   79.39    3.10
  -1   5   8   75.39    5.60
  -1   5   8   74.89    4.60
   0  -5  -8 2747.82   72.19
   0  -5   8 2712.53   70.89
   0   5   8 2601.54   72.69
  -1  -5  -8   25.80    2.60
   1  -5   8   21.70    2.10
   1   5   8   20.20    2.70
  -2  -5  -8  609.54   19.40
   2  -5   8  622.94   19.10
   2   5   8  639.14   19.90
  -3  -5  -8    4.90    1.70
   3  -5   8    7.90    1.80
   3   5   8    5.30    1.80
   4  -5   8 1852.61   54.19
   4   5   8 2029.90   54.99
   5  -5   8   -0.30    1.60
   5   5   8    1.20    1.70
   6  -5   8  610.14   21.60
   7  -5   8   20.90    4.10
  -6   6   8  885.91   29.30
  -6   6   8  921.41   29.90
  -5   6   8   28.70    4.00
  -5   6   8   27.50    4.50
  -5   6   8   33.20    4.40
  -4   6   8 1599.54   47.40
  -4   6   8 1679.13   49.50
  -3   6   8  262.87   10.90
  -3   6   8  269.77   12.30
  -2  -6   8 1204.18   31.60
  -2   6   8 1235.48   35.10
  -2   6   8 1138.29   37.00
   1  -6  -8  104.39    5.50
  -1  -6   8  106.79    4.00
  -1   6   8  108.59    5.90
   0  -6  -8 1324.77   37.00
   0  -6   8 1308.27   35.50
   0   6   8 1261.77   37.50
  -1  -6  -8  103.09    5.50
   1  -6   8  107.49    5.00
   1   6   8  107.89    5.90
  -2  -6  -8 2015.50   55.59
   2  -6   8 1960.20   54.99
   2   6   8 2042.00   55.99
   3  -6   8  350.86   13.00
  -3  -6  -8  356.56   13.30
   3   6   8  368.16   13.50
   4  -6   8  903.31   28.90
   4   6   8  975.90   29.30
   5  -6   8   15.90    3.20
   6  -6   8  704.03   24.20
  -6   7   8  844.92   29.10
  -6   7   8  894.21   29.50
  -5   7   8    2.00    1.90
  -5   7   8    4.40    2.40
  -5   7   8    2.40    2.20
  -4   7   8  711.63   25.50
  -4   7   8  716.23   23.90
  -3   7   8   29.70    3.80
  -3   7   8   31.80    4.70
  -2  -7   8 2427.66   63.79
  -2   7   8 2437.66   67.49
  -1  -7   8   24.40    1.90
   1  -7  -8   26.20    3.10
  -1   7   8   24.30    3.40
   0  -7  -8  769.92   23.80
   0  -7   8  774.22   22.20
   0   7   8  771.32   24.40
   1  -7   8    0.40    0.90
  -1  -7  -8    1.50    1.30
   1   7   8    5.40    1.80
   2  -7   8 2878.71   76.69
  -2  -7  -8 2841.82   77.39
   2   7   8 2783.62   77.59
  -3  -7  -8   27.50    3.70
   3  -7   8   26.10    3.40
   3   7   8   19.30    3.20
  -4  -7  -8  524.55   18.60
   4  -7   8  505.45   18.20
   4   7   8  535.35   18.60
  -5  -7  -8   -1.10    1.90
   5  -7   8   -0.20    1.80
   6  -7   8 1185.98   37.30
  -6  -7  -8 1192.28   38.80
  -5   8   8  166.68   10.10
  -5   8   8  167.68   10.40
  -5   8   8  182.78    9.90
  -4   8   8  567.14   20.50
  -4   8   8  578.04   22.10
  -3   8   8   30.90    4.90
  -3   8   8   41.40    4.90
  -2  -8   8  977.70   27.00
  -2   8   8  989.00   30.60
  -1  -8   8  133.59    5.40
   1  -8  -8  135.99    7.00
  -1   8   8  135.49    7.50
   0  -8  -8 1044.90   31.20
   0  -8   8 1045.80   29.40
   0   8   8 1021.00   31.70
  -1  -8  -8  157.28    7.80
   1  -8   8  157.68    6.90
   1   8   8  150.08    7.90
   2  -8   8 1933.61   53.49
  -2  -8  -8 1890.71   54.19
   2   8   8 1932.61   54.69
  -3  -8  -8   47.10    4.50
   3  -8   8   40.60    4.10
   3   8   8   36.80    4.50
   4  -8   8  596.94   20.60
  -4  -8  -8  598.74   20.90
   5  -8   8   40.40    5.00
  -5  -8  -8   40.40    5.40
  -5   9   8   73.29    6.60
  -5   9   8   73.09    7.30
  -5   9   8   81.89    7.40
  -4   9   8 1080.39   34.00
  -4   9   8 1027.10   35.50
  -3   9   8   34.90    4.60
  -2  -9   8  699.63   20.40
  -2   9   8  720.73   24.00
   1  -9  -8   28.30    3.70
  -1  -9   8   34.00    2.70
  -1   9   8   32.30    4.30
   0  -9  -8 2016.00   55.99
   0  -9   8 1953.50   53.79
   0   9   8 1953.40   56.29
   1  -9   8   96.99    5.50
  -1  -9  -8  106.19    6.50
   1   9   8  109.29    6.80
  -2  -9  -8  723.03   23.60
   2  -9   8  718.13   22.70
   2   9   8  703.83   23.80
  -3  -9  -8    9.00    2.60
   3  -9   8    6.40    2.30
  -4  -9  -8 1028.20   34.20
  -4  -9  -8 1083.99   33.30
   4  -9   8 1042.40   32.80
  -5  -9  -8    1.60    2.30
   5  -9   8    2.20    2.30
  -4  10   8 1015.20   33.60
  -4  10   8 1042.80   35.80
  -3  10   8   28.70    4.40
  -2 -10   8  528.65   17.20
  -2  10   8  538.85   19.70
   1 -10  -8   48.80    4.80
  -1 -10   8   51.59    3.60
  -1  10   8   60.69    5.40
   0 -10  -8 1370.16   40.30
   0 -10   8 1357.66   38.20
   0  10   8 1307.67   40.50
  -1 -10  -8   27.50    4.00
   1 -10   8   19.90    3.00
   1  10   8   25.70    4.10
   2 -10   8  408.46   14.70
  -2 -10  -8  378.86   15.30
  -3 -10  -8   10.20    2.90
   3 -10   8    8.40    2.50
  -4 -10  -8  886.61   29.00
  -4 -10  -8  857.61   29.60
   4 -10   8  853.91   28.20
  -2  11   8  974.60   32.00
  -1 -11   8   47.20    3.70
   1 -11  -8   48.70    5.00
  -1  11   8   41.10    5.30
   0 -11  -8  409.86   16.20
   0 -11   8  425.06   14.60
   1 -11   8   72.59    5.20
  -1 -11  -8   67.29    5.90
  -2 -11  -8  522.45   19.40
   2 -11   8  532.05   18.50
  -7   0   9 1000.00   30.40
  -6   0   9    0.10    1.70
  -6   0   9    1.30    1.40
  -5   0   9  916.11   26.90
  -5   0   9  937.51   29.80
  -4   0   9    4.80    2.00
  -4   0   9    4.90    1.20
  -3   0   9 8766.82  223.08
  -3   0   9 8349.17  227.78
  -2   0   9    0.10    0.90
  -2   0   9    3.10    0.90
  -1   0   9 1157.98   31.00
  -1   0   9 1116.19   33.40
   0   0   9    2.10    0.80
   0   0   9    1.00    1.00
   0   0   9    1.20    0.60
   1   0   9 2725.73   73.59
   1   0   9 2689.93   72.49
   1   0   9 2773.42   72.79
   2   0   9    4.60    1.30
   2   0   9    0.90    0.90
   3   0   9   60.39    4.00
   3   0   9   56.99    3.50
   4   0   9    6.90    1.90
   5   0   9 1812.22   51.59
  -6   0  -9    1.10    1.70
   6   0   9    3.10    2.00
   7   0   9  352.36   14.80
  -7  -1   9  942.81   28.30
  -7   1   9  914.11   29.00
  -6  -1   9   33.10    3.20
  -6   1   9   35.20    4.70
  -6   1   9   29.00    3.60
  -5  -1   9 1295.37   36.50
  -5   1   9 1345.27   40.20
  -5   1   9 1302.07   37.30
  -4  -1   9  152.28    5.60
  -4  -1   9  138.09    7.80
  -4   1   9  136.59    6.10
  -4   1   9  148.69    8.10
  -3  -1   9 1967.70   56.39
  -3  -1   9 2067.89   52.59
  -3   1   9 1941.11   56.39
  -3   1   9 1968.40   53.49
  -2  -1   9  521.35   17.60
  -2  -1   9  502.65   14.20
  -2   1   9  514.35   15.10
  -2   1   9  470.15   17.20
  -1  -1   9 1917.21   50.59
  -1  -1   9 1882.51   53.59
  -1   1   9 1928.51   50.59
  -1   1   9 1941.01   51.29
  -1   1   9 1907.81   53.69
   0  -1   9    3.00    0.90
   0  -1   9    1.70    1.20
   0   1   9    2.30    1.10
   0   1   9    2.50    0.90
   1  -1   9 2793.72   75.49
   1  -1   9 2864.51   76.89
   1   1   9 2795.52   75.79
   1   1   9 2916.91   78.89
   1   1   9 2885.91   76.89
   2  -1   9  256.57    9.60
   2  -1   9  273.47    9.50
   2   1   9  253.17    9.40
   2   1   9  265.87    9.70
   3  -1   9  662.33   20.90
   3   1   9  652.93   21.00
   3   1   9  720.23   20.40
   4  -1   9  202.78    8.80
   4   1   9  200.98    8.80
   5  -1   9 1175.98   35.20
   5   1   9 1179.58   35.30
   6  -1   9   18.90    3.50
   6   1   9   19.00    3.40
  -7  -1  -9  525.05   20.10
   7  -1   9  536.25   19.80
   7   1   9  540.05   19.80
  -7  -2   9  391.86   13.40
  -7   2   9  348.27   14.30
  -6  -2   9    5.30    1.60
  -6   2   9    5.20    2.30
  -6   2   9    8.30    2.20
  -5  -2   9 1773.72   47.20
  -5   2   9 1676.03   51.19
  -5   2   9 1787.82   49.10
  -4  -2   9   63.49    2.90
  -4   2   9   54.89    3.80
  -4   2   9   56.69    5.10
  -3  -2   9 1453.25   36.70
  -3   2   9 1399.46   37.10
  -3   2   9 1336.87   41.10
  -3   2   9 1378.46   38.60
  -3   2   9 1365.66   37.30
  -2  -2   9  108.89    3.60
  -2  -2   9  107.39    6.20
  -2   2   9  107.59    4.30
  -2   2   9  108.09    4.90
  -2   2   9   94.99    6.10
  -1  -2   9 2907.31   78.69
  -1  -2   9 2912.41   75.19
  -1   2   9 2754.32   76.29
  -1   2   9 3008.60   76.79
  -1   2   9 2852.61   78.79
   0  -2   9  178.28    6.10
   0  -2   9  180.78    7.90
   0   2   9  163.68    6.70
   0   2   9  167.88    6.70
   0   2   9  176.88    7.90
   1  -2   9 1150.28   31.90
   1   2   9 1145.19   32.40
   1   2   9 1156.58   33.40
   2  -2   9  108.59    5.20
   2   2   9  103.29    5.40
   2   2   9  107.59    5.30
   3  -2   9 2771.02   72.99
   3   2   9 2562.84   72.89
   3   2   9 2746.63   72.29
   4  -2   9   77.39    5.00
   4   2   9   84.39    5.30
   5  -2   9  538.05   18.50
   5   2   9  521.75   18.40
   6  -2   9    2.50    2.10
   6   2   9    1.30    1.80
   7  -2   9  971.00   31.00
   7   2   9  917.51   30.40
  -7   3   9  387.46   15.40
  -6   3   9   59.89    5.70
  -6   3   9   53.79    4.80
  -6   3   9   58.79    3.10
  -5   3   9 1804.32   50.49
  -5   3   9 1829.42   52.99
  -5   3   9 1733.03   48.60
  -4   3   9  104.99    5.70
  -4   3   9  110.19    7.10
  -4   3   9  103.99    5.10
  -3   3   9  872.51   26.10
  -3   3   9  858.81   25.80
  -3   3   9  941.91   28.90
  -2   3   9   73.19    4.20
  -2   3   9   71.59    5.30
  -1  -3   9 3833.52   95.29
  -1   3   9 3618.44   99.29
  -1   3   9 3555.74   97.19
   0  -3   9  953.80   25.70
   0   3   9  913.51   28.40
   0   3   9  925.31   26.90
   1  -3   9 1234.28   33.70
  -1  -3  -9 1223.68   34.10
   1   3   9 1186.88   34.40
   1   3   9 1220.28   35.50
   2  -3   9  199.18    8.00
   2   3   9  211.18    8.60
   2   3   9  214.48    8.50
   3  -3   9 2179.98   58.19
   3   3   9 2116.99   57.89
   3   3   9 2056.39   58.39
   4  -3   9   96.09    5.70
   4   3   9   89.49    5.70
   5  -3   9  631.24   21.10
   5   3   9  629.04   21.20
   6  -3   9  108.49    7.30
   7  -3   9  885.41   29.20
  -7   4   9  965.00   27.60
  -7   4   9  942.41   31.00
  -6   4   9    8.70    2.50
  -6   4   9   10.90    3.20
  -6   4   9    9.70    2.10
  -5   4   9  420.86   14.90
  -5   4   9  435.86   17.40
  -5   4   9  443.46   15.80
  -4   4   9  137.49    6.80
  -4   4   9  143.39    8.40
  -4   4   9  124.29    6.70
  -3   4   9 1320.97   39.90
  -3   4   9 1298.27   37.50
  -2   4   9  139.59    7.90
  -2   4   9  147.89    6.60
  -1  -4   9  741.83   19.50
  -1   4   9  706.93   23.60
  -1   4   9  690.13   21.60
   0  -4   9  373.66   11.20
   0  -4  -9  351.66   12.10
   0   4   9  374.86   14.10
   0   4   9  372.66   12.70
  -1  -4  -9 2952.40   77.69
   1  -4   9 2901.41   76.99
   1   4   9 2858.81   79.39
   1   4   9 2902.71   78.19
   2  -4   9  160.58    7.10
  -2  -4  -9  185.38    7.70
   2   4   9  177.88    8.10
   2   4   9  182.58    7.90
   3  -4   9 1682.63   47.20
   3   4   9 1733.03   47.50
   3   4   9 1650.83   47.60
   4  -4   9  119.89    6.70
   4   4   9  130.19    7.00
   5  -4   9 1329.17   40.00
   5   4   9 1365.96   40.10
   6  -4   9   49.50    5.50
   6   4   9   47.20    4.90
   7  -4   9  311.27   14.00
  -6   5   9   21.40    3.30
  -6   5   9   21.20    3.70
  -6   5   9   18.50    4.00
  -5   5   9  644.94   21.90
  -5   5   9  678.23   23.90
  -5   5   9  630.74   21.50
  -4   5   9    3.80    1.70
  -4   5   9    1.90    1.50
  -4   5   9    1.10    1.80
  -3   5   9 2090.39   60.39
  -3   5   9 2071.39   57.79
  -2   5   9    2.40    1.90
  -2   5   9    6.90    1.80
  -1  -5   9 1135.59   30.60
  -1   5   9 1162.88   33.40
  -1   5   9 1139.89   35.30
   0  -5   9   13.00    1.50
   0  -5  -9   10.70    2.00
   0   5   9   10.40    2.10
   0   5   9   19.90    3.30
   1  -5   9 2534.65   66.79
  -1  -5  -9 2525.65   67.69
   1   5   9 2430.36   68.09
   1   5   9 2495.95   69.69
  -2  -5  -9   16.00    2.50
   2  -5   9   12.00    2.10
   2   5   9   13.90    2.50
   2   5   9   13.70    2.80
   3  -5   9  636.74   20.40
  -3  -5  -9  646.64   20.90
   3   5   9  625.64   20.90
   3   5   9  670.43   21.20
   4  -5   9    8.40    2.20
   4   5   9    9.20    2.40
   5  -5   9 1303.67   38.30
   5   5   9 1247.08   38.40
   6  -5   9    7.50    2.80
  -6   6   9   69.29    5.70
  -6   6   9   63.49    5.90
  -5   6   9  831.02   27.40
  -5   6   9  866.41   29.20
  -5   6   9  817.32   27.40
  -4   6   9   78.99    5.70
  -4   6   9   84.29    6.80
  -3   6   9 1092.79   34.80
  -3   6   9 1055.49   32.30
  -2   6   9  365.26   15.30
  -2   6   9  361.26   13.50
  -1  -6   9 1655.63   43.30
  -1   6   9 1583.44   46.20
  -1   6   9 1646.94   48.70
   0  -6   9   56.69    3.10
   0  -6  -9   52.49    3.90
   0   6   9   54.69    4.30
  -1  -6  -9 1061.19   31.00
   1  -6   9 1068.59   30.00
   1   6   9 1032.90   31.50
  -2  -6  -9  172.28    7.90
   2  -6   9  172.28    7.50
   2   6   9  166.48    8.10
  -3  -6  -9 1577.34   45.80
   3  -6   9 1526.45   45.30
   3   6   9 1634.04   46.20
   3   6   9 1660.43   46.70
   4  -6   9  163.98    8.30
   4   6   9  157.88    8.40
   5  -6   9  678.03   23.10
   5   6   9  674.93   23.30
   6  -6   9   37.10    5.10
  -6   7   9    1.10    1.90
  -6   7   9    3.50    2.40
  -5   7   9  986.70   33.40
  -5   7   9 1037.30   32.10
  -5   7   9  958.00   32.10
  -4   7   9    8.10    2.50
  -4   7   9    9.90    3.30
  -3   7   9   56.49    4.80
  -3   7   9   49.90    5.50
  -2   7   9    7.50    2.20
  -2   7   9    7.70    2.80
  -1  -7   9 2040.20   53.19
  -1   7   9 1962.20   56.29
   0  -7   9    5.20    1.30
   0  -7  -9    0.50    1.30
   0   7   9    1.10    1.40
  -1  -7  -9  774.32   24.40
   1  -7   9  798.82   23.40
   1   7   9  785.62   25.10
  -2  -7  -9   20.10    3.10
   2  -7   9   22.80    2.90
   2   7   9   26.00    3.80
   3  -7   9 2531.75   70.59
  -3  -7  -9 2566.84   71.39
   3   7   9 2616.44   71.59
  -4  -7  -9    6.20    2.40
   4  -7   9    7.20    2.40
   4   7   9    6.50    2.50
   5  -7   9  351.46   14.40
  -5   8   9  667.03   25.40
  -5   8   9  675.83   24.00
  -5   8   9  687.73   24.60
  -4   8   9   42.40    6.00
  -4   8   9   48.90    5.00
  -3   8   9  732.73   24.10
  -3   8   9  690.23   25.90
  -2   8   9   33.10    5.30
  -2   8   9   29.50    4.10
  -1  -8   9 1420.36   38.50
  -1   8   9 1405.16   41.80
   0  -8  -9   36.70    3.70
   0  -8   9   36.00    2.90
   0   8   9   33.50    4.10
  -1  -8  -9  728.63   23.90
   1  -8   9  757.62   22.70
   1   8   9  756.12   24.60
  -2  -8  -9   77.09    5.60
   2  -8   9   82.79    5.20
   2   8   9   79.39    6.00
   3  -8   9 1565.14   45.00
  -3  -8  -9 1544.25   45.70
   3   8   9 1571.24   46.00
  -4  -8  -9   39.90    5.00
   4  -8   9   47.80    4.80
   5  -8   9  510.45   19.00
  -4   9   9   92.79    7.10
  -4   9   9   93.89    8.00
  -3   9   9  656.83   23.10
  -3   9   9  663.33   25.40
  -2   9   9   52.99    5.10
  -1  -9   9  448.36   14.30
  -1   9   9  478.05   17.40
   0  -9  -9   12.40    2.80
   0  -9   9   11.70    2.00
   0   9   9   13.70    3.00
   1  -9   9 1689.93   47.90
  -1  -9  -9 1709.33   49.50
   1   9   9 1753.72   50.29
   2  -9   9   47.60    4.20
  -2  -9  -9   47.80    5.30
   2   9   9   41.50    5.00
  -3  -9  -9  465.65   17.50
   3  -9   9  459.85   16.70
   4  -9   9   20.30    3.60
  -4  -9  -9   21.10    4.00
  -3  10   9 1009.60   36.80
  -3  10   9 1146.99   35.10
  -2  10   9   23.10    4.10
  -1 -10   9  347.77   11.80
  -1  10   9  350.76   14.80
   0 -10   9  250.47    9.60
   0 -10  -9  239.98   11.10
   0  10   9  257.77   11.80
   1 -10   9 1084.29   32.20
  -1 -10  -9 1107.19   34.00
   1  10   9 1083.49   34.50
  -2 -10  -9   22.80    4.00
   2 -10   9   32.40    4.00
   3 -10   9  433.16   16.00
  -3 -10  -9  409.76   16.60
  -1 -11   9  994.80   28.60
  -1  11   9  957.50   32.00
   0 -11  -9   87.59    6.60
   0 -11   9   94.29    5.50
   0  11   9   79.99    7.00
   1 -11   9  434.36   15.50
  -1 -11  -9  441.76   17.10
  -7   0  10    0.10    1.50
  -6   0  10 1617.34   45.00
  -6   0  10 1578.34   48.00
  -5   0  10    1.70    1.90
  -5   0  10    0.80    1.10
  -4   0  10  550.54   20.80
  -4   0  10  624.14   17.80
  -3   0  10    1.40    0.80
  -3   0  10    1.10    1.50
  -2   0  10 4422.36  120.59
  -2   0  10 4549.54  117.09
  -1   0  10    2.90    0.90
  -1   0  10    1.70    1.40
   0   0  10 1397.16   39.20
   0   0  10 1492.65   38.40
   0   0  10 1431.66   41.40
   1   0  10    5.90    1.30
   1   0  10    0.70    0.80
   1   0  10    2.40    1.20
   2   0  10 3277.27   84.99
   2   0  10 3044.30   84.29
   3   0  10    0.10    1.10
   3   0  10    1.10    1.20
   4   0  10  884.51   27.20
   5   0  10    0.20    1.60
   6   0  10 1195.98   36.50
   7   0  10    0.40    2.20
  -7  -1  10   83.49    5.30
  -7   1  10   77.09    5.60
  -6  -1  10 1260.97   34.50
  -6   1  10 1191.68   38.10
  -6   1  10 1162.18   35.20
  -5  -1  10    8.30    1.60
  -5   1  10    5.20    1.60
  -5   1  10    8.70    2.70
  -4  -1  10 1600.54   47.20
  -4  -1  10 1669.23   42.90
  -4   1  10 1520.45   47.00
  -4   1  10 1553.94   43.80
  -3  -1  10  201.48    6.70
  -3  -1  10  197.78    9.70
  -3   1  10  201.48    7.40
  -3   1  10  193.98    9.80
  -2  -1  10 3747.53   99.19
  -2  -1  10 3692.23   94.89
  -2   1  10 3650.63   95.79
  -2   1  10 3462.85   98.79
  -1  -1  10  327.77   12.90
  -1  -1  10  333.67   10.20
  -1   1  10  335.27   10.90
  -1   1  10  328.97   12.90
  -1   1  10  346.07    9.80
   0  -1  10 1027.40   29.10
   0  -1  10 1023.00   31.40
   0   1  10 1088.19   29.70
   0   1  10 1070.69   29.50
   0   1  10 1064.19   31.60
   1  -1  10   35.60    2.60
   1  -1  10   28.40    3.00
   1   1  10   34.50    3.20
   1   1  10   34.20    2.70
   2  -1  10 1885.21   50.79
   2  -1  10 1880.61   51.39
   2   1  10 1797.62   50.89
   2   1  10 1844.22   51.29
   3  -1  10  284.87   10.80
   3   1  10  270.97   10.80
   3   1  10  307.87   10.60
   4  -1  10 1085.09   32.70
   4   1  10 1119.39   32.90
   5  -1  10  171.28    8.50
   5   1  10  168.18    8.60
   6  -1  10  960.70   30.30
   6   1  10  943.41   30.40
   7  -1  10   67.59    6.30
   7   1  10   64.49    6.00
  -7   2  10   39.20    4.60
  -6   2  10  478.55   18.90
  -6   2  10  474.95   16.70
  -5  -2  10   16.30    2.00
  -5   2  10   14.10    2.50
  -5   2  10   16.30    3.50
  -4  -2  10 1962.20   49.90
  -4   2  10 1835.72   54.99
  -4   2  10 1837.22   51.79
  -3  -2  10    2.70    0.70
  -3   2  10    0.20    1.40
  -3   2  10    1.00    1.00
  -2  -2  10 1013.40   31.40
  -2  -2  10 1044.80   27.30
  -2   2  10  996.80   29.00
  -2   2  10 1027.50   27.90
  -1  -2  10  137.19    7.30
  -1  -2  10  146.99    5.00
  -1   2  10  145.59    5.70
  -1   2  10  133.59    5.90
   0  -2  10 3376.46   93.29
   0  -2  10 3646.34   90.89
   0   2  10 3491.65   91.79
   0   2  10 3320.87   93.49
   1  -2  10   44.30    2.90
   1   2  10   48.70    3.30
   1   2  10   39.20    3.60
   2  -2  10  620.14   19.40
   2   2  10  630.54   19.80
   2   2  10  661.03   20.20
   3  -2  10    0.60    1.20
   3   2  10    0.90    1.20
   3   2  10    0.60    1.10
   4  -2  10 2607.24   72.49
   4   2  10 2684.03   72.79
   5  -2  10   57.79    4.90
   5   2  10   55.59    5.00
   6  -2  10  463.25   17.10
   6   2  10  424.76   16.80
   7  -2  10   48.70    5.90
   7   2  10   42.40    5.30
  -7   3  10   39.20    4.80
  -6   3  10  485.45   19.30
  -6   3  10  476.85   17.30
  -5   3  10  190.68    8.70
  -5   3  10  194.28   10.60
  -4   3  10 1465.35   44.50
  -4   3  10 1481.45   39.50
  -4   3  10 1450.75   39.80
  -4   3  10 1434.06   41.50
  -3   3  10  143.59    6.10
  -3   3  10  140.09    6.50
  -3   3  10  147.09    8.50
  -3   3  10  145.79    6.80
  -2  -3  10  603.74   15.70
  -2   3  10  566.14   20.30
  -2   3  10  555.44   17.90
  -1  -3  10  173.28    5.60
  -1   3  10  163.18    8.50
  -1   3  10  164.68    7.00
   0  -3  10 2665.93   66.09
   0   3  10 2359.36   68.89
   0   3  10 2445.16   67.29
   1  -3  10  111.99    5.00
   1   3  10  110.79    5.60
   1   3  10  113.79    6.30
   2  -3  10 2048.99   55.99
   2   3  10 2045.50   56.59
   2   3  10 2060.09   56.99
   3  -3  10   47.10    3.70
   3   3  10   43.50    3.80
   3   3  10   45.80    3.60
   4  -3  10 2207.08   59.89
   4   3  10 2078.09   59.99
   5  -3  10   33.80    4.30
   5   3  10   37.30    4.70
   6  -3  10  376.46   15.10
   6   3  10  371.16   15.20
  -6   4  10  974.90   27.40
  -6   4  10  933.51   30.30
  -6   4  10  978.00   32.60
  -5   4  10  133.49    6.20
  -5   4  10  127.69    8.70
  -5   4  10  126.39    7.10
  -4   4  10  769.62   23.60
  -4   4  10  780.12   26.80
  -4   4  10  762.82   24.10
  -3   4  10  174.18    7.80
  -3   4  10  168.88    9.50
  -2   4  10 2186.58   62.09
  -2   4  10 2149.78   59.49
  -1  -4  10  220.18    6.80
  -1   4  10  205.68    8.70
  -1   4  10  228.28   10.50
   0  -4  10 1316.07   35.20
   0   4  10 1272.67   38.70
   0   4  10 1285.17   36.80
   1  -4  10   67.29    3.70
   1   4  10   62.69    4.30
   1   4  10   56.99    4.70
   2  -4  10 1315.17   36.70
  -2  -4 -10 1246.08   37.00
   2   4  10 1282.27   37.50
   2   4  10 1333.27   38.10
   3  -4  10  222.68    9.30
   3   4  10  231.08    9.80
   3   4  10  234.08    9.60
   4  -4  10  562.94   19.20
   4   4  10  584.04   19.70
   5  -4  10   80.49    6.00
   5   4  10   82.79    6.10
   6  -4  10 1050.59   33.10
   6   4  10 1052.89   33.40
  -6   5  10  881.81   30.60
  -6   5  10  857.01   28.60
  -6   5  10  890.01   26.90
  -5   5  10   11.00    3.20
  -5   5  10    5.40    1.90
  -5   5  10    7.30    2.40
  -4   5  10  590.64   21.90
  -4   5  10  564.94   19.20
  -4   5  10  574.74   19.50
  -3   5  10    1.40    1.40
  -3   5  10    1.60    1.70
  -2   5  10 1860.31   54.79
  -2   5  10 1859.71   52.09
  -1  -5  10   15.30    1.40
  -1   5  10   22.10    3.90
  -1   5  10   10.50    2.10
   0  -5  10  976.00   26.50
   0   5  10  931.81   30.20
   0   5  10  939.31   28.50
   1  -5  10  135.19    5.90
   1   5  10  133.79    7.70
   1   5  10  131.39    6.80
  -2  -5 -10 2858.61   78.59
   2  -5  10 2816.72   77.89
   2   5  10 2915.01   79.19
   2   5  10 3005.80   80.09
   3  -5  10    5.20    1.90
   3   5  10    3.80    1.80
   3   5  10    4.50    2.00
   4  -5  10  221.98    9.80
   4   5  10  220.18   10.30
   5  -5  10   20.90    3.60
   5   5  10   16.80    3.50
   6  -5  10  848.12   28.10
  -6   6  10  495.65   20.00
  -6   6  10  438.86   17.90
  -6   6  10  462.85   17.00
  -5   6  10   44.50    6.20
  -5   6  10   31.50    4.40
  -5   6  10   37.50    4.30
  -4   6  10  956.30   31.80
  -4   6  10  926.41   29.70
  -4   6  10  924.71   29.30
  -3   6  10  155.58    9.50
  -3   6  10  152.18    7.90
  -2   6  10  966.70   32.00
  -2   6  10  963.20   29.50
  -1  -6  10  121.49    4.50
  -1   6  10  125.09    6.70
  -1   6  10  109.69    7.70
   0  -6  10 1891.71   48.80
   0   6  10 1723.73   50.99
   0   6  10 1807.42   53.19
   1  -6  10   36.50    2.90
  -1  -6 -10   29.80    3.40
   1   6  10   28.50    4.10
   1   6  10   28.00    3.60
  -2  -6 -10  956.70   28.90
   2  -6  10  945.71   28.00
   2   6  10  922.51   29.30
   2   6  10  970.10   30.30
  -3  -6 -10  240.88   10.60
   3  -6  10  220.78    9.90
   3   6  10  242.28   10.80
   3   6  10  267.67   11.20
   4  -6  10  683.33   22.70
   4   6  10  698.23   23.30
   5  -6  10   51.49    5.20
   5   6  10   45.20    5.30
   6  -6  10  459.15   17.90
  -5   7  10    5.00    2.30
  -5   7  10    1.80    2.00
  -5   7  10    3.10    2.50
  -4   7  10 1532.75   48.10
  -4   7  10 1556.44   45.80
  -3   7  10   10.50    3.20
  -3   7  10    9.20    2.50
  -2   7  10  317.57   12.80
  -2   7  10  312.47   14.50
  -1  -7  10   38.00    2.90
  -1   7  10   43.10    4.10
  -1   7  10   34.60    5.00
   0  -7  10 1831.72   48.70
   0   7  10 1785.42   53.79
   0   7  10 1766.32   51.29
   1  -7  10    2.70    1.30
  -1  -7 -10    3.30    1.60
   1   7  10   -0.20    1.50
   1   7  10    4.00    2.30
   2  -7  10  381.16   13.60
  -2  -7 -10  360.26   14.20
   2   7  10  412.36   15.20
   2   7  10  405.56   16.10
  -3  -7 -10    5.80    2.20
   3  -7  10    6.50    2.10
   3   7  10    8.30    2.70
   3   7  10    8.00    2.70
   4  -7  10  859.31   28.00
   4   7  10  925.41   29.10
   5  -7  10   15.40    3.30
  -5   8  10    8.10    2.90
  -5   8  10    7.30    2.90
  -5   8  10    4.10    2.80
  -4   8  10  539.75   20.00
  -4   8  10  543.15   22.10
  -3   8  10   51.59    5.00
  -3   8  10   59.49    6.40
  -2   8  10  356.56   14.20
  -2   8  10  340.97   15.90
  -1   8  10  102.79    6.70
  -1   8  10   97.49    7.90
   0  -8  10 1366.16   38.10
   0   8  10 1383.26   41.00
  -1  -8 -10  120.19    7.00
   1  -8  10  128.29    6.20
   1   8  10  126.79    7.50
   2  -8  10  876.91   26.90
  -2  -8 -10  861.21   27.90
   2   8  10  922.21   28.70
  -3  -8 -10   50.59    5.10
   3  -8  10   49.30    4.50
   3   8  10   53.29    5.20
   4  -8  10  908.81   29.60
  -4  -8 -10  971.60   30.80
  -4   9  10  398.06   18.40
  -4   9  10  418.16   17.00
  -3   9  10   10.40    3.60
  -3   9  10    8.90    2.80
  -2   9  10  889.41   31.90
  -2   9  10  908.31   29.50
  -1   9  10   38.90    5.10
   0  -9  10  243.38    9.10
   0   9  10  232.98   11.10
   1  -9  10   13.30    2.40
  -1  -9 -10   12.90    2.90
   1   9  10   18.00    3.40
   2  -9  10 1200.78   36.00
  -2  -9 -10 1197.78   37.20
   2   9  10 1279.17   38.10
   3  -9  10    4.10    2.10
  -3  -9 -10    6.10    2.60
  -2  10  10 1081.69   38.20
  -2  10  10 1143.59   35.70
  -1  10  10   26.70    4.40
   0 -10  10  371.76   13.00
   0  10  10  385.86   15.70
   1 -10  10   63.09    4.60
  -1 -10 -10   57.79    5.50
   1  10  10   61.79    5.90
   2 -10  10  662.53   21.80
  -2 -10 -10  661.33   23.10
  -7   0  11  248.18   10.40
  -6   0  11    0.30    2.00
  -6   0  11    0.10    1.30
  -5   0  11 1625.94   45.00
  -5   0  11 1635.34   49.40
  -4   0  11    0.50    0.90
  -4   0  11    5.00    2.30
  -3   0  11  452.25   17.60
  -3   0  11  476.25   14.20
  -2   0  11    1.10    1.40
  -2   0  11    2.10    0.90
  -1   0  11 2281.17   64.19
  -1   0  11 2295.37   60.99
   0   0  11    1.10    1.20
   0   0  11    4.00    1.20
   1   0  11  838.82   23.60
   1   0  11  788.82   23.60
   1   0  11  794.02   25.10
   2   0  11    6.00    1.80
   2   0  11    1.50    1.10
   3   0  11 2067.99   57.29
   4   0  11    1.20    1.50
   5   0  11  479.45   17.40
   6   0  11   -0.40    1.80
  -7   1  11  305.47   12.30
  -6  -1  11   85.59    4.80
  -6   1  11   84.99    5.40
  -6   1  11   92.19    7.40
  -5  -1  11 1378.96   36.70
  -5   1  11 1328.27   41.60
  -5   1  11 1271.77   37.60
  -4  -1  11   81.49    6.60
  -4  -1  11   85.29    3.90
  -4   1  11   82.69    6.60
  -4   1  11   88.49    4.60
  -3  -1  11 1522.25   40.30
  -3  -1  11 1508.45   45.00
  -3   1  11 1479.85   45.00
  -3   1  11 1502.55   41.30
  -2  -1  11  158.98    8.50
  -2  -1  11  161.48    5.60
  -2   1  11  155.88    8.50
  -2   1  11  159.98    6.30
  -1  -1  11 1487.25   38.10
  -1  -1  11 1333.57   41.30
  -1   1  11 1419.06   38.70
  -1   1  11 1383.96   41.60
   0  -1  11  250.17    8.50
   0  -1  11  234.28   10.40
   0   1  11  246.78   10.60
   0   1  11  249.48    8.90
   0   1  11  255.77    8.60
   1  -1  11 1540.75   43.80
   1  -1  11 1525.55   42.10
   1   1  11 1498.35   42.30
   1   1  11 1540.85   43.80
   2  -1  11  358.56   12.70
   2  -1  11  337.97   12.00
   2   1  11  342.07   12.20
   2   1  11  345.67   12.70
   3  -1  11 1481.75   42.30
   3   1  11 1497.25   42.60
   4  -1  11  106.09    6.40
   4   1  11  120.19    6.70
   5  -1  11 1111.59   34.10
   5   1  11 1126.99   34.40
   6  -1  11   58.59    5.40
   6   1  11   53.29    5.50
  -6   2  11   20.80    3.10
  -6   2  11   16.00    4.00
  -5   2  11  556.74   18.50
  -5   2  11  581.34   21.80
  -4   2  11   16.90    3.60
  -4   2  11   22.90    2.80
  -3  -2  11 1864.61   49.30
  -3   2  11 1829.92   53.99
  -3   2  11 1814.12   50.29
  -2  -2  11   41.10    4.30
  -2  -2  11   40.10    2.10
  -2   2  11   45.50    2.20
  -2   2  11   44.80    2.10
  -2   2  11   38.50    4.30
  -2   2  11   40.50    3.10
  -1  -2  11  375.16   14.50
  -1  -2  11  393.56   11.50
  -1   2  11  370.36   12.00
  -1   2  11  378.56   12.60
  -1   2  11  386.36   14.90
   0  -2  11   99.59    6.00
   0  -2  11   94.99    4.30
   0   2  11   93.29    6.00
   0   2  11   93.49    4.90
   1  -2  11 2757.62   72.69
   1   2  11 2746.93   73.39
   1   2  11 2657.43   74.59
   2  -2  11   78.89    4.50
   2   2  11   68.69    4.50
   2   2  11   66.09    4.70
   3  -2  11  781.42   23.90
   3   2  11  762.12   24.10
   4  -2  11   65.39    5.00
   4   2  11   65.29    5.00
   5  -2  11 1666.33   48.80
   5   2  11 1711.83   49.20
   6  -2  11   76.59    6.30
   6   2  11   68.89    6.00
  -6   3  11  108.29    6.70
  -6   3  11  109.59    8.30
  -5   3  11  500.95   19.40
  -5   3  11  429.06   16.00
  -4   3  11    7.80    1.90
  -4   3  11    9.10    2.90
  -3   3  11 1533.55   43.40
  -3   3  11 1511.75   42.00
  -3   3  11 1577.64   41.80
  -3   3  11 1563.64   46.90
  -2   3  11  100.39    7.00
  -2   3  11  102.99    5.30
  -1  -3  11  635.44   17.40
  -1   3  11  615.74   19.30
  -1   3  11  592.84   21.30
   0  -3  11  151.08    5.80
   0   3  11  155.88    8.20
   0   3  11  150.68    6.90
   1  -3  11 1963.60   53.29
   1   3  11 2008.90   54.39
   1   3  11 1926.41   55.49
   2  -3  11   62.59    4.20
   2   3  11   66.09    4.70
   2   3  11   63.79    4.50
   3  -3  11  735.03   22.80
   3   3  11  735.03   23.40
   4  -3  11  124.49    6.90
   4   3  11  121.99    7.10
   5  -3  11 1570.24   47.10
   5   3  11 1671.33   47.70
   6  -3  11   67.49    6.00
   6   3  11   54.69    5.50
  -6   4  11  125.29    9.10
  -6   4  11  122.69    7.50
  -5   4  11 1295.57   36.00
  -5   4  11 1359.86   42.30
  -5   4  11 1286.57   38.70
  -4   4  11    1.60    1.10
  -4   4  11    3.70    1.70
  -4   4  11    0.50    1.90
  -3   4  11  883.41   27.10
  -3   4  11  913.01   30.30
  -2   4  11  140.79    6.80
  -2   4  11  141.39    8.50
  -1  -4  11 2529.35   63.69
  -1   4  11 2359.06   66.29
  -1   4  11 2377.66   68.69
   0  -4  11  246.78    8.20
   0   4  11  244.38    9.70
   0   4  11  221.68   10.70
   1  -4  11 1141.19   33.40
   1   4  11 1221.08   36.30
   1   4  11 1231.78   35.10
   2  -4  11   30.60    3.00
   2   4  11   25.90    3.60
   2   4  11   33.10    3.90
   3  -4  11 1883.21   52.69
   3   4  11 1901.81   53.49
   3   4  11 1873.71   53.89
   4  -4  11  112.39    6.60
   4   4  11  106.19    6.90
   5  -4  11  328.77   13.50
   5   4  11  328.67   13.70
   6  -4  11   41.80    5.10
   6   4  11   40.90    5.40
  -6   5  11    2.50    1.30
  -6   5  11    3.00    2.70
  -6   5  11    2.90    2.10
  -5   5  11 1039.20   34.80
  -5   5  11 1016.90   30.30
  -5   5  11 1021.60   31.80
  -4   5  11   44.70    4.00
  -4   5  11   40.70    5.60
  -4   5  11   41.90    4.10
  -3   5  11  726.13   25.60
  -3   5  11  693.03   22.70
  -2   5  11    6.40    2.40
  -2   5  11   10.70    2.30
  -1  -5  11 3489.35   87.09
  -1   5  11 3102.19   89.99
  -1   5  11 3125.29   87.69
   0  -5  11   10.50    1.70
   0   5  11    8.80    2.20
   0   5  11   12.50    3.10
   1  -5  11  582.74   17.50
   1   5  11  563.34   20.20
   1   5  11  547.05   18.80
   2  -5  11  116.39    5.90
   2   5  11  112.89    6.70
   2   5  11  124.79    7.40
   3  -5  11 1566.64   45.70
   3   5  11 1634.94   46.70
   3   5  11 1625.64   46.80
   4  -5  11    4.40    2.00
   4   5  11   10.60    2.90
   5  -5  11  235.58   10.90
   5   5  11  238.88   11.50
  -5   6  11  601.84   23.00
  -5   6  11  538.75   20.10
  -5   6  11  561.54   19.50
  -4   6  11   99.69    8.00
  -4   6  11   82.99    6.10
  -4   6  11   93.39    6.30
  -3   6  11 1093.39   35.80
  -3   6  11 1069.79   32.90
  -2   6  11  117.39    6.80
  -2   6  11  133.99    8.70
  -1   6  11 1859.21   53.79
  -1   6  11 1939.71   56.59
   0  -6  11  113.89    4.90
   0   6  11   99.59    6.30
   0   6  11  109.39    7.70
   1  -6  11 1563.04   42.80
   1   6  11 1528.05   44.80
   1   6  11 1534.55   46.30
   2  -6  11  204.08    8.60
   2   6  11  205.58    9.70
   2   6  11  209.48   10.40
   3  -6  11  751.52   24.30
   3   6  11  805.92   25.80
   3   6  11  780.22   25.60
   4  -6  11   47.60    4.70
   4   6  11   44.50    5.10
   5  -6  11  304.27   13.20
   5   6  11  304.27   13.60
  -5   7  11  299.77   15.20
  -5   7  11  309.27   13.60
  -5   7  11  300.27   13.30
  -4   7  11    5.50    2.30
  -4   7  11    4.80    2.80
  -3   7  11 1771.92   50.89
  -3   7  11 1730.03   53.59
  -2   7  11    7.40    3.00
  -2   7  11    4.10    2.00
  -1   7  11  865.21   27.30
  -1   7  11  827.62   29.30
   0  -7  11   20.60    2.30
   0   7  11   16.90    3.90
   0   7  11   20.00    3.30
   1  -7  11 1830.02   48.50
   1   7  11 1753.12   52.39
   1   7  11 1670.63   50.49
   2  -7  11   34.90    3.50
   2   7  11   30.10    4.30
   2   7  11   31.10    4.70
  -3  -7 -11  507.15   23.20
   3  -7  11  454.05   16.60
   3   7  11  494.35   18.50
   3   7  11  473.45   18.00
   4  -7  11    3.50    2.10
   4   7  11    5.10    2.60
  -4   8  11   49.10    5.80
  -4   8  11   49.99    6.60
  -3   8  11  671.03   22.90
  -3   8  11  634.74   25.10
  -2   8  11   36.70    5.60
  -2   8  11   47.50    4.80
  -1   8  11  650.43   25.00
  -1   8  11  696.63   23.30
   0  -8  11   69.49    4.00
   0   8  11   56.89    5.20
   0   8  11   59.49    6.30
   1  -8  11 1092.39   30.80
   1   8  11 1025.00   33.00
   1   8  11 1032.20   34.80
   2  -8  11  200.08    9.00
   2   8  11  215.78   11.60
   2   8  11  204.38   10.40
   3  -8  11  621.54   21.00
  -3  -8 -11  591.04   23.80
   3   8  11  643.54   24.10
   3   8  11  652.93   22.50
   4  -8  11   73.09    6.00
   4   8  11   76.59    7.50
  -3   9  11  435.46   19.70
  -3   9  11  451.85   17.60
  -2   9  11   37.60    4.90
  -2   9  11   32.40    5.60
  -1   9  11 1186.88   37.30
  -1   9  11 1213.88   40.10
   0  -9  11   51.69    3.70
   0   9  11   52.99    5.30
   0   9  11   51.59    6.80
   1  -9  11  415.86   14.30
   1   9  11  405.46   18.20
   1   9  11  416.26   16.60
   2  -9  11   48.40    4.40
   2   9  11   51.09    6.80
   2   9  11   39.90    5.30
   3  -9  11 1069.69   32.90
  -3  -9 -11 1060.29   37.00
   3   9  11 1082.99   34.50
  -1  10  11  965.60   34.80
  -1  10  11  992.30   32.10
   0 -10  11   26.00    3.30
   0  10  11   25.60    5.40
   0  10  11   32.00    4.80
   1 -10  11  410.26   14.50
   1  10  11  409.76   16.90
   1  10  11  413.66   18.70
  -6   0  12  577.74   18.40
  -5   0  12   -1.10    1.70
  -5   0  12    0.10    1.00
  -4   0  12 2768.82   71.89
  -4   0  12 2615.34   76.89
  -3   0  12    1.70    1.90
  -3   0  12    2.20    1.00
  -2   0  12  835.42   28.10
  -2   0  12  885.91   24.50
  -1   0  12    1.70    1.00
  -1   0  12   -0.50    1.20
   0   0  12 2050.49   57.89
   0   0  12 2029.50   55.19
   1   0  12   -0.20    1.20
   1   0  12    1.50    0.90
   1   0  12    0.90    1.10
   2   0  12  684.53   21.70
   2   0  12  652.23   20.80
   3   0  12    3.10    1.60
   4   0  12 1539.35   44.70
   5   0  12   -0.50    1.60
   6   0  12  129.79    8.20
  -6   1  12  920.01   27.70
  -6   1  12  906.71   31.70
  -5   1  12   91.49    5.10
  -5   1  12   90.59    7.50
  -4  -1  12  631.64   18.10
  -4  -1  12  603.44   22.70
  -4   1  12  631.34   19.10
  -4   1  12  622.04   23.10
  -3  -1  12  187.08    6.40
  -3  -1  12  175.38    9.80
  -3   1  12  170.28    9.70
  -3   1  12  173.68    7.10
  -2  -1  12 1323.27   40.20
  -2  -1  12 1379.16   35.90
  -2   1  12 1272.47   36.70
  -2   1  12 1300.57   40.30
  -1  -1  12  222.68    7.70
  -1  -1  12  221.08   10.40
  -1   1  12  218.38    8.20
  -1   1  12  215.78   10.40
   0  -1  12 1759.12   48.10
   0  -1  12 1797.82   51.09
   0   1  12 1831.12   47.80
   0   1  12 1743.33   51.09
   0   1  12 1745.23   48.60
   1  -1  12  184.28    7.60
   1  -1  12  196.28    9.10
   1   1  12  202.78    9.10
   1   1  12  183.28    7.80
   2  -1  12 1405.56   39.70
   2  -1  12 1321.97   38.70
   2   1  12 1392.56   39.80
   2   1  12 1345.27   39.00
   3  -1  12   46.10    4.00
   3   1  12   46.60    4.20
   4  -1  12 1103.49   33.40
   4   1  12 1112.79   33.60
   5  -1  12  107.69    6.90
   5   1  12   97.69    6.70
   6  -1  12  326.47   13.80
   6   1  12  304.27   13.70
  -6   2  12 1407.66   44.50
  -6   2  12 1363.46   40.40
  -5   2  12   32.60    3.60
  -5   2  12   29.20    5.10
  -4   2  12  690.43   21.90
  -4   2  12  744.93   26.00
  -3   2  12   80.19    4.60
  -3   2  12   81.69    6.60
  -2  -2  12 1850.91   48.00
  -2  -2  12 1746.23   52.69
  -2   2  12 1835.72   49.80
  -2   2  12 1802.12   53.29
  -1  -2  12   93.49    4.00
  -1  -2  12   93.29    6.30
  -1   2  12   87.99    4.00
  -1   2  12   89.49    4.80
  -1   2  12   78.39    6.10
   0  -2  12  445.96   13.50
   0   2  12  432.36   16.20
   0   2  12  402.86   14.10
   1  -2  12   88.99    4.70
   1   2  12   88.19    5.10
   1   2  12   80.79    5.70
   2  -2  12 2237.08   61.69
   2   2  12 2299.57   62.99
   2   2  12 2239.68   62.19
   3  -2  12    8.50    2.10
   3   2  12   11.50    2.50
   4  -2  12  533.25   18.30
   4   2  12  529.25   18.60
   5  -2  12   52.29    5.00
   5   2  12   57.39    5.30
   6  -2  12  897.11   29.10
   6   2  12  872.61   29.10
  -6   3  12 1373.56   44.10
  -6   3  12 1362.06   40.40
  -5   3  12  100.99    8.10
  -5   3  12   97.29    6.00
  -4   3  12  751.92   23.60
  -4   3  12  768.42   27.20
  -3   3  12   21.00    4.10
  -3   3  12   17.30    2.60
  -2   3  12 2119.19   60.99
  -2   3  12 2065.89   57.49
  -1  -3  12   74.69    3.40
  -1   3  12   67.59    4.40
  -1   3  12   71.09    5.90
   0  -3  12  551.64   16.10
   0   3  12  528.85   19.20
   0   3  12  514.85   17.30
   1  -3  12  130.49    5.80
   1   3  12  109.49    7.00
   1   3  12  133.59    6.60
   2  -3  12 1318.77   36.90
   2   3  12 1262.67   37.60
   2   3  12 1289.07   38.20
   3  -3  12   60.99    4.50
   3   3  12   62.79    4.90
   4  -3  12  564.84   19.10
   4   3  12  545.95   19.50
   5  -3  12   47.90    4.90
   5   3  12   52.19    5.20
   6  -3  12 1030.10   32.50
   6   3  12  994.50   32.70
  -6   4  12  276.77   14.40
  -6   4  12  286.17   12.20
  -5   4  12  142.29    9.70
  -5   4  12  126.49    7.20
  -4   4  12 1132.29   34.80
  -4   4  12 1178.08   32.40
  -4   4  12 1224.08   38.80
  -3   4  12   21.30    2.50
  -3   4  12   29.50    4.80
  -3   4  12   30.40    3.60
  -2   4  12  555.24   18.20
  -2   4  12  546.15   20.90
  -1  -4  12   77.19    3.40
  -1   4  12   72.79    4.80
  -1   4  12   69.99    6.10
   0  -4  12 2191.08   57.19
   0   4  12 2098.79   61.29
   0   4  12 2103.79   59.09
   1  -4  12  126.59    5.80
   1   4  12  120.39    7.40
   1   4  12  129.89    6.80
   2  -4  12  910.51   27.10
   2   4  12  911.21   28.20
   2   4  12  915.51   28.80
   3  -4  12   32.40    3.80
   3   4  12   29.30    3.90
   4  -4  12 1211.58   36.50
   4   4  12 1233.38   37.30
   5  -4  12   57.59    5.40
   5   4  12   63.19    5.80
  -5   5  12    1.50    1.70
  -5   5  12    0.30    2.30
  -5   5  12    2.10    1.20
  -4   5  12 1558.04   44.00
  -4   5  12 1546.65   48.60
  -4   5  12 1548.25   45.10
  -3   5  12   85.89    5.70
  -3   5  12   92.49    7.60
  -2   5  12  892.11   27.20
  -2   5  12  853.41   29.80
  -1   5  12    2.70    2.10
  -1   5  12    0.60    1.40
   0  -5  12 2792.82   70.79
   0   5  12 2602.24   73.09
   0   5  12 2572.04   75.09
   1  -5  12   11.60    2.00
   1   5  12   15.70    2.90
   1   5  12   17.90    3.50
   2  -5  12  373.36   13.20
   2   5  12  370.26   14.30
   2   5  12  379.06   14.90
   3  -5  12   13.60    2.70
   3   5  12   19.80    3.50
   4  -5  12 1177.08   34.70
   4   5  12 1098.59   35.30
   5  -5  12    2.80    2.20
   5   5  12    0.70    2.20
  -5   6  12   58.29    6.70
  -5   6  12   57.09    4.50
  -5   6  12   53.49    5.30
  -4   6  12  926.71   29.60
  -4   6  12  902.61   28.80
  -4   6  12  965.80   32.90
  -3   6  12  176.08   10.80
  -3   6  12  176.08    8.90
  -2   6  12 1122.09   36.60
  -2   6  12 1100.19   33.70
  -1   6  12   68.49    5.20
  -1   6  12   53.19    5.80
   0  -6  12 1507.25   39.70
   0   6  12 1390.76   44.30
   0   6  12 1420.16   42.30
   1  -6  12  136.09    6.20
   1   6  12  132.29    7.50
   1   6  12  121.09    8.20
   2  -6  12 1007.60   29.50
   2   6  12 1011.80   32.10
   2   6  12  959.60   31.10
   3  -6  12   73.49    5.20
   3   6  12   67.29    5.80
   4  -6  12  581.34   20.40
   4   6  12  616.14   21.70
  -4   7  12  169.98    9.30
  -4   7  12  190.98    9.80
  -4   7  12  169.08   11.10
  -3   7  12   16.90    3.30
  -3   7  12   16.20    4.10
  -2   7  12 1257.87   38.50
  -2   7  12 1293.37   41.50
  -1   7  12    2.30    1.90
  -1   7  12    0.10    1.90
   0  -7  12  821.22   23.10
   0   7  12  791.32   25.90
   0   7  12  756.92   27.80
   1  -7  12   31.60    3.20
   1   7  12   31.20    5.00
   1   7  12   33.70    4.50
   2  -7  12 1504.55   44.00
   2   7  12 1584.74   47.40
   2   7  12 1563.74   46.20
   3  -7  12    4.70    2.10
   3   7  12    3.00    2.30
   4  -7  12  352.96   14.20
   4   7  12  355.46   15.20
  -3   8  12   87.29    8.00
  -3   8  12   74.79    6.20
  -2   8  12  903.31   28.50
  -2   8  12  819.22   30.70
  -1   8  12  125.39    9.30
  -1   8  12  123.99    7.70
   0   8  12  494.05   20.30
   0   8  12  475.85   18.20
   1  -8  12   54.19    4.10
   1   8  12   49.30    6.40
   1   8  12   55.59    5.50
   2  -8  12  960.30   28.60
   2   8  12  927.71   30.60
   2   8  12  922.91   31.70
   3  -8  12   50.39    4.90
   3   8  12   54.69    6.20
  -2   9  12  297.77   13.50
  -2   9  12  299.97   15.60
  -1   9  12   63.79    5.90
  -1   9  12   58.19    7.40
   0   9  12 1154.38   38.70
   0   9  12 1144.89   36.30
   1  -9  12   36.60    3.60
   1   9  12   34.60    4.90
   1   9  12   36.30    5.70
   2  -9  12  370.76   14.10
   2   9  12  375.46   16.00
   2   9  12  399.46   17.40
  -5   0  13  260.47    9.60
  -5   0  13  273.47   14.00
  -4   0  13    1.40    1.10
  -4   0  13    0.40    1.90
  -3   0  13 1534.75   47.10
  -3   0  13 1535.35   42.00
  -2   0  13    0.80    0.90
  -2   0  13    3.10    2.10
  -1   0  13 1245.58   38.70
  -1   0  13 1276.97   35.20
   0   0  13    1.90    1.20
   0   0  13    3.30    1.80
   1   0  13 4125.09  108.79
   1   0  13 3900.81  106.39
   2   0  13    1.80    1.60
   2   0  13    5.60    1.80
   3   0  13  738.63   23.50
   4   0  13    2.60    1.90
   5   0  13 1078.69   33.70
  -6   1  13   72.39    4.90
  -6   1  13   69.89    7.20
  -5   1  13  888.61   26.60
  -5   1  13  901.91   31.60
  -4  -1  13  214.98   11.50
  -4   1  13  202.58   11.40
  -4   1  13  195.98    8.00
  -3  -1  13 1372.76   42.60
  -3  -1  13 1363.06   36.90
  -3   1  13 1350.76   38.00
  -3   1  13 1360.86   42.70
  -2  -1  13   23.10    2.10
  -2  -1  13   14.80    3.30
  -2   1  13   24.70    2.50
  -2   1  13   20.20    3.90
  -1  -1  13 1002.20   28.10
  -1  -1  13  991.50   31.80
  -1   1  13 1003.40   32.00
  -1   1  13 1000.50   28.80
   0  -1  13  109.39    7.00
   0  -1  13  112.39    5.20
   0   1  13  111.19    7.10
   0   1  13  109.49    5.60
   0   1  13  116.19    4.40
   1  -1  13 2384.96   64.19
   1  -1  13 2407.36   66.49
   1   1  13 2344.17   64.49
   1   1  13 2325.97   66.29
   2  -1  13  262.17   10.20
   2   1  13  263.27   11.10
   2   1  13  256.27   10.40
   3  -1  13  746.33   24.10
   3   1  13  792.82   24.60
   4  -1  13   14.60    3.00
   4   1  13   11.80    2.80
   5  -1  13  841.12   26.60
   5   1  13  761.12   26.30
  -5   2  13 1369.26   39.90
  -5   2  13 1422.46   44.90
  -4   2  13   21.40    4.40
  -4   2  13   22.20    2.80
  -3   2  13  613.74   23.40
  -3   2  13  646.64   19.80
  -2  -2  13    1.30    0.80
  -2   2  13    3.80    1.40
  -2   2  13    2.30    2.00
  -1  -2  13 2390.46   62.49
  -1   2  13 2442.16   61.69
  -1   2  13 2281.67   67.09
  -1   2  13 2272.47   63.79
   0  -2  13  107.19    5.10
   0   2  13  114.19    7.20
   0   2  13  107.59    5.70
   1  -2  13  574.74   17.60
   1   2  13  557.34   19.70
   1   2  13  542.25   18.10
   2  -2  13    5.80    1.80
   2   2  13    4.40    2.00
   2   2  13    5.30    1.80
   3  -2  13 1595.64   45.90
   3   2  13 1623.84   46.50
   4  -2  13   22.00    3.40
   4   2  13   17.20    3.40
   5  -2  13  419.76   15.80
   5   2  13  386.66   15.80
  -5   3  13 1222.88   36.90
  -5   3  13 1293.87   41.60
  -4   3  13   29.50    3.50
  -4   3  13   35.90    5.60
  -3   3  13  612.64   19.60
  -3   3  13  601.74   23.00
  -2   3  13  123.69    4.70
  -2   3  13  114.69    4.60
  -2   3  13  112.39    6.10
  -2   3  13  125.19    8.30
  -1  -3  13 1612.14   41.60
  -1   3  13 1476.45   43.40
  -1   3  13 1520.25   46.50
   0  -3  13   91.99    4.40
   0   3  13   77.69    5.00
   0   3  13   78.89    6.30
   1  -3  13 1096.79   30.90
   1   3  13 1052.29   32.00
   1   3  13 1074.79   33.50
   2  -3  13   17.20    2.70
   2   3  13   13.10    2.90
   2   3  13   24.00    3.40
   3  -3  13 1353.76   39.10
   3   3  13 1338.67   39.90
   4  -3  13  166.58    8.60
   4   3  13  178.28    9.20
   5  -3  13  345.77   14.30
   5   3  13  361.26   14.90
  -5   4  13  546.45   22.10
  -5   4  13  508.65   18.30
  -4   4  13   69.99    5.20
  -4   4  13   75.09    7.30
  -3   4  13 1685.03   47.50
  -3   4  13 1675.53   51.49
  -3   4  13 1652.43   45.40
  -2   4  13   56.69    6.00
  -2   4  13   59.99    4.60
  -1   4  13  786.42   27.30
  -1   4  13  781.72   24.40
   0  -4  13  135.59    5.70
   0   4  13  125.19    8.20
   0   4  13  136.19    7.10
   1  -4  13  763.42   22.40
   1   4  13  713.13   23.80
   1   4  13  767.02   25.50
   2  -4  13  132.49    6.60
   2   4  13  133.39    7.50
   2   4  13  133.59    7.80
   3  -4  13  490.15   17.50
   3   4  13  547.75   18.80
   4  -4  13  147.79    7.90
   4   4  13  133.99    8.20
   5  -4  13  967.60   30.90
   5   4  13  973.60   31.60
  -5   5  13  247.68   11.20
  -5   5  13  240.88   13.70
  -4   5  13    1.00    2.50
  -4   5  13    1.40    1.70
  -4   5  13    3.00    1.30
  -3   5  13 1356.36   39.60
  -3   5  13 1345.67   43.30
  -3   5  13 1324.37   38.60
  -2   5  13   20.40    3.20
  -2   5  13   19.70    4.10
  -1   5  13  579.14   19.50
  -1   5  13  571.64   21.90
   0  -5  13   33.10    2.70
   0   5  13   30.00    3.80
   0   5  13   29.70    4.60
   1  -5  13 1973.40   53.39
   1   5  13 1957.20   55.39
   1   5  13 1905.71   56.89
   2  -5  13    5.90    1.80
   2   5  13    2.80    2.00
   2   5  13    5.90    2.50
   3  -5  13  381.06   14.30
   3   5  13  396.46   15.50
   4  -5  13    3.00    2.10
   4   5  13    6.50    2.80
  -4   6  13   91.39    8.30
  -4   6  13  101.99    6.00
  -4   6  13   96.19    6.70
  -3   6  13  774.72   28.40
  -3   6  13  767.12   25.30
  -2   6  13   28.40    3.90
  -2   6  13   47.60    6.50
  -1   6  13 1059.19   35.50
  -1   6  13 1080.29   32.90
   0  -6  13   19.90    2.30
   0   6  13   25.80    4.60
   0   6  13   18.20    3.30
   1  -6  13  603.64   18.30
   1   6  13  566.44   21.50
   1   6  13  559.54   20.20
   2  -6  13  186.28    8.30
   2   6  13  188.38   10.20
   2   6  13  185.78    9.70
   3  -6  13  967.20   29.50
   3   6  13  959.50   31.00
   4  -6  13   21.40    3.60
   4   6  13   18.80    4.00
  -3   7  13  364.46   17.40
  -3   7  13  370.56   15.00
  -2   7  13    3.80    2.70
  -2   7  13    4.80    2.20
  -1   7  13 1086.99   36.70
  -1   7  13 1111.89   34.20
   0   7  13    1.40    2.40
   0   7  13    7.40    2.60
   1  -7  13  165.98    7.20
   1   7  13  134.89    8.40
   1   7  13  146.59    9.50
   2  -7  13    5.60    2.00
   2   7  13    4.20    2.60
   2   7  13    9.50    3.10
   3  -7  13  990.70   30.40
   3   7  13  984.10   32.10
  -2   8  13   46.30    5.40
  -2   8  13   43.30    6.40
  -1   8  13  875.41   28.90
  -1   8  13  884.11   31.70
   0   8  13   98.89    8.40
   0   8  13   98.19    7.20
   1  -8  13  353.56   12.70
   1   8  13  366.06   15.30
   1   8  13  358.06   16.60
   2  -8  13   57.49    4.80
   2   8  13   56.19    6.40
   2   8  13   64.19    6.10
  -5   0  14    2.30    2.50
  -4   0  14   57.89    3.60
  -4   0  14   59.69    6.50
  -3   0  14    1.20    1.00
  -3   0  14    5.30    2.70
  -2   0  14 1925.21   57.39
  -2   0  14 1941.61   52.49
  -1   0  14    1.50    1.20
  -1   0  14    5.40    2.50
   0   0  14  737.63   25.00
   0   0  14  723.13   22.00
   1   0  14    0.40    1.20
   1   0  14    0.90    1.70
   2   0  14 2369.86   66.49
   2   0  14 2469.45   67.89
   3   0  14   -0.30    1.50
   4   0  14  312.37   13.00
   5   0  14    0.80    2.10
  -5   1  14   70.69    4.60
  -5   1  14   70.99    7.30
  -4  -1  14  516.65   21.10
  -4   1  14  542.05   17.00
  -4   1  14  543.25   21.80
  -3  -1  14  126.39    8.80
  -3   1  14  130.39    6.10
  -3   1  14  134.79    9.10
  -2  -1  14 1448.76   38.70
  -2  -1  14 1418.16   43.90
  -2   1  14 1402.56   39.60
  -2   1  14 1384.86   43.90
  -1  -1  14    6.90    2.60
  -1  -1  14    8.50    1.60
  -1   1  14    4.60    1.50
  -1   1  14    2.60    2.10
   0  -1  14 1125.99   34.70
   0  -1  14 1083.79   31.20
   0   1  14 1067.39   34.40
   0   1  14 1105.99   31.80
   1  -1  14  181.88    7.90
   1  -1  14  179.98    9.30
   1   1  14  180.58    9.40
   1   1  14  187.98    8.20
   2  -1  14 1559.74   44.90
   2   1  14 1612.04   46.40
   2   1  14 1576.04   45.30
   3  -1  14   99.79    6.10
   3   1  14   98.39    6.30
   4  -1  14  694.93   23.50
   4   1  14  725.03   23.90
   5  -1  14   22.10    3.90
   5   1  14   16.40    3.60
  -5   2  14    7.40    3.30
  -5   2  14    9.70    2.30
  -4   2  14 1180.78   38.20
  -4   2  14 1077.69   32.60
  -3   2  14   59.79    4.20
  -3   2  14   58.59    6.30
  -2   2  14  612.24   19.20
  -2   2  14  606.34   22.90
  -1  -2  14   18.00    2.20
  -1   2  14   17.90    2.60
  -1   2  14   15.70    3.60
   0  -2  14 1759.62   48.50
   0   2  14 1795.22   52.49
   0   2  14 1764.72   49.60
   1  -2  14    4.00    1.50
   1   2  14    0.90    1.50
   1   2  14   -0.40    1.40
   2  -2  14  565.94   18.80
   2   2  14  590.54   20.30
   2   2  14  573.54   19.30
   3  -2  14   63.29    4.90
   3   2  14   58.59    5.10
   4  -2  14  994.40   31.50
   4   2  14 1053.19   32.30
   5  -2  14   34.60    4.70
   5   2  14   40.20    5.20
  -5   3  14   33.50    3.90
  -5   3  14   28.40    5.30
  -4   3  14 1197.28   39.90
  -4   3  14 1199.38   35.20
  -3   3  14   49.70    6.60
  -3   3  14   49.40    4.10
  -2   3  14  601.74   19.80
  -2   3  14  637.04   23.50
  -1  -3  14  239.78    8.30
  -1   3  14  229.98   12.00
  -1   3  14  241.98    9.90
   0  -3  14 1277.17   34.90
   0   3  14 1252.77   39.00
   0   3  14 1197.58   36.20
   1  -3  14   39.10    3.30
   1   3  14   39.00    4.90
   1   3  14   34.10    3.90
   2  -3  14  404.96   14.30
   2   3  14  406.66   15.10
   2   3  14  406.86   15.80
   3  -3  14   74.59    5.30
   3   3  14   80.89    6.00
   4  -3  14 1176.88   35.10
   4   3  14 1132.19   35.80
  -4   4  14  715.33   27.10
  -4   4  14  694.33   22.80
  -3   4  14   86.99    5.70
  -3   4  14   89.79    7.90
  -2   4  14 1252.27   37.00
  -2   4  14 1264.77   40.80
  -1   4  14  134.99    9.00
  -1   4  14  137.29    7.30
   0  -4  14  830.62   23.30
   0   4  14  754.92   27.20
   0   4  14  795.92   25.20
   1  -4  14   97.19    5.20
   1   4  14   95.19    6.20
   1   4  14   91.99    6.90
   2  -4  14 1193.18   34.40
   2   4  14 1155.48   36.40
   2   4  14 1177.38   35.70
   3  -4  14   85.79    5.80
   3   4  14   88.19    6.40
   4  -4  14  391.36   14.90
   4   4  14  372.86   15.60
  -4   5  14  449.56   20.00
  -4   5  14  442.86   16.50
  -3   5  14    3.90    1.40
  -3   5  14    3.40    2.80
  -3   5  14    2.80    1.90
  -2   5  14 1218.98   36.40
  -2   5  14 1210.58   40.00
  -1   5  14    3.60    2.50
  -1   5  14    4.40    2.10
   0  -5  14  460.85   14.10
   0   5  14  435.06   18.10
   0   5  14  421.66   16.10
   1  -5  14    0.10    1.20
   1   5  14    0.40    1.90
   1   5  14    0.20    1.80
   2  -5  14 1357.66   38.70
   2   5  14 1330.27   40.30
   2   5  14 1325.47   41.20
   3  -5  14    3.90    2.10
   3   5  14   11.50    3.20
   4  -5  14  507.05   18.60
   4   5  14  530.95   19.80
  -3   6  14   57.99    5.20
  -3   6  14   71.89    7.50
  -2   6  14  601.84   20.90
  -2   6  14  595.04   23.70
  -1   6  14   24.50    4.90
  -1   6  14   21.10    3.60
   0   6  14 1107.99   36.10
   0   6  14 1054.39   33.50
   1  -6  14  184.58    7.70
   1   6  14  163.68   10.10
   1   6  14  171.98    9.30
   2  -6  14  634.54   20.70
   2   6  14  650.73   22.70
   2   6  14  659.13   23.60
   3  -6  14   39.80    4.40
   3   6  14   37.10    5.10
  -2   7  14  359.66   17.20
  -2   7  14  355.86   14.70
  -1   7  14    2.80    2.20
  -1   7  14    1.60    2.50
   0   7  14 1170.28   39.50
   0   7  14 1250.27   37.70
   1  -7  14    6.70    2.00
   1   7  14    4.70    2.60
   1   7  14    5.40    2.90
   2  -7  14  268.27   11.10
   2   7  14  272.17   12.90
   2   7  14  300.67   14.00
  -4   0  15   -0.60    2.40
  -3   0  15  332.57   15.80
  -3   0  15  336.87   11.40
  -2   0  15    1.00    1.20
  -2   0  15    4.80    2.70
  -1   0  15 1437.76   45.50
  -1   0  15 1518.65   41.40
   0   0  15    0.90    1.20
   0   0  15    3.90    2.40
   1   0  15  471.15   17.70
   1   0  15  446.76   15.60
   2   0  15    1.50    1.60
   2   0  15    1.30    1.80
   3   0  15  984.50   30.50
   4   0  15    0.20    1.90
  -4   1  15   62.69    7.10
  -4   1  15   66.59    4.40
  -3  -1  15  671.43   24.50
  -3   1  15  615.64   19.60
  -3   1  15  638.74   24.60
  -2  -1  15  107.29    8.00
  -2  -1  15  102.49    4.90
  -2   1  15  112.39    5.70
  -2   1  15  109.59    8.20
  -1  -1  15 1372.56   43.40
  -1  -1  15 1460.85   39.20
  -1   1  15 1419.66   43.80
  -1   1  15 1376.06   39.80
   0  -1  15   64.49    4.20
   0  -1  15   67.19    5.90
   0   1  15   64.49    4.50
   0   1  15   55.79    5.60
   1  -1  15  852.91   26.00
   1   1  15  887.71   28.60
   1   1  15  844.22   26.30
   2  -1  15   74.79    5.20
   2   1  15   88.99    6.30
   2   1  15   76.49    5.50
   3  -1  15  677.13   22.60
   3   1  15  701.63   22.90
   4  -1  15   76.59    6.00
   4   1  15   70.89    6.00
  -4   2  15    1.10    2.50
  -4   2  15    2.00    1.50
  -3   2  15 1300.57   37.30
  -3   2  15 1305.37   42.50
  -2   2  15   27.10    3.30
  -2   2  15   27.60    4.90
  -1  -2  15  543.05   16.70
  -1   2  15  575.84   21.40
  -1   2  15  527.25   17.80
   0  -2  15   52.19    3.70
   0   2  15   47.40    2.60
   0   2  15   46.30    4.10
   0   2  15   39.30    5.30
   1  -2  15 1470.25   41.50
   1   2  15 1439.16   42.20
   1   2  15 1484.25   44.40
   2  -2  15   17.40    2.90
   2   2  15   16.70    3.40
   2   2  15   16.10    3.00
   3  -2  15  209.38    9.70
   3   2  15  219.68   10.40
   4  -2  15   30.70    4.20
   4   2  15   33.50    4.60
  -4   3  15   31.40    5.60
  -4   3  15   27.20    3.60
  -3   3  15 1600.94   49.90
  -3   3  15 1544.55   44.80
  -2   3  15  112.69    8.50
  -2   3  15  100.09    6.00
  -1   3  15  533.55   21.30
  -1   3  15  562.34   18.50
   0  -3  15    9.50    1.90
   0   3  15   10.70    3.30
   0   3  15   10.00    2.40
   1  -3  15  907.61   26.90
   1   3  15  904.61   28.10
   1   3  15  892.21   29.90
   2  -3  15   65.19    4.80
   2   3  15   66.59    5.90
   2   3  15   63.39    5.40
   3  -3  15  310.27   12.40
   3   3  15  310.97   13.20
   4  -3  15   54.99    5.20
   4   3  15   56.69    6.20
  -3   4  15  409.06   15.60
  -3   4  15  461.55   19.80
  -2   4  15  110.49    6.50
  -2   4  15  107.19    8.60
  -1   4  15 1156.28   37.50
  -1   4  15 1103.49   33.90
   0  -4  15    0.90    1.20
   0   4  15   -1.40    1.80
   0   4  15    1.60    1.70
   1  -4  15  774.42   23.00
   1   4  15  732.83   24.60
   1   4  15  749.82   26.30
   2  -4  15   73.89    5.10
   2   4  15   69.99    5.80
   2   4  15   78.09    6.50
   3  -4  15 1172.18   34.50
   3   4  15 1111.89   35.60
  -3   5  15  399.16   15.60
  -3   5  15  424.26   19.10
  -2   5  15    1.50    1.70
  -2   5  15    0.50    2.30
  -1   5  15 1146.89   38.10
  -1   5  15 1144.89   35.00
   0   5  15   57.19    5.20
   0   5  15   62.59    6.60
   1  -5  15  419.56   13.90
   1   5  15  381.86   16.80
   1   5  15  395.16   15.70
   2  -5  15    7.00    2.20
   2   5  15    5.00    2.50
   2   5  15    3.90    2.40
   3  -5  15 1446.06   42.70
   3   5  15 1482.55   44.40
  -2   6  15   44.10    5.10
  -2   6  15   43.40    6.50
  -1   6  15  533.65   19.30
  -1   6  15  522.45   21.80
   0   6  15   55.49    5.40
   0   6  15   54.09    6.90
   1  -6  15  916.61   27.30
   1   6  15  913.81   29.90
   1   6  15  919.11   31.60
   2  -6  15   94.89    5.80
   2   6  15   84.19    6.90
   2   6  15   96.29    7.60
  -3   0  16   -0.60    2.30
  -2   0  16  871.91   26.00
  -2   0  16  907.21   31.20
  -1   0  16    1.40    2.20
  -1   0  16    0.30    1.30
   0   0  16 1545.55   43.90
   0   0  16 1571.84   47.60
   1   0  16    1.30    2.10
   1   0  16    3.30    1.80
   2   0  16  581.94   19.60
   3   0  16    1.40    1.80
  -3   1  16   74.09    4.60
  -3   1  16   58.69    7.50
  -2  -1  16  877.31   30.60
  -2   1  16  896.11   31.20
  -2   1  16  862.41   26.20
  -1  -1  16   61.79    6.20
  -1  -1  16   57.89    3.90
  -1   1  16   60.09    4.40
  -1   1  16   62.29    6.30
   0  -1  16 1018.30   33.20
   0  -1  16 1060.69   29.90
   0   1  16 1007.40   33.40
   0   1  16  971.50   30.10
   1  -1  16  148.39    7.20
   1   1  16  147.39    9.10
   1   1  16  139.39    7.40
   2  -1  16  563.74   18.90
   2   1  16  546.65   19.20
   3  -1  16   78.99    5.90
   3   1  16   76.79    5.90
  -3   2  16   40.80    6.40
  -3   2  16   31.70    3.70
  -2   2  16 1985.80   60.49
  -2   2  16 2006.20   55.49
  -1  -2  16   50.89    3.70
  -1   2  16   53.19    6.00
  -1   2  16   41.20    4.00
   0  -2  16  350.56   12.20
   0   2  16  344.17   13.10
   0   2  16  352.06   15.70
   1  -2  16    6.70    2.00
   1   2  16   13.30    2.80
   1   2  16   10.70    3.20
   2  -2  16 1142.59   33.50
   2   2  16 1097.89   34.20
   3  -2  16   26.00    3.80
   3   2  16   19.80    3.60
  -3   3  16   25.20    5.10
  -3   3  16   29.10    3.70
  -2   3  16 1270.07   37.60
  -2   3  16 1292.87   42.10
  -1   3  16   91.79    5.90
  -1   3  16   95.69    8.00
   0  -3  16  963.00   27.00
   0   3  16  874.51   31.10
   0   3  16  910.31   28.60
   1  -3  16   23.00    3.10
   1   3  16   26.20    3.80
   1   3  16   24.50    4.30
   2  -3  16 1058.29   30.90
   2   3  16  982.90   31.70
  -2   4  16  456.05   20.00
  -2   4  16  441.26   16.30
  -1   4  16  130.69    7.40
  -1   4  16  119.99    9.30
   0   4  16  749.82   24.50
   0   4  16  737.03   26.90
   1  -4  16    4.50    1.80
   1   4  16    1.00    1.80
   1   4  16    2.40    2.50
   2  -4  16  436.46   15.70
   2   4  16  452.35   17.10
  -1   5  16   13.60    3.10
  -1   5  16    8.70    3.60
   0   5  16 1562.84   48.60
   0   5  16 1524.65   45.60
   1  -5  16   48.10    4.00
   1   5  16   41.30    5.20
   1   5  16   51.49    6.50
  -2   0  17    1.10    1.40
  -2   0  17    4.10    2.90
  -1   0  17  335.67   15.80
  -1   0  17  335.27   12.10
   0   0  17    1.80    1.70
   0   0  17    1.80    2.40
   1   0  17 1156.68   36.20
   1   0  17 1094.09   33.50
   2   0  17   -0.90    1.40
  -2   1  17   76.49    4.90
  -2   1  17   63.99    7.20
  -1  -1  17  646.44   20.20
  -1   1  17  686.13   25.30
  -1   1  17  629.24   20.60
   0  -1  17  168.18    7.60
   0   1  17  147.39    9.80
   0   1  17  151.38    7.70
   1  -1  17  784.62   24.50
   1   1  17  746.53   24.80
   1   1  17  818.32   27.50
  -1   2  17 1374.76   43.80
  -1   2  17 1343.07   39.50
   0  -2  17    9.10    2.10
   0   2  17    7.20    3.00
   0   2  17    4.60    2.10
   1  -2  17  431.26   15.10
   1   2  17  432.36   17.80
   1   2  17  417.76   15.70
   0  -3  17   16.90    3.10
   0   3  17   12.80    3.70
   0   3  17   17.50    3.30
   0   0   0    0.00    0.00

_computing_structure_solution     'SHELXT 2014/5 (Sheldrick, 2014)'
;
_shelx_hkl_checksum              95840
_olex2_submission_special_instructions 'No special instructions were received'
loop_
_space_group_symop_operation_xyz
'x, y, z'
'-x+1/2, y, -z+1/2'
'-x, -y, -z'
'x-1/2, -y, z-1/2'
loop_
_atom_site_label
_atom_site_type_symbol
_atom_site_fract_x
_atom_site_fract_y
_atom_site_fract_z
_atom_site_U_iso_or_equiv
_atom_site_adp_type
_atom_site_occupancy
_atom_site_site_symmetry_order
_atom_site_calc_flag
_atom_site_refinement_flags_posn
_atom_site_refinement_flags_adp
_atom_site_refinement_flags_occupancy
_atom_site_disorder_assembly
_atom_site_disorder_group
Hf1 Hf 0.500000 0.000000 0.500000 0.00807(4) Uani 1 2 d S T P . .
Cu1 Cu 0.250000 0.21102(3) 0.750000 0.00716(6) Uani 1 2 d S T P . .
F1 F 0.42239(18) 0.18148(12) 0.58047(9) 0.0124(2) Uani 1 1 d . . . . .
F2 F 0.3941(2) 0.08461(13) 0.35900(9) 0.0163(2) Uani 1 1 d . . . . .
F3 F 0.78986(18) 0.07963(13) 0.46875(9) 0.0166(2) Uani 1 1 d . . . . .
O1 O 0.0431(2) 0.06676(16) 0.69506(13) 0.0138(3) Uani 1 1 d . . . . .
H1A H -0.012(9) 0.026(5) 0.733(5) 0.050(14) Uiso 1 1 d . . . . .
H1B H 0.070(7) 0.024(4) 0.650(4) 0.033(11) Uiso 1 1 d . . . . .
N1 N 0.4270(3) 0.3736(2) 0.80678(14) 0.0134(3) Uani 1 1 d . . . . .
C1 C 0.6078(4) 0.3605(3) 0.86543(19) 0.0222(5) Uani 1 1 d . . . . .
H1 H 0.662351 0.266399 0.880810 0.027 Uiso 1 1 calc R . . . .
C2 C 0.7176(6) 0.4811(4) 0.9044(3) 0.0362(7) Uani 1 1 d . . . . .
H2 H 0.846262 0.469596 0.945602 0.043 Uiso 1 1 calc R . . . .
C3 C 0.6385(6) 0.6173(4) 0.8828(2) 0.0425(9) Uani 1 1 d . . . . .
H3 H 0.710778 0.700966 0.909585 0.051 Uiso 1 1 calc R . . . .
C4 C 0.4522(6) 0.6312(3) 0.8215(2) 0.0346(7) Uani 1 1 d . . . . .
H4 H 0.395431 0.724517 0.805500 0.041 Uiso 1 1 calc R . . . .
C5 C 0.3489(5) 0.50704(18) 0.7834(2) 0.0181(5) Uani 1 1 d . . . . .
loop_
_atom_site_aniso_label
_atom_site_aniso_U_11
_atom_site_aniso_U_22
_atom_site_aniso_U_33
_atom_site_aniso_U_23
_atom_site_aniso_U_13
_atom_site_aniso_U_12
Hf1 0.01035(7) 0.00898(7) 0.00488(6) -0.00044(3) 0.00044(4) 0.00238(3)
Cu1 0.00812(12) 0.00694(12) 0.00638(12) 0.000 -0.00099(9) 0.000
F1 0.0171(5) 0.0102(5) 0.0099(5) -0.0015(4) 0.0023(4) 0.0019(4)
F2 0.0241(6) 0.0171(5) 0.0076(5) 0.0005(4) -0.0023(4) 0.0086(5)
F3 0.0148(5) 0.0188(5) 0.0162(5) -0.0060(4) 0.0043(4) -0.0029(4)
O1 0.0171(6) 0.0175(7) 0.0069(6) -0.0024(5) 0.0018(5) -0.0062(5)
N1 0.0153(8) 0.0143(7) 0.0108(7) -0.0018(6) 0.0020(6) -0.0050(6)
C1 0.0174(9) 0.0334(12) 0.0157(9) -0.0029(8) -0.0006(8) -0.0111(9)
C2 0.0318(15) 0.0545(17) 0.0222(13) -0.0098(11) -0.0011(12) -0.0311(13)
C3 0.058(2) 0.0376(16) 0.0319(14) -0.0128(12) 0.0087(14) -0.0365(16)
C4 0.0580(19) 0.0167(10) 0.0293(13) -0.0069(9) 0.0125(12) -0.0177(11)
C5 0.0281(13) 0.0119(10) 0.0144(11) -0.0022(6) 0.0076(10) -0.0054(6)
loop_
_atom_type_symbol
_atom_type_description
_atom_type_scat_dispersion_real
_atom_type_scat_dispersion_imag
_atom_type_scat_source
C C 0.0033 0.0016 'International Tables Vol C Tables 4.2.6.8 and 6.1.1.4'
H H 0.0000 0.0000 'International Tables Vol C Tables 4.2.6.8 and 6.1.1.4'
Cu Cu 0.3201 1.2651 'International Tables Vol C Tables 4.2.6.8 and 6.1.1.4'
F F 0.0171 0.0103 'International Tables Vol C Tables 4.2.6.8 and 6.1.1.4'
Hf Hf -0.5830 6.1852 'International Tables Vol C Tables 4.2.6.8 and 6.1.1.4'
N N 0.0061 0.0033 'International Tables Vol C Tables 4.2.6.8 and 6.1.1.4'
O O 0.0106 0.0060 'International Tables Vol C Tables 4.2.6.8 and 6.1.1.4'
loop_
_geom_angle_atom_site_label_1
_geom_angle_atom_site_label_2
_geom_angle_atom_site_label_3
_geom_angle
_geom_angle_site_symmetry_1
_geom_angle_site_symmetry_3
_geom_angle_publ_flag
F1 Hf1 F1 180.0 3_656 . ?
F2 Hf1 F1 88.86(5) . 3_656 ?
F2 Hf1 F1 91.14(5) . . ?
F2 Hf1 F1 88.86(5) 3_656 . ?
F2 Hf1 F1 91.14(5) 3_656 3_656 ?
F2 Hf1 F2 180.0 . 3_656 ?
F3 Hf1 F1 90.86(5) 3_656 3_656 ?
F3 Hf1 F1 90.86(5) . . ?
F3 Hf1 F1 89.14(5) 3_656 . ?
F3 Hf1 F1 89.14(5) . 3_656 ?
F3 Hf1 F2 91.06(5) . 3_656 ?
F3 Hf1 F2 91.06(5) 3_656 . ?
F3 Hf1 F2 88.94(5) . . ?
F3 Hf1 F2 88.94(5) 3_656 3_656 ?
F3 Hf1 F3 180.0 3_656 . ?
F1 Cu1 F1 166.81(5) . 2_556 ?
O1 Cu1 F1 85.20(6) 2_556 . ?
O1 Cu1 F1 85.90(6) . . ?
O1 Cu1 F1 85.20(6) . 2_556 ?
O1 Cu1 F1 85.90(6) 2_556 2_556 ?
O1 Cu1 O1 94.98(9) . 2_556 ?
O1 Cu1 N1 172.67(7) 2_556 2_556 ?
O1 Cu1 N1 91.67(7) . 2_556 ?
O1 Cu1 N1 91.67(7) 2_556 . ?
O1 Cu1 N1 172.67(7) . . ?
N1 Cu1 F1 92.21(6) 2_556 . ?
N1 Cu1 F1 97.75(6) 2_556 2_556 ?
N1 Cu1 F1 97.76(6) . . ?
N1 Cu1 F1 92.21(6) . 2_556 ?
N1 Cu1 N1 81.87(11) 2_556 . ?
Hf1 F1 Cu1 130.05(5) . . ?
Cu1 O1 H1A 118(4) . . ?
Cu1 O1 H1B 119(4) . . ?
H1A O1 H1B 110(5) . . ?
C1 N1 Cu1 125.74(17) . . ?
C1 N1 C5 119.8(2) . . ?
C5 N1 Cu1 114.48(16) . . ?
N1 C1 H1 119.2 . . ?
N1 C1 C2 121.6(3) . . ?
C2 C1 H1 119.2 . . ?
C1 C2 H2 120.3 . . ?
C3 C2 C1 119.4(3) . . ?
C3 C2 H2 120.3 . . ?
C2 C3 H3 120.4 . . ?
C2 C3 C4 119.2(3) . . ?
C4 C3 H3 120.4 . . ?
C3 C4 H4 120.3 . . ?
C3 C4 C5 119.3(3) . . ?
C5 C4 H4 120.3 . . ?
N1 C5 C4 120.8(3) . . ?
N1 C5 C5 114.55(14) . 2_556 ?
C4 C5 C5 124.63(19) . 2_556 ?
loop_
_geom_bond_atom_site_label_1
_geom_bond_atom_site_label_2
_geom_bond_distance
_geom_bond_site_symmetry_2
_geom_bond_publ_flag
Hf1 F1 2.0050(11) 3_656 ?
Hf1 F1 2.0050(11) . ?
Hf1 F2 1.9994(11) 3_656 ?
Hf1 F2 1.9994(11) . ?
Hf1 F3 1.9993(11) . ?
Hf1 F3 1.9993(11) 3_656 ?
Cu1 F1 2.3703(11) . ?
Cu1 F1 2.3704(11) 2_556 ?
Cu1 O1 1.9678(14) . ?
Cu1 O1 1.9678(14) 2_556 ?
Cu1 N1 1.9837(18) 2_556 ?
Cu1 N1 1.9837(18) . ?
O1 H1A 0.69(6) . ?
O1 H1B 0.70(5) . ?
N1 C1 1.337(3) . ?
N1 C5 1.352(3) . ?
C1 H1 0.9500 . ?
C1 C2 1.388(3) . ?
C2 H2 0.9500 . ?
C2 C3 1.374(5) . ?
C3 H3 0.9500 . ?
C3 C4 1.383(5) . ?
C4 H4 0.9500 . ?
C4 C5 1.391(3) . ?
C5 C5 1.475(6) 2_556 ?
loop_
_geom_hbond_atom_site_label_D
_geom_hbond_atom_site_label_H
_geom_hbond_atom_site_label_A
_geom_hbond_distance_DH
_geom_hbond_distance_HA
_geom_hbond_distance_DA
_geom_hbond_angle_DHA
_geom_hbond_site_symmetry_A
_geom_hbond_publ_flag
O1 H1A F2 0.69(6) 1.95(6) 2.6279(19) 167(6) 4_556 yes
O1 H1B F3 0.70(5) 1.96(5) 2.646(2) 167(5) 3_656 yes
