#------------------------------------------------------------------------------
#$Date: 2020-04-04 07:10:10 +0300 (Sat, 04 Apr 2020) $
#$Revision: 250060 $
#$URL: file:///home/coder/svn-repositories/cod/cif/4/13/45/4134533.cif $
#------------------------------------------------------------------------------
#
# This file is available in the Crystallography Open Database (COD),
# http://www.crystallography.net/
#
# All data on this site have been placed in the public domain by the
# contributors.
#
data_4134533
loop_
_publ_author_name
'Khoury, Jason F.'
'Rettie, Alexander J. E.'
'Robredo, I\~nigo'
'Krogstad, Matthew J.'
'Malliakas, Christos D.'
'Bergara, Aitor'
'Vergniory, Maia G.'
'Osborn, Raymond'
'Rosenkranz, Stephan'
'Chung, Duck Young'
'Kanatzidis, Mercouri G.'
_publ_section_title
;
 The Subchalcogenides Ir<sub>2</sub>In<sub>8</sub>Q (Q = S, Se, Te): Dirac
 Semimetal Candidates with Re-entrant Structural Modulation.
;
_journal_issue                   13
_journal_name_full               'Journal of the American Chemical Society'
_journal_page_first              6312
_journal_page_last               6323
_journal_paper_doi               10.1021/jacs.0c00809
_journal_volume                  142
_journal_year                    2020
_chemical_formula_moiety         '0.25(In32 Ir8 S4)'
_chemical_formula_sum            'In8 Ir2 S'
_chemical_formula_weight         1335.02
_space_group_crystal_system      tetragonal
_space_group_IT_number           136
_space_group_name_Hall           '-P 4n 2n'
_space_group_name_H-M_alt        'P 42/m n m'
_atom_sites_solution_primary     dual
_audit_creation_date             2020-01-10
_audit_creation_method
;
Olex2 1.2
(compiled 2018.05.29 svn.r3508 for OlexSys, GUI svn.r5506)
;
_cell_angle_alpha                90
_cell_angle_beta                 90
_cell_angle_gamma                90
_cell_formula_units_Z            4
_cell_length_a                   9.9200(14)
_cell_length_b                   9.9200(14)
_cell_length_c                   10.140(2)
_cell_measurement_reflns_used    6999
_cell_measurement_temperature    299
_cell_measurement_theta_max      29.931
_cell_measurement_theta_min      2.873
_cell_volume                     997.8(3)
_computing_molecular_graphics    'Olex2 (Dolomanov et al., 2009)'
_computing_publication_material  'Olex2 (Dolomanov et al., 2009)'
_computing_structure_refinement  'ShelXL (Sheldrick, 2015)'
_computing_structure_solution    'ShelXT (Sheldrick, 2015)'
_diffrn_ambient_temperature      299
_diffrn_measured_fraction_theta_full 1.000
_diffrn_measured_fraction_theta_max 1.000
_diffrn_measurement_device_type  'Bruker APEX-II CCD'
_diffrn_measurement_method       '\w scans'
_diffrn_radiation_monochromator  graphite
_diffrn_radiation_type           MoK\a
_diffrn_radiation_wavelength     0.71073
_diffrn_reflns_av_R_equivalents  0.0304
_diffrn_reflns_av_unetI/netI     0.0165
_diffrn_reflns_Laue_measured_fraction_full 1.000
_diffrn_reflns_Laue_measured_fraction_max 1.000
_diffrn_reflns_limit_h_max       13
_diffrn_reflns_limit_h_min       -12
_diffrn_reflns_limit_k_max       13
_diffrn_reflns_limit_k_min       -13
_diffrn_reflns_limit_l_max       14
_diffrn_reflns_limit_l_min       -12
_diffrn_reflns_number            6999
_diffrn_reflns_point_group_measured_fraction_full 1.000
_diffrn_reflns_point_group_measured_fraction_max 1.000
_diffrn_reflns_theta_full        25.242
_diffrn_reflns_theta_max         29.931
_diffrn_reflns_theta_min         2.873
_diffrn_standards_number         0
_exptl_absorpt_coefficient_mu    44.806
_exptl_absorpt_correction_T_max  0.7460
_exptl_absorpt_correction_T_min  0.3958
_exptl_absorpt_correction_type   multi-scan
_exptl_absorpt_process_details
;
SADABS-2016/2 (Bruker,2016/2) was used for absorption correction.
wR2(int) was 0.1463 before and 0.0405 after correction.
The Ratio of minimum to maximum transmission is 0.5306.
The \l/2 correction factor is Not present.
;
_exptl_crystal_colour            'metallic black'
_exptl_crystal_colour_lustre     metallic
_exptl_crystal_colour_primary    black
_exptl_crystal_density_diffrn    8.887
_exptl_crystal_description       plate
_exptl_crystal_F_000             2248
_exptl_crystal_size_max          0.163
_exptl_crystal_size_mid          0.107
_exptl_crystal_size_min          0.084
_refine_diff_density_max         2.946
_refine_diff_density_min         -4.687
_refine_diff_density_rms         0.352
_refine_ls_extinction_coef       0.00215(7)
_refine_ls_extinction_expression Fc^*^=kFc[1+0.001xFc^2^\l^3^/sin(2\q)]^-1/4^
_refine_ls_extinction_method     'SHELXL-2014/7 (Sheldrick 2014'
_refine_ls_goodness_of_fit_ref   1.162
_refine_ls_hydrogen_treatment    undef
_refine_ls_matrix_type           full
_refine_ls_number_parameters     37
_refine_ls_number_reflns         820
_refine_ls_number_restraints     0
_refine_ls_restrained_S_all      1.162
_refine_ls_R_factor_all          0.0224
_refine_ls_R_factor_gt           0.0220
_refine_ls_shift/su_max          0.001
_refine_ls_shift/su_mean         0.000
_refine_ls_structure_factor_coef Fsqd
_refine_ls_weighting_details
'w=1/[\s^2^(Fo^2^)+34.7316P] where P=(Fo^2^+2Fc^2^)/3'
_refine_ls_weighting_scheme      calc
_refine_ls_wR_factor_gt          0.0463
_refine_ls_wR_factor_ref         0.0465
_reflns_Friedel_coverage         0.000
_reflns_number_gt                814
_reflns_number_total             820
_reflns_threshold_expression     'I > 2\s(I)'
_cod_data_source_file            ja0c00809_si_002.cif
_cod_data_source_block           jfk_2_98a_rt_0m
_cod_depositor_comments
'Adding full bibliography for 4134530--4134534.cif.'
_cod_database_code               4134533
_shelx_shelxl_version_number     2014/7
_shelx_space_group_comment
;
The symmetry employed for this shelxl refinement is uniquely defined
by the following loop, which should always be used as a source of
symmetry information in preference to the above space-group names.
They are only intended as comments.
;
_olex2_refinement_description
;
;
_shelx_res_file
;
    jfk_2_98a_rt_0m.res created by SHELXL-2014/7

TITL jfk_2_98a_rt_0m_a.res in P4(2)/mnm
REM Old TITL JFK_2_98a_RT_0m in P4(2)/mnm
REM SHELXT solution in P4(2)/mnm
REM R1 0.327, Rweak 0.009, Alpha 0.019, Orientation as input
REM Formula found by SHELXT: S In8 Ir2
CELL 0.71073 9.92 9.92 10.14 90 90 90
ZERR 4 0.0014 0.0014 0.002 0 0 0
LATT 1
SYMM -X,-Y,+Z
SYMM 0.5-Y,0.5+X,0.5+Z
SYMM 0.5+Y,0.5-X,0.5+Z
SYMM 0.5-X,0.5+Y,0.5-Z
SYMM 0.5+X,0.5-Y,0.5-Z
SYMM +Y,+X,-Z
SYMM -Y,-X,-Z
SFAC In Ir S
UNIT 32 8 4

L.S. 10
PLAN  20
list 4
fmap 2
acta
REM <olex2.extras>
REM <HklSrc "%.\\JFK_2_98a_RT_0m.hkl">
REM </olex2.extras>

WGHT    0.000000   34.731598
EXTI    0.002152
FVAR       0.13156
IR1   2    0.687578    0.687578    0.739898    10.50000    0.00174    0.00174 =
         0.00567   -0.00030   -0.00030   -0.00002
IN1   1    0.595668    0.595668    0.500000    10.25000    0.01098    0.01098 =
         0.00708    0.00000    0.00000   -0.00602
IN2   1    0.500000    0.500000    0.834027    10.25000    0.01071    0.01071 =
         0.01421    0.00000    0.00000   -0.00761
IN3   1    0.947803    0.700899    0.804623    11.00000    0.00253    0.01183 =
         0.02454   -0.00175   -0.00002   -0.00272
IN4   1    0.684122    0.684122    1.000000    10.25000    0.02414    0.02414 =
         0.00563    0.00000    0.00000   -0.01295
IN5   1    0.800321    0.800321    0.500000    10.25000    0.05468    0.05468 =
         0.00883    0.00000    0.00000   -0.05106
S1    3    1.000000    0.500000    1.000000    10.25000    0.10443    0.01257 =
         0.01294    0.00000    0.00000    0.02229
HKLF 4

REM  jfk_2_98a_rt_0m_a.res in P4(2)/mnm
REM R1 =  0.0220 for     814 Fo > 4sig(Fo)  and  0.0224 for all     820 data
REM     37 parameters refined using      0 restraints

END

WGHT      0.0000     34.7326

REM Highest difference peak  2.946,  deepest hole -4.687,  1-sigma level  0.352
Q1    1   0.7758  0.8331  0.5000  10.50000  0.05    2.95
Q2    1   0.7451  0.8139  0.5000  10.50000  0.05    2.81
Q3    1   1.0421  0.5142  1.0000  10.50000  0.05    1.94
Q4    1   0.9513  0.7055  0.7313  11.00000  0.05    1.79
Q5    1   0.6837  0.8803  0.5000  10.50000  0.05    1.25
Q6    1   0.7616  0.9322  0.5000  10.50000  0.05    1.23
Q7    1   0.7021  0.8077  0.7189  11.00000  0.05    1.13
Q8    1   0.5000  0.5000  0.6106  10.25000  0.05    1.10
Q9    1   0.8259  0.8259  0.8225  10.50000  0.05    1.06
Q10   1   0.9334  0.8618  0.5000  10.50000  0.05    1.04
Q11   1   0.9195  0.5415  1.0000  10.50000  0.05    0.98
Q12   1   1.1784  0.5195  1.0000  10.50000  0.05    0.97
Q13   1   0.7044  0.7044  0.4524  10.50000  0.05    0.96
Q14   1   0.5647  0.6993  0.7296  11.00000  0.05    0.94
Q15   1   0.6058  0.4725  0.5000  10.50000  0.05    0.93
Q16   1   0.4382  0.5618  0.5000  10.25000  0.05    0.91
Q17   1   0.9565  0.6959  0.9107  11.00000  0.05    0.86
Q18   1   0.5000  0.5000  0.5000  10.12500  0.05    0.85
Q19   1   0.7270  0.6823  0.5000  10.50000  0.05    0.85
Q20   1   0.7035  0.8103  0.7769  11.00000  0.05    0.83
;
_shelx_res_checksum              23635
_shelx_hkl_file
;
   0   1   0    2.90    1.20
   0  -1   0    3.70    1.10
  -1   1   0  424.36   13.00
  -1   2   0 1676.03   47.60
  -1   2   0 1469.25   48.00
   2   1   0 1603.84   46.50
   0  -2   0 1671.23   51.79
   0   2   0 1904.41   50.49
   0   2   0 1460.55   51.39
  -2   1   0 1576.84   48.50
   1   2   0 1764.12   48.60
  -1  -2   0 1585.44   48.90
  -2   2   0  960.70   29.60
  -2  -2   0  980.50   29.30
  -2   2   0  961.10   29.40
   2   2   0  977.80   29.00
  -2   3   0 1229.38   38.40
  -2   3   0 1258.07   38.00
  -3  -2   0 1214.38   37.00
   3   2   0 1219.98   36.70
   1  -3   0    8.90    1.50
  -3  -1   0    9.90    1.30
  -1   3   0   12.80    2.90
   0   3   0    5.20    2.00
   0  -3   0    2.80    1.50
   0   3   0   11.20    3.00
   0  -3   0    1.80    2.60
  -1  -3   0    8.60    1.60
   1   3   0    9.70    1.70
  -1  -3   0    9.10    2.30
  -2  -3   0 1250.67   37.00
  -3   2   0 1170.68   36.80
   2   3   0 1240.08   36.80
  -3   3   0 8410.06  278.07
   3   3   0 9999.00  278.57
  -3  -3   0 9740.33  274.77
  -3   3   0 9200.08  278.47
   4   3   0  566.74   18.00
  -4  -3   0  561.24   18.50
  -3   4   0  563.54   19.50
  -3   4   0  589.84   19.70
   2  -4   0  310.17   10.90
  -2   4   0  328.37   13.50
  -4  -2   0  351.56   11.30
   4   2   0  340.87   10.90
   1  -4   0 7001.60  189.18
  -1   4   0 5799.92  192.08
  -4  -1   0 6530.65  189.18
  -1   4   0 6494.55  190.68
   0  -4   0 1278.27   38.40
   0  -4   0 1265.67   42.10
   0   4   0 1157.08   41.40
  -4   0   0 1285.07   37.40
   0   4   0 1297.47   39.60
  -1  -4   0 6517.85  207.28
  -1  -4   0 7204.08  205.28
   1   4   0 7284.17  205.68
  -2  -4   0  353.46   12.10
  -2  -4   0  335.37   11.60
  -4   2   0  339.07   11.60
   2   4   0  346.07   11.80
   3   4   0  580.74   18.50
  -4   3   0  556.44   18.80
  -3  -4   0  589.74   19.00
  -4   4   0  867.21   27.10
  -4   4   0  864.61   27.10
  -4   4   0  868.01   28.30
  -4  -4   0  893.31   27.90
   4   4   0  885.21   27.30
  -5  -4   0   11.90    2.40
   5   4   0   12.50    1.90
  -4   5   0   23.40    3.40
  -4   5   0   10.40    2.20
  -3   5   0 4489.55  138.49
  -3   5   0 4639.24  137.69
  -5  -3   0 4677.23  136.19
   5   3   0 4628.74  135.49
   2  -5   0    7.00    1.60
  -2   5   0    6.60    2.50
  -2   5   0   11.70    2.90
   5   2   0    8.20    1.30
   1  -5   0    8.10    3.20
  -1   5   0    5.70    2.30
  -1   5   0    8.20    2.90
   1  -5   0    9.90    1.90
  -5  -1   0    9.90    1.60
   0   5   0    3.10    2.40
   0   5   0    2.10    1.90
  -5   0   0    2.00    1.00
   0  -5   0    2.20    2.80
   0  -5   0    4.80    1.90
  -5   1   0   14.40    1.30
  -1  -5   0    8.10    2.90
   1   5   0   10.80    2.50
  -1  -5   0   10.80    2.30
   2   5   0   10.40    2.20
  -2  -5   0    6.50    1.90
  -2  -5   0    9.70    2.20
  -5   3   0 4437.36  138.09
   3   5   0 4865.71  138.29
  -3  -5   0 4728.33  138.59
   4   5   0   16.00    2.30
  -5   4   0   18.00    2.80
  -4  -5   0    9.10    2.30
   5   5   0 7117.79  205.78
  -5   5   0 6891.91  207.08
  -5  -5   0 6989.50  206.68
  -5   6   0   39.00    3.60
  -5   6   0   39.80    3.60
  -6  -5   0   38.90    4.30
  -5   6   0   39.30    4.80
   6   5   0   46.80    3.70
  -4   6   0  813.12   28.90
  -6  -4   0  856.41   27.70
   6   4   0  853.51   26.70
  -4   6   0  843.82   29.10
  -3   6   0  506.95   19.90
  -3   6   0  457.75   18.50
   6   3   0  497.45   16.20
  -6  -3   0  503.75   17.10
  -2   6   0   97.49    6.70
  -2   6   0   97.19    7.70
  -6  -2   0  102.19    5.10
   6   2   0  108.79    4.70
   2  -6   0   96.19    4.90
   1  -6   0  160.28   10.60
   1  -6   0  151.68    6.70
  -6  -1   0  145.89    6.20
  -6   0   0 2844.22   88.49
   0  -6   0 3209.88   95.19
   0   6   0 2993.10   94.59
   0   6   0 2979.30   91.29
   0  -6   0 2966.10   89.69
   1   6   0  155.08    8.20
  -1  -6   0  168.28    9.80
  -1  -6   0  165.18    7.50
  -6   1   0  152.78    5.80
   2   6   0   88.49    5.80
  -6   2   0  104.29    3.90
  -2  -6   0  107.69    6.00
  -2  -6   0   98.39    6.30
  -3  -6   0  482.35   17.50
   3   6   0  502.45   17.40
  -6   4   0  799.72   26.90
   4   6   0  824.62   26.70
  -4  -6   0  828.72   27.30
   5   6   0   41.80    4.00
  -5  -6   0   44.30    4.80
  -6   5   0   38.90    4.30
  -6   6   0 1988.40   63.69
  -6  -6   0 2021.80   63.29
   6   6   0 2067.49   62.19
  -6   7   0 1503.95   48.60
  -7  -6   0 1441.26   47.60
   7   6   0 1464.85   46.20
  -5   7   0   54.79    6.20
  -5   7   0   47.20    4.70
  -7  -5   0   56.99    5.30
   7   5   0   50.69    4.10
  -7  -4   0 7234.58  208.78
  -4   7   0 7004.80  210.48
   7   4   0 7324.97  207.58
  -4   7   0 6658.83  210.88
  -3   7   0 1391.86   48.80
   7   3   0 1459.95   44.30
  -3   7   0 1432.46   47.30
  -7  -3   0 1497.35   45.30
  -7  -2   0 1128.69   35.50
  -2   7   0 1134.29   37.90
   7   2   0 1146.99   35.00
  -2   7   0 1113.09   40.20
   2  -7   0 1117.99   35.10
   1  -7   0  452.35   23.20
  -1   7   0  487.15   21.20
   1  -7   0  466.15   16.30
  -7  -1   0  471.15   15.90
  -7   0   0    3.50    1.50
   0   7   0    0.90    2.50
   0  -7   0    3.20    1.90
   0  -7   0    1.10    2.90
  -1  -7   0  472.95   17.20
   1   7   0  451.05   18.20
  -7   1   0  456.95   15.40
  -1  -7   0  526.85   20.80
  -2  -7   0 1109.59   36.80
   2   7   0 1119.79   37.60
  -2  -7   0 1197.78   38.40
  -3  -7   0 1496.35   47.20
   3   7   0 1483.55   47.20
   4   7   0 7493.85  219.88
  -4  -7   0 7382.96  220.28
   5   7   0   53.29    4.80
  -7   5   0   52.89    4.90
  -5  -7   0   59.39    5.60
  -7   6   0 1475.35   47.80
   6   7   0 1464.25   46.50
  -6  -7   0 1469.95   47.80
  -7   7   0   70.89    6.80
  -7  -7   0   73.09    6.80
   7   7   0   62.89    5.20
  -7   8   0   14.70    4.20
   8   7   0   14.60    3.30
  -8  -7   0   10.10    4.00
  -6   8   0  670.83   25.20
  -8  -6   0  648.94   24.10
   8   6   0  637.64   22.30
  -6   8   0  617.84   21.90
  -6   8   0  642.84   22.10
  -5   8   0  386.46   17.00
   8   5   0  386.76   14.30
  -8  -5   0  407.26   16.10
  -5   8   0  349.87   16.00
  -4   8   0   10.70    3.70
  -4   8   0   12.00    3.60
  -8  -4   0   12.00    3.20
   8   4   0   16.10    2.60
   8   3   0  409.06   14.50
  -8  -3   0  393.96   15.50
  -3   8   0  421.86   19.20
  -3   8   0  395.56   17.20
  -2   8   0 4245.28  127.39
   8   2   0 4087.19  124.09
   2  -8   0 4312.17  124.29
  -8  -2   0 4091.99  124.79
   1  -8   0  438.46   15.90
  -1   8   0  463.25   18.30
  -8  -1   0  438.76   15.80
   0   8   0 7930.01  235.68
  -8   0   0 6916.71  232.38
   0  -8   0 7915.41  233.58
   0  -8   0 8975.80  244.68
  -1  -8   0  450.55   17.10
  -1  -8   0  514.35   20.90
   1   8   0  428.06   18.30
   2   8   0 4246.88  131.49
  -2  -8   0 4310.77  130.39
  -2  -8   0 4477.15  132.29
  -3  -8   0  404.76   15.90
   3   8   0  407.56   16.40
  -3  -8   0  381.66   14.00
  -4  -8   0   16.70    3.80
   4   8   0   10.00    3.00
  -5  -8   0  350.86   15.50
   5   8   0  390.16   15.30
   6   8   0  672.43   23.50
  -8   6   0  634.54   23.90
  -6  -8   0  634.54   24.20
   7   8   0   20.90    3.80
  -7  -8   0   12.40    4.00
  -8   7   0   10.50    3.70
  -8   8   0 5974.60  181.38
  -8  -8   0 5942.31  180.98
   8   8   0 6048.79  179.18
  -9  -8   0   41.70    6.70
  -8   9   0   46.00    7.00
   9   8   0   47.70    5.60
  -7   9   0   43.00    6.60
  -9  -7   0   16.90    4.70
   9   7   0   23.50    4.10
  -6   9   0   25.20    5.20
  -6   9   0   27.60    4.10
  -6   9   0   27.10    4.10
  -9  -6   0   33.10    5.50
   9   6   0   23.60    3.60
  -5   9   0   80.89    7.80
  -5   9   0   68.29    6.80
  -9  -5   0   75.09    7.00
   9   5   0   76.29    5.40
  -9  -4   0 2616.04   82.49
  -4   9   0 2654.23   84.19
   9   4   0 2680.23   80.79
  -4   9   0 2700.13   85.89
  -9  -3   0    5.80    3.10
  -3   9   0   19.80    4.50
   9   3   0   13.30    2.60
   2  -9   0  755.12   25.10
   9   2   0  786.42   25.10
  -9  -2   0  736.53   26.00
  -2   9   0  752.62   28.00
  -9  -1   0   86.69    5.90
   1  -9   0   92.09    5.80
  -1   9   0   89.49    7.40
   0   9   0    3.20    2.90
   0  -9   0    3.30    2.30
   1   9   0   80.19    7.10
  -1  -9   0   93.09    8.30
  -1  -9   0   88.39    6.10
  -2  -9   0  811.72   28.70
  -2  -9   0  745.83   26.70
   2   9   0  749.03   28.10
  -3  -9   0   13.60    2.50
  -3  -9   0   11.30    3.50
   3   9   0   18.50    4.40
  -4  -9   0 2655.93   82.19
   4   9   0 2627.24   82.69
  -5  -9   0   61.59    6.60
   5   9   0   62.99    6.40
   6   9   0   27.80    4.70
  -6  -9   0   18.20    4.50
   7   9   0   21.40    4.30
  -7  -9   0   28.40    5.50
  -8  -9   0   42.80    6.60
  -9   8   0   48.90    6.80
   8   9   0   43.00    5.70
  -9   9   0  561.14   24.00
   9   9   0  530.35   21.80
  -9  -9   0  551.54   23.70
  10   9   0  604.64   24.20
  -9  10   0  632.94   27.00
 -10  -9   0  601.54   26.20
 -10  -8   0  621.74   25.50
  -8  10   0  572.94   25.40
  10   8   0  591.34   22.90
  -7  10   0 1039.30   39.40
  10   7   0 1079.69   36.40
 -10  -7   0 1102.69   39.10
 -10  -6   0  233.88   13.30
  -6  10   0  213.68   11.50
  10   6   0  231.18   10.80
  -6  10   0  228.78   13.40
  -6  10   0  220.18   11.50
  10   5   0  367.76   14.70
 -10  -5   0  375.16   17.00
  -5  10   0  365.46   17.60
  -5  10   0  367.26   17.60
  -4  10   0    6.20    3.50
  10   4   0    3.40    2.20
 -10  -4   0    2.90    3.40
  -4  10   0    3.30    3.20
 -10  -3   0   65.79    6.60
  10   3   0   58.49    4.80
  -3  10   0   53.89    6.70
  -2  10   0  509.65   21.30
  10   2   0  513.55   18.40
   2 -10   0  527.05   18.50
  -1  10   0 1116.99   39.20
   1 -10   0 1136.59   36.50
   0  10   0 3260.87  101.89
   0 -10   0 3303.87   99.39
   1  10   0 1069.49   37.70
  -1 -10   0 1095.99   35.90
  -2 -10   0  462.25   18.90
  -2 -10   0  544.15   21.10
   2  10   0  497.05   20.80
   3  10   0   48.50    6.30
  -3 -10   0   58.49    6.20
  -4 -10   0    9.70    3.80
   4  10   0    3.80    3.50
  -5 -10   0  365.46   16.40
   5  10   0  353.66   16.60
  -6 -10   0  233.18   12.80
   6  10   0  218.28   12.40
   7  10   0 1069.79   37.80
  -7 -10   0 1059.99   38.20
   8  10   0  611.04   24.00
  -8 -10   0  564.04   24.50
  -9 -10   0  612.94   26.10
   9  10   0  629.34   25.20
  -8  11   0   14.40    5.50
 -11  -8   0   10.20    5.50
 -11  -7   0  652.33   27.60
  -7  11   0  672.93   27.90
  11   7   0  660.63   24.80
  -6  11   0  286.57   14.50
  -6  11   0  314.47   16.60
  -6  11   0  304.17   14.60
  11   6   0  321.77   13.90
 -11  -6   0  322.17   16.80
 -11  -5   0 3041.80   97.49
  -5  11   0 3035.80   98.39
  -5  11   0 3188.78   98.39
  11   5   0 3089.29   94.49
  -4  11   0  389.66   18.40
 -11  -4   0  405.46   18.10
  11   4   0  386.26   15.60
  11   3   0 2730.03   83.29
  -3  11   0 2712.73   86.59
  11   2   0   18.70    3.30
  -2  11   0   21.60    5.00
  -1  11   0 1139.09   40.50
   1 -11   0 1142.29   37.60
  11   1   0 1180.38   37.60
   0 -11   0    4.30    2.50
   0  11   0    3.30    3.30
  -1 -11   0 1132.09   37.30
   1  11   0 1109.49   39.40
  -2 -11   0   23.40    4.60
  -2 -11   0   27.10    4.60
   2  11   0   22.60    4.80
   3  11   0 2573.54   82.79
  -3 -11   0 2610.24   80.89
   4  11   0  381.26   18.00
  -4 -11   0  374.76   16.60
   5  11   0 2996.60   94.99
  -5 -11   0 2981.90   93.39
  -6 -11   0  292.97   14.90
   6  11   0  295.87   15.80
  -7 -11   0  606.84   25.20
   7  11   0  635.14   26.10
  -8 -11   0    8.90    4.70
   8  11   0   10.70    4.70
  -7  12   0 1896.41   65.39
 -12  -7   0 1946.61   65.89
  -6  12   0    4.90    4.50
 -12  -6   0    5.00    5.10
  -6  12   0    6.90    3.30
  -5  12   0  112.79   10.00
  -5  12   0  121.09    9.90
  -4  12   0    7.40    4.10
  12   4   0    1.50    2.60
  12   3   0  130.59    7.90
  -3  12   0  134.49   10.10
  -2  12   0  106.59    9.20
  12   2   0  123.29    7.40
   1 -12   0 3514.65  103.19
  -1  12   0 3399.66  106.39
  12   1   0 3273.07  102.99
   0  12   0  218.98   12.90
   0 -12   0  223.58   10.90
  -1 -12   0 3400.66  103.19
   1  12   0 3343.57  105.69
   2  12   0  107.99    9.50
  -2 -12   0  114.39    8.20
  -2 -12   0  139.29    9.00
  -3 -12   0  128.59    9.00
   3  12   0  144.99   10.50
   4  12   0   -2.10    3.40
  -4 -12   0   -0.60    3.30
   5  12   0  114.09   10.00
  -5 -12   0  116.09    9.10
  -6 -12   0    1.10    3.60
   6  12   0    4.40    4.30
   7  12   0 1883.51   63.59
  -7 -12   0 1828.52   61.69
  -5  13   0  430.36   20.60
  -4  13   0  115.79   10.30
  -3  13   0 1533.85   52.89
  -2  13   0  227.28   13.50
  -1  13   0   35.90    6.30
   0 -13   0    4.80    3.00
   0  13   0    3.00    3.80
   1  13   0   34.10    6.20
  -1 -13   0   39.00    5.20
  -2 -13   0  227.58   12.30
  -2 -13   0  277.27   12.80
   2  13   0  230.28   14.20
  -3 -13   0 1529.95   50.99
   3  13   0 1556.64   53.49
  -4 -13   0  108.69    8.70
   4  13   0  109.29    9.80
   5  13   0  428.96   20.70
  -5 -13   0  406.46   18.80
   0   0  -1    5.40    0.80
   0   1  -1   10.00    1.20
   0  -1   1   12.50    1.20
  -1   0   1    9.80    1.20
  -1   0   1    9.30    0.80
  -1   1  -1   16.10    1.20
  -1   1   1   13.70    1.30
  -1  -1   1   14.90    1.10
  -1   1   1   14.30    1.40
  -1   2  -1   80.69    3.80
  -1   2  -1   66.29    4.20
  -1   2   1   78.29    5.70
  -1   2   1   77.59    3.70
   0   2  -1    0.80    1.30
   0  -2  -1    2.70    1.30
   0   2  -1    5.10    1.20
   0  -2   1    4.80    1.40
   0   2   1    5.60    1.60
   0   2   1    1.30    1.40
   1   2  -1   80.39    3.30
  -2   1  -1   78.59    3.10
  -1  -2  -1   77.89    3.20
  -2   1   1   82.89    2.90
  -1  -2   1   81.59    3.10
  -1  -2   1   73.09    4.70
  -2   1   1   78.99    3.30
   1   2   1   79.29    3.60
  -2   2  -1  634.64   19.20
  -2  -2  -1  620.04   20.00
  -2   2  -1  644.14   19.80
   2   2  -1  646.54   19.10
  -2   2   1  636.04   19.50
   2   2   1  624.24   19.00
  -2   2   1  624.44   19.50
  -2   2   1  559.54   20.60
  -2  -2   1  636.14   19.10
  -3  -2  -1  948.41   29.10
  -2   3  -1  915.91   29.60
   3   2  -1  964.90   28.30
  -2   3  -1  973.10   29.40
   3   2   1  969.50   28.10
  -2   3   1  854.41   30.90
  -2   3   1  918.51   29.20
  -1   3  -1    7.50    2.30
  -1   3  -1   11.00    2.30
  -3  -1  -1   16.00    2.00
  -1   3   1    8.40    3.00
  -1   3   1   12.70    2.10
  -3  -1   1   10.90    1.20
   0  -3  -1 1009.50   32.20
   0   3  -1 1017.90   33.70
   0   3  -1 1095.99   32.60
   0  -3  -1 1007.30   34.10
  -3   0   1 1099.39   31.30
   0  -3   1 1087.99   34.00
   0  -3   1 1106.49   31.60
   0   3   1 1009.70   32.80
  -1  -3  -1   10.10    2.20
   1   3  -1   19.40    2.00
  -3   1  -1   12.10    1.30
  -1  -3  -1   17.80    2.30
  -1  -3   1   11.90    3.00
  -3   1   1   13.10    1.20
  -1  -3   1   10.90    1.50
   1   3   1   13.30    2.10
  -3   2  -1  907.71   28.60
   2   3  -1  936.41   28.60
   2   3   1  976.20   28.60
  -3   2   1  955.30   27.90
  -2  -3   1  901.81   28.90
  -2  -3   1  936.11   28.50
  -3   2   1  951.80   28.10
  -3   2   1  917.71   28.70
  -3   2   1  957.30   27.90
  -3   3  -1 1093.69   33.60
  -3   3  -1 1095.99   34.50
   3   3  -1 1155.68   33.80
  -3  -3  -1 1077.69   34.70
  -3   3   1 1129.19   34.40
  -3   3   1 1110.19   34.90
  -3  -3   1 1115.49   33.80
   3   3   1 1134.89   33.60
  -3   3   1 1104.79   34.10
  -3   4  -1   11.70    2.40
  -3   4  -1   12.20    2.10
   4   3  -1    8.70    1.50
  -4  -3  -1   10.80    2.30
  -4  -3   1   12.40    1.80
  -3   4   1   11.20    2.30
   4   3   1   11.60    1.50
  -3   4   1   10.30    2.60
  -2   4  -1  154.28    7.90
   4   2  -1  178.18    6.40
  -2   4  -1  167.88    7.90
  -4  -2  -1  173.18    7.20
  -4  -2   1  173.78    6.40
   2  -4   1  177.48    6.30
  -2   4   1  175.28    9.50
   4   2   1  172.58    6.00
  -1   4  -1  396.66   14.40
  -4  -1  -1  398.46   12.90
   1  -4  -1  356.36   12.80
   1  -4  -1  387.46   16.70
  -1   4  -1  367.76   14.80
   1  -4   1  394.86   12.60
  -1   4   1  378.76   16.50
  -4  -1   1  395.96   12.30
  -1   4   1  385.76   14.10
   0   4  -1    6.50    2.40
  -4   0  -1    4.40    1.40
   0  -4  -1   11.00    3.00
   0  -4  -1    4.40    1.70
   0   4  -1    3.00    1.70
   0   4   1    1.60    1.80
   0   4   1    2.60    2.60
  -4   0   1    2.40    0.90
   0  -4   1    2.80    1.20
   0  -4   1    2.60    2.30
  -1  -4  -1  395.46   14.00
  -1  -4  -1  394.46   14.60
   1   4  -1  407.16   13.70
  -4   1   1  417.46   12.40
   1   4   1  400.56   14.30
  -1  -4   1  385.86   16.40
  -1  -4   1  393.56   13.10
  -2  -4  -1  175.68    6.20
   2   4  -1  174.48    6.80
  -4   2  -1  167.38    6.50
  -2  -4  -1  171.48    7.50
   2   4   1  178.98    7.10
  -2  -4   1  166.48    7.90
  -2  -4   1  166.98    6.60
  -4   2   1  177.98    5.80
   3   4  -1   15.80    1.90
  -3  -4  -1    9.40    2.20
  -4   3  -1    8.80    1.80
  -3  -4   1   10.50    1.70
   3   4   1   11.10    1.70
  -4   3   1   10.80    2.00
  -4   3   1   10.50    1.20
  -4  -4  -1  167.18    7.80
  -4   4  -1  163.98    6.10
   4   4  -1  164.98    6.70
  -4   4  -1  169.68    7.70
  -4   4   1  162.38    6.70
   4   4   1  162.88    6.50
  -4   4   1  166.08    7.50
  -4   4   1  167.58    7.20
  -4  -4   1  167.78    6.90
   5   4  -1    5.30    1.60
  -4   5  -1    5.20    1.70
  -5  -4  -1    6.70    2.50
  -4   5   1    3.60    1.70
  -5  -4   1    5.30    1.80
   5   4   1    8.20    1.60
  -4   5   1    4.40    2.10
  -4   5   1    7.40    2.40
   5   3  -1   83.99    4.10
  -3   5  -1   79.89    5.80
  -3   5  -1   82.69    5.50
  -5  -3  -1   89.39    5.40
   5   3   1   92.99    4.00
  -3   5   1   87.49    6.60
  -5  -3   1   87.39    4.50
  -3   5   1   86.79    5.70
   3  -5   1   76.19    3.70
  -5  -2  -1   33.40    3.30
   5   2  -1   36.50    2.50
  -2   5  -1   26.10    3.60
  -2   5  -1   30.00    4.00
  -2   5   1   48.60    5.60
   2  -5   1   35.30    2.70
   5   2   1   34.90    2.20
  -5  -2   1   43.20    2.80
  -2   5   1   51.89    4.50
  -5  -1  -1   25.80    2.60
  -1   5  -1   32.80    4.10
   1  -5  -1   21.50    4.20
  -1   5  -1   21.50    4.00
   1  -5  -1   17.80    2.30
   1  -5   1   18.70    3.40
  -1   5   1   23.60    4.70
   1  -5   1   22.60    2.40
  -5  -1   1   19.00    1.90
  -1   5   1   17.20    2.90
   0   5  -1 3951.30  109.99
   0  -5  -1 3605.34  104.39
  -5   0  -1 3244.38  103.29
   0   5  -1 3391.26  105.39
   0  -5  -1 3511.45  107.99
   0  -5   1 3586.64  103.89
  -5   0   1 3336.97  102.99
   0   5   1 3520.65  108.99
   0   5   1 3655.93  105.59
   0  -5   1 3312.27  108.19
  -1  -5  -1   26.90    3.10
   1   5  -1   29.90    3.20
  -1  -5  -1   22.90    3.70
  -1  -5   1   28.70    4.80
  -1  -5   1   23.10    2.50
  -5   1   1   25.80    1.80
   1   5   1   23.40    3.30
  -2  -5  -1   32.60    2.90
  -2  -5  -1   37.70    3.90
   2   5  -1   33.90    3.10
  -5   2   1   37.20    2.00
  -2  -5   1   39.10    3.10
   2   5   1   30.60    3.40
  -2  -5   1   37.20    4.30
  -5   3  -1   87.99    4.60
  -3  -5  -1   88.49    5.70
   3   5  -1   94.49    4.80
  -3  -5   1   82.99    4.70
  -5   3   1   90.79    3.50
   3   5   1   86.59    4.90
  -5   3   1   88.79    4.80
   4   5  -1    3.30    1.50
  -4  -5  -1    3.30    2.30
  -5   4  -1    4.80    1.90
  -5   4   1    4.30    1.70
  -5   4   1    8.60    1.20
  -4  -5   1    4.20    1.80
   4   5   1    9.50    1.80
  -5  -5  -1   27.60    3.80
  -5   5  -1   37.80    4.20
   5   5  -1   47.40    3.50
   5   5   1   34.80    3.20
  -5   5   1   36.60    2.90
  -5  -5   1   34.20    3.50
  -5   5   1   44.50    4.30
  -5   5   1   34.40    2.70
  -6  -5  -1    4.80    2.80
  -5   6  -1    1.70    2.50
  -5   6  -1    3.80    1.60
  -5   6   1    2.60    1.80
  -5   6   1    1.60    1.60
  -6  -5   1    1.50    2.00
   6   5   1    2.00    1.60
  -5   6   1    4.70    2.60
  -4   6  -1   87.19    6.50
  -4   6  -1   86.09    5.70
  -6  -4  -1   80.39    5.90
   6   4  -1   81.69    4.70
   6   4   1   85.59    4.40
  -4   6   1   81.29    6.50
  -6  -4   1   83.89    5.10
  -6  -3  -1   16.10    3.00
  -3   6  -1   12.10    3.10
   6   3  -1   12.70    2.00
  -3   6  -1   12.00    2.80
  -3   6   1   11.30    3.20
   6   3   1   16.30    2.00
  -6  -3   1   17.40    2.50
   3  -6   1   12.40    1.80
  -3   6   1   11.70    3.10
  -6  -2  -1   62.19    4.50
  -2   6  -1   64.89    6.10
  -2   6  -1   60.59    5.60
   6   2   1   65.99    3.40
   2  -6   1   65.69    3.80
  -6  -2   1   70.59    3.90
  -2   6   1   71.89    7.00
  -2   6   1   58.49    5.40
   1  -6  -1  314.07   11.60
   1  -6  -1  350.26   16.30
  -1   6  -1  340.97   13.60
  -1   6  -1  277.37   14.30
  -6  -1  -1  316.37   11.60
   1  -6   1  324.97   11.60
  -6  -1   1  319.67   11.00
  -1   6   1  334.27   15.90
   1  -6   1  310.47   15.60
  -1   6   1  302.27   13.10
   0   6  -1    1.40    2.10
   0  -6  -1    1.80    2.70
  -6   0  -1    2.70    1.40
   0  -6  -1    4.90    2.00
   0   6  -1    1.40    2.40
  -6   0   1    2.40    1.10
   0   6   1    0.00    2.30
   0   6   1    2.50    2.40
   0  -6   1    3.80    1.70
   0  -6   1    3.40    3.10
  -1  -6  -1  330.87   14.50
  -6   1  -1  309.57   10.80
  -1  -6  -1  330.67   12.40
   1   6  -1  318.57   12.90
  -1  -6   1  307.27   11.80
   1   6   1  336.47   13.30
  -6   1   1  319.57   10.70
  -1  -6   1  347.97   16.00
  -2  -6  -1   75.89    5.30
   2   6  -1   65.89    4.70
  -2  -6  -1   62.49    4.70
  -6   2   1   66.59    3.10
   2   6   1   66.39    5.10
  -2  -6   1   74.79    6.10
  -2  -6   1   61.99    4.40
  -6   3  -1   19.90    2.60
   3   6  -1   14.30    2.50
  -3  -6  -1   15.10    3.20
  -3  -6   1   16.10    2.70
  -3  -6   1   17.80    2.30
  -6   3   1   15.70    1.50
   3   6   1   29.40    3.40
  -6   4  -1   88.19    5.30
  -4  -6  -1   80.39    5.80
   4   6  -1   87.99    5.30
  -4  -6   1   83.79    5.40
  -6   4   1   87.69    4.20
  -6   4   1   84.29    5.30
   4   6   1   84.69    5.30
  -6   5  -1    2.80    2.10
   5   6  -1    3.60    1.90
  -5  -6  -1    8.00    3.10
  -5  -6   1    0.00    2.00
   5   6   1   10.50    2.40
  -6   6  -1  487.55   19.00
   6   6  -1  515.95   17.80
  -6  -6  -1  476.95   19.10
  -6  -6   1  502.75   18.40
  -6   6   1  490.25   19.10
   6   6   1  510.15   17.60
  -7  -6  -1    6.30    3.30
   7   6  -1    5.00    2.20
  -6   7  -1    4.90    3.20
   7   6   1    5.30    2.10
  -6   7   1    4.50    1.70
  -7  -6   1    5.10    2.80
  -6   7   1   10.70    3.50
  -6   7   1    3.60    1.60
  -7  -5  -1    9.30    3.40
  -5   7  -1    5.60    2.30
  -5   7  -1   11.50    3.80
   7   5  -1    9.00    2.30
  -5   7   1    5.60    3.00
  -5   7   1    6.80    2.70
  -5   7   1    7.40    2.50
   7   5   1    7.50    2.10
  -7  -5   1    8.50    2.70
  -4   7  -1   19.70    3.90
  -4   7  -1   24.80    4.20
  -7  -4  -1   26.50    4.20
   7   4  -1   27.60    3.10
  -7  -4   1   23.50    3.30
  -4   7   1   21.80    4.10
  -4   7   1   27.00    4.90
   7   4   1   28.80    3.00
  -3   7  -1  183.58   10.20
  -7  -3  -1  186.28    9.00
  -3   7  -1  170.38   10.40
   7   3  -1  184.48    7.70
  -3   7   1  173.88    9.80
  -7  -3   1  184.28    8.10
  -3   7   1  193.28   11.50
   3  -7   1  178.68    7.30
   7   3   1  197.08    7.50
  -7  -2  -1   17.00    3.00
   7   2  -1   27.80    2.70
  -2   7  -1   18.50    3.80
  -2   7  -1   17.50    4.40
  -7  -2   1   16.90    2.50
   2  -7   1   23.30    2.80
   7   2   1   21.40    2.30
  -2   7   1   25.90    5.30
  -2   7   1   13.70    3.50
   1  -7  -1  347.07   17.20
  -7  -1  -1  320.47   12.20
  -1   7  -1  324.87   14.10
  -1   7  -1  309.57   15.70
   1  -7  -1  323.57   12.10
   1  -7   1  309.67   12.00
  -7  -1   1  325.67   11.50
  -1   7   1  321.67   13.90
   0  -7  -1   28.20    3.40
  -7   0  -1   22.80    2.80
   0  -7  -1   23.90    4.70
   0   7  -1   26.30    4.30
  -7   0   1   25.70    2.50
   0  -7   1   28.60    3.50
   0  -7   1   26.60    5.20
   0   7   1   33.30    4.50
  -1  -7  -1  373.06   16.00
   1   7  -1  302.67   13.90
  -1  -7  -1  327.97   13.00
  -1  -7   1  310.97   12.60
   1   7   1  328.87   14.00
  -7   1   1  327.57   11.30
  -1  -7   1  381.06   16.90
   2   7  -1   21.90    3.80
  -2  -7  -1   17.80    3.40
  -2  -7  -1   23.80    3.70
  -2  -7   1   21.10    4.30
   2   7   1   15.30    3.40
  -2  -7   1   21.50    3.20
  -7   2   1   27.30    2.10
   3   7  -1  178.48    8.70
  -3  -7  -1  177.68    9.10
  -3  -7   1  178.68    8.00
  -3  -7   1  177.38    8.40
   3   7   1  185.58    9.20
   4   7  -1   26.30    3.60
  -4  -7  -1   23.10    4.20
  -7   4  -1   28.30    3.40
   4   7   1   31.70    4.10
  -4  -7   1   24.80    3.60
  -7   5  -1    5.90    2.40
  -5  -7  -1    4.30    3.10
   5   7  -1    6.50    2.40
  -7   5   1    5.90    2.50
   5   7   1    3.20    2.20
  -5  -7   1    5.40    2.60
  -7   6  -1    8.00    3.00
   6   7  -1    4.10    2.30
  -6  -7  -1    3.10    3.10
   6   7   1    5.50    2.40
  -6  -7   1    3.60    2.70
  -7   6   1    7.50    3.10
   7   7  -1   19.70    3.40
  -7   7  -1   23.90    4.50
  -7  -7  -1   18.20    4.30
  -7  -7   1   24.60    4.40
   7   7   1   20.10    3.40
  -7   7   1   18.80    4.20
  -8  -7  -1  197.68   11.60
  -7   8  -1  201.68   11.80
   8   7  -1  182.08    9.50
   8   7   1  203.18    9.70
  -8  -7   1  178.88   10.60
  -7   8   1  197.88   11.70
  -6   8  -1    2.40    1.60
   8   6  -1    6.50    2.40
  -8  -6  -1    3.00    3.40
  -6   8  -1    2.00    1.60
  -6   8  -1    3.60    3.40
  -6   8   1   -1.10    2.90
   8   6   1    2.30    2.00
  -8  -6   1    5.50    3.20
  -6   8   1    0.80    1.80
  -6   8   1    2.20    2.00
  -8  -5  -1  135.09    8.90
   8   5  -1  137.59    7.10
  -5   8  -1  123.79    9.00
  -5   8  -1  146.19    8.50
  -5   8   1  124.89    9.10
  -8  -5   1  131.29    7.90
   8   5   1  142.39    6.90
  -5   8   1  131.99    8.90
  -4   8  -1  102.79    8.10
  -8  -4  -1  107.89    7.70
   8   4  -1  102.79    5.80
  -4   8  -1   94.69    7.70
  -8  -4   1  109.19    6.60
   8   4   1  101.39    5.50
  -4   8   1  102.19    8.40
  -4   8   1  102.49    7.90
  -8  -3  -1  601.04   22.20
   8   3  -1  617.24   20.70
  -3   8  -1  621.64   23.70
  -3   8  -1  607.24   25.00
   3  -8   1  604.34   20.20
  -3   8   1  656.83   25.90
  -8  -3   1  608.24   21.20
  -3   8   1  596.84   23.30
   8   3   1  612.74   20.30
  -8  -2  -1  276.77   12.30
   8   2  -1  300.07   11.30
  -2   8  -1  306.97   14.10
  -2   8   1  285.87   13.60
  -8  -2   1  289.97   11.50
   2  -8   1  290.07   11.20
   8   2   1  304.67   10.90
   1  -8  -1   12.50    2.60
  -8  -1  -1   15.50    3.10
  -1   8  -1   15.90    3.80
   1  -8   1   13.30    2.60
  -1   8   1   10.40    3.50
  -8  -1   1   13.90    2.50
   0   8  -1    8.80    3.40
   0  -8  -1    1.00    2.00
   0  -8  -1    3.30    3.10
   0   8   1    7.90    3.30
  -8   0   1    3.50    1.70
   0  -8   1    6.10    2.50
   1   8  -1   15.40    3.90
  -1  -8  -1   13.60    4.00
  -1  -8  -1   13.80    3.10
  -8   1   1   14.00    2.10
  -1  -8   1   11.20    4.20
   1   8   1   13.50    3.60
  -1  -8   1    5.60    2.50
   2   8  -1  276.37   13.30
  -2  -8  -1  298.77   12.50
  -2  -8  -1  298.67   13.40
  -2  -8   1  285.87   12.30
  -2  -8   1  322.67   14.70
   2   8   1  297.77   13.50
  -3  -8  -1  592.84   21.80
   3   8  -1  610.94   22.30
   3   8   1  596.84   22.50
  -3  -8   1  612.54   21.10
  -3  -8   1  602.04   21.60
   4   8  -1   99.79    6.80
  -4  -8  -1  111.89    7.50
  -4  -8   1  101.39    6.90
   4   8   1  103.69    7.20
  -5  -8  -1  130.79    8.70
   5   8  -1  138.89    8.10
   5   8   1  139.09    8.30
   6   8  -1    4.20    2.50
  -8   6  -1    6.80    2.90
  -6  -8  -1    0.40    3.00
  -6  -8   1    2.80    3.10
   6   8   1   12.80    3.30
   7   8  -1  195.18   10.00
  -7  -8  -1  197.28   11.60
  -8   7  -1  200.28   11.10
  -8   7   1  204.78   11.30
   7   8   1  187.18   10.00
  -7  -8   1  202.68   11.00
   8   8  -1   31.50    4.60
  -8  -8  -1   29.90    5.90
  -8   8  -1   40.30    6.10
  -8   8   1   36.30    5.90
  -8  -8   1   33.40    5.80
   8   8   1   30.80    4.50
  -8   9  -1   14.90    4.90
  -9  -8  -1    9.20    4.70
   9   8  -1   12.90    3.70
  -8   9   1   13.80    4.90
  -9  -8   1   12.00    4.70
   9   8   1   17.50    3.90
   9   7  -1  171.78    9.40
  -7   9  -1  180.28   11.70
  -9  -7  -1  190.88   11.90
  -9  -7   1  177.88   11.10
   9   7   1  190.08    9.60
  -7   9   1  180.88   11.70
  -9  -6  -1  258.77   13.50
  -6   9  -1  235.18   10.80
  -6   9  -1  242.98   13.50
   9   6  -1  238.38   11.00
  -6   9  -1  236.48   10.90
   9   6   1  273.97   11.10
  -6   9   1  251.77   11.80
  -6   9   1  229.68   13.20
  -9  -6   1  239.88   12.40
  -6   9   1  217.68   11.50
  -5   9  -1   16.50    4.60
  -9  -5  -1   10.20    4.10
  -5   9  -1   12.30    3.60
   9   5  -1    9.70    2.80
  -5   9   1   13.50    3.90
  -9  -5   1   11.70    3.70
  -5   9   1   10.20    3.90
   9   5   1   12.90    2.80
   9   4  -1   90.19    5.80
  -4   9  -1   95.49    8.30
  -9  -4  -1   98.09    8.00
  -4   9  -1   92.49    8.30
  -4   9   1  100.49    8.90
  -4   9   1   99.39    8.20
   9   4   1  104.69    5.80
  -9  -4   1   91.19    6.70
   9   3  -1    9.30    2.40
  -9  -3  -1    4.20    3.20
  -3   9  -1    8.30    3.80
   9   3   1    9.20    2.10
  -3   9   1    9.80    3.60
  -9  -3   1    9.00    2.90
  -9  -2  -1    8.80    3.20
  -2   9  -1   16.50    4.20
   9   2  -1    9.40    2.40
  -2   9   1    7.40    3.40
   2  -9   1    7.90    2.30
  -9  -2   1    6.60    2.60
  -1   9  -1   33.00    5.00
   1  -9  -1   32.10    3.80
  -9  -1   1   36.20    3.90
  -1   9   1   31.70    5.00
   1  -9   1   32.40    3.80
   0   9  -1   86.79    7.20
   0  -9  -1   75.59    5.50
   0   9   1   83.29    7.20
   0  -9   1   76.49    5.60
   1   9  -1   26.50    4.50
  -1  -9  -1   39.00    4.50
  -1  -9  -1   39.90    5.90
  -1  -9   1   33.70    5.80
  -1  -9   1   28.80    4.10
   1   9   1   31.30    4.80
  -2  -9  -1   13.00    3.40
   2   9  -1    8.20    3.70
  -2  -9  -1    4.40    2.70
  -2  -9   1    6.80    3.00
  -2  -9   1   17.70    4.30
   2   9   1    7.30    3.50
   3   9  -1    9.50    3.60
  -3  -9  -1    5.70    3.00
   3   9   1    8.30    3.50
  -3  -9   1   10.20    3.10
  -3  -9   1    6.70    2.50
   4   9  -1   94.39    7.40
  -4  -9  -1   92.19    7.10
  -4  -9   1   80.59    6.90
   4   9   1   88.99    7.30
   5   9  -1   16.50    3.90
  -5  -9  -1   11.30    3.50
   5   9   1   14.90    4.00
  -5  -9   1    9.20    3.60
   6   9  -1  271.17   12.50
  -6  -9  -1  233.58   12.70
   6   9   1  250.97   12.50
  -6  -9   1  224.38   12.40
  -9   7  -1  176.28   10.70
  -7  -9  -1  189.08   11.40
   7   9  -1  174.38   10.20
  -7  -9   1  192.08   11.40
   7   9   1  186.58   10.50
   8   9  -1   17.80    4.10
  -9   8  -1   13.90    4.50
  -8  -9  -1   16.60    5.00
  -8  -9   1   14.60    4.90
   8   9   1   20.60    4.30
   9   9  -1  107.19    8.30
  -9   9  -1  119.59   10.00
  -9  -9  -1  103.19    9.50
  -9  -9   1  103.99    9.60
  -9   9   1  107.99   10.00
   9   9   1  105.89    8.40
  -9  10  -1   14.90    5.30
  10   9  -1    3.20    3.40
 -10  -9  -1    4.60    4.60
  -9  10   1   10.20    5.10
 -10  -9   1    0.00    4.20
  10   8  -1   59.09    6.60
  -8  10  -1   50.09    7.50
 -10  -8  -1   43.00    7.20
  -8  10   1   53.59    7.80
 -10  -8   1   52.99    7.50
 -10  -7  -1  255.37   14.50
  -7  10  -1  241.78   14.30
  10   7  -1  238.38   11.80
  10   7   1  242.68   13.50
  -7  10   1  227.78   13.90
 -10  -7   1  226.68   13.40
 -10  -6  -1    9.10    4.60
  10   6  -1    7.20    2.90
  -6  10  -1    4.90    2.60
  -6  10  -1    6.00    4.10
  -6  10  -1    7.90    2.90
 -10  -6   1    4.70    3.80
  10   6   1    6.00    2.80
  -6  10   1    8.90    4.40
  -6  10   1    6.80    3.00
  -6  10   1    4.90    2.70
 -10  -5  -1  141.39   10.10
  10   5  -1  110.59    7.10
  -5  10  -1  118.29    9.10
  -5  10  -1  111.69    9.30
  -5  10   1  107.19    9.10
 -10  -5   1  111.19    8.50
  -5  10   1  120.49    9.40
  10   5   1  116.69    6.90
  10   4  -1   25.90    3.70
  -4  10  -1   34.40    6.00
  -4  10  -1   32.90    5.70
 -10  -4  -1   31.00    5.60
 -10  -4   1   26.50    4.60
  10   4   1   27.60    3.60
  -4  10   1   25.70    5.30
  -3  10  -1    8.10    4.00
  10   3  -1   11.20    2.70
 -10  -3  -1   11.20    4.30
  10   3   1    9.80    2.40
 -10  -3   1    6.20    3.10
  -3  10   1   16.00    4.20
  10   2  -1    4.50    2.10
  -2  10  -1    4.70    3.30
  -2  10   1   10.80    4.00
  10   2   1    3.80    1.90
 -10  -2   1   13.30    3.40
   2 -10   1    7.60    2.40
   1 -10  -1  122.29    7.00
  -1  10  -1  113.19    8.70
   1 -10   1  118.09    6.80
  -1  10   1  121.59    8.90
   0  10  -1    0.10    3.00
   0 -10  -1    2.40    2.40
   0 -10   1   14.20    3.20
   0  10   1    4.00    3.20
  -1 -10  -1  108.89    7.10
   1  10  -1  117.29    8.80
  -1 -10  -1  130.99    9.90
   1  10   1  116.09    8.50
  -1 -10   1  113.39    7.50
  -2 -10  -1    5.50    3.00
   2  10  -1    6.30    3.70
  -2 -10  -1    4.30    2.90
  -2 -10   1    9.60    3.30
  -2 -10   1    6.20    3.20
   2  10   1    7.00    3.40
  -3 -10  -1    7.40    3.30
   3  10  -1   11.80    4.20
  -3 -10   1    6.10    3.30
   3  10   1    7.00    3.60
  -3 -10   1    9.20    2.70
  -4 -10  -1   22.60    4.40
   4  10  -1   27.00    5.10
  -4 -10   1   18.80    4.30
   4  10   1   24.80    4.80
  -5 -10  -1  108.69    8.00
   5  10  -1  123.39    9.00
   5  10   1  116.29    9.00
  -5 -10   1  112.09    8.60
  -6 -10  -1   10.60    4.10
   6  10  -1    6.20    3.50
  -6 -10   1    6.80    3.80
   6  10   1    8.30    3.90
  -7 -10  -1  220.88   12.90
   7  10  -1  243.58   12.90
  -7 -10   1  233.78   13.20
   7  10   1  228.78   13.00
   8  10  -1   49.50    6.60
  -8 -10  -1   42.00    6.70
   8  10   1   55.69    7.10
  -8 -10   1   48.70    7.20
  -9 -10  -1    3.80    4.30
   9  10  -1    4.10    3.70
   9  10   1    3.90    5.60
  -9 -10   1    3.80    4.50
 -11  -8  -1   12.30    5.30
  -8  11  -1   15.00    5.30
  11   8  -1   15.50    4.40
 -11  -8   1   10.30    5.40
  -8  11   1    6.40    4.80
  11   7  -1   -0.60    2.70
  -7  11  -1    0.90    4.10
 -11  -7  -1    8.40    5.10
 -11  -7   1   -1.80    4.10
  -7  11   1   -2.60    3.70
  -6  11  -1  133.39    8.70
  -6  11  -1  123.29    8.70
  11   6  -1  140.59    8.70
  -6  11  -1  140.19   10.80
 -11  -6  -1  150.18   11.50
  -6  11   1  147.69    9.60
 -11  -6   1  123.09   10.40
  -6  11   1  121.19   10.40
  -6  11   1  126.99    9.00
  -5  11  -1    6.30    4.30
  11   5  -1    7.70    3.10
 -11  -5  -1    6.00    5.00
  -5  11  -1    9.30    4.00
  -5  11   1    4.20    4.00
 -11  -5   1    5.80    4.20
  -5  11   1    6.80    3.80
  11   4  -1  308.57   13.30
  -4  11  -1  306.47   15.80
  -4  11   1  305.87   15.80
 -11  -4   1  303.67   15.00
  11   3  -1   32.80    4.30
  -3  11  -1   32.30    5.80
 -11  -3   1   35.70    5.50
  11   3   1   43.70    5.10
  -3  11   1   38.10    6.20
  11   2  -1   35.30    4.40
  -2  11  -1   33.70    5.80
  -2  11   1   51.09    6.80
  11   2   1   39.40    4.10
  -1  11  -1   36.50    5.70
   1 -11   1   44.00    4.80
  -1  11   1   35.70    5.60
  11   1   1   40.40    4.10
   0  11  -1  115.49    9.20
   0 -11  -1  127.39    7.50
   0  11   1  132.19    9.30
   0 -11   1  123.79    7.70
   1  11  -1   25.40    5.10
  -1 -11  -1   37.70    4.80
   1  11   1   39.90    6.10
  -1 -11   1   46.90    5.30
  -2 -11  -1   41.40    5.50
   2  11  -1   33.00    5.70
  -2 -11  -1   32.90    4.60
  -2 -11   1   37.90    5.70
  -2 -11   1   44.20    5.60
   2  11   1   34.20    5.50
   3  11  -1   26.60    5.30
  -3 -11  -1   32.70    5.00
  -3 -11   1   33.70    5.40
   3  11   1   29.20    5.50
  -3 -11   1   35.40    4.10
   4  11  -1  288.77   15.40
  -4 -11  -1  283.37   13.80
  -4 -11   1  297.27   14.40
   4  11   1  296.97   15.00
   5  11  -1   11.30    4.30
  -5 -11  -1    0.70    3.30
  -5 -11   1   11.90    4.30
   5  11   1   14.40    4.50
  -6 -11  -1  142.09   10.00
   6  11  -1  141.79   10.50
   6  11   1  134.09   10.20
  -6 -11   1  144.29   10.30
  -7 -11  -1    4.00    3.90
   7  11  -1    9.60    4.40
   7  11   1    0.80    3.60
  -7 -11   1    5.40    4.50
   8  11  -1    9.50    4.40
  -8 -11  -1   12.90    4.80
  -8 -11   1   10.40    5.00
   8  11   1   12.60    4.90
  -7  12  -1    7.50    4.80
 -12  -7  -1    2.40    5.10
  12   7  -1    5.40    3.50
  -7  12   1   11.50    5.20
 -12  -7   1    8.80    5.60
  12   6  -1   11.10    3.80
  -6  12  -1    8.90    4.70
  -6  12  -1    3.40    2.90
  -6  12  -1    3.40    2.70
  -6  12   1    5.60    3.30
 -12  -6   1    1.60    4.70
  -6  12   1    2.80    4.10
  -5  12  -1    8.80    4.80
  -5  12  -1   10.80    4.20
  12   5  -1    7.00    3.30
  -5  12   1    8.10    4.40
 -12  -5   1   11.10    5.10
  12   4  -1  190.28   10.20
  -4  12  -1  171.08   11.90
  -4  12   1  197.88   12.40
  12   3  -1  149.99    8.50
  -3  12  -1  138.09   10.50
  -3  12   1  143.49   10.40
  -2  12  -1    6.80    4.10
  12   2  -1    9.30    3.00
  -2  12   1   12.30    4.50
  12   1  -1    3.10    2.50
  -1  12  -1    6.40    3.90
   1 -12   1   -2.00    2.20
  -1  12   1    3.70    3.80
   0 -12  -1    3.00    2.70
   0  12  -1   -0.80    3.30
   0 -12   1    5.30    3.00
   0  12   1    1.90    3.60
   1  12  -1    6.80    4.10
  -1 -12  -1    7.90    3.20
   1  12   1   -1.50    3.10
  -1 -12   1    3.70    3.10
  -2 -12  -1    8.50    3.30
   2  12  -1    7.00    4.10
  -2 -12  -1    0.90    2.90
  -2 -12   1    6.90    3.40
   2  12   1    8.10    3.90
  -2 -12   1    8.40    3.50
  -3 -12  -1  131.59    8.90
   3  12  -1  133.29   10.70
   3  12   1  141.79   10.30
  -3 -12   1  134.39    9.10
   4  12  -1  177.08   12.30
  -4 -12  -1  181.08   10.80
  -4 -12   1  187.48   11.20
   4  12   1  193.28   12.20
  -5 -12  -1   11.10    4.10
   5  12  -1    8.50    4.70
  -5 -12   1    4.40    4.00
   5  12   1    6.80    4.40
  -6 -12  -1    6.20    4.00
   6  12  -1   10.90    5.10
  -6 -12   1    6.70    4.30
   6  12   1    2.60    4.00
   7  12  -1    6.60    4.60
  -7 -12  -1    4.60    4.20
  -7 -12   1    4.80    4.20
   7  12   1    8.50    4.50
  -4  13  -1   23.50    5.70
  13   4  -1   23.70    4.60
  -4  13   1   24.50    5.70
  -3  13  -1   63.89    8.10
  13   3  -1   48.60    5.80
  -3  13   1   58.79    7.60
  -2  13  -1   10.90    4.90
  13   2  -1    3.90    2.90
  -2  13   1    9.90    4.40
  13   1  -1   86.39    6.80
  -1  13  -1   83.69    8.60
  -1  13   1   72.29    8.20
   0  13  -1    6.30    4.20
   0 -13   1    3.50    3.00
   0  13   1    5.50    3.90
  -1 -13  -1   84.59    7.20
   1  13  -1   85.99    8.80
   1  13   1   86.89    8.60
  -1 -13   1   94.79    7.30
  -2 -13  -1   27.90    4.80
  -2 -13  -1    8.40    3.00
   2  13  -1   10.10    4.70
   2  13   1   10.00    4.30
  -2 -13   1    4.40    3.50
  -2 -13   1    5.50    3.10
  -3 -13  -1   42.60    5.90
   3  13  -1   53.99    7.70
   3  13   1   43.00    6.90
  -3 -13   1   62.99    7.10
   4  13  -1   34.20    6.80
  -4 -13  -1   24.60    5.10
   4  13   1   31.50    6.20
  -4 -13   1   12.00    4.60
   0   0  -2 3744.03  112.99
   0   1  -2    3.40    1.00
   0   1   2    5.60    1.30
  -1   0   2    3.50    0.90
   1   1  -2  139.29    4.80
  -1   1  -2  138.59    5.10
  -1  -1   2  145.89    5.50
  -1   1   2  137.19    5.40
  -1  -1   2  147.19    5.50
  -1  -1   2  142.19    4.70
  -1   1   2  134.59    5.90
  -1   2  -2  360.76   12.00
  -1   2  -2  344.17   12.10
  -2  -1  -2  382.26   11.80
  -2  -1   2  368.36   11.20
  -2  -1   2  345.47   11.60
  -1   2   2  352.96   11.60
  -1   2   2  346.77   13.10
  -2  -1   2  355.36   11.50
   0   2  -2  514.05   16.50
   0  -2  -2  547.65   17.50
  -2   0   2  552.64   16.20
  -2   0   2  542.15   16.50
  -2   0   2  521.45   17.10
   0  -2   2  537.35   16.00
   0  -2   2  513.75   17.20
   0   2   2  519.95   16.60
  -1  -2  -2  352.96   11.70
   1   2  -2  347.67   11.10
   1   2   2  323.17   11.70
  -1  -2   2  349.47   12.10
  -1  -2   2  366.56   10.90
  -2   1   2  348.37   10.90
  -2   1   2  357.16   11.30
  -2   1   2  328.37   12.80
  -2  -2  -2  667.93   21.50
  -2   2  -2  688.53   20.90
  -2   2  -2  702.33   21.50
   2   2   2  695.03   20.70
  -2   2   2  619.34   23.50
  -2  -2   2  674.43   21.80
  -2   2   2  664.43   21.00
  -2   2   2  657.93   21.30
  -2  -2   2  704.23   20.90
  -3  -2  -2  143.29    6.50
   3   2  -2  145.39    5.60
  -2   3  -2  138.39    6.90
  -2   3  -2  157.48    6.30
   3   2   2  147.79    5.10
  -2   3   2  146.19    8.90
  -2   3   2  154.88    6.30
  -3  -2   2  148.89    5.50
  -1   3  -2  615.14   20.10
  -1   3  -2  608.34   20.20
   1  -3  -2  582.14   21.70
  -3  -1  -2  632.64   19.40
  -1   3   2  618.74   19.60
  -1   3   2  564.54   21.80
   1  -3   2  617.74   18.40
  -3  -1   2  628.24   18.70
   0   3  -2    1.90    1.50
   0   3  -2    3.40    1.40
   0  -3  -2    1.50    1.60
   0  -3   2    2.60    1.40
  -3   0   2    3.90    0.90
   0   3   2    9.30    1.90
   0  -3   2    2.60    0.90
  -1  -3  -2  612.84   19.70
   1   3  -2  622.54   19.30
  -1  -3  -2  576.04   19.70
  -3   1  -2  628.04   18.70
  -1  -3   2  632.54   18.90
  -1  -3   2  616.54   20.90
  -3   1   2  637.64   18.70
   1   3   2  573.74   19.80
  -3   1   2  592.94   18.90
  -3   1   2  639.84   18.50
  -2  -3  -2  148.29    6.80
   2   3  -2  152.38    5.80
  -3   2  -2  156.38    5.90
  -3   2   2  155.48    5.80
  -3   2   2  157.28    6.00
  -2  -3   2  146.99    7.60
   2   3   2  154.28    6.20
  -3   2   2  151.38    5.40
  -2  -3   2  148.39    5.60
  -3   2   2  132.19    6.80
  -3   3  -2 3412.06  103.49
  -3   3  -2 3428.06  102.79
   3   3  -2 3587.04  101.99
  -3  -3  -2 3343.27  102.99
   3   3   2 3614.54  101.69
  -3   3   2 3614.74  102.69
  -3   3   2 3227.18  104.39
  -3   3   2 3440.96  102.49
  -3  -3   2 3435.86  101.79
   4   3  -2  115.59    5.10
  -4  -3  -2  114.29    6.30
  -3   4  -2  115.29    5.50
  -3   4  -2  140.89    6.80
  -3   4   2  115.29    5.90
  -3   4   2  118.59    7.80
  -3   4   2  111.69    6.00
   4   3   2  118.79    4.70
  -4  -3   2  114.69    5.00
  -2   4  -2  145.79    7.50
  -4  -2  -2  137.79    6.80
  -2   4  -2  152.28    7.00
   4   2  -2  144.49    5.80
  -2   4   2  153.68    9.50
  -4  -2   2  149.39    5.70
   2  -4   2  146.59    5.30
   4   2   2  146.39    5.20
  -2   4   2  141.59    6.70
   1  -4  -2 6155.48  183.58
  -4  -1  -2 5367.96  179.68
  -1   4  -2 6198.18  183.68
  -1   4  -2 6037.20  181.18
   4   1   2 5934.41  180.08
  -1   4   2 6969.20  181.08
  -4  -1   2 6217.88  180.58
  -1   4   2 5616.64  183.58
   1  -4   2 6648.13  179.98
   0  -4  -2  940.91   30.10
  -4   0  -2 1044.40   29.50
   0   4  -2  992.00   30.50
   0  -4  -2  929.51   32.00
   0  -4   2  997.30   29.20
   0   4   2  887.71   30.50
   0  -4   2  961.20   31.90
  -4   0   2 1003.50   29.10
   0   4   2  905.51   32.50
  -1  -4  -2 6450.75  192.38
   1   4  -2 6840.62  193.28
  -1  -4  -2 6286.27  195.18
  -1  -4   2 6222.98  194.38
  -4   1   2 6442.66  192.38
  -1  -4   2 6668.43  191.38
   1   4   2 6885.71  192.78
   2   4  -2  151.58    6.20
  -4   2  -2  142.69    5.80
  -2  -4  -2  150.18    7.10
  -2  -4   2  143.69    8.40
  -4   2   2  151.18    5.40
   2   4   2  156.08    6.80
  -2  -4   2  149.69    5.90
   3   4  -2  116.09    5.20
  -3  -4  -2  115.49    6.30
  -4   3  -2  112.69    5.40
  -4   3   2  112.49    4.70
  -4   3   2  116.89    5.40
  -4   3   2  111.79    4.50
   3   4   2  122.79    5.30
  -3  -4   2  108.39    4.90
  -4   3   2  116.99    5.50
   4   4  -2    8.70    1.70
  -4   4  -2    9.50    1.30
  -4  -4  -2    8.90    2.70
  -4   4  -2   10.20    2.30
  -4   4   2    8.30    2.40
  -4   4   2   10.10    1.90
   4   4   2    8.70    1.60
  -4  -4   2   10.90    1.80
  -5  -4  -2  135.99    7.70
  -4   5  -2  135.99    6.30
  -4   5  -2  136.89    7.60
   5   4  -2  133.79    6.10
  -4   5   2  132.89    7.20
  -4   5   2  138.89    7.10
  -4   5   2  123.39    8.00
  -5  -4   2  146.39    6.40
   5   4   2  143.19    5.80
  -3   5  -2  964.30   34.80
  -3   5  -2 1041.20   34.50
   5   3  -2 1060.79   33.10
  -5  -3  -2 1047.40   34.60
   5   3   2 1089.49   32.50
  -3   5   2 1112.19   37.60
  -5  -3   2 1081.59   33.10
   3  -5   2 1101.49   32.30
  -3   5   2 1120.99   34.80
  -2   5  -2   16.10    3.30
  -5  -2  -2   13.10    2.70
  -2   5  -2   12.80    2.70
   5   2  -2   11.90    1.70
  -5  -2   2   11.80    1.80
   2  -5   2   12.30    1.70
  -2   5   2   10.30    3.60
   5   2   2   15.70    1.50
  -2   5   2    9.50    2.30
  -1   5  -2  171.48    9.00
  -5  -1  -2  163.08    7.40
  -1   5  -2  179.18    8.70
  -5  -1   2  175.98    6.50
   1  -5   2  173.78    6.50
  -1   5   2  171.98    8.20
   0  -5  -2    4.10    1.80
   0   5  -2    2.30    1.90
  -5   0  -2    2.50    1.50
   0  -5  -2    1.60    2.00
   0   5  -2    3.10    3.30
  -5   0   2    2.40    1.00
   0  -5   2    7.70    1.40
   0   5   2    6.10    2.20
   0   5   2    2.50    2.60
   0  -5   2    4.40    2.30
  -1  -5  -2  160.58    7.60
  -1  -5  -2  172.38    8.40
   1   5  -2  167.78    7.50
  -5   1   2  175.08    6.20
  -1  -5   2  177.78    6.70
  -1  -5   2  172.58   10.00
   1   5   2  164.48    8.00
  -2  -5  -2   11.60    2.80
  -2  -5  -2   11.70    1.90
  -5   2  -2   12.10    1.70
   2   5  -2   12.90    2.20
  -5   2   2   12.60    1.40
   2   5   2    9.00    2.40
  -2  -5   2   15.20    2.00
  -2  -5   2   13.40    3.60
  -5   3  -2 1059.89   33.60
  -3  -5  -2 1124.49   35.00
  -3  -5   2 1083.49   34.00
  -3  -5   2 1099.19   33.60
  -3  -5   2 1033.60   33.00
  -5   3   2 1085.89   32.70
   3   5   2 1085.19   34.20
  -5   4  -2  141.69    6.80
  -4  -5  -2  147.69    7.80
   4   5  -2  131.79    6.30
  -5   4   2  133.19    6.80
  -4  -5   2  141.89    6.40
  -5   4   2  141.49    5.50
   4   5   2  127.39    6.20
  -5  -5  -2  619.34   22.20
  -5   5  -2  630.44   21.90
   5   5  -2  622.04   20.70
  -5   5   2  614.44   20.50
  -5   5   2  615.64   21.70
  -5   5   2  594.44   21.00
  -5  -5   2  623.64   20.80
   5   5   2  620.74   20.30
  -5   6  -2   95.59    6.90
   6   5  -2   93.39    5.40
  -6  -5  -2   96.49    7.10
  -5   6  -2   86.79    4.60
  -5   6   2   92.29    6.50
  -6  -5   2   95.49    5.70
  -5   6   2   95.09    6.60
  -5   6   2   92.69    5.80
   6   5   2   96.49    5.10
  -6  -4  -2  138.79    8.10
   6   4  -2  133.19    6.30
  -4   6  -2  128.69    7.10
  -4   6  -2  118.39    8.00
   6   4   2  131.49    5.70
  -4   6   2  136.19    7.80
  -4   6   2  139.89    8.90
  -6  -4   2  133.89    6.50
  -3   6  -2  352.46   14.90
  -6  -3  -2  350.56   14.50
  -3   6  -2  355.26   15.10
   6   3  -2  373.76   12.90
  -3   6   2  376.66   17.10
  -3   6   2  362.26   14.70
  -6  -3   2  371.46   13.00
   3  -6   2  358.96   12.20
   6   3   2  372.96   12.20
  -6  -2  -2   50.59    4.80
   2  -6  -2   51.89    7.40
   6   2  -2   55.99    3.50
  -2   6  -2   46.70    5.10
  -2   6  -2   52.29    5.40
  -2   6   2   57.99    6.70
   2  -6   2   53.49    3.50
   6   2   2   53.99    2.90
  -6  -2   2   50.59    3.40
  -2   6   2   47.70    4.80
   1  -6  -2  874.51   30.60
  -6  -1  -2  704.93   25.50
  -1   6  -2  769.22   28.50
  -1   6   2  734.23   26.60
   1  -6   2  802.52   24.80
  -1   6   2  851.51   30.90
  -6  -1   2  801.12   24.60
   1  -6   2  727.13   28.40
   0  -6  -2 1530.95   49.10
  -6   0  -2 1358.76   44.20
   0   6  -2 1343.07   48.20
   0   6  -2 1505.55   46.50
   0  -6  -2 1422.26   45.00
   0   6   2 1505.25   50.19
   0  -6   2 1398.16   48.80
  -6   0   2 1479.55   43.80
   0  -6   2 1477.15   44.30
   0   6   2 1491.45   46.30
  -1  -6  -2  801.02   26.50
   1   6  -2  779.82   26.80
  -1  -6  -2  799.52   28.30
  -1  -6   2  813.82   25.60
  -1  -6   2  804.32   30.50
  -6   1   2  821.92   24.90
   1   6   2  828.52   27.40
   2   6  -2   50.29    4.20
  -2  -6  -2   49.70    3.90
  -2  -6  -2   56.29    4.70
  -6   2   2   55.09    2.90
  -2  -6   2   50.09    6.00
   2   6   2   52.09    4.70
  -2  -6   2   46.30    3.40
  -3  -6  -2  367.06   14.30
   3   6  -2  360.66   13.50
  -6   3  -2  361.16   12.90
  -3  -6   2  373.96   14.00
   3   6   2  351.26   14.00
  -6   3   2  357.76   11.90
  -3  -6   2  365.16   13.10
  -6   4  -2  136.49    6.70
  -4  -6  -2  141.09    7.60
   4   6  -2  127.79    6.60
   4   6   2  125.29    6.70
  -6   4   2  131.99    5.30
  -4  -6   2  127.59    6.50
  -6   5  -2   92.79    6.10
  -5  -6  -2   95.09    6.90
   5   6  -2   94.09    5.50
  -5  -6   2   86.49    5.40
  -6   5   2   90.39    6.10
   5   6   2   88.79    5.40
  -6   5   2   85.69    4.30
  -6  -6  -2  224.78   11.20
   6   6  -2  222.68    9.60
  -6   6  -2  203.08   10.50
   6   6   2  217.48    9.30
  -6  -6   2  215.88    9.80
  -6   6   2  221.98   10.60
   7   6  -2  852.31   28.20
  -6   7  -2  838.82   30.10
  -7  -6  -2  844.32   30.00
  -7  -6   2  850.31   28.60
  -6   7   2  792.02   27.80
   7   6   2  851.41   27.70
  -6   7   2  869.01   30.20
  -6   7   2  826.22   27.60
  -5   7  -2   26.10    4.50
   7   5  -2   17.70    2.90
  -5   7  -2   19.30    3.10
  -7  -5  -2   25.30    4.50
  -5   7   2   28.90    4.60
  -5   7   2   18.30    4.00
  -5   7   2   19.70    3.60
   7   5   2   20.50    2.70
  -7  -5   2   25.50    3.60
  -4   7  -2 2853.01   90.29
  -4   7  -2 2773.52   90.69
   7   4  -2 2937.61   88.19
  -7  -4  -2 2898.41   90.29
  -4   7   2 3016.60   90.69
  -4   7   2 2997.40   92.69
   7   4   2 3032.90   87.49
  -7  -4   2 2947.61   88.49
   7   3  -2  176.78    7.60
  -7  -3  -2  153.48    9.10
  -3   7  -2  188.88   10.20
  -3   7  -2  161.88    9.80
  -3   7   2  200.58   11.70
   7   3   2  175.68    6.90
   3  -7   2  168.48    7.00
  -7  -3   2  160.78    7.50
  -3   7   2  167.58    9.40
  -7  -2  -2 1492.05   51.59
   7   2  -2 1639.14   50.49
  -2   7  -2 1582.84   54.49
  -2   7  -2 1681.43   53.39
  -2   7   2 1583.44   52.69
  -7  -2   2 1674.83   50.39
   2  -7   2 1713.63   50.39
   7   2   2 1661.93   49.60
  -2   7   2 1802.62   56.79
  -7  -1  -2  938.41   33.10
  -1   7  -2  990.70   36.90
  -1   7  -2 1064.49   35.20
  -7  -1   2 1092.79   32.20
  -1   7   2 1026.00   34.70
   1  -7   2 1062.79   32.60
   0   7  -2    2.80    2.80
   0  -7  -2    7.00    2.40
   0  -7  -2    1.60    2.70
  -7   0  -2    5.70    2.20
   0  -7   2    3.00    1.70
   0  -7   2   14.10    4.40
   0   7   2    0.40    2.40
  -7   0   2    6.90    1.50
  -1  -7  -2 1137.59   35.10
   1   7  -2 1041.50   35.80
  -1  -7  -2 1075.99   37.30
  -1  -7   2 1115.39   39.70
  -7   1   2 1065.69   33.20
   1   7   2 1104.89   36.00
  -1  -7   2 1042.20   34.20
   2   7  -2 1627.94   52.69
  -2  -7  -2 1606.24   52.69
  -7   2   2 1637.54   50.29
  -2  -7   2 1870.91   56.29
   2   7   2 1688.83   53.19
  -2  -7   2 1638.34   51.59
  -3  -7  -2  174.18    9.00
   3   7  -2  166.58    8.50
  -3  -7   2  187.98    9.10
   3   7   2  175.28    9.20
  -7   3   2  168.38    6.60
  -3  -7   2  175.48    8.10
   4   7  -2 2991.20   90.09
  -7   4  -2 2797.62   89.39
  -4  -7  -2 3078.69   90.99
   4   7   2 3070.79   90.69
  -4  -7   2 2920.31   89.69
   5   7  -2   19.90    3.40
  -7   5  -2   27.20    3.80
  -5  -7  -2   24.30    4.30
   5   7   2   28.70    3.80
  -5  -7   2   25.70    3.70
  -6  -7  -2  851.61   29.80
  -7   6  -2  815.82   29.10
   6   7  -2  821.52   28.30
  -7   6   2  825.62   29.40
  -6  -7   2  842.12   28.60
   6   7   2  871.51   28.40
  -7  -7  -2   86.29    7.50
  -7   7  -2   85.89    7.30
   7   7  -2   81.29    6.00
  -7   7   2   77.49    7.10
   7   7   2   78.09    5.80
  -7  -7   2   76.09    6.40
  -7   8  -2  728.83   28.20
  -8  -7  -2  764.62   28.20
   8   7  -2  755.52   26.20
   8   7   2  744.83   25.70
  -8  -7   2  700.73   26.70
  -7   8   2  763.12   28.40
  -8  -6  -2  433.86   18.30
   8   6  -2  415.76   16.10
  -6   8  -2  408.16   18.30
   8   6   2  425.06   15.60
  -6   8   2  407.96   16.40
  -8  -6   2  427.66   16.70
  -6   8   2  432.36   18.40
  -6   8   2  393.86   16.60
  -5   8  -2   53.59    6.50
   8   5  -2   42.70    4.20
  -5   8  -2   37.60    4.60
  -8  -5  -2   38.40    5.80
  -5   8   2   38.50    5.10
  -5   8   2   40.50    5.60
  -8  -5   2   47.10    4.90
   8   5   2   42.60    3.90
  -5   8   2   47.60    5.90
   8   4  -2    9.10    2.40
  -4   8  -2   19.70    4.40
  -4   8  -2   11.50    3.60
  -8  -4  -2   14.90    4.20
  -4   8   2    8.50    3.50
   8   4   2   11.80    2.10
  -8  -4   2   13.20    3.00
  -4   8   2    7.50    3.60
  -3   8  -2   83.09    7.60
  -8  -3  -2   84.29    7.10
  -3   8  -2   92.69    7.60
   8   3  -2   81.99    5.10
  -8  -3   2   78.89    5.30
   8   3   2   81.19    4.50
  -3   8   2   97.09    8.50
  -3   8   2   84.59    7.10
   3  -8   2   80.69    6.60
   8   2  -2  861.81   27.50
  -8  -2  -2  745.83   28.50
  -2   8  -2  883.11   30.40
   2  -8   2  864.31   27.20
  -8  -2   2  825.02   27.30
  -2   8   2  828.72   29.70
   8   2   2  851.31   26.40
  -8  -1  -2  148.09    8.40
  -1   8  -2  171.78    9.90
   1  -8   2  159.88    7.70
  -1   8   2  165.48    9.50
  -8  -1   2  169.88    7.30
   0  -8  -2 4139.09  119.89
   0   8  -2 3652.23  116.39
   0  -8  -2 3915.71  114.49
   0  -8   2 3687.93  113.99
   0   8   2 3908.31  116.19
  -8   0   2 3589.44  112.99
  -1  -8  -2  179.68   10.70
  -1  -8  -2  177.68    8.70
   1   8  -2  164.98    9.80
  -1  -8   2  177.68    8.40
  -8   1   2  168.28    7.10
   1   8   2  182.08    9.70
  -1  -8   2  185.38   12.20
   2   8  -2  832.02   29.80
  -2  -8  -2  853.91   29.10
  -2  -8  -2  820.62   29.60
   2   8   2  904.21   30.10
  -8   2   2  822.22   27.10
  -2  -8   2  827.02   28.40
  -2  -8   2  965.80   32.70
   3   8  -2   85.59    6.40
  -3  -8  -2   74.99    6.20
  -3  -8   2   90.49    6.50
   3   8   2   76.89    6.60
  -3  -8   2   78.19    5.70
   4   8  -2    8.80    3.00
  -4  -8  -2   12.90    3.70
  -4  -8   2   18.60    3.50
   4   8   2   11.30    3.40
  -8   5  -2   40.40    4.60
   5   8  -2   42.00    4.90
  -5  -8  -2   39.20    5.20
  -5  -8   2   40.20    4.70
   5   8   2   47.70    5.50
  -8   6  -2  399.96   16.50
   6   8  -2  390.86   16.10
  -6  -8  -2  420.86   17.40
   6   8   2  394.86   16.30
  -6  -8   2  406.46   16.40
  -8   7  -2  738.63   27.20
   7   8  -2  727.23   26.00
  -7  -8  -2  722.23   27.30
   7   8   2  734.03   26.00
  -7  -8   2  713.03   26.40
   8   8  -2 3015.20   93.59
  -8   8  -2 3000.40   95.49
  -8  -8  -2 3067.69   95.29
  -8  -8   2 3075.19   94.59
  -8   8   2 3052.39   95.89
   8   8   2 3019.10   93.39
  -8   9  -2   23.20    5.40
   9   8  -2   19.20    4.20
  -9  -8  -2   26.10    5.70
  -8   9   2   24.50    5.50
  -9  -8   2   13.30    4.50
  -9  -7  -2    7.80    4.10
   9   7  -2    2.50    2.60
  -7   9  -2    3.30    3.90
  -9  -7   2    5.80    3.60
  -7   9   2    8.20    4.00
  -6   9  -2  364.36   17.30
  -9  -6  -2  385.96   17.20
   9   6  -2  352.56   14.70
  -6   9  -2  347.57   13.90
  -6   9  -2  344.47   13.80
  -6   9   2  363.46   16.00
  -6   9   2  360.86   15.60
  -6   9   2  341.97   17.00
  -9  -6   2  374.16   15.70
  -9  -5  -2  346.27   15.90
  -5   9  -2  346.97   16.20
   9   5  -2  322.57   13.40
  -5   9  -2  310.77   14.90
  -5   9   2  332.07   16.30
  -9  -5   2  331.17   14.10
  -5   9   2  315.77   15.70
   9   5   2  326.27   13.40
  -9  -4  -2 2684.33   85.89
  -4   9  -2 2532.45   86.99
  -4   9  -2 2824.52   86.99
   9   4  -2 2754.62   83.59
  -4   9   2 2668.13   86.39
   9   4   2 2781.72   82.69
  -4   9   2 2961.00   89.09
  -9  -4   2 2742.23   83.99
  -9  -3  -2   30.30    5.30
  -3   9  -2   25.80    5.10
   9   3  -2   35.20    3.80
  -3   9   2   27.70    5.10
  -9  -3   2   36.50    4.20
   9   3   2   29.40    3.10
   9   2  -2   80.89    5.30
  -2   9  -2   75.69    7.30
  -9  -2  -2   65.79   10.00
   9   2   2   78.69    4.50
   2  -9   2   76.89    5.10
  -2   9   2   80.89    7.00
  -9  -2   2   74.09    5.40
  -1   9  -2   34.20    5.20
   1  -9   2   43.10    4.40
  -9  -1   2   36.20    3.90
   9   1   2   38.50    3.20
  -1   9   2   33.30    5.10
   0   9  -2    0.80    2.90
   0  -9  -2    3.20    2.20
   0   9   2    1.30    2.80
   0  -9   2   -1.60    2.10
  -9   0   2    6.30    2.10
  -1  -9  -2   32.40    4.10
  -1  -9  -2   46.30    6.10
   1   9  -2   27.60    4.70
  -1  -9   2   32.30    4.10
   1   9   2   29.70    4.60
   2   9  -2   66.59    6.90
  -2  -9  -2   77.29    6.50
  -2  -9  -2   87.39    6.30
  -2  -9   2   91.19    8.00
  -2  -9   2   70.79    6.00
   2   9   2   76.79    6.70
  -3  -9  -2   36.40    4.60
   3   9  -2   33.30    5.10
  -3  -9   2   26.40    4.20
   3   9   2   28.90    4.80
  -3  -9   2   43.80    4.90
   4   9  -2 2694.03   85.49
  -4  -9  -2 2796.22   85.19
  -4  -9   2 2747.63   84.79
   4   9   2 2760.42   85.79
   5   9  -2  316.47   14.50
  -5  -9  -2  325.87   14.80
   5   9   2  331.67   15.10
  -5  -9   2  343.77   14.60
   6   9  -2  362.96   15.90
  -6  -9  -2  356.46   16.30
   6   9   2  388.96   16.50
  -6  -9   2  367.76   16.10
   7   9  -2    2.20    2.90
  -7  -9  -2    0.40    3.40
  -9   7  -2    2.80    3.10
  -7  -9   2    7.70    3.70
   7   9   2    6.00    3.50
  -9   8  -2   24.10    5.10
  -8  -9  -2   19.70    5.20
   8   9  -2   26.40    4.70
  -8  -9   2   19.80    5.00
   8   9   2   19.50    5.00
   9   9  -2  433.16   19.00
  -9  -9  -2  469.85   20.70
  -9   9  -2  455.75   20.90
  -9  -9   2  452.05   20.30
 -10  -9  -2  216.88   13.60
  10   9  -2  196.48   12.00
  -9  10  -2  210.78   13.70
  -9  10   2  216.08   14.10
 -10  -9   2  212.98   13.50
 -10  -8  -2  347.77   17.30
  -8  10  -2  319.07   17.20
  10   8  -2  334.27   15.50
  -8  10   2  314.37   17.40
 -10  -8   2  343.37   17.00
  10   7  -2  379.86   16.50
 -10  -7  -2  453.05   19.40
  -7  10  -2  365.76   18.60
 -10  -7   2  400.86   17.90
  -7  10   2  365.26   18.70
  10   6  -2  276.67   12.90
  -6  10  -2  288.47   15.60
 -10  -6  -2  303.77   15.60
  -6  10  -2  268.17   12.50
  -6  10   2  290.97   14.40
 -10  -6   2  305.97   14.30
  -6  10   2  266.77   15.00
  -6  10   2  287.17   14.00
  10   5  -2   32.50    4.50
  -5  10  -2   22.70    5.10
 -10  -5  -2   35.50    6.20
  -5  10  -2   31.70    5.30
  -5  10   2   35.40    6.10
  -5  10   2   33.00    5.90
 -10  -5   2   37.00    5.40
  10   4  -2   72.29    5.70
  -4  10  -2   82.19    8.00
 -10  -4  -2   72.49    7.90
  -4  10  -2   78.29    7.90
 -10  -4   2   72.89    6.40
  -4  10   2   72.59    7.60
  10   3  -2  178.78    9.00
  -3  10  -2  182.78   11.40
  -3  10   2  182.98   11.20
 -10  -3   2  177.18    9.40
  -2  10  -2  121.39    9.20
  10   2  -2  130.69    7.40
  -2  10   2  121.59    8.90
   2 -10   2  134.79    8.20
 -10  -2   2  114.69    7.30
  -1  10  -2  362.46   16.90
   1 -10   2  359.86   14.40
 -10  -1   2  350.66   14.20
  -1  10   2  381.06   16.70
  10   1   2  381.96   15.80
   0  10  -2  187.78   11.40
   0 -10   2  202.88    9.80
   0  10   2  206.38   11.30
  -1 -10  -2  396.06   18.00
   1  10  -2  362.76   17.00
  -1 -10  -2  370.36   15.00
   1  10   2  356.56   16.30
  -1 -10   2  357.76   15.20
  -2 -10  -2  132.69    8.50
   2  10  -2  120.49    9.30
  -2 -10  -2  117.09    7.80
  -2 -10   2  122.99    8.00
   2  10   2  121.09    8.60
  -2 -10   2  139.69    9.70
  -3 -10  -2  172.18    9.60
   3  10  -2  172.98   11.10
   3  10   2  176.28   10.50
  -3 -10   2  162.48    9.60
  -3 -10   2  186.28    9.60
   4  10  -2   73.89    7.40
  -4 -10  -2   85.09    7.10
   4  10   2   79.59    7.20
  -4 -10   2   72.99    6.80
  -5 -10  -2   30.00    5.00
   5  10  -2   32.40    5.30
  -5 -10   2   31.20    5.10
   5  10   2   30.60    5.30
   6  10  -2  281.97   14.10
  -6 -10  -2  288.07   14.20
  -6 -10   2  264.17   13.90
   6  10   2  287.27   14.40
  -7 -10  -2  366.06   17.40
   7  10  -2  375.06   17.10
  -7 -10   2  373.66   17.50
   7  10   2  383.36   17.60
   8  10  -2  319.87   15.80
  -8 -10  -2  340.57   16.60
  -8 -10   2  320.27   16.50
 -10   9  -2  197.78   12.90
  -9 -10  -2  209.28   13.20
   9  10  -2  192.18   12.20
  -9 -10   2  201.58   13.20
  -8  11  -2    8.40    4.90
  11   8  -2    5.30    3.70
 -11  -8  -2    4.80    5.00
  -8  11   2   11.10    5.20
 -11  -8   2    6.60    4.80
 -11  -7  -2  101.59   10.20
  -7  11  -2  106.49    9.90
  11   7  -2  100.39    8.00
  -7  11   2   97.19    6.40
  -7  11   2  101.49    6.50
 -11  -7   2  102.89    9.80
  -7  11   2  106.29   10.00
  -6  11  -2   30.00    6.10
  -6  11  -2   29.30    4.70
 -11  -6  -2   28.50    6.40
  11   6  -2   25.90    4.60
  -6  11   2   39.10    5.90
 -11  -6   2   44.00    6.50
  -6  11   2   19.30    5.70
  -5  11  -2 2661.73   84.19
 -11  -5  -2 2608.24   92.59
  11   5  -2 2573.64   80.89
  -5  11  -2 2480.15   83.69
  -5  11   2 2559.64   83.69
  -5  11   2 2703.83   84.99
 -11  -5   2 2631.54   82.29
  -4  11  -2  701.33   28.00
  11   4  -2  716.93   25.40
  -4  11   2  696.13   27.80
 -11  -4   2  704.93   26.30
  -3  11  -2 1237.78   44.30
  11   3  -2 1271.57   41.60
  -3  11   2 1293.97   44.30
 -11  -3   2 1266.17   42.20
  11   2  -2   11.70    3.10
  -2  11  -2    9.70    4.40
  -2  11   2   14.90    4.40
  -1  11  -2  150.68   10.50
  -1  11   2  157.28   10.40
   1 -11   2  162.68    8.60
   0  11  -2   -6.30    2.60
   0  11   2   -0.50    2.90
   0 -11   2    3.30    2.80
  -1 -11  -2  150.08    8.80
   1  11  -2  150.98   10.60
   1  11   2  161.78   10.20
  -1 -11   2  156.78    9.10
  -2 -11  -2   14.80    3.50
  -2 -11  -2   26.40    4.40
   2  11  -2   13.20    4.40
   2  11   2   11.60    4.00
  -2 -11   2   17.70    4.20
  -2 -11   2   14.60    4.40
  -3 -11  -2 1246.48   42.10
   3  11  -2 1195.58   44.40
  -3 -11   2 1341.87   41.70
   3  11   2 1272.77   43.60
  -3 -11   2 1268.57   42.80
   4  11  -2  664.73   27.20
  -4 -11  -2  670.93   25.20
   4  11   2  675.93   26.20
  -4 -11   2  672.03   25.60
   5  11  -2 2534.25   81.19
  -5 -11  -2 2519.45   79.29
   5  11   2 2535.15   80.29
  -5 -11   2 2454.35   79.69
  -6 -11  -2   26.90    5.50
   6  11  -2   23.10    5.60
   6  11   2   25.20    5.40
  -6 -11   2   22.80    5.10
   7  11  -2   96.29    9.20
  -7 -11  -2  110.29    9.20
   7  11   2  103.29    9.20
  -7 -11   2  107.39    9.40
  -8 -11  -2    6.20    4.50
   8  11  -2    2.10    3.70
  -8 -11   2    6.30    4.50
  12   6  -2  110.19    8.50
  -6  12  -2   96.69    7.80
  -6  12  -2  114.89   10.20
 -12  -6   2  117.99   10.20
  -6  12   2  118.99    9.10
  -6  12   2  111.59   10.20
  -5  12  -2   17.80    5.30
  -5  12  -2   20.60    5.10
  12   5  -2   17.70    4.10
  -5  12   2   16.00    5.20
 -12  -5   2   23.20    5.70
  -4  12  -2   -0.40    3.70
  12   4  -2    0.80    2.70
 -12  -4   2    5.50    4.30
  -4  12   2    2.00    3.70
  -3  12  -2  594.94   25.00
  12   3  -2  587.64   22.50
  -3  12   2  611.44   24.90
  -2  12  -2   19.10    5.30
  12   2  -2   14.10    3.50
  -2  12   2   15.60    4.60
  -1  12  -2 1610.74   55.09
  12   1  -2 1601.94   52.19
  -1  12   2 1655.33   54.59
   0  12  -2  544.35   23.60
   0 -12   2  584.84   21.30
   0  12   2  542.85   22.90
   1  12  -2 1623.94   56.29
  -1 -12   2 1683.83   53.79
   1  12   2 1677.23   55.49
   2  12  -2    7.30    4.40
  -2 -12  -2   18.30    3.80
  -2 -12  -2    9.50    3.70
  -2 -12   2   18.50    4.30
  -2 -12   2   15.00    4.30
   2  12   2   15.40    4.50
  -3 -12  -2  598.84   22.50
   3  12  -2  574.84   24.90
  -3 -12   2  588.34   23.10
   3  12   2  558.64   23.60
   4  12  -2    3.50    4.30
  -4 -12  -2    0.30    3.10
  -4 -12   2    2.40    3.80
   4  12   2    5.50    3.70
  -5 -12  -2   18.60    4.90
   5  12  -2   12.40    5.20
  -5 -12   2   19.50    5.10
   5  12   2   20.10    5.00
  -6 -12  -2  111.29    9.00
   6  12  -2  106.69   10.40
  -6 -12   2  108.19    9.60
   6  12   2  117.99    9.70
  13   4  -2   15.50    4.20
  -4  13  -2   21.30    5.40
  -4  13   2   15.60    5.20
  13   3  -2  968.80   33.50
  -3  13  -2  920.91   35.70
  -3  13   2  949.51   35.60
  13   2  -2   16.50    4.00
  -2  13  -2   18.60    5.40
  -2  13   2   18.50    4.90
  -1  13  -2   13.20    5.00
  13   1  -2   13.70    3.70
  -1  13   2    8.80    4.10
   0  13  -2    1.70    3.90
   0  13   2    0.80    3.50
   0 -13   2    4.30    3.50
   1  13  -2   10.70    4.70
  -1 -13   2   17.90    4.40
   1  13   2   16.40    4.90
   2  13  -2   12.80    5.00
  -2 -13  -2   20.50    3.50
  -2 -13   2   15.40    4.10
   2  13   2   20.70    5.10
  -2 -13   2   15.20    4.20
   3  13  -2  940.31   36.00
  -3 -13  -2  930.51   32.90
   3  13   2  925.91   34.50
  -3 -13   2  906.21   33.30
  -4 -13  -2   19.30    4.60
   4  13  -2   19.30    5.70
  -4 -13   2   22.20    5.30
   4  13   2   26.00    5.60
   0   0   3    4.80    1.70
   1   0  -3   21.40    2.00
   0   1  -3   22.40    1.50
   0   1  -3   28.70    2.70
   0  -1   3   24.80    1.50
  -1   0   3   25.20    2.40
  -1   0   3   24.50    2.20
  -1   0   3   21.40    1.70
   0   1   3   33.20    3.00
  -1   1  -3  327.57   11.00
   1  -1  -3  294.07   11.10
   1   1  -3  339.97   11.30
   1   1  -3  309.37   10.20
   1  -1   3  325.57   10.00
  -1   1   3  345.37   11.30
  -1  -1   3  332.77   11.20
  -1   1   3  295.77   11.40
  -1  -1   3  316.67   11.30
  -1  -1   3  344.17   10.30
  -1   2  -3 3940.91  119.39
   1  -2  -3 4380.86  121.79
  -1   2  -3 4054.19  121.09
  -1   2   3 4183.58  119.89
   1  -2   3 3849.01  118.79
  -2  -1   3 4077.89  118.99
  -1   2   3 4205.48  120.49
  -2  -1   3 4006.70  122.19
  -1   2   3 3755.62  120.79
  -2  -1   3 4182.68  121.79
   0   2  -3    3.20    1.00
   0   2  -3    2.10    1.10
   0  -2  -3    1.90    1.30
  -2   0   3    3.30    1.20
   0  -2   3    2.40    1.30
   0  -2   3    2.30    0.70
   0   2   3    4.50    1.50
   0   2   3    1.30    0.80
  -2   0   3    3.30    0.90
  -2   0   3    3.10    1.40
   1   2  -3 4066.09  119.59
   1   2  -3 3991.00  118.89
  -2   1   3 3824.42  119.29
  -1  -2   3 3948.60  121.29
  -1  -2   3 3914.51  117.49
  -2   1   3 4203.48  120.49
   1   2   3 3928.81  117.49
  -2   1   3 4248.38  117.69
  -2   2  -3  252.97   10.00
   2   2  -3  284.97    9.30
  -2   2  -3  283.27    9.60
  -2   2   3  281.47   10.20
  -2   2   3  256.67   11.40
  -2  -2   3  289.47    9.20
  -2  -2   3  281.77   10.30
  -2  -2   3  279.87   10.00
  -2   3  -3  418.86   14.00
  -2   3  -3  382.96   14.40
  -3  -2  -3  426.06   14.10
   3   2  -3  411.26   13.20
  -3  -2   3  391.86   13.20
  -3  -2   3  418.96   13.10
  -3  -2   3  390.96   13.80
  -2   3   3  384.36   13.60
  -2   3   3  409.16   14.60
  -1   3  -3  814.92   26.60
  -1   3  -3  848.22   26.40
  -1   3   3  837.02   25.80
   1  -3   3  844.42   24.80
  -3  -1   3  804.02   25.80
  -3  -1   3  821.12   25.60
  -1   3   3  795.22   27.80
  -3  -1   3  862.51   25.30
   0   3  -3  213.08    7.90
   0   3  -3  215.58    8.90
   0  -3  -3  219.58    9.20
  -3   0   3  217.98    7.70
  -3   0   3  203.98    8.70
   0  -3   3  229.48    7.30
   0   3   3  217.88    8.00
  -3   0   3  219.68    7.50
   0   3   3  222.18   10.20
   1   3  -3  840.92   25.80
  -1  -3  -3  872.11   26.60
  -3   1  -3  839.82   25.10
  -3   1   3  802.82   27.80
  -3   1   3  868.21   26.00
  -1  -3   3  780.12   27.10
  -3   1   3  855.71   25.50
   1   3   3  833.22   26.10
  -1  -3   3  841.52   25.40
  -3   2  -3  424.36   13.50
   2   3  -3  409.86   13.40
  -2  -3   3  418.96   14.10
  -2  -3   3  417.16   13.10
  -3   2   3  409.76   13.80
   2   3   3  368.26   13.50
  -3   2   3  413.16   13.10
  -2  -3   3  404.66   14.90
  -3   2   3  388.46   16.20
   3   3  -3  147.49    6.10
  -3   3  -3  159.88    7.00
  -3   3  -3  149.29    5.90
  -3  -3  -3  145.09    7.10
  -3   3   3  158.68    6.50
  -3   3   3  154.08    9.30
  -3  -3   3  149.19    7.40
   3   3   3  155.28    6.10
  -3  -3   3  148.09    5.90
  -3   3   3  152.98    6.80
  -3  -3   3  155.38    6.00
  -4  -3  -3  146.79    7.50
  -3   4  -3  160.58    7.00
   4   3  -3  155.68    6.50
  -3   4  -3  160.48    8.00
  -3   4   3  160.18    7.70
   4   3   3  158.28    6.00
  -4  -3   3  164.08    6.50
  -3   4   3  156.28   10.00
  -3   4   3  183.88    7.50
   4   2  -3  482.45   16.00
  -2   4  -3  506.35   17.90
  -2   4  -3  488.45   17.20
  -4  -2  -3  492.45   16.90
  -2   4   3  457.95   20.00
   4   2   3  492.75   15.10
  -4  -2   3  511.55   15.90
   2  -4   3  499.15   15.10
  -2   4   3  491.35   16.80
  -1   4  -3    5.30    1.80
  -4  -1  -3    6.90    1.70
   1  -4  -3    8.30    2.70
  -1   4  -3    5.40    2.10
   1  -4   3   11.70    1.20
  -4  -1   3    4.20    1.20
  -1   4   3    7.30    2.90
   0  -4  -3    0.80    1.60
   0   4  -3    4.20    1.50
   0   4  -3    0.30    1.40
   0  -4   3    1.90    1.60
  -4   0   3    1.30    0.90
   0   4   3    3.10    1.60
   0   4   3    2.20    2.00
   1   4  -3   10.40    2.30
   1   4  -3    4.70    1.50
  -1  -4  -3    5.20    1.70
  -1  -4   3    4.00    1.10
  -1  -4   3    5.80    2.10
  -4   1   3    5.30    1.20
   1   4   3    4.10    1.70
   2   4  -3  497.35   16.20
  -4   2  -3  489.15   15.60
  -2  -4  -3  493.65   17.10
  -4   2   3  491.35   15.60
  -4   2   3  453.55   16.70
   2   4   3  489.15   16.70
  -4   2   3  487.15   15.60
  -2  -4   3  500.55   15.80
  -2  -4   3  496.55   18.40
   3   4  -3  149.19    6.50
  -4   3  -3  153.48    6.70
  -3  -4  -3  153.48    7.60
   3   4   3  164.78    7.00
  -3  -4   3  161.68    8.30
  -4   3   3  153.08    8.10
  -4   3   3  154.68    6.50
  -3  -4   3  148.59    6.30
  -4   3   3  157.28    6.00
  -3  -4   3  161.68    6.30
  -4   4  -3 1527.75   45.90
   4   4  -3 1510.45   44.90
  -4  -4  -3 1426.46   46.10
  -4   4  -3 1418.56   43.80
   4   4   3 1463.45   44.50
  -4  -4   3 1504.85   44.70
  -4   4   3 1431.76   45.50
  -4   4   3 1442.66   45.50
  -4   4   3 1451.75   47.90
  -5  -4  -3  877.81   29.20
  -4   5  -3  861.61   27.60
   5   4  -3  858.21   27.60
  -4   5  -3  862.51   29.30
  -4   5   3  841.72   31.10
  -5  -4   3  870.81   27.50
  -4   5   3  874.01   29.00
  -4   5   3  851.81   28.60
   5   4   3  870.71   26.90
  -3   5  -3  235.38   10.10
   5   3  -3  237.78    9.10
  -5  -3  -3  221.68   10.20
  -3   5  -3  227.28   10.80
  -5  -3   3  241.08    9.00
   3  -5   3  239.48    8.10
   5   3   3  237.58    8.20
  -3   5   3  238.18   10.20
  -3   5   3  254.97   13.20
   5   2  -3 2603.94   77.59
  -5  -2  -3 2441.16   78.39
  -2   5  -3 2664.23   79.89
  -2   5  -3 2572.84   79.59
  -2   5   3 2628.54   78.99
  -5  -2   3 2659.53   77.39
   5   2   3 2622.34   76.49
  -2   5   3 2528.15   83.09
   2  -5   3 2673.63   76.69
  -5  -1  -3 1439.26   42.10
  -1   5  -3 1346.37   44.10
   1  -5  -3 1310.27   45.80
  -1   5  -3 1345.27   43.60
   1  -5   3 1371.26   41.10
  -1   5   3 1355.16   43.00
  -5  -1   3 1419.16   41.40
   5   1   3 1367.56   40.50
  -1   5   3 1353.26   46.40
   0   5  -3   92.19    5.50
   0  -5  -3   82.99    6.40
   0   5  -3   81.79    6.00
  -5   0   3   92.79    4.10
   0   5   3   90.79    6.80
   0  -5   3   89.19    4.00
   0  -5   3   86.19    6.10
   0   5   3   79.59    5.40
   1   5  -3 1359.56   44.50
   1   5  -3 1368.66   42.20
  -1  -5  -3 1428.66   43.50
   1   5   3 1298.17   42.60
  -1  -5   3 1378.56   41.20
  -5   1   3 1410.66   41.00
  -1  -5   3 1267.47   44.30
   2   5  -3 2670.83   78.59
  -2  -5  -3 2540.65   79.19
  -5   2  -3 2580.24   77.49
  -2  -5   3 2610.14   77.79
  -2  -5   3 2569.04   81.89
   2   5   3 2715.23   79.19
  -5   2   3 2617.64   77.39
  -3  -5  -3  233.48   10.20
   3   5  -3  214.98    9.00
  -5   3  -3  231.48    8.90
  -3  -5   3  244.28   11.30
  -5   3   3  228.98    8.30
   3   5   3  242.38    9.80
  -3  -5   3  229.68    9.10
  -3  -5   3  236.88    8.90
  -4  -5  -3  887.41   29.30
   4   5  -3  875.51   28.00
  -5   4  -3  897.51   28.40
  -5   4   3  874.51   27.40
  -5   4   3  825.22   28.10
   4   5   3  877.31   28.10
  -5   4   3  866.31   27.10
  -4  -5   3  865.21   27.70
  -5  -5  -3   61.19    5.70
   5   5  -3   56.19    4.20
  -5   5  -3   57.49    5.10
  -5   5   3   55.29    5.10
  -5   5   3   75.39    5.30
  -5   5   3   58.29    4.30
  -5  -5   3   56.89    4.20
   5   5   3   61.19    4.10
   6   5  -3    5.70    2.00
  -5   6  -3   11.90    3.20
  -5   6  -3    7.40    1.60
  -6  -5  -3    7.90    3.20
  -5   6   3    5.90    2.30
   6   5   3    6.20    1.90
  -5   6   3    3.00    2.40
  -5   6   3    4.90    2.70
  -6  -5   3    2.80    2.10
   6   4  -3    5.50    1.90
  -4   6  -3    6.20    3.00
  -6  -4  -3    3.90    2.90
  -4   6   3    4.80    2.60
   6   4   3   11.40    1.90
  -4   6   3    3.60    2.30
  -4   6   3    9.60    3.40
  -6  -4   3    3.60    1.90
  -6  -3  -3 1209.78   42.50
  -3   6  -3 1328.97   43.50
  -3   6  -3 1298.37   43.80
   6   3  -3 1315.07   41.40
   3  -6   3 1348.17   40.50
  -3   6   3 1504.75   47.40
   6   3   3 1327.77   40.30
  -6  -3   3 1334.37   41.30
  -3   6   3 1367.56   43.20
  -6  -2  -3 1346.77   45.80
  -2   6  -3 1456.95   47.90
  -2   6  -3 1512.85   47.70
   6   2  -3 1457.35   45.10
  -6  -2   3 1482.05   44.90
   6   2   3 1480.05   43.80
  -2   6   3 1513.85   51.19
   2  -6   3 1496.25   44.40
  -2   6   3 1469.75   46.90
  -6  -1  -3  149.09    6.80
  -1   6  -3  135.99    8.50
  -1   6  -3  145.59    8.30
   1  -6  -3  143.89    9.80
  -1   6   3  128.89    7.50
  -6  -1   3  147.19    6.10
   1  -6   3  141.09    5.80
   1  -6   3  129.09    9.50
   6   1   3  148.79    5.20
   0   6  -3    0.00    2.00
   0   6  -3    9.40    2.80
   0  -6  -3    0.70    2.40
   0  -6   3    0.20    1.10
   0   6   3    1.90    2.10
  -6   0   3    6.00    1.50
   0  -6   3    1.30    2.20
  -1  -6  -3  132.89    7.10
   1   6  -3  135.79    7.20
  -1  -6  -3  140.69    8.10
  -1  -6   3  135.79    9.20
   1   6   3  139.09    7.50
  -6   1   3  144.09    5.70
  -1  -6   3  135.09    6.00
  -2  -6  -3 1395.66   45.60
   2   6  -3 1455.35   46.00
  -2  -6  -3 1500.25   46.60
  -2  -6   3 1461.65   45.10
  -2  -6   3 1520.45   50.19
   2   6   3 1519.15   46.70
  -6   2   3 1481.35   44.50
  -6   3  -3 1278.97   41.00
  -3  -6  -3 1366.36   42.80
  -3  -6   3 1466.65   44.60
  -3  -6   3 1308.87   41.30
  -3  -6   3 1295.37   41.80
   3   6   3 1346.97   42.50
  -6   3   3 1283.07   40.40
  -4  -6  -3    8.20    2.80
   4   6  -3    5.60    2.10
  -6   4  -3    5.90    2.00
  -4  -6   3    3.20    1.70
  -6   4   3    5.60    1.50
   4   6   3    8.30    2.50
  -5  -6  -3    8.90    3.40
  -6   5  -3    8.60    2.60
   5   6  -3    6.50    2.30
  -6   5   3    7.30    1.80
   5   6   3   10.00    2.60
  -5  -6   3    4.20    2.00
   6   6  -3 1294.47   41.40
  -6  -6  -3 1345.47   43.20
  -6   6  -3 1307.07   42.70
  -6   6   3 1275.37   40.40
  -6  -6   3 1317.17   41.40
  -6   6   3 1309.87   42.80
  -6   6   3 1281.87   40.90
   6   6   3 1307.17   41.10
  -6   6   3 1275.57   40.20
   7   6  -3 1134.89   36.80
  -6   7  -3 1135.69   38.70
  -7  -6  -3 1148.79   38.60
  -6   7   3 1080.49   37.20
  -6   7   3 1124.59   36.70
  -6   7   3 1144.59   38.60
   7   6   3 1125.29   36.10
  -7  -6   3 1135.39   36.80
  -5   7  -3  367.36   16.20
  -5   7  -3  360.96   14.00
   7   5  -3  374.46   14.30
  -7  -5  -3  363.96   15.90
  -7  -5   3  373.36   14.30
  -5   7   3  375.16   16.00
  -5   7   3  380.36   16.90
  -5   7   3  388.06   15.90
   7   5   3  376.56   13.50
  -4   7  -3  232.78   12.20
   7   4  -3  240.68   10.00
  -4   7  -3  225.18   11.20
  -7  -4  -3  221.88   11.50
  -4   7   3  252.67   13.50
  -7  -4   3  252.97   10.20
  -4   7   3  242.38   12.20
   7   4   3  238.28    9.10
  -4   7   3  257.87   12.00
  -7  -3  -3   91.39    6.90
  -3   7  -3   97.19    7.60
   7   3  -3  105.29    5.70
  -3   7  -3  121.69    7.90
   7   3   3   99.29    4.60
  -3   7   3  100.19    7.20
  -3   7   3  111.09    9.20
   3  -7   3   97.39    5.60
  -7  -3   3  103.59    5.60
   7   2  -3  681.23   22.10
  -7  -2  -3  602.34   22.70
  -2   7  -3  623.74   25.00
  -2   7  -3  689.03   24.70
   2  -7   3  680.43   21.50
  -2   7   3  657.43   23.90
   7   2   3  669.33   20.60
  -7  -2   3  665.33   21.70
  -7  -1  -3    7.30    2.40
  -1   7  -3    4.10    3.60
  -1   7  -3    4.60    2.90
   1  -7   3    8.30    1.90
  -1   7   3    1.40    2.50
   7   1   3    5.00    1.20
  -7  -1   3   13.60    2.20
   0   7  -3  327.67   14.20
   0  -7  -3  331.47   15.90
   0  -7   3  313.37   11.80
  -7   0   3  344.37   11.60
   0   7   3  310.67   13.60
   1   7  -3    5.30    2.80
  -1  -7  -3    2.40    2.30
  -1  -7  -3    2.00    2.40
  -1  -7   3   10.30    2.20
  -7   1   3    3.70    1.40
  -1  -7   3    7.90    3.80
   1   7   3    3.80    2.60
   2   7  -3  685.43   23.80
  -2  -7  -3  703.73   23.90
  -2  -7  -3  629.54   23.20
  -2  -7   3  661.83   22.50
  -2  -7   3  742.13   27.70
  -7   2   3  677.13   21.70
   2   7   3  687.93   24.10
  -3  -7  -3  106.09    6.90
   3   7  -3  101.19    6.40
  -7   3   3   99.79    4.80
   3   7   3   99.19    6.60
  -3  -7   3   95.49    5.60
  -3  -7   3  112.49    7.80
  -4  -7  -3  254.37   11.50
  -7   4  -3  233.58    9.90
   4   7  -3  231.98   10.50
   4   7   3  239.88   11.00
  -4  -7   3  227.98   10.00
  -7   4   3  243.68    8.90
   5   7  -3  369.26   14.60
  -5  -7  -3  396.86   15.80
  -7   5  -3  357.46   14.40
  -5  -7   3  371.96   14.30
   5   7   3  368.36   14.90
  -7   6  -3 1103.49   38.10
  -6  -7  -3 1217.58   39.10
   6   7  -3 1110.19   37.40
  -6  -7   3 1147.09   37.40
   6   7   3 1158.08   37.50
   7   7  -3   58.59    5.20
  -7  -7  -3   60.59    6.80
  -7   7  -3   51.29    6.00
  -7   7   3   52.19    6.20
   7   7   3   50.89    5.30
  -7  -7   3   50.49    5.50
   8   7  -3    9.00    2.90
  -7   8  -3   22.80    4.90
  -8  -7  -3   13.30    4.40
  -7   8   3    5.70    3.60
  -8  -7   3    6.90    3.20
  -6   8  -3    9.40    3.90
  -8  -6  -3   10.80    4.00
   8   6  -3    4.30    2.50
  -6   8   3    4.00    3.10
  -6   8   3    2.80    2.50
  -8  -6   3    1.10    2.40
   8   5  -3  164.38    8.40
  -8  -5  -3  173.38   10.30
  -5   8  -3  159.98    8.90
  -5   8  -3  170.98   10.60
  -8  -5   3  168.88    8.70
  -5   8   3  182.18   10.50
  -5   8   3  184.18   11.10
  -5   8   3  175.88   10.20
  -4   8  -3  317.47   14.90
  -4   8  -3  343.97   15.70
   8   4  -3  333.27   13.00
  -8  -4  -3  306.97   14.50
  -4   8   3  320.77   14.90
  -4   8   3  322.77   16.50
  -8  -4   3  341.37   13.20
  -8  -3  -3  205.58   11.10
  -3   8  -3  229.48   12.70
  -3   8  -3  251.27   12.60
   8   3  -3  240.18   10.00
  -8  -3   3  238.28   10.00
  -3   8   3  224.18   11.80
   8   2  -3  247.98   10.20
  -8  -2  -3  212.28   10.70
  -2   8  -3  244.38   12.40
  -8  -2   3  242.38    9.90
   2  -8   3  237.68    9.70
   8   2   3  248.18   10.70
  -2   8   3  237.98   11.90
  -1   8  -3 1029.00   35.40
   8   1   3 1030.00   31.30
  -8  -1   3  995.10   32.20
  -1   8   3 1000.90   34.70
   1  -8   3 1019.10   32.50
   0  -8  -3    0.80    3.30
   0   8  -3    0.20    2.80
   0  -8   3    3.10    1.90
  -8   0   3    2.40    1.50
   0   8   3    3.80    2.60
   1   8  -3 1009.30   35.60
  -1  -8  -3 1041.10   36.90
  -1  -8  -3 1047.60   34.30
  -1  -8   3 1030.20   33.50
  -1  -8   3 1098.39   44.70
   1   8   3 1089.59   35.40
  -8   1   3 1002.80   32.60
   2   8  -3  256.47   11.80
  -2  -8  -3  223.68   10.90
  -2  -8  -3  246.98   11.00
  -2  -8   3  237.18   10.20
  -8   2   3  232.68    9.20
  -2  -8   3  265.67   14.40
   2   8   3  259.87   11.70
   3   8  -3  239.18   11.30
  -3  -8  -3  246.38   11.40
  -3  -8   3  269.37   12.60
   3   8   3  234.88   11.30
  -3  -8   3  235.18   10.40
  -8   3   3  228.58   10.50
  -4  -8  -3  338.97   14.30
   4   8  -3  319.47   13.80
   4   8   3  319.27   14.00
  -4  -8   3  332.17   13.30
  -8   5  -3  175.28    8.80
  -5  -8  -3  199.18   10.30
   5   8  -3  169.88    9.20
   5   8   3  171.58    9.60
  -5  -8   3  170.48    9.00
  -6  -8  -3    3.60    3.40
   6   8  -3    5.30    2.80
  -8   6  -3    5.90    2.80
  -6  -8   3    2.20    2.60
   6   8   3    5.40    3.00
   7   8  -3    8.90    3.10
  -7  -8  -3   11.10    4.20
  -8   7  -3   14.10    4.10
  -7  -8   3    9.20    3.50
   8   8  -3  204.88   11.10
  -8   8  -3  217.98   12.30
  -8  -8  -3  231.98   12.70
  -8  -8   3  201.58   11.40
  -8   9  -3  137.99   10.30
   9   8  -3  134.49    8.90
  -9  -8  -3  122.49    9.80
  -9  -8   3  119.79    9.20
  -8   9   3  109.59    9.80
  -9  -7  -3   60.39    7.30
   9   7  -3   66.29    6.00
  -7   9  -3   65.89    7.90
  -7   9   3   58.69    7.50
  -9  -7   3   71.09    7.20
  -7   9   3   57.59    4.40
  -6   9  -3   15.20    2.60
   9   6  -3   15.10    3.40
  -6   9  -3   13.20    4.50
  -9  -6  -3   45.50    6.40
  -9  -6   3   14.20    3.90
  -6   9   3   14.60    3.60
  -6   9   3   40.40    6.00
  -6   9   3   12.40    3.60
   9   5  -3  605.04   22.50
  -5   9  -3  636.34   25.40
  -5   9  -3  609.04   23.90
  -9  -5  -3  627.44   24.70
  -5   9   3  641.54   25.20
  -5   9   3  668.03   26.20
  -9  -5   3  634.84   23.00
   9   4  -3  247.98   11.30
  -9  -4  -3  250.77   13.10
  -4   9  -3  260.17   13.90
  -4   9  -3  271.47   14.00
  -9  -4   3  271.17   11.80
  -4   9   3  260.27   13.40
  -3   9  -3  545.95   24.50
   9   3  -3  605.04   20.90
  -3   9  -3  623.64   23.80
  -9  -3  -3  546.85   22.00
  -3   9   3  581.74   23.10
  -9  -3   3  605.84   20.90
  -2   9  -3   28.80    5.20
   9   2  -3   33.80    4.00
   2  -9   3   38.90    4.10
  -9  -2   3   34.10    3.90
  -2   9   3   39.10    5.60
  -1   9  -3   10.90    3.90
  -1   9   3    5.90    3.20
   1  -9   3    6.10    2.50
  -9  -1   3    6.10    2.20
   0   9  -3 2324.17   75.19
   0   9   3 2441.16   74.59
   0  -9   3 2427.76   72.59
  -9   0   3 2273.17   71.59
   1   9  -3    5.40    3.50
  -1  -9  -3    7.90    3.50
  -1  -9   3    9.00    2.60
  -9   1   3    8.90    2.10
   1   9   3    7.30    3.20
  -2  -9  -3   31.90    4.40
   2   9  -3   19.50    4.20
  -2  -9  -3   28.30    4.10
   2   9   3   29.80    4.60
  -2  -9   3   27.20    3.80
  -2  -9   3   31.40    5.70
  -3  -9  -3  612.84   22.40
   3   9  -3  581.44   23.00
  -3  -9   3  652.73   23.60
  -3  -9   3  593.34   21.80
   3   9   3  586.64   22.70
   4   9  -3  249.88   12.50
  -4  -9  -3  251.77   12.30
  -4  -9   3  264.87   11.90
   4   9   3  265.87   12.50
  -5  -9  -3  638.44   23.60
   5   9  -3  632.34   23.50
  -5  -9   3  584.54   22.60
   5   9   3  621.64   23.50
  -6  -9  -3   17.80    4.50
   6   9  -3   21.10    4.40
  -6  -9   3    9.20    3.40
   6   9   3   14.30    3.90
   7   9  -3   78.79    6.80
  -7  -9  -3   67.49    7.50
  -9   7  -3   56.19    6.40
  -7  -9   3   53.09    6.20
  -8  -9  -3  128.59    9.80
   8   9  -3  122.89    8.70
  -9   8  -3  128.49    9.50
  -8  -9   3  123.79    9.30
  -9   9  -3   83.09    8.80
   9   9  -3   83.99    7.80
  -9  -9  -3   71.59    8.30
  -9  -9   3   74.19    8.10
  -9  10  -3  523.55   23.80
 -10  -9  -3  559.64   23.50
  10   9  -3  521.85   22.00
 -10  -9   3  499.75   22.70
 -10  -8  -3    5.40    4.50
  -8  10  -3    8.70    4.70
  10   8  -3    6.80    3.60
 -10  -8   3    7.30    4.40
  -8  10   3    6.50    4.50
  10   7  -3  871.41   31.00
 -10  -7  -3  911.91   33.10
  -7  10  -3  886.11   33.60
  -7  10   3  852.31   29.30
  -7  10   3  840.92   29.30
  -7  10   3  847.22   33.40
 -10  -7   3  876.71   31.80
  -6  10  -3   66.59    5.40
  10   6  -3   74.49    6.50
  -6  10  -3   71.29    8.40
 -10  -6  -3   77.39    8.30
 -10  -6   3   72.49    7.30
  -6  10   3   67.29    7.00
  -6  10   3   61.69    7.80
  -6  10   3   89.29    7.70
  -5  10  -3  717.13   27.80
 -10  -5  -3  676.23   26.80
  -5  10  -3  639.14   26.30
  10   5  -3  690.93   24.80
  -5  10   3  751.52   28.70
 -10  -5   3  682.63   25.20
  -5  10   3  665.73   27.10
  -4  10  -3  330.77   16.20
  -4  10  -3  310.77   16.40
  10   4  -3  317.97   13.50
  -4  10   3  305.57   15.50
 -10  -4   3  313.77   13.80
  -3  10  -3  765.52   29.20
  10   3  -3  747.33   26.40
  -3  10   3  757.72   28.80
 -10  -3   3  765.12   26.50
  10   2  -3   52.89    5.00
  -2  10  -3   59.29    7.30
 -10  -2   3   53.99    5.20
  -2  10   3   60.09    6.60
  -1  10  -3   56.99    6.90
   1 -10   3   64.79    5.50
 -10  -1   3   66.29    5.30
  -1  10   3   59.99    6.70
   0  10  -3    3.50    3.60
   0 -10   3    1.30    2.40
 -10   0   3    2.40    2.40
   0  10   3    5.60    3.40
  -1 -10  -3   59.99    6.90
   1  10  -3   52.19    6.80
  -1 -10   3   56.99    5.70
   1  10   3   57.99    6.40
   2  10  -3   49.60    6.70
  -2 -10  -3   50.59    5.40
  -2 -10  -3   48.90    5.30
  -2 -10   3   49.10    6.70
   2  10   3   46.30    5.80
  -2 -10   3   42.20    5.00
  -3 -10  -3  749.53   26.90
   3  10  -3  723.93   28.50
  -3 -10   3  720.83   26.60
   3  10   3  724.93   27.50
  -3 -10   3  832.12   28.10
  -4 -10  -3  315.07   14.40
   4  10  -3  326.77   15.60
  -4 -10   3  302.87   14.10
   4  10   3  335.57   14.90
   5  10  -3  661.73   26.10
  -5 -10  -3  691.03   25.70
  -5 -10   3  674.83   25.40
   5  10   3  704.53   26.00
   6  10  -3   64.09    7.20
  -6 -10  -3   61.79    7.00
  -6 -10   3   79.59    7.40
   6  10   3   64.89    7.10
  -7 -10  -3  856.41   31.90
   7  10  -3  842.12   31.80
  -7 -10   3  903.81   32.10
   8  10  -3    7.50    3.90
  -8 -10  -3    3.90    4.10
  -8 -10   3    7.10    4.20
  -9 -10  -3  529.95   22.70
 -10   9  -3  493.35   22.70
   9  10  -3  520.35   22.20
  -9 -10   3  531.65   23.00
 -11  -8  -3   34.80    7.00
  11   8  -3   20.30    4.80
  -8  11  -3   16.10    5.60
  -8  11   3   30.40    6.60
 -11  -8   3   23.60    5.80
  -7  11  -3   15.90    5.30
 -11  -7  -3   14.90    5.50
  11   7  -3    5.50    3.60
 -11  -7   3   13.20    4.90
  -7  11   3   11.70    3.20
  -7  11   3   13.20    3.20
  -7  11   3    5.70    4.60
  -6  11  -3   -0.70    3.90
 -11  -6  -3    0.70    4.30
  -6  11  -3    4.90    2.60
  11   6  -3    3.70    3.10
  -6  11   3    4.30    4.00
  -6  11   3    5.10    3.30
 -11  -6   3    0.30    3.50
  11   5  -3  204.88   10.70
  -5  11  -3  197.08   12.80
  -5  11  -3  184.38   11.80
  -5  11   3  196.38   12.50
 -11  -5   3  194.98   11.20
  11   4  -3   19.50    4.00
  -4  11  -3   25.50    5.70
 -11  -4   3   22.00    4.50
  -4  11   3   22.00    5.20
  -3  11  -3  341.57   16.90
  11   3  -3  343.57   14.60
  -3  11   3  347.27   16.60
 -11  -3   3  326.27   14.70
  11   2  -3  141.39    8.40
  -2  11  -3  151.48   10.60
  -2  11   3  138.89    9.90
 -11  -2   3  150.28    8.70
  -1  11  -3    7.20    4.00
   1 -11   3   12.30    4.20
  -1  11   3   18.50    4.50
   0  11  -3  431.96   19.90
   0  11   3  453.75   19.30
   0 -11   3  458.75   17.90
   1  11  -3   11.00    4.30
  -1 -11   3   18.00    4.00
   1  11   3   15.50    4.20
   2  11  -3  136.29   10.50
  -2 -11  -3  155.58    8.80
  -2 -11   3  144.79    9.10
   2  11   3  142.89    9.60
  -3 -11  -3  336.17   15.20
   3  11  -3  339.47   17.30
  -3 -11   3  332.57   15.60
   3  11   3  346.57   16.00
  -3 -11   3  377.86   15.50
   4  11  -3   26.30    5.60
  -4 -11  -3   24.10    4.60
   4  11   3   18.30    4.40
  -4 -11   3   11.70    4.00
  -5 -11  -3  197.78   11.30
   5  11  -3  188.88   12.30
   5  11   3  190.38   11.40
  -5 -11   3  196.78   11.50
   6  11  -3    0.10    3.60
  -6 -11  -3    0.60    3.50
  -6 -11   3    6.00    4.00
  -7 -11  -3    9.70    4.50
   7  11  -3   13.10    4.50
  -7 -11   3    9.40    4.50
  -8 -11  -3   16.40    5.10
   8  11  -3   24.40    5.60
  -8 -11   3   27.50    6.20
  -6  12  -3   20.60    4.00
  -6  12  -3   35.00    6.90
  12   6  -3   23.80    4.80
  -6  12   3   23.60    6.00
  -6  12   3   23.40    5.10
 -12  -6   3   42.30    7.00
  12   5  -3   64.69    6.50
  -5  12  -3   70.99    7.70
  -5  12  -3   54.49    7.70
 -12  -5   3   54.19    7.20
  -5  12   3   61.79    8.00
  12   4  -3   16.20    4.00
  -4  12  -3   18.50    5.10
  -4  12   3    9.40    4.50
 -12  -4   3   12.50    4.50
  -3  12  -3  425.46   20.10
  12   3  -3  428.16   17.90
  -3  12   3  444.06   20.00
  -2  12  -3    4.30    4.10
  12   2  -3    6.10    3.10
  -2  12   3    4.80    3.80
  -1  12  -3  407.16   19.30
  12   1  -3  401.56   16.70
  -1  12   3  405.36   18.40
   0  12  -3    4.10    4.10
   0  12   3    1.40    3.30
   0 -12   3    5.60    3.20
   1  12  -3  402.06   19.70
   1  12   3  410.36   18.70
  -1 -12   3  457.15   18.10
   2  12  -3    1.60    3.80
  -2 -12  -3    6.00    2.70
  -2 -12   3    8.50    3.90
   2  12   3    0.60    3.20
   3  12  -3  404.76   20.40
  -3 -12  -3  432.46   18.10
  -3 -12   3  431.06   18.90
  -3 -12   3  426.46   16.90
   3  12   3  426.26   19.10
  -3 -12   3  473.15   17.30
   4  12  -3   10.60    4.90
  -4 -12  -3   10.10    3.90
   4  12   3   14.70    4.40
  -4 -12   3   19.10    4.90
   5  12  -3   63.69    8.60
  -5 -12  -3   59.19    6.80
  -5 -12   3   53.29    7.00
   5  12   3   68.19    7.80
   6  12  -3   34.10    7.00
  -6 -12  -3   31.90    5.60
  -6 -12   3   30.20    6.00
  -4  13  -3   31.20    6.20
  13   4  -3   23.70    4.70
  -4  13   3   22.40    5.50
  13   3  -3  100.39    7.90
  -3  13  -3   97.59    9.50
  -3  13   3  101.19    9.20
  -2  13  -3  211.28   13.60
  13   2  -3  206.78   11.30
  -2  13   3  217.58   12.90
  -1  13  -3  275.97   15.80
  13   1  -3  268.27   13.20
  -1  13   3  290.07   14.90
   0  13  -3  210.78   13.60
   0  13   3  220.68   12.90
   1  13  -3  282.27   16.30
  -1 -13   3  315.17   14.50
   1  13   3  305.47   15.50
   2  13  -3  215.08   13.90
   2  13   3  218.58   12.90
  -2 -13   3  218.58   12.30
   3  13  -3  111.89   10.50
   3  13   3   95.49    8.90
  -3 -13   3  121.89    9.30
   4  13  -3   26.60    6.50
  -4 -13   3   15.80    4.90
   4  13   3   22.60    5.10
   0   0  -4 8838.62  278.57
   0   0   4 9537.25  280.67
   0   0   4 9473.75  274.27
   0   1  -4    3.10    1.50
  -1   0   4    4.70    1.60
   0  -1   4    4.00    0.90
  -1   0   4    2.80    0.90
  -1   0   4    6.00    1.50
   0   1   4    6.00    1.70
  -1   1  -4   61.79    3.60
   1   1  -4   63.29    3.80
  -1   1  -4   62.69    2.70
   1  -1  -4   59.79    4.10
   1   1  -4   62.89    2.80
  -1  -1   4   63.49    3.80
  -1   1   4   61.89    3.80
  -1  -1   4   67.39    3.00
   1  -1   4   64.19    2.70
  -1  -1   4   64.19    4.00
  -1   2  -4 2188.88   63.99
   1  -2  -4 2128.49   64.69
  -1   2  -4 2043.80   62.79
  -2  -1   4 2048.40   64.09
   1  -2   4 2132.69   62.19
  -2  -1   4 2207.68   63.99
  -1   2   4 2009.00   64.59
  -2  -1   4 2143.39   62.69
  -1   2   4 2140.09   64.29
   0   2  -4 3800.72  112.29
   0   2  -4 3643.04  110.69
   0  -2  -4 3691.53  112.29
  -2   0   4 3816.32  110.79
   0   2   4 3859.01  112.59
   0   2   4 3824.62  111.09
   0  -2   4 3719.33  110.49
  -2   0   4 3883.41  111.89
  -2   0   4 3714.83  112.29
   1   2  -4 2144.19   63.69
   1   2  -4 2220.08   65.19
  -1  -2   4 2186.58   65.19
   2  -1   4 2065.79   63.09
  -1  -2   4 2123.79   63.49
  -2   1   4 2195.98   63.79
  -2   1   4 2155.48   65.69
   1   2   4 2148.19   63.19
  -2   1   4 2099.49   64.79
  -2   2  -4 1186.78   39.30
  -2   2  -4 1295.77   39.30
   2   2  -4 1295.87   38.70
  -2  -2   4 1253.67   39.80
  -2   2   4 1258.87   41.10
  -2  -2   4 1303.67   38.50
  -2  -2   4 1309.17   40.00
   2  -2   4 1297.27   37.90
  -2   2   4 1328.27   40.10
  -2   3  -4   69.09    4.20
   3   2  -4   68.49    3.60
  -2   3  -4   74.09    4.80
  -3  -2   4   68.19    4.20
  -2   3   4   69.29    4.60
  -3  -2   4   73.39    3.50
  -2   3   4   69.49    3.90
  -2   3   4   69.69    5.60
   2  -3   4   66.19    2.70
  -3  -2   4   66.99    4.10
   1  -3  -4 1857.51   56.09
  -1   3  -4 1832.52   54.79
  -1   3  -4 1708.73   53.79
  -3  -1   4 1795.12   53.19
  -1   3   4 1785.22   53.49
  -3  -1   4 1799.92   54.39
  -1   3   4 1756.22   55.09
  -3  -1   4 1792.52   54.09
   1  -3   4 1735.63   52.59
  -1   3   4 1750.82   55.69
   0   3  -4    4.30    1.30
   0  -3  -4    1.80    1.40
  -3   0   4    3.60    1.70
   0  -3   4    0.90    1.20
  -3   0   4    1.50    1.00
  -3   0   4    1.90    1.10
   0   3   4    2.60    1.10
   0  -3   4    1.40    0.80
   0   3   4    1.80    1.50
   1   3  -4 1739.33   53.09
   1   3  -4 1785.22   54.79
  -3   1   4 1803.62   53.89
  -1  -3   4 1763.92   54.79
  -3   1   4 1832.62   52.99
  -1  -3   4 1799.52   52.69
   1   3   4 1753.12   52.89
  -3   1   4 1706.43   55.09
  -3   2  -4   79.29    3.90
   2   3  -4   72.49    3.70
  -2  -3   4   66.59    4.60
  -3   2   4   68.69    4.20
   2   3   4   71.79    3.50
   3  -2   4   67.29    2.60
  -2  -3   4   73.59    4.50
  -3   2   4   67.79    3.50
  -3   2   4   68.09    5.70
  -2  -3   4   72.99    3.50
  -3   3  -4 3449.55  102.69
  -3   3  -4 3458.55  101.89
   3   3  -4 3662.43  101.99
  -3   3   4 3319.57  105.89
   3  -3   4 3360.96  100.39
  -3  -3   4 3393.76  103.39
  -3  -3   4 3490.95  101.59
  -3  -3   4 3479.45  102.59
   3   3   4 3086.49  101.29
  -3   3   4 3694.73  103.29
   4   3  -4  717.93   22.80
  -3   4  -4  728.43   23.40
  -3   4  -4  669.63   24.10
  -3   4   4  708.73   23.40
   4   3   4  716.53   22.30
   3  -4   4  730.43   21.30
  -3   4   4  702.33   27.40
  -3   4   4  682.23   24.30
  -4  -3   4  714.93   22.50
  -2   4  -4   93.49    6.00
  -2   4  -4   99.89    5.60
   4   2  -4   93.09    4.60
  -2   4   4   94.79    5.10
  -4  -2   4   98.69    4.50
  -2   4   4   89.19    7.20
  -2   4   4   84.79    5.80
   2  -4   4   93.99    3.70
   1  -4  -4 2490.15   80.79
  -1   4  -4 2712.53   79.59
  -1   4  -4 2624.34   78.79
  -1   4   4 2711.33   78.29
  -4  -1   4 2697.43   77.49
  -1   4   4 2395.56   80.59
   1  -4   4 2635.44   76.89
   0   4  -4   99.49    5.90
   0  -4  -4  101.49    6.20
   0   4  -4  104.49    5.00
   0   4   4   95.59    4.90
  -4   0   4   94.69    4.30
   0  -4   4   94.49    5.70
  -4   0   4   97.99    4.30
  -4   0   4   83.29    5.30
   0  -4   4   91.09    4.00
   0   4   4   88.29    6.00
  -1  -4  -4 2707.93   79.29
   1   4  -4 2649.63   80.09
   1   4  -4 2684.03   78.29
  -1  -4   4 2610.14   80.09
  -4   1   4 2328.77   79.79
  -1  -4   4 2596.64   77.49
   1   4   4 2664.33   78.29
  -4   1   4 2703.03   77.99
  -4   1   4 2611.14   77.59
  -4   2  -4   89.59    4.00
   2   4  -4   92.99    4.70
   2   4   4   81.69    4.70
  -4   2   4   91.09    4.30
  -2  -4   4   91.09    6.00
  -4   2   4  103.59    4.90
  -2  -4   4   95.49    4.30
  -4   2   4   88.79    6.70
   3   4  -4  709.73   22.70
  -4   3  -4  725.43   22.70
  -3  -4   4  707.73   22.20
  -4   3   4  723.43   22.20
  -3  -4   4  663.33   23.00
  -3  -4   4  702.03   24.80
   3   4   4  662.53   22.50
  -4   3   4  710.03   23.20
  -4   3   4  697.93   26.10
  -4   4  -4    7.30    2.40
  -4   4  -4    4.70    1.20
  -4  -4  -4    4.10    2.30
   4   4  -4   13.70    2.20
   4   4   4    6.90    1.90
  -4   4   4    1.70    1.50
  -4   4   4    5.60    3.20
  -4  -4   4    8.90    1.80
  -4   4   4    7.20    2.10
   5   4  -4  478.85   16.50
  -4   5  -4  459.55   18.00
  -4   5  -4  464.35   16.40
  -5  -4  -4  457.95   17.70
   5   4   4  465.35   15.90
  -4   5   4  484.25   17.50
  -4   5   4  512.75   20.80
  -5  -4   4  478.15   16.30
  -4   5   4  484.85   18.10
   5   3  -4 4755.32  138.39
  -3   5  -4 4652.63  139.59
  -3   5  -4 4504.75  140.29
  -5  -3  -4 4595.64  139.39
  -5  -3   4 4687.43  138.09
  -3   5   4 4790.62  139.39
   3  -5   4 4704.43  136.79
  -3   5   4 4551.64  143.99
  -3   5   4 4895.41  140.99
   5   3   4 4620.54  137.19
  -2   5  -4  242.98   11.00
   2  -5  -4  221.88   12.60
   5   2  -4  230.48    9.00
  -2   5  -4  248.08   10.70
  -5  -2   4  238.38    8.80
   2  -5   4  238.28    8.10
  -2   5   4  242.18   10.00
  -2   5   4  231.08   13.00
   5   2   4  227.98    7.70
  -1   5  -4    8.10    2.50
   1  -5  -4    6.70    2.70
  -1   5  -4    7.10    2.50
  -5  -1   4    8.70    1.70
  -1   5   4   13.40    3.80
  -1   5   4    7.10    2.20
   0   5  -4    5.50    2.10
   0   5  -4    5.10    2.20
   0  -5  -4    3.10    2.30
   0   5   4    3.70    2.40
   0  -5   4    1.90    1.60
   0  -5   4    4.60    1.20
   0   5   4    2.70    1.70
  -5   0   4    5.60    1.40
   1   5  -4   10.00    2.20
   1   5  -4    6.90    2.40
  -1  -5  -4   11.60    2.50
  -1  -5   4   12.30    1.80
  -1  -5   4    8.50    2.50
  -5   1   4   11.00    1.70
   1   5   4   13.60    2.60
   2   5  -4  237.78    9.40
  -5   2  -4  239.68    8.20
  -2  -5   4  236.88    8.70
  -2  -5   4  233.48   11.40
  -5   2   4  224.38    8.50
   2   5   4  214.38    9.40
   3   5  -4 4905.31  138.79
  -5   3  -4 4629.34  137.99
  -3  -5   4 4714.33  138.09
  -3  -5   4 4659.63  139.19
  -3  -5   4 4693.73  141.89
   3   5   4 4685.53  138.89
  -5   3   4 4744.83  137.89
  -5   3   4 4737.83  137.99
  -5   3   4 4350.96  139.09
  -5   4  -4  480.55   16.90
  -4  -5  -4  452.85   17.80
   4   5  -4  471.55   16.60
  -5   4   4  472.45   18.30
  -5   4   4  489.35   16.70
  -4  -5   4  479.35   16.30
  -5   4   4  472.15   16.00
   4   5   4  475.45   16.70
  -5   5  -4 3714.93  109.39
  -5  -5  -4 3486.95  109.59
   5   5  -4 3635.54  108.29
  -5  -5   4 3517.25  107.89
   5   5   4 3541.15  107.99
  -5   5   4 3730.63  109.29
  -5   5   4 3568.24  110.99
  -5   5   4 3756.92  109.19
  -5   6  -4  157.48    8.90
  -6  -5  -4  151.98    8.90
   6   5  -4  140.69    7.40
  -6  -5   4  146.19    7.30
  -5   6   4  159.28    8.50
  -5   6   4  150.78    8.50
  -5   6   4  153.28    9.60
  -4   6  -4   82.09    5.40
   6   4  -4   82.09    5.10
  -4   6  -4   76.79    6.70
  -6  -4  -4   71.79    6.20
  -4   6   4   80.99    6.30
  -4   6   4   84.09    7.90
  -4   6   4   83.89    6.10
  -6  -4   4   86.69    5.10
  -6  -3  -4   75.29    5.90
  -3   6  -4   76.69    5.90
  -3   6  -4   78.59    6.60
   6   3  -4   79.89    4.80
  -3   6   4   80.59    8.30
  -3   6   4   82.39    6.60
  -3   6   4   81.59    5.90
   3  -6   4   88.29    4.00
  -6  -3   4   81.99    4.70
  -2   6  -4 1707.63   54.69
  -2   6  -4 1662.03   54.29
   6   2  -4 1688.43   51.99
  -6  -2   4 1693.33   51.69
  -2   6   4 1693.13   58.19
   2  -6   4 1726.13   50.89
  -2   6   4 1718.83   53.49
   1  -6  -4  623.84   24.60
  -1   6  -4  580.04   22.00
  -1   6  -4  596.44   22.90
  -6  -1   4  606.14   19.70
   1  -6   4  596.14   19.20
   6   1   4  617.94   19.00
  -1   6   4  599.04   21.30
   0   6  -4 1002.60   32.40
   0  -6  -4  919.11   34.20
   0  -6   4  918.01   35.50
   0   6   4  953.20   32.00
  -6   0   4 1027.20   30.40
   0  -6   4 1016.90   30.20
   1   6  -4  581.04   20.20
  -1  -6  -4  586.04   21.40
  -1  -6   4  588.84   18.80
  -6   1   4  606.34   18.80
  -1  -6   4  549.85   22.30
   1   6   4  535.95   20.20
   2   6  -4 1660.63   50.89
   2   6   4 1606.84   51.09
  -2  -6   4 1567.44   54.19
  -2  -6   4 1687.13   49.90
  -6   2   4 1655.33   49.50
  -6   3  -4   82.29    4.30
   3   6  -4   79.49    5.30
  -3  -6  -4   74.99    6.00
   3   6   4   74.29    5.50
  -3  -6   4   81.99    7.40
  -6   3   4   81.09    4.30
  -3  -6   4   81.09    5.40
  -3  -6   4   73.49    4.60
  -6   4  -4   78.69    5.00
   4   6  -4   79.29    5.30
  -4  -6  -4   88.19    6.50
  -4  -6   4   80.59    4.80
   4   6   4   84.69    5.60
  -6   4   4   77.99    4.50
   5   6  -4  147.19    7.50
  -5  -6  -4  145.89    8.70
  -6   5  -4  139.39    7.60
  -6   5   4  139.99    6.30
  -6   5   4  144.49    6.90
  -5  -6   4  145.29    7.20
   5   6   4  139.59    7.50
  -6   5   4  156.38    6.80
  -6   6  -4  827.72   28.40
  -6  -6  -4  825.82   28.80
   6   6  -4  804.82   27.20
  -6   6   4  823.42   26.30
  -6   6   4  790.72   27.70
  -6  -6   4  790.52   26.90
  -6   6   4  782.62   26.70
  -6   7  -4 1138.09   39.40
  -7  -6  -4 1177.38   39.40
   7   6  -4 1128.89   37.60
  -7  -6   4 1166.48   37.60
  -6   7   4 1170.28   38.20
  -6   7   4 1149.29   39.10
  -6   7   4 1142.39   39.30
  -7  -5  -4  449.86   19.00
  -5   7  -4  463.35   17.00
   7   5  -4  473.25   17.50
  -5   7  -4  462.15   19.40
  -7  -5   4  484.65   17.40
  -5   7   4  492.95   19.40
  -5   7   4  488.45   19.20
  -5   7   4  497.25   20.70
  -7  -4  -4 3060.19  102.69
  -4   7  -4 3306.07  104.09
  -4   7  -4 3310.87  103.09
   7   4  -4 3328.57  101.59
  -7  -4   4 3361.86  101.49
  -4   7   4 3559.04  103.79
  -4   7   4 3725.23  107.69
   7   3  -4  368.16   14.10
  -3   7  -4  373.06   16.30
  -3   7  -4  399.26   16.80
  -7  -3  -4  360.86   15.10
  -7  -3   4  384.36   14.00
  -3   7   4  388.96   19.10
  -3   7   4  403.16   16.10
  -2   7  -4  793.92   29.80
  -2   7  -4  811.72   29.20
   7   2  -4  818.22   26.80
  -7  -2  -4  842.02   27.30
  -7  -2   4  780.42   26.30
  -2   7   4  811.72   28.40
   2  -7   4  849.81   25.90
  -1   7  -4  410.46   17.30
   1  -7   4  423.86   14.30
  -7  -1   4  421.76   14.60
  -1   7   4  407.16   16.40
   0   7  -4    4.20    2.90
  -7   0   4    5.50    1.70
   0   7   4    1.70    2.40
   0  -7   4    2.20    1.50
   1   7  -4  403.26   16.10
  -1  -7  -4  406.36   17.00
  -7   1   4  423.56   14.20
  -1  -7   4  383.76   18.70
   1   7   4  420.56   16.20
  -1  -7   4  423.86   14.40
   2   7  -4  807.82   27.60
  -2  -7  -4  780.62   27.10
  -7   2   4  808.32   25.70
  -2  -7   4  834.02   31.70
  -2  -7   4  808.82   26.20
   2   7   4  819.82   27.70
   3   7  -4  376.46   14.80
  -3  -7  -4  370.86   15.20
  -3  -7   4  372.96   15.20
  -7   3   4  365.66   13.20
   3   7   4  391.06   15.10
  -3  -7   4  368.96   13.90
  -3  -7   4  408.26   17.80
  -4  -7  -4 3572.54  103.29
  -7   4  -4 3231.68  100.99
   4   7  -4 3282.87  102.09
  -7   4   4 3278.77  100.39
  -4  -7   4 3418.96  101.39
   4   7   4 3484.65  102.39
  -5  -7  -4  497.05   19.10
  -7   5  -4  474.65   17.60
   5   7  -4  468.45   17.90
  -5  -7   4  463.15   17.40
  -7   5   4  478.85   16.50
   5   7   4  483.75   18.00
   6   7  -4 1119.19   37.90
  -6  -7  -4 1214.98   39.50
  -7   6  -4 1164.78   38.50
  -6  -7   4 1134.89   37.60
  -7   7  -4   17.80    4.10
   7   7  -4   10.90    3.10
  -7  -7  -4   17.80    4.60
  -7  -7   4   13.10    3.30
  -8  -7  -4  134.69    9.60
   8   7  -4  127.19    8.00
  -7   8  -4  146.19    9.80
  -8  -7   4  119.59    8.00
  -7   8   4  131.89    9.50
  -7   8   4  119.89    6.30
  -8  -6  -4 1470.75   48.60
  -6   8  -4 1438.26   49.00
   8   6  -4 1441.06   46.80
  -6   8   4 1467.05   48.80
  -6   8   4 1454.05   49.00
  -6   8   4 1445.46   47.90
  -8  -6   4 1455.75   46.90
   8   5  -4   48.30    4.70
  -5   8  -4   47.80    4.70
  -8  -5  -4   45.20    6.00
  -5   8  -4   44.40    6.20
  -5   8   4   48.20    6.30
  -5   8   4   50.49    6.30
  -8  -5   4   49.20    5.00
  -4   8  -4  107.59    8.40
   8   4  -4   88.59    5.90
  -4   8  -4   87.39    7.20
  -8  -4  -4   71.79    7.10
  -4   8   4  101.89    7.80
  -4   8   4  112.39    9.20
  -8  -4   4   89.79    6.00
  -3   8  -4  194.18   10.90
   8   3  -4  180.68    8.50
  -8  -3  -4  159.68    9.20
  -3   8  -4  169.88   10.60
  -8  -3   4  167.88    8.10
  -3   8   4  169.38    9.90
  -8  -2  -4 1720.83   53.89
  -2   8  -4 1750.42   56.19
   8   2  -4 1768.02   53.59
  -8  -2   4 1668.73   52.89
  -2   8   4 1660.73   55.19
   2  -8   4 1725.43   52.59
  -1   8  -4   23.00    4.60
  -1   8   4   26.50    4.50
   1  -8   4   23.80    3.00
  -8  -1   4   36.00    3.40
   0   8  -4 4456.65  138.49
   0   8   4 4517.05  137.59
   0  -8   4 4832.02  135.59
  -8   0   4 4444.26  135.19
  -1  -8  -4   31.20    5.00
   1   8  -4   27.30    4.70
  -1  -8   4   37.10    3.70
  -8   1   4   25.40    2.90
   1   8   4   27.80    4.30
  -2  -8  -4 1549.05   53.09
   2   8  -4 1665.73   54.09
  -2  -8   4 1713.43   52.39
  -2  -8   4 1812.52   58.79
   2   8   4 1762.72   54.09
  -8   2   4 1655.93   51.59
   3   8  -4  175.08    9.50
  -3  -8  -4  196.28    9.90
   3   8   4  189.48    9.70
  -8   3   4  174.18    7.70
  -3  -8   4  176.88    8.50
  -3  -8   4  197.78   11.50
   4   8  -4   85.99    6.60
  -4  -8  -4   99.69    7.30
  -4  -8   4   97.59    6.10
   4   8   4   94.39    6.80
   5   8  -4   49.40    5.30
  -8   5  -4   45.70    4.90
  -5  -8  -4   51.29    6.00
   5   8   4   45.20    5.10
  -5  -8   4   43.00    4.70
   6   8  -4 1428.36   46.40
  -6  -8  -4 1467.35   47.40
  -8   6  -4 1373.26   46.00
  -6  -8   4 1410.86   45.80
   7   8  -4  129.39    8.30
  -8   7  -4  135.89    9.00
  -7  -8  -4  145.39    9.70
  -7  -8   4  118.09    7.80
   8   8  -4 1865.21   62.29
  -8  -8  -4 2149.98   64.39
  -8   8  -4 1922.31   63.69
  -8  -8   4 1883.11   62.29
   9   8  -4    8.90    3.60
  -9  -8  -4   10.00    4.50
  -8   9  -4    9.30    4.40
  -9  -8   4    7.50    3.80
  -9  -7  -4    2.90    4.20
   9   7  -4   14.60    3.80
  -7   9  -4    1.60    3.60
  -7   9   4    3.40    2.10
  -7   9   4    3.80    3.80
  -7   9   4    3.50    2.30
  -9  -7   4    4.00    3.10
   9   6  -4  254.57   12.10
  -9  -6  -4  269.77   14.10
  -6   9  -4  264.57   14.20
  -6   9   4  272.67   13.40
  -9  -6   4  255.47   12.30
  -6   9   4  247.58   13.80
  -6   9   4  247.58   13.40
  -5   9  -4  563.04   22.60
   9   5  -4  596.74   21.90
  -9  -5  -4  566.64   23.40
  -5   9  -4  622.14   24.70
  -5   9   4  597.64   24.10
  -5   9   4  651.83   25.70
  -9  -5   4  601.24   22.00
  -4   9  -4 1412.66   49.00
  -4   9  -4 1533.25   49.40
   9   4  -4 1460.05   46.20
  -9  -4  -4 1311.27   47.10
  -4   9   4 1451.25   48.60
  -9  -4   4 1456.95   46.10
   9   3  -4   18.10    3.30
  -3   9  -4   30.60    5.70
  -3   9  -4   15.50    4.60
  -3   9   4   23.80    4.80
  -9  -3   4   21.30    3.40
  -2   9  -4 1271.57   42.70
   9   2  -4 1245.18   40.00
  -2   9   4 1199.58   41.80
  -9  -2   4 1217.78   39.40
  -1   9  -4   67.69    7.20
   1  -9   4   73.09    5.20
  -9  -1   4   74.99    5.10
  -1   9   4   64.29    6.40
   0   9  -4    8.40    3.90
   0   9   4    1.30    2.70
   0  -9   4    4.30    2.20
  -9   0   4    0.30    1.70
   1   9  -4   65.59    7.20
  -1  -9  -4   70.99    6.90
  -9   1   4   62.59    4.60
  -1  -9   4   72.69    5.30
   1   9   4   80.79    6.70
  -2  -9  -4 1168.98   40.70
   2   9  -4 1232.88   42.30
  -2  -9   4 1322.37   46.10
   2   9   4 1263.47   41.50
  -2  -9   4 1271.57   40.10
  -9   2   4 1226.48   39.00
   3   9  -4   19.30    4.30
  -3  -9   4   23.30    3.80
  -3  -9   4   40.90    6.10
   3   9   4   26.70    4.50
  -4  -9  -4 1534.05   48.60
   4   9  -4 1450.45   48.60
   4   9   4 1489.55   48.20
  -4  -9   4 1443.66   47.30
   5   9  -4  596.84   22.80
  -5  -9  -4  625.44   23.00
  -5  -9   4  562.04   21.60
   5   9   4  582.34   22.40
  -6  -9  -4  261.47   13.10
   6   9  -4  243.38   12.40
  -6  -9   4  241.48   12.00
   7   9  -4    3.90    3.20
  -7  -9  -4   -1.20    3.40
  -7  -9   4   -0.80    2.70
  -8  -9  -4   12.60    4.80
   8   9  -4   13.70    4.00
  -8  -9   4   14.00    4.30
  -9  -9  -4   10.40    4.70
   9   9  -4    5.40    3.60
  -9  -9   4    5.50    4.10
  10   8  -4 1058.59   37.70
 -10  -8  -4 1109.69   39.40
  -8  10  -4 1084.79   40.00
 -10  -8   4 1034.40   38.10
  -7  10  -4  772.02   30.90
 -10  -7  -4  806.62   30.60
  10   7  -4  765.32   28.60
 -10  -7   4  754.82   28.90
  -7  10   4  781.42   31.10
  -7  10   4  811.42   27.70
  -7  10   4  763.52   27.40
  -6  10  -4  136.39   10.60
  10   6  -4  117.49    8.30
 -10  -6  -4  126.29   10.00
  -6  10  -4  112.49    6.40
 -10  -6   4  129.29    8.70
  -6  10   4  135.69    9.60
  -6  10   4  113.29    9.70
 -10  -5  -4  327.67   16.20
  -5  10  -4  318.97   15.60
  -5  10  -4  344.17   16.90
  10   5  -4  336.27   14.70
  -5  10   4  317.47   16.40
 -10  -5   4  325.57   14.70
  -5  10   4  377.26   17.90
  10   4  -4  117.19    7.70
  -4  10  -4  114.49    9.40
  -4  10  -4  131.49    9.90
  -4  10   4  107.19    9.00
 -10  -4   4  121.59    7.80
  -3  10  -4   81.49    8.30
  10   3  -4   84.59    6.40
  -3  10   4   85.59    7.80
 -10  -3   4   88.59    6.60
  10   2  -4  404.26   16.10
  -2  10  -4  403.66   18.40
 -10  -2   4  388.36   15.50
  -2  10   4  396.16   17.70
  -1  10  -4 1070.09   38.40
 -10  -1   4 1046.80   35.10
  -1  10   4 1073.59   37.50
   1 -10   4 1115.89   35.60
   0  10  -4 1634.84   56.99
 -10   0   4 1662.33   53.39
   0 -10   4 1796.52   54.29
   0  10   4 1765.12   56.09
   1  10  -4 1004.20   38.10
  -1 -10  -4 1101.49   38.60
  -1 -10   4 1085.09   35.60
   1  10   4 1088.69   37.10
  -2 -10  -4  382.86   15.90
   2  10  -4  378.66   18.00
  -2 -10   4  405.16   15.90
   2  10   4  408.76   16.90
   3  10  -4   93.99    8.20
   3  10   4   87.29    7.30
  -3 -10   4   99.49    8.10
  -3 -10   4   95.09    6.80
   4  10  -4  108.49    8.80
  -4 -10  -4  133.89    8.70
   4  10   4  114.79    8.10
  -4 -10   4  109.19    7.70
   5  10  -4  329.77   15.60
  -5 -10  -4  331.17   15.20
  -5 -10   4  315.67   14.60
  -6 -10  -4  122.79    9.20
   6  10  -4  130.19    9.30
  -6 -10   4  128.19    8.90
  -7 -10  -4  796.42   29.80
   7  10  -4  794.22   29.80
  -7 -10   4  773.22   29.30
   8  10  -4 1048.80   38.80
  -8 -10  -4 1105.79   39.30
  -8 -10   4 1122.99   39.10
 -11  -7  -4  718.63   28.60
  -7  11  -4  708.03   29.00
  11   7  -4  685.83   26.60
 -11  -7   4  669.43   27.00
  -7  11   4  688.83   25.50
  -7  11   4  676.73   29.00
  -7  11   4  706.83   25.40
  11   6  -4   16.20    4.10
  -6  11  -4   15.80    5.40
  -6  11  -4   17.60    3.40
  -6  11   4   15.20    4.40
 -11  -6   4   16.80    4.70
  -6  11   4   10.60    4.70
  -5  11  -4  758.92   29.90
  11   5  -4  793.12   28.40
  -5  11  -4  800.32   30.90
  -5  11   4  769.32   30.50
 -11  -5   4  774.12   28.50
  11   4  -4  127.09    8.30
  -4  11  -4  117.89    9.90
  -4  11  -4  126.59   10.40
  -4  11   4  135.19   10.20
 -11  -4   4  114.79    8.40
  -3  11  -4 2219.78   71.69
  11   3  -4 2185.18   68.89
 -11  -3   4 2138.29   68.69
  -3  11   4 2201.08   71.09
  11   2  -4   91.59    6.90
  -2  11  -4   85.89    8.60
 -11  -2   4   86.29    6.70
  -2  11   4  105.59    8.60
  -1  11  -4  309.27   16.00
  -1  11   4  304.87   15.20
 -11  -1   4  328.37   13.70
   0  11  -4    1.20    3.60
   0  11   4    0.40    2.90
   0 -11   4    3.50    2.80
   1  11  -4  308.97   16.50
  -1 -11  -4  349.67   16.40
  -1 -11   4  316.97   14.40
   1  11   4  323.87   15.20
   2  11  -4   91.59    9.10
  -2 -11   4   89.59    7.20
   2  11   4  106.29    8.00
   3  11  -4 2084.69   71.09
   3  11   4 2133.39   69.09
  -3 -11   4 2431.36   69.99
  -3 -11   4 2017.20   68.49
  -3 -11   4 2134.39   68.49
   4  11  -4  139.09   10.50
   4  11   4  123.69    8.90
  -4 -11   4  124.69    8.80
   5  11  -4  771.82   30.10
  -5 -11  -4  786.62   28.70
  -5 -11   4  744.83   28.40
  -6 -11  -4   17.00    4.70
   6  11  -4   12.00    4.60
  -6 -11   4    9.30    4.20
  -7 -11  -4  664.83   26.20
   7  11  -4  656.73   27.00
  -7 -11   4  657.13   26.30
  -5  12  -4  224.68   13.40
  -5  12  -4  248.38   14.40
  12   5  -4  227.08   12.40
  -5  12   4  223.38   13.90
 -12  -5   4  233.58   13.00
  -4  12  -4   34.00    6.60
  12   4  -4   36.30    5.30
  -4  12   4   47.40    7.00
 -12  -4   4   43.30    6.00
  -3  12  -4   78.09    8.80
  12   3  -4   60.29    6.60
 -12  -3   4   60.39    6.80
  -3  12   4   61.29    7.60
  -2  12  -4    9.80    4.60
  12   2  -4    4.50    3.00
  -2  12   4    8.70    4.30
  -1  12  -4 1798.12   60.29
  12   1  -4 1656.63   56.99
  -1  12   4 1888.41   59.39
   0  12  -4   23.40    5.70
   0  12   4   29.60    5.40
   1  12  -4 1751.12   63.09
  -1 -12  -4 2021.30   63.49
   1  12   4 1840.62   61.49
  -1 -12   4 1917.41   60.79
   2  12  -4   10.00    4.80
  -2 -12   4    6.50    3.50
   2  12   4    7.30    3.70
   3  12  -4   67.99    9.00
  -3 -12   4   56.79    6.90
  -3 -12   4   61.39    5.90
  -3 -12   4   76.09    6.40
   3  12   4   61.39    7.20
   4  12  -4   39.50    7.00
  -4 -12   4   35.20    5.90
   4  12   4   39.00    6.20
   5  12  -4  221.08   14.40
  -5 -12   4  234.58   13.20
  13   3  -4  727.73   28.30
  -3  13  -4  747.13   30.60
  -3  13   4  801.92   30.20
  -2  13  -4  329.57   17.40
  13   2  -4  319.47   15.20
  -2  13   4  337.77   16.70
  -1  13  -4  231.78   14.30
  13   1  -4  225.08   12.20
  -1  13   4  236.08   13.50
   0  13  -4    9.40    4.90
   0  13   4    3.70    3.60
  -1 -13  -4  281.97   13.70
   1  13  -4  227.18   14.90
   1  13   4  248.68   13.70
  -1 -13   4  261.07   13.50
   2  13  -4  326.97   18.10
  -2 -13   4  350.76   16.50
   2  13   4  339.67   16.50
   3  13  -4  765.52   31.70
  -3 -13   4  768.32   29.10
   3  13   4  740.13   28.90
   0   0  -5    1.10    1.10
   0   0   5    0.70    1.00
   0   0   5    2.10    0.90
  -1   0  -5  461.35   14.70
   1   0  -5  494.85   16.90
   0   1  -5  471.15   15.10
   0   1  -5  484.35   16.90
  -1   0   5  482.35   16.90
  -1   0   5  492.35   15.50
   0  -1   5  483.95   15.30
   0   1   5  519.25   17.30
  -1   1  -5   14.90    2.20
  -1   1  -5   13.50    1.40
   1   1  -5   10.00    1.30
   1   1  -5    9.60    1.90
   1  -1  -5    9.40    2.00
  -1  -1   5   12.40    2.20
   1  -1   5   11.50    1.30
  -1  -1   5   10.80    1.40
  -1   1   5    9.20    2.10
  -1   1   5    9.90    1.80
  -1  -1   5   14.20    2.50
   2   1  -5  923.31   28.30
   1  -2  -5  955.80   30.60
   2   1  -5  953.20   30.10
  -1   2  -5  923.41   29.70
  -1   2  -5  875.71   28.20
   1  -2   5  914.91   27.80
  -2  -1   5  934.01   30.20
  -2  -1   5  944.81   29.80
  -2  -1   5  913.81   28.20
  -1   2   5  907.51   30.50
  -1   2   5  895.61   30.00
   2   0  -5    2.80    1.30
   0   2  -5    1.40    1.20
   0   2  -5    3.40    1.00
   0  -2   5    2.40    0.90
  -2   0   5    2.40    1.00
  -2   0   5    3.50    1.50
   0   2   5    2.30    1.40
  -2   0   5    1.20    1.40
   1   2  -5  932.51   29.30
   1   2  -5  902.41   27.50
   2  -1  -5  858.01   28.90
  -2   1  -5  844.92   27.40
  -2   1   5  851.31   29.50
   2  -1   5  896.41   27.10
  -2   1   5  930.31   29.10
  -1  -2   5  915.31   29.20
  -2   1   5  904.01   27.70
  -1  -2   5  912.11   29.50
  -1  -2   5  921.31   27.40
   2   2  -5 1566.14   46.90
  -2   2  -5 1538.95   47.80
  -2   2  -5 1482.65   47.40
  -2  -2   5 1584.34   48.60
   2  -2   5 1563.04   46.10
  -2  -2   5 1576.14   46.80
  -2   2   5 1482.75   49.40
  -2  -2   5 1617.24   48.70
  -2   2   5 1607.24   48.70
   3   2  -5  157.98    6.40
  -2   3  -5  164.28    7.40
  -2   3  -5  155.28    7.40
   2  -3   5  156.18    5.50
  -3  -2   5  156.48    7.40
  -2   3   5  143.59    8.50
  -3  -2   5  163.78    7.50
  -2   3   5  156.08    7.80
  -3  -2   5  162.48    6.20
  -1   3  -5  378.46   13.90
  -1   3  -5  362.16   12.80
  -3  -1   5  373.66   13.50
   1  -3   5  358.56   11.70
  -1   3   5  369.46   14.80
  -3  -1   5  380.46   12.40
  -3  -1   5  353.26   13.70
   0   3  -5 1582.54   49.60
   0  -3  -5 1579.34   49.80
   0   3  -5 1509.95   47.80
   0  -3   5 1546.15   49.50
   0  -3   5 1541.75   47.20
   0   3   5 1572.74   47.50
  -3   0   5 1596.14   47.70
   0   3   5 1628.04   50.09
  -3   0   5 1697.03   49.99
  -3   0   5 1597.94   48.90
   1   3  -5  390.66   14.20
   1   3  -5  366.96   12.40
  -3   1   5  372.36   12.30
  -3   1   5  331.97   14.10
  -1  -3   5  359.26   13.90
  -1  -3   5  366.66   12.00
  -3   1   5  353.66   13.30
   1   3   5  364.86   11.80
   3  -1   5  364.16   11.50
   2   3  -5  160.98    6.60
  -3   2  -5  170.18    6.80
  -2  -3   5  153.88    7.80
   3  -2   5  164.38    5.60
  -2  -3   5  170.48    8.00
   2   3   5  155.08    5.80
  -3   2   5  183.68    7.80
  -2  -3   5  175.68    6.50
  -3   2   5  152.08    8.70
  -3   2   5  159.08    6.60
   3   3  -5 2181.78   64.09
  -3   3  -5 2021.90   64.79
  -3   3  -5 2144.59   64.29
  -3   3   5 2190.58   65.69
   3  -3   5 2116.19   62.59
  -3   3   5 2080.19   67.89
  -3  -3   5 2203.08   65.49
  -3  -3   5 2191.68   63.79
  -3  -3   5 2121.79   65.69
   3   3   5 2051.79   62.79
   4   3  -5   89.09    4.80
  -3   4  -5   86.29    6.20
  -3   4  -5   96.29    5.40
  -3   4   5   93.29    6.10
  -4  -3   5   88.79    5.70
  -4  -3   5   92.09    5.10
  -3   4   5   97.49    8.00
   3  -4   5   94.99    3.60
  -2   4  -5    7.10    2.00
   4   2  -5    4.10    1.50
   2  -4  -5    3.40    2.40
  -2   4  -5    2.20    2.30
  -2   4   5    4.90    2.00
  -4  -2   5    4.10    1.40
  -4  -2   5    5.40    1.80
   2  -4   5    6.90    1.10
  -4  -2   5   11.20    2.30
  -2   4   5    4.60    2.50
  -2   4   5   12.80    2.10
   1  -4  -5  141.89    8.50
  -1   4  -5  144.09    6.90
  -1   4  -5  150.18    7.60
  -4  -1   5  127.79    6.90
   1  -4   5  140.79    5.40
  -1   4   5  144.79    8.50
  -4  -1   5  142.69    5.90
  -4  -1   5  143.99    6.50
  -1   4   5  164.88    6.60
  -1   4   5  143.79    8.70
   0   4  -5    0.90    1.40
   0   4  -5    8.20    2.30
   0  -4  -5    0.70    1.60
  -4   0   5    0.30    1.10
   0   4   5    6.70    1.60
  -4   0   5    0.70    1.20
   0  -4   5    1.30    0.90
  -4   0   5    2.60    2.00
   0   4   5    0.20    1.50
   0  -4   5    0.90    1.50
   1   4  -5  147.19    7.70
   1   4  -5  140.19    6.20
  -4   1   5  134.49    5.80
  -1  -4   5  133.59    5.50
   1   4   5  139.39    5.90
  -4   1   5  144.59    6.50
  -4   1   5  133.19    8.10
   2   4  -5    8.70    1.80
  -4   2  -5    5.50    1.20
  -2  -4   5    6.70    2.30
  -4   2   5   18.60    2.20
   2   4   5    5.00    1.40
   4  -2   5   10.20    1.00
  -4   2   5   10.50    3.30
  -2  -4   5    4.30    1.80
  -4   2   5   10.40    2.10
  -2  -4   5    7.30    1.60
   3   4  -5   97.49    5.10
  -4   3  -5   94.09    5.00
  -3  -4   5   91.69    6.40
   4  -3   5   93.89    3.40
  -3  -4   5   95.39    5.70
  -3  -4   5   93.69    4.70
  -4   3   5   96.39    4.80
  -4   3   5   93.89    8.00
   3   4   5   88.39    4.50
  -4   3   5  109.19    5.80
  -4   4  -5  756.32   23.90
  -4   4  -5  789.92   25.70
   4   4  -5  761.12   24.70
  -4   4   5  767.12   29.60
  -4  -4   5  762.22   24.40
  -4  -4   5  714.63   26.20
  -4  -4   5  735.83   24.70
  -4   4   5  780.92   26.20
  -4   5  -5   30.50    4.50
   5   4  -5   30.60    3.40
  -4   5  -5   32.60    3.20
  -5  -4   5   32.30    3.00
  -4   5   5   32.90    5.80
  -4   5   5   38.00    4.30
  -4   5   5   33.30    4.00
   5   3  -5  352.16   13.10
  -3   5  -5  357.96   14.10
  -3   5  -5  362.46   15.00
  -3   5   5  342.77   15.10
  -3   5   5  369.36   13.90
  -3   5   5  381.86   18.20
   3  -5   5  366.06   11.60
  -5  -3   5  367.66   12.90
  -2   5  -5  627.04   22.50
  -2   5  -5  615.64   22.30
   5   2  -5  619.94   20.50
   2  -5   5  621.04   19.30
  -5  -2   5  610.94   20.20
  -2   5   5  620.94   21.20
  -1   5  -5  617.44   22.60
   1  -5  -5  601.34   24.10
  -1   5  -5  611.04   21.80
   1  -5   5  631.84   19.50
  -5  -1   5  623.84   20.20
  -1   5   5  643.94   21.20
   0  -5  -5 3019.70   93.99
   0   5  -5 3044.50   93.69
   0   5  -5 3045.90   91.79
   0  -5   5 3041.60   90.19
   0  -5   5 2999.00   95.09
   0   5   5 3123.09   91.49
  -5   0   5 3079.09   90.69
   1   5  -5  597.94   20.30
  -1  -5  -5  638.44   21.80
  -1  -5   5  610.54   19.30
  -5   1   5  587.64   19.50
   1   5   5  606.94   20.20
  -1  -5   5  576.64   22.10
  -5   1   5  568.24   20.30
  -5   1   5  622.34   19.30
   2   5  -5  601.34   20.20
  -5   2   5  613.94   19.60
  -5   2   5  569.24   21.40
  -2  -5   5  590.74   22.40
   2   5   5  573.04   19.90
  -5   2   5  601.54   19.50
  -2  -5   5  613.74   19.40
  -5   3  -5  351.86   12.20
   3   5  -5  357.46   13.10
  -3  -5   5  353.56   15.30
  -5   3   5  350.46   15.10
  -3  -5   5  344.87   12.40
  -3  -5   5  355.56   13.90
   3   5   5  323.57   12.60
  -5   3   5  357.86   13.00
  -5   3   5  354.76   12.50
   4   5  -5   47.50    3.90
  -5   4  -5   31.30    3.50
   4   5   5   30.30    4.10
  -5   4   5   34.90    5.30
  -4  -5   5   31.40    3.30
  -4  -5   5   31.60    3.30
  -5   4   5   40.60    3.50
  -4  -5   5   33.30    4.90
  -5   4   5   31.20    3.50
  -5   5  -5   22.70    3.70
   5   5  -5   17.60    2.90
  -5   5   5   24.20    4.70
  -5  -5   5   25.40    3.10
  -5   5   5   21.10    3.40
  -5   5   5   21.90    2.90
   6   5  -5  181.98    8.70
  -5   6  -5  181.98    9.90
  -5   6   5  185.78    9.90
  -5   6   5  167.58    9.40
  -5   6   5  210.28   11.90
  -6  -5   5  188.28    8.60
   6   4  -5  257.77   10.80
  -4   6  -5  258.77   11.20
  -4   6  -5  256.37   12.50
  -4   6   5  273.67   13.50
  -4   6   5  277.57   15.10
  -4   6   5  257.07   11.80
  -6  -4   5  265.17   10.60
   6   3  -5   48.10    4.00
  -3   6  -5   65.69    6.10
  -3   6  -5   48.40    4.90
  -3   6   5   55.99    7.60
  -6  -3   5   46.60    3.80
  -3   6   5   51.49    4.90
  -2   6  -5  916.41   31.90
  -2   6  -5  912.51   31.70
   6   2  -5  900.21   29.40
   2  -6   5  917.91   28.10
  -6  -2   5  894.61   29.00
  -2   6   5  933.31   30.60
  -1   6  -5   47.30    5.30
  -1   6  -5   35.70    4.70
  -1   6   5   34.90    4.10
   1  -6   5   30.60    2.60
  -6  -1   5   39.00    3.20
   0   6  -5    3.20    2.30
   0  -6   5   10.70    1.80
  -1  -6  -5   39.00    4.60
   1   6  -5   38.20    4.10
  -1  -6   5   32.80    5.70
   1   6   5   41.80    4.20
  -6   1   5   36.70    3.10
  -1  -6   5   29.70    2.80
   2   6  -5  889.01   28.60
   2   6   5  820.72   28.30
  -2  -6   5  895.71   27.40
  -6   2   5  859.91   27.30
  -2  -6   5  833.42   31.10
   3   6  -5   67.09    4.80
  -3  -6   5   48.50    4.60
  -6   3   5   47.00    3.70
  -3  -6   5   50.29    3.80
   3   6   5   43.70    4.30
  -3  -6   5   57.99    6.60
   4   6  -5  262.97   10.90
  -6   4  -5  253.17   11.20
  -6   4   5  251.07   10.00
  -6   4   5  244.48   10.20
  -4  -6   5  273.97   12.40
  -6   4   5  258.57    9.60
  -4  -6   5  266.77   10.40
  -4  -6   5  239.68   10.40
   4   6   5  254.57   11.80
  -6   5  -5  184.58    8.80
   5   6  -5  184.78    8.80
  -6   5   5  169.68    9.00
  -6   5   5  175.88    8.10
  -5  -6   5  188.18    8.40
  -6   5   5  180.08    8.00
   6   6  -5 2204.88   68.89
  -6   6  -5 2262.07   69.89
  -6   6   5 2267.07   70.49
  -6   6   5 2219.18   68.99
  -6  -6   5 2212.28   68.49
  -6   6   5 2207.28   67.99
  -7  -6  -5   52.39    6.30
   7   6  -5   55.09    5.10
  -6   7  -5   58.49    6.60
  -7  -6   5   52.59    5.00
  -6   7   5   59.39    6.20
  -6   7   5   53.59    5.30
  -6   7   5   58.99    5.00
   7   5  -5   85.19    5.90
  -5   7  -5   81.49    7.40
  -5   7  -5   80.19    5.10
  -5   7   5   92.89    8.20
  -7  -5   5   83.59    5.70
  -5   7   5   79.69    6.80
  -5   7   5   84.69    7.00
  -4   7  -5   43.40    5.70
  -4   7  -5   24.70    4.00
   7   4  -5   22.50    3.20
  -4   7   5   30.40    4.60
  -4   7   5   29.20    5.80
  -7  -4   5   24.70    3.30
  -3   7  -5  251.17   12.50
   7   3  -5  239.68   10.30
  -3   7  -5  240.88   12.10
  -3   7   5  241.78   11.60
  -7  -3   5  246.18   10.10
   7   2  -5  319.07   12.50
  -2   7  -5  321.37   14.70
  -2   7  -5  314.17   14.90
   2  -7   5  320.37   11.30
  -7  -2   5  314.07   12.10
  -2   7   5  328.27   13.80
  -1   7  -5  343.87   15.50
  -1   7   5  359.76   14.70
   1  -7   5  366.56   12.60
  -7  -1   5  363.46   13.10
   0   7  -5   52.69    5.80
   0  -7  -5   51.69    6.30
   0  -7   5   51.79    3.70
  -7   0   5   44.80    3.60
   0   7   5   53.49    5.20
   1   7  -5  345.57   14.20
  -1  -7  -5  331.07   14.80
   1   7   5  326.87   13.70
  -7   1   5  327.57   12.20
  -1  -7   5  351.66   12.30
   2   7  -5  313.57   12.80
  -2  -7   5  291.67   15.50
  -7   2   5  282.67   11.10
   2   7   5  287.97   12.50
  -2  -7   5  321.27   11.50
   3   7  -5  240.68   10.80
  -3  -7   5  239.28   13.60
   3   7   5  221.58   10.40
  -7   3   5  236.18    9.30
  -3  -7   5  230.48   11.20
  -3  -7   5  241.18    9.80
   4   7  -5   18.30    3.40
  -7   4   5   25.60    3.10
  -4  -7   5   27.30    4.30
  -4  -7   5   24.10    3.40
  -4  -7   5   33.20    3.60
   5   7  -5   81.79    6.10
  -7   5   5   75.09    5.00
  -5  -7   5   88.39    5.60
   6   7  -5   65.59    5.50
  -7   6   5   52.69    4.60
  -6  -7   5   59.39    5.10
   7   7  -5   36.10    4.80
  -7   7  -5   37.70    5.30
  -7  -7  -5   42.20    6.20
  -7  -7   5   32.30    4.60
   8   7  -5  129.49    8.30
  -7   8  -5  129.69    9.50
  -8  -7  -5  127.99    9.90
  -7   8   5  131.09    7.20
  -8  -7   5  129.29    8.30
  -7   8   5  128.69    7.30
  -8  -6  -5    1.80    3.40
  -6   8  -5    0.80    3.20
   8   6  -5    4.00    2.60
  -6   8   5    1.00    2.50
  -6   8   5    1.00    2.60
  -6   8   5    3.80    3.30
  -8  -6   5    1.50    2.50
  -5   8  -5  157.68   10.30
   8   5  -5  148.19    8.30
  -5   8  -5  137.59    8.00
  -8  -5   5  152.28    8.30
  -5   8   5  169.38   10.20
  -5   8   5  170.98   11.10
  -4   8  -5  481.85   20.10
  -4   8  -5  534.15   21.20
   8   4  -5  493.35   18.50
  -8  -4   5  489.55   18.20
  -4   8   5  501.25   20.30
   8   3  -5  697.13   24.10
  -3   8  -5  712.53   26.70
  -3   8  -5  687.53   26.90
  -3   8   5  702.63   25.90
  -8  -3   5  680.33   23.70
  -2   8  -5  266.97   13.40
   8   2  -5  260.17   11.10
  -8  -2   5  255.17   10.70
  -2   8   5  258.57   12.50
  -1   8  -5  171.28   10.30
  -8  -1   5  152.98    7.60
  -1   8   5  159.28    9.30
   1  -8   5  177.18    7.50
   0   8  -5    3.90    3.30
   0  -8   5    3.20    1.80
   0   8   5    1.80    2.50
  -8   0   5    3.30    1.80
  -1  -8  -5  148.89    9.50
   1   8  -5  166.48    9.50
  -8   1   5  153.08    7.30
   1   8   5  150.98    8.60
  -1  -8   5  168.48    7.50
   2   8  -5  249.28   12.00
   2   8   5  245.28   11.50
  -8   2   5  254.87   10.00
  -2  -8   5  239.38   10.20
   3   8  -5  682.63   24.60
   3   8   5  665.93   24.00
  -3  -8   5  710.03   27.70
  -8   3   5  660.33   22.40
  -3  -8   5  661.53   23.00
  -3  -8   5  670.23   25.10
   4   8  -5  497.05   19.20
  -8   4   5  471.95   17.20
  -4  -8   5  555.94   19.20
  -4  -8   5  448.16   17.60
  -4  -8   5  496.35   18.10
   5   8  -5  145.79    8.70
  -5  -8   5  151.78    8.20
   6   8  -5    2.70    2.70
  -6  -8   5    1.20    2.50
   7   8  -5  127.39    8.50
  -7  -8   5  124.39    8.10
  -8  -8  -5    1.80    3.80
   8   8  -5    1.70    2.80
  -8  -8   5   -0.50    2.80
   9   8  -5  285.37   14.10
  -9  -8   5  281.37   14.00
   9   7  -5  109.59    7.90
  -7   9  -5  103.29    9.20
  -9  -7  -5   92.89    8.90
  -7   9   5  101.09    6.80
  -9  -7   5   97.39    7.80
  -7   9   5  101.89    7.00
   9   6  -5  296.07   13.60
  -9  -6  -5  292.17   15.00
  -6   9  -5  318.67   15.90
  -6   9   5  303.87   15.60
  -9  -6   5  284.67   13.40
  -6   9   5  309.57   15.40
  -5   9  -5  266.57   12.90
   9   5  -5  284.07   12.80
  -5   9  -5  301.07   15.10
  -9  -5   5  287.27   12.70
  -5   9   5  288.07   15.50
  -5   9   5  271.87   14.50
  -4   9  -5  187.68   11.50
  -4   9  -5  176.48   11.00
   9   4  -5  178.48    9.30
  -9  -4   5  168.08    9.20
  -4   9   5  181.48   10.90
  -3   9  -5  246.78   14.10
  -3   9  -5  256.47   13.80
   9   3  -5  253.77   11.50
  -9  -3   5  269.37   11.40
  -3   9   5  243.78   12.90
   9   2  -5   81.79    6.00
  -2   9  -5   87.29    8.20
  -9  -2   5   76.79    5.50
  -2   9   5   80.49    7.10
  -1   9  -5  163.78   10.80
   1  -9   5  182.98    8.40
  -9  -1   5  180.68    8.50
  -1   9   5  182.88   10.30
   0   9  -5  812.72   30.50
   0  -9   5  861.41   27.30
   0   9   5  789.92   29.00
  -9   0   5  802.02   27.10
  -1  -9  -5  162.28   10.40
   1   9  -5  173.78   10.90
  -9   1   5  166.58    8.10
  -1  -9   5  175.48    8.30
   1   9   5  198.88   10.20
   2   9  -5   75.29    7.10
   2   9   5   81.89    6.60
  -9   2   5   73.29    5.10
  -2  -9   5   79.79    5.50
   3   9  -5  273.47   13.00
   3   9   5  253.17   12.00
  -3  -9   5  232.58   12.50
  -9   3   5  242.58   10.40
  -3  -9   5  268.87   14.60
  -3  -9   5  252.07   11.10
   4   9  -5  168.98   10.00
  -4  -9   5  160.28    8.00
  -4  -9   5  192.28    8.90
  -4  -9   5  163.58    8.90
   5   9  -5  261.97   13.00
  -5  -9   5  262.47   12.10
   6   9  -5  283.47   13.70
  -6  -9   5  286.87   13.10
   7   9  -5   98.39    8.20
  -7  -9   5  103.09    7.80
   8   9  -5  280.97   14.40
  -8  -9   5  298.37   14.30
   9   9  -5  398.76   18.40
  -9  -9   5  414.46   18.50
  10   8  -5   57.19    6.90
 -10  -8   5   57.59    7.20
  -7  10  -5  883.01   34.50
  10   7  -5  904.81   32.70
  -7  10   5  946.71   32.00
  -7  10   5  908.01   35.00
  -7  10   5  914.71   31.80
 -10  -7   5  873.21   32.50
  -6  10  -5   24.70    5.70
  10   6  -5   16.20    4.00
  -6  10   5   13.80    4.90
 -10  -6   5   15.10    4.30
  -6  10   5   15.80    4.50
  10   5  -5   51.49    6.00
  -5  10  -5   56.69    6.20
  -5  10  -5   69.59    8.10
 -10  -5   5   63.89    6.50
  -5  10   5   57.29    7.40
  -4  10  -5   25.30    5.40
  10   4  -5   20.80    3.90
  -4  10  -5   21.90    5.10
 -10  -4   5   25.20    4.20
  -4  10   5   23.20    5.20
  -3  10  -5  154.08   10.80
  10   3  -5  155.98    8.90
  -3  10   5  144.99   10.20
 -10  -3   5  164.58    8.90
  -2  10  -5   15.20    4.70
  10   2  -5   12.40    3.30
 -10  -2   5   17.10    3.40
  -2  10   5   14.10    4.10
  -1  10  -5  692.23   27.10
 -10  -1   5  672.73   23.80
  -1  10   5  677.83   25.90
   0  10  -5    3.60    3.70
   0  10   5    4.80    3.10
 -10   0   5    2.30    2.20
   0 -10   5    1.30    2.40
   1  10  -5  649.24   27.10
  -1 -10  -5  701.43   27.00
  -1 -10   5  706.83   24.20
   1  10   5  694.03   25.60
 -10   1   5  667.03   23.50
   2  10  -5   22.80    5.30
  -2 -10   5   12.60    3.20
   2  10   5   15.50    3.90
   3  10  -5  160.58   10.70
   3  10   5  162.68    9.60
  -3 -10   5  176.78   11.10
  -3 -10   5  146.39    9.70
  -3 -10   5  158.28    8.80
   4  10  -5   17.60    4.40
  -4 -10   5   16.20    3.80
   5  10  -5   62.39    7.00
  -5 -10   5   53.19    5.90
   6  10  -5   12.20    4.10
  -6 -10   5   15.70    4.20
   7  10  -5  912.11   33.40
  -7 -10   5  883.21   32.40
   8  10  -5   67.69    8.00
  -8 -10   5   67.29    7.70
  -7  11  -5    1.60    4.30
  11   7  -5    6.10    3.70
 -11  -7   5   -3.60    3.50
  -7  11   5    4.00    2.80
  -7  11   5    0.70    4.40
  -7  11   5    5.20    2.90
  11   6  -5   61.09    7.00
  -6  11  -5   65.29    8.40
  -6  11   5   59.69    8.10
  -6  11   5   65.29    7.40
 -11  -6   5   65.99    7.40
  -5  11  -5  118.19    9.10
  11   5  -5  125.79    8.80
  -5  11  -5  138.09   10.70
  -5  11   5  122.59   10.10
 -11  -5   5  135.29    9.40
  -4  11  -5  362.26   18.90
  11   4  -5  379.66   16.40
  -4  11  -5  389.96   18.60
 -11  -4   5  374.56   16.30
  -4  11   5  385.66   18.30
  -3  11  -5  320.37   16.30
  11   3  -5  272.87   13.50
 -11  -3   5  291.37   13.50
  -3  11   5  294.37   15.20
  -2  11  -5   46.20    6.90
  11   2  -5   46.80    5.60
 -11  -2   5   39.40    5.10
  -2  11   5   39.30    6.10
  11   1  -5  122.49    8.00
  -1  11  -5  123.69   10.00
  -1  11   5  119.19    9.20
 -11  -1   5  121.39    7.80
   0  11  -5  182.58   12.20
   0  11   5  180.38   11.00
   0 -11   5  190.58   10.10
   1  11  -5  123.69   10.60
  -1 -11  -5  133.69    9.50
  -1 -11   5  137.89    8.40
   1  11   5  137.79    9.10
   2  11  -5   34.70    6.60
  -2 -11   5   50.69    5.80
   2  11   5   45.00    5.80
   3  11  -5  306.57   16.40
  -3 -11   5  283.17   14.30
   3  11   5  293.07   16.80
  -3 -11   5  341.97   15.60
  -3 -11   5  275.87   13.70
   4  11  -5  369.76   18.40
  -4 -11   5  385.66   16.60
   5  11  -5  131.99   10.30
  -5 -11   5  119.99    8.90
   6  11  -5   46.60    6.90
  -6 -11   5   54.49    6.80
   7  11  -5    0.40    3.80
  -7 -11   5    4.00    4.00
  -5  12  -5   35.80    6.80
  12   5  -5   49.70    6.40
  -5  12  -5   32.80    5.60
  -5  12   5   23.90    5.90
 -12  -5   5   32.40    5.80
  -4  12  -5  212.38   13.60
  12   4  -5  218.38   12.10
  -4  12   5  215.48   13.30
 -12  -4   5  211.38   12.20
  -3  12  -5  402.16   19.70
  12   3  -5  404.36   17.70
 -12  -3   5  405.46   17.70
  -3  12   5  436.66   19.50
  -2  12  -5   52.29    7.60
  12   2  -5   45.10    5.90
 -12  -2   5   48.50    6.30
  -2  12   5   49.70    6.80
  12   1  -5   25.20    4.50
  -1  12  -5   25.20    6.10
  -1  12   5   28.70    5.40
   0  12  -5    2.90    4.10
   0  12   5    0.80    3.30
  -1 -12  -5   23.10    4.80
   1  12  -5   22.50    5.80
  -1 -12   5   17.50    4.40
   1  12   5   25.50    4.90
   2  12  -5   47.10    7.80
  -2 -12   5   49.30    6.20
   2  12   5   47.30    6.20
   3  12  -5  397.26   20.60
  -3 -12   5  409.26   17.60
  -3 -12   5  464.55   18.40
  -3 -12   5  398.46   18.10
   4  12  -5  224.38   14.60
  -4 -12   5  218.48   12.40
   5  12  -5   27.50    6.50
  -5 -12   5   29.60    5.60
  -1  13  -5  468.65   21.90
  13   1  -5  433.76   19.20
  -1  13   5  471.25   20.60
   0  13  -5   61.29    8.30
   0  13   5   64.59    7.60
  -1 -13  -5  535.55   20.70
   1  13  -5  468.25   22.90
   1  13   5  465.35   20.70
   0   0  -6 1830.52   57.39
   0   0  -6 1814.22   54.99
   0   0   6 1874.51   55.59
   0   0   6 1923.01   57.89
   0   1  -6    2.50    0.90
   1   0  -6    9.90    1.90
   0   1  -6    1.70    1.40
  -1   0   6    5.40    1.90
   1   0   6   13.70    1.60
   0   1   6    1.70    1.60
  -1   0   6   10.30    2.10
  -1   0   6    6.90    1.40
   0  -1   6    3.90    1.60
   0  -1   6    7.00    1.30
  -1   1  -6  119.99    4.60
   1   1  -6  119.89    4.90
  -1   1  -6  121.79    6.30
  -1  -1   6  122.99    6.40
  -1   1   6  118.09    5.30
  -1   1   6  125.99    6.50
  -1  -1   6  129.79    5.20
  -1   1   6  126.19    6.90
   1  -1   6  118.69    4.90
   2   1  -6  816.22   27.00
  -1   2  -6  820.92   26.90
  -1   2  -6  766.32   24.90
   2   1  -6  809.62   25.10
   1  -2  -6  816.52   27.80
  -1   2   6  793.22   27.10
  -2  -1   6  821.32   27.50
  -2  -1   6  802.12   25.10
  -1   2   6  814.32   27.70
  -2  -1   6  803.72   26.90
   1  -2   6  795.52   24.70
   2   0  -6 1360.86   44.40
   0   2  -6 1432.66   44.70
   0   2  -6 1358.66   42.40
   0   2   6 1495.25   45.40
   0  -2   6 1397.56   42.30
  -2   0   6 1397.96   45.00
  -2   0   6 1406.66   42.70
  -2   0   6 1428.36   44.50
   1   2  -6  816.82   27.10
  -2   1  -6  758.22   24.70
   1   2  -6  802.82   25.00
  -2   1   6  807.12   26.90
  -2   1   6  797.72   25.20
  -1  -2   6  859.31   27.50
  -1  -2   6  810.52   27.00
  -2   1   6  781.92   27.40
  -1  -2   6  787.02   24.90
   2  -1   6  807.92   24.60
  -2   2  -6   36.90    3.20
   2   2  -6   33.70    2.70
  -2   2  -6   34.70    3.20
  -2   2   6   33.60    2.70
  -2   2   6   32.40    3.50
   2  -2   6   38.30    2.20
  -2  -2   6   41.00    2.70
  -2  -2   6   37.90    3.70
  -2   2   6   33.60    4.10
  -2  -2   6   37.30    3.80
   3   2  -6 1449.46   43.70
  -2   3  -6 1392.76   44.70
  -2   3  -6 1475.95   45.30
  -2   3   6 1421.46   45.90
  -3  -2   6 1453.35   45.70
  -3  -2   6 1448.16   43.60
  -2   3   6 1389.96   46.90
   2  -3   6 1415.36   42.70
  -3  -2   6 1436.96   45.40
   3   1  -6  590.54   19.00
  -1   3  -6  560.74   19.10
  -1   3  -6  611.44   20.90
   1  -3  -6  592.74   21.70
  -3  -1   6  592.44   20.50
   1  -3   6  585.44   18.20
  -3  -1   6  592.34   18.90
  -1   3   6  603.04   21.80
  -3  -1   6  530.15   20.50
   0   3  -6    3.00    1.60
   0   3  -6    2.80    1.30
   0  -3   6    1.80    1.50
  -3   0   6    3.80    1.70
  -3   0   6    1.70    1.30
  -3   0   6    2.60    1.80
   0  -3   6    0.60    0.90
   1   3  -6  592.94   21.10
   1   3  -6  577.34   19.00
  -1  -3   6  573.94   18.60
  -3   1   6  582.54   19.00
   3  -1   6  596.04   18.20
  -3   1   6  616.74   21.70
  -1  -3   6  557.64   20.80
  -3   1   6  588.24   20.50
   2   3  -6 1437.66   44.20
  -3   2  -6 1410.56   44.10
  -3   2   6 1445.26   45.90
  -2  -3   6 1468.25   43.90
  -3   2   6 1292.07   46.90
  -2  -3   6 1582.34   46.60
   3  -2   6 1445.06   43.10
  -3   2   6 1468.35   44.20
  -2  -3   6 1465.45   46.30
  -3   3  -6   20.60    2.70
  -3   3  -6   30.20    3.70
   3   3  -6   25.90    2.70
  -3   3   6   26.00    2.90
  -3   3   6   18.80    3.70
  -3  -3   6   25.60    3.50
  -3  -3   6   21.60    3.30
  -3  -3   6   23.90    2.50
   3  -3   6   25.20    1.70
  -3   3   6   24.20    3.40
  -3   4  -6  225.08    9.70
  -3   4  -6  242.68   10.60
   4   3  -6  239.38    9.20
  -4  -3   6  233.18    8.80
  -3   4   6  211.28   10.60
  -4  -3   6  221.18    9.90
   3  -4   6  226.58    7.60
  -4  -3   6  215.48   10.10
  -3   4   6  213.18   12.40
   4   2  -6  157.88    6.90
  -2   4  -6  155.58    8.20
  -2   4  -6  156.58    8.00
  -4  -2   6  151.78    7.60
  -4  -2   6  160.58    6.70
   2  -4   6  152.98    5.70
  -4  -2   6  157.98    7.90
  -1   4  -6 1180.38   38.00
   1  -4  -6 1171.38   39.20
  -1   4  -6 1131.39   36.40
  -4  -1   6 1172.58   35.70
  -4  -1   6 1135.49   37.60
   1  -4   6 1123.89   34.80
  -4  -1   6 1151.58   36.80
   0   4  -6  264.17   11.60
   0  -4  -6  259.97   11.90
   0   4  -6  258.17   10.00
  -4   0   6  258.97   11.70
   0  -4   6  249.38    9.00
   0   4   6  260.17    9.50
  -4   0   6  259.87   10.60
  -4   0   6  252.07    9.50
   1   4  -6 1142.29   35.40
   4  -1   6 1159.98   34.00
  -1  -4   6 1093.39   37.30
  -1  -4   6 1133.69   34.60
   1   4   6 1125.79   34.60
  -4   1   6 1161.68   35.10
  -4   1   6 1036.10   37.60
  -4   1   6 1180.88   36.40
   2   4  -6  154.58    6.90
   2   4   6  153.08    6.00
  -4   2   6  145.79    6.60
  -4   2   6  158.48    7.70
   4  -2   6  159.88    5.50
  -2  -4   6  161.38    8.50
  -2  -4   6  153.98    8.40
  -2  -4   6  147.49    6.30
  -4   2   6  144.49    9.30
   3   4  -6  224.88    9.10
  -4   3   6  227.18   10.20
  -3  -4   6  228.78   10.40
  -4   3   6  221.68   12.50
   4  -3   6  221.28    7.50
  -3  -4   6  217.28    8.50
  -4   3   6  224.88    8.90
  -3  -4   6  215.38   10.60
  -4   4  -6  429.16   16.00
   4   4  -6  437.16   15.30
  -4  -4   6  434.76   14.90
  -4  -4   6  405.66   16.70
  -4   4   6  427.86   19.80
  -4   4   6  417.86   15.10
  -4  -4   6  408.96   15.90
  -4   4   6  442.66   16.90
  -4   5  -6  422.66   15.30
   5   4  -6  430.16   15.40
  -4   5  -6  402.06   16.60
  -5  -4   6  425.66   15.00
  -4   5   6  430.06   20.50
  -4   5   6  417.36   17.30
   5   3  -6  706.53   23.60
  -3   5  -6  709.13   24.80
  -3   5  -6  722.53   25.50
  -5  -3   6  715.63   23.30
  -3   5   6  693.93   28.60
   3  -5   6  717.93   23.60
   5   2  -6  245.78    9.60
  -2   5  -6  230.98   11.30
  -2   5  -6  236.98   11.10
   2  -5   6  234.68    8.30
  -5  -2   6  240.98    9.40
  -2   5   6  237.38   10.00
  -1   5  -6  413.16   15.40
  -1   5  -6  419.96   16.40
  -5  -1   6  357.66   14.70
  -1   5   6  390.46   14.30
  -5  -1   6  407.06   13.90
  -5  -1   6  380.36   13.80
   1  -5   6  402.66   13.10
   0  -5  -6    1.90    2.10
   0   5  -6    1.90    1.90
  -5   0   6    1.00    1.40
  -5   0   6    5.70    1.80
  -5   0   6    9.60    2.90
   0  -5   6    1.80    1.20
   0   5   6    8.00    2.00
   1   5  -6  395.26   14.40
  -1  -5   6  391.56   13.30
  -5   1   6  400.16   14.30
   1   5   6  396.76   13.90
  -5   1   6  394.56   13.80
  -5   1   6  376.26   16.50
   2   5  -6  237.18    9.70
  -5   2   6  240.48    9.80
  -5   2   6  223.48    9.10
   2   5   6  227.38    8.90
  -2  -5   6  233.98    8.90
  -5   2   6  235.58   12.40
  -2  -5   6  211.18   11.20
   3   5  -6  692.63   23.60
  -3  -5   6  712.73   25.10
  -3  -5   6  697.53   26.10
  -5   3   6  710.43   24.10
  -3  -5   6  693.93   22.90
  -5   3   6  717.13   27.50
  -5   3   6  716.13   23.20
   4   5  -6  432.16   15.50
  -4  -5   6  403.96   15.80
  -4  -5   6  436.36   14.90
  -5   4   6  423.06   16.20
  -5   4   6  435.36   19.30
  -4  -5   6  380.46   17.20
  -5   4   6  399.26   14.80
   5   5  -6   25.90    3.50
  -5  -5   6   19.40    2.80
  -5   5   6   21.30    3.10
  -5   5   6   30.60    5.60
   6   5  -6  239.98   10.60
  -5   6  -6  242.58   11.80
  -5   6   6  237.68   12.00
  -6  -5   6  224.68   10.10
  -5   6   6  259.07   14.20
  -4   6  -6  581.44   21.30
  -4   6  -6  590.14   22.70
   6   4  -6  592.04   20.90
  -4   6   6  629.54   26.60
  -6  -4   6  613.04   20.70
  -3   6  -6  486.55   19.70
  -3   6  -6  497.95   19.30
   6   3  -6  494.05   17.70
  -6  -3   6  505.05   17.40
  -3   6   6  499.05   18.60
  -2   6  -6  801.72   29.70
  -2   6  -6  838.32   29.70
   6   2  -6  865.41   27.60
   2  -6   6  828.62   26.00
  -2   6   6  866.01   28.40
  -6  -2   6  823.62   27.10
  -1   6  -6 1577.64   52.39
  -1   6   6 1703.33   51.49
  -6  -1   6 1604.54   50.29
   1  -6   6 1670.83   49.50
   0  -6  -6  288.37   14.30
   0   6  -6  304.37   12.80
   0  -6   6  307.47   10.90
  -6   0   6  310.77   11.50
   0   6   6  324.37   12.40
   1   6  -6 1585.74   50.49
  -1  -6   6 1629.94   49.00
  -6   1   6 1597.04   49.30
   1   6   6 1617.34   49.99
   2   6  -6  812.52   26.80
  -2  -6   6  749.33   29.20
   2   6   6  796.42   26.20
  -2  -6   6  826.42   25.60
  -6   2   6  778.42   25.70
   3   6  -6  475.85   17.30
  -3  -6   6  446.76   19.80
  -3  -6   6  481.45   16.40
  -6   3   6  446.96   17.00
  -3  -6   6  469.55   18.50
  -6   3   6  476.45   16.50
  -6   3   6  487.05   16.10
   4   6  -6  589.04   21.00
  -6   4   6  592.64   20.20
  -4  -6   6  565.34   21.20
  -6   4   6  588.14   20.40
  -4  -6   6  600.84   20.20
  -6   4   6  601.24   22.00
  -4  -6   6  594.64   23.60
   5   6  -6  240.78   10.80
  -6   5   6  248.08   12.30
  -6   5   6  240.38   10.70
  -5  -6   6  242.08   10.30
  -6   5   6  236.08   10.20
   6   6  -6   12.20    3.10
  -6   6   6   12.50    2.90
  -6   6   6    8.00    2.70
  -6  -6   6   13.00    2.90
  -6   6   6   11.00    3.50
   7   6  -6  439.46   17.80
  -6   7   6  459.45   18.80
  -6   7   6  445.76   17.40
  -6   7   6  496.75   20.40
  -7  -6   6  471.35   17.70
  -5   7  -6  654.63   23.00
   7   5  -6  682.53   24.30
  -5   7  -6  680.63   26.00
  -7  -5   6  703.23   24.10
  -5   7   6  750.52   28.80
  -4   7  -6  173.78    9.60
  -4   7  -6  184.08   10.90
   7   4  -6  190.18    9.10
  -4   7   6  190.18   10.20
  -7  -4   6  192.98    8.90
  -3   7  -6   17.80    4.30
   7   3  -6   11.30    2.80
  -3   7  -6   17.70    3.70
  -3   7   6    9.80    3.10
  -7  -3   6   10.80    2.50
   7   2  -6  928.01   31.10
  -2   7  -6  945.81   34.20
  -2   7  -6  953.00   33.50
  -7  -2   6  932.91   30.70
  -2   7   6  953.20   32.30
   2  -7   6  983.20   31.00
  -1   7  -6  245.38   12.60
  -7  -1   6  250.57   10.30
   1  -7   6  257.57    9.60
  -1   7   6  265.97   11.70
   0   7  -6    2.10    2.70
  -7   0   6    3.40    1.80
   0   7   6    0.40    2.00
   0  -7   6    0.20    1.40
   1   7  -6  252.07   11.60
  -1  -7  -6  239.28   12.30
   1   7   6  251.47   11.00
  -7   1   6  249.38   10.00
  -1  -7   6  245.78    9.70
   2   7  -6  945.21   30.80
   2   7   6  862.01   29.90
  -2  -7   6  903.21   29.00
  -7   2   6  894.51   29.10
   3   7  -6   14.00    3.10
  -3  -7   6   13.70    2.50
  -3  -7   6   12.50    3.30
  -7   3   6   13.80    2.60
  -3  -7   6   13.70    4.30
   4   7  -6  172.98    9.20
  -4  -7   6  165.28    9.00
  -4  -7   6  190.88   11.10
  -7   4   6  185.98    8.30
  -4  -7   6  185.68    8.50
   5   7  -6  655.43   23.90
  -5  -7   6  668.63   23.10
  -7   5   6  672.43   22.80
   6   7  -6  442.46   17.70
  -6  -7   6  452.15   17.10
  -7   6   6  453.85   16.80
   7   7  -6   27.80    4.50
  -7   7   6   26.20    3.50
  -7  -7   6   21.60    3.90
  -7   7   6   32.80    4.20
  -7   7   6   26.70    3.90
   8   7  -6   45.50    5.60
  -7   8   6   44.30    4.70
  -8  -7   6   42.70    5.30
  -7   8   6   37.40    4.80
   8   6  -6  884.71   31.40
  -6   8   6  938.91   31.00
  -6   8   6  974.20   34.20
  -6   8   6  878.31   33.40
  -8  -6   6  859.31   30.90
  -5   8  -6   88.69    8.10
   8   5  -6   83.49    6.60
  -5   8  -6   81.29    5.90
  -5   8   6   98.69    7.90
  -8  -5   6   82.69    6.20
  -5   8   6   99.29    9.00
  -4   8  -6   17.30    4.00
   8   4  -6   14.30    3.30
  -4   8  -6   23.60    5.10
  -4   8   6   26.10    4.80
  -8  -4   6   13.20    3.00
  -3   8  -6  201.38   11.70
   8   3  -6  183.38    9.40
  -3   8  -6  230.38   12.30
  -3   8   6  192.68   10.90
  -8  -3   6  198.38    9.30
   8   2  -6   36.90    4.30
  -2   8  -6   34.10    5.50
  -2   8   6   40.30    5.30
  -8  -2   6   44.90    4.20
  -1   8  -6   64.69    7.10
  -8  -1   6   54.39    4.60
  -1   8   6   62.09    6.00
   1  -8   6   59.99    4.20
   0   8  -6  598.74   23.30
  -8   0   6  565.94   20.40
   0  -8   6  621.94   20.20
   0   8   6  583.54   21.90
  -1  -8  -6   64.49    6.50
   1   8  -6   68.59    6.50
  -1  -8   6   61.09    4.60
   1   8   6   55.69    5.50
  -8   1   6   67.99    4.70
   2   8  -6   38.70    5.00
  -8   2   6   35.40    3.80
  -2  -8   6   34.20    3.80
   2   8   6   35.80    4.60
   3   8  -6  201.08   10.50
  -3  -8   6  192.78   12.90
  -3  -8   6  198.78    9.00
  -3  -8   6  197.98   11.00
  -8   3   6  184.48    8.60
  -4  -8   6   34.60    5.40
  -4  -8   6   17.80    3.50
  -8   4   6   17.40    3.00
  -4  -8   6   25.50    3.70
   5   8  -6   89.29    6.90
  -5  -8   6   76.99    6.00
  -8   5   6   80.79    5.70
   6   8  -6  889.91   31.40
  -6  -8   6  884.11   30.40
   7   8  -6   39.80    5.30
  -7  -8   6   39.90    5.30
   8   8  -6  132.89    9.10
  -8  -8   6  131.49    8.80
   9   8  -6   11.70    4.10
  -9  -8   6    9.80    4.00
   9   7  -6    4.70    3.40
  -7   9   6    5.30    2.80
  -9  -7   6   -2.00    2.80
  -7   9   6    3.60    2.60
  -6   9  -6 1217.98   46.60
   9   6  -6 1133.39   40.10
  -6   9   6 1278.27   43.00
  -9  -6   6 1141.29   39.80
  -5   9  -6  444.96   19.40
  -5   9  -6  395.66   16.80
   9   5  -6  414.26   17.00
  -9  -5   6  418.96   16.90
  -5   9   6  408.96   18.80
  -4   9  -6 1005.50   37.00
   9   4  -6 1028.60   35.00
  -4   9  -6 1104.89   37.90
  -9  -4   6 1011.70   34.60
  -4   9   6 1041.70   37.00
   9   3  -6  193.28    9.90
  -3   9  -6  192.18   12.30
  -3   9  -6  203.98   12.20
  -9  -3   6  199.18    9.70
  -3   9   6  195.38   11.40
   9   2  -6  428.36   16.90
  -2   9  -6  453.05   19.30
  -9  -2   6  420.46   16.30
  -2   9   6  420.06   18.10
  -1   9  -6  360.96   17.10
  -1   9   6  347.57   15.60
  -9  -1   6  357.76   14.10
   0   9  -6    8.00    4.10
   0  -9   6   -0.30    1.90
  -9   0   6    1.90    2.10
   0   9   6   -2.10    2.50
   1   9  -6  368.96   17.00
  -1  -9  -6  363.26   16.90
  -1  -9   6  369.86   14.10
   1   9   6  352.96   15.50
  -9   1   6  366.46   14.10
   2   9  -6  430.46   18.80
  -9   2   6  432.16   16.40
   2   9   6  425.56   17.70
  -2  -9   6  502.55   17.00
   3   9  -6  194.78   10.90
  -9   3   6  179.38    8.80
  -3  -9   6  186.28    9.20
  -3  -9   6  206.48   13.10
  -3  -9   6  179.48   10.90
   4   9  -6 1008.80   35.80
  -4  -9   6  944.71   34.10
  -4  -9   6 1003.30   34.00
  -4  -9   6 1145.99   35.70
   5   9  -6  393.96   17.30
  -5  -9   6  392.46   15.90
   6   9  -6 1144.19   39.20
  -6  -9   6 1111.39   37.90
   7   9  -6    2.00    3.10
  -7  -9   6    4.30    3.10
   8   9  -6    4.50    3.50
  -8  -9   6    3.40    3.40
  10   7  -6  213.38   12.20
 -10  -7   6  189.68   11.60
  -7  10   6  219.78   11.40
  -7  10   6  215.58   11.40
  -6  10  -6  289.17   15.60
  10   6  -6  253.47   13.20
 -10  -6   6  246.58   13.10
  -6  10   6  253.67   14.80
  -6  10   6  283.47   14.90
  10   5  -6   20.20    4.20
  -5  10  -6   25.00    5.60
  -5  10  -6   21.50    4.40
 -10  -5   6   28.10    4.80
  -5  10   6   23.10    5.50
  -4  10  -6    5.60    3.50
  -4  10  -6    5.70    4.10
  10   4  -6    7.30    3.20
 -10  -4   6    7.50    3.20
  -4  10   6    3.80    3.80
  10   3  -6  181.98   10.00
  -3  10  -6  193.38   12.10
 -10  -3   6  184.48    9.80
  -3  10   6  174.58   11.10
  -2  10  -6 1460.55   48.80
  10   2  -6 1413.36   46.10
  -2  10   6 1356.76   47.50
 -10  -2   6 1397.46   45.50
  -1  10  -6  353.16   17.30
  -1  10   6  336.17   15.80
 -10  -1   6  347.77   14.20
   0  10  -6   17.90    5.00
   0 -10   6   18.30    3.50
 -10   0   6   20.20    3.60
   0  10   6   27.70    4.90
  -1 -10  -6  376.36   17.10
   1  10  -6  349.47   17.50
  -1 -10   6  344.67   14.20
 -10   1   6  335.77   14.00
   1  10   6  344.27   15.60
   2  10  -6 1369.06   47.40
 -10   2   6 1329.37   43.60
  -2 -10   6 1392.56   44.10
   3  10  -6  183.18   11.60
  -3 -10   6  188.68    9.60
  -3 -10   6  199.48   12.70
  -3 -10   6  173.08   10.90
   4  10  -6    7.20    3.90
  -4 -10   6    6.80    2.50
  -4 -10   6    7.90    2.80
  -4 -10   6    4.30    3.00
   5  10  -6   14.10    4.40
  -5 -10   6   19.30    4.10
   6  10  -6  257.77   14.00
  -6 -10   6  263.27   12.90
   7  10  -6  198.88   12.20
  -7 -10   6  193.18   11.30
  -6  11  -6  471.45   21.60
  11   6  -6  442.96   19.50
  -6  11   6  459.55   20.70
 -11  -6   6  419.96   19.10
  -6  11   6  443.36   21.20
  -5  11  -6  310.97   16.30
  11   5  -6  309.77   14.50
  -5  11  -6  265.07   14.10
  -5  11   6  286.57   16.00
 -11  -5   6  278.37   14.00
  -4  11  -6  192.28   12.80
  -4  11  -6  184.18   12.50
  11   4  -6  185.28   10.90
 -11  -4   6  191.38   10.70
  -4  11   6  192.68   12.20
  11   3  -6  486.55   19.60
  -3  11  -6  455.15   21.30
  -3  11   6  481.65   21.00
 -11  -3   6  482.85   19.20
  11   2  -6  200.98   10.90
  -2  11  -6  217.88   13.30
 -11  -2   6  197.08   10.60
  -2  11   6  193.18   12.00
  -1  11  -6   19.40    5.30
  11   1  -6   10.10    3.50
  -1  11   6   11.00    4.20
 -11  -1   6   16.00    3.70
   0  11  -6    1.50    4.00
 -11   0   6    5.60    2.90
   0  11   6    0.20    2.80
   1  11  -6    9.40    4.70
  -1 -11   6   12.30    3.50
   1  11   6   17.60    4.40
   2  11  -6  193.98   13.20
  -2 -11   6  209.58   10.70
   3  11  -6  485.85   22.50
  -3 -11   6  495.85   19.80
  -3 -11   6  466.65   20.70
  -3 -11   6  548.45   22.30
   4  11  -6  188.58   12.70
  -4 -11   6  182.88   10.50
   5  11  -6  276.27   15.70
  -5 -11   6  299.87   14.20
   6  11  -6  420.56   20.10
  -6 -11   6  437.26   18.80
  -3  12  -6  307.77   16.70
  12   3  -6  305.77   14.90
 -12  -3   6  297.77   14.70
  -3  12   6  334.37   16.40
  12   2  -6   67.09    7.00
  -2  12  -6   81.19    9.20
  -2  12   6   69.29    7.70
 -12  -2   6   73.09    7.10
  12   1  -6  308.97   14.90
  -1  12  -6  323.27   17.30
  -1  12   6  327.27   15.90
   0  12  -6    7.20    4.60
   0  12   6    7.80    3.80
   1  12  -6  333.47   18.10
   1  12   6  324.17   17.00
   2  12  -6   76.09    9.50
  -2 -12   6   88.59    7.70
   3  12  -6  304.47   17.70
  -3 -12   6  344.37   15.70
  -3 -12   6  329.27   15.30
  -3 -12   6  310.77   15.00
   0   0   7    7.50    1.50
  -1   0  -7  590.64   19.00
   1   0  -7  635.54   19.60
   1   0  -7  629.54   22.10
   0   1  -7  614.34   19.50
   0   1  -7  631.64   22.00
   0  -1   7  616.04   19.80
   0   1   7  624.94   20.10
  -1   0   7  623.64   20.00
   1   0   7  634.84   19.90
  -1   1  -7   18.80    3.00
  -1   1  -7   21.50    1.90
   1   1  -7   20.20    2.10
  -1  -1  -7   21.10    1.80
   1   1  -7   22.60    3.20
  -1   1   7   18.60    2.40
  -1  -1   7   19.20    3.10
  -1  -1   7   21.60    5.10
   1  -1   7   22.80    2.10
  -1  -1   7   21.30    2.20
  -1   2  -7  740.63   24.00
   2   1  -7  786.12   24.20
  -1   2  -7  779.82   26.40
  -2  -1   7  769.92   24.30
  -2  -1   7  762.22   26.30
   1  -2   7  769.62   23.90
   0   2  -7    0.20    1.40
   0   2  -7    3.20    1.30
  -2   0   7    1.10    1.40
   0  -2   7   -0.10    0.90
   2   0   7   -0.10    1.00
  -2   0   7    0.10    1.70
  -2   0   7    2.50    1.40
   1   2  -7  743.13   24.30
   1   2  -7  834.92   29.30
   2  -1   7  758.02   24.00
  -2   1   7  767.02   24.70
  -2   1   7  753.02   26.60
  -2   1   7  786.92   27.40
  -1  -2   7  789.42   24.40
   2   2  -7  174.58    7.20
  -2   2  -7  182.98    8.50
   2  -2   7  178.48    6.60
  -2  -2   7  183.28    9.30
  -2   2   7  177.78    9.70
  -2  -2   7  185.98    9.10
  -2  -2   7  181.98    7.20
  -2   2   7  180.48    7.60
  -2   3  -7 1582.54   52.59
  -2   3  -7 1657.23   53.49
   3   2  -7 1671.53   51.89
   2  -3   7 1674.93   50.89
  -3  -2   7 1738.63   54.39
  -3  -2   7 1711.13   51.79
  -3  -2   7 1759.22   54.09
  -2   3   7 1848.42   58.89
  -1   3  -7  498.65   17.10
  -1   3  -7  508.25   18.90
   3   1  -7  526.35   17.00
   1  -3   7  499.55   16.20
  -3  -1   7  516.35   18.80
  -3  -1   7  480.85   19.10
  -3  -1   7  515.55   17.00
   0   3  -7  150.08    8.00
   0   3  -7  138.89    6.20
   0  -3   7  134.19    5.60
  -3   0   7  135.79    6.10
  -3   0   7  144.59    7.60
  -3   0   7  128.79    7.90
   1   3  -7  495.05   16.70
  -3   1   7  511.75   19.70
  -1  -3   7  487.85   16.30
   3  -1   7  508.65   16.00
  -3   1   7  499.25   18.50
  -3   1   7  492.45   16.80
   2   3  -7 1696.53   51.79
  -3   2   7 1641.34   51.89
  -3   2   7 1716.93   53.99
   3  -2   7 1664.03   50.69
  -3   2   7 1660.13   55.19
  -2  -3   7 1826.62   54.69
  -2  -3   7 1707.53   54.19
  -2  -3   7 1696.83   51.49
  -3   3  -7   18.80    2.90
   3   3  -7   20.40    2.70
   3  -3   7   20.90    1.90
  -3   3   7   23.00    3.00
  -3  -3   7   23.60    4.00
  -3  -3   7   19.90    2.50
  -3   3   7   18.60    4.30
  -3  -3   7   21.10    3.50
   4   3  -7   53.09    4.10
  -3   4  -7   47.30    4.20
   3  -4   7   47.90    2.70
  -4  -3   7   49.40    4.80
  -4  -3   7   45.30    3.60
  -3   4   7   42.50    6.00
  -4  -3   7   44.10    4.60
  -2   4  -7  647.04   23.80
  -2   4  -7  697.13   24.40
   4   2  -7  701.63   22.60
  -4  -2   7  688.13   24.50
  -4  -2   7  683.93   22.30
  -4  -2   7  664.63   24.00
   2  -4   7  701.33   21.40
   4   1  -7  399.06   14.10
  -1   4  -7  385.76   14.60
  -1   4  -7  417.46   16.30
  -4  -1   7  391.76   16.20
   1  -4   7  392.56   13.10
  -4  -1   7  389.86   13.90
  -4  -1   7  404.06   15.40
   0   4  -7    2.80    1.80
  -4   0   7    2.10    1.70
  -4   0   7    3.90    1.70
  -4   0   7    1.70    2.10
   0  -4   7    2.30    1.20
   1   4  -7  397.56   14.30
  -4   1   7  392.06   15.40
  -1  -4   7  408.06   13.60
  -4   1   7  399.26   14.10
  -4   1   7  392.26   16.80
   4  -1   7  401.26   13.00
   2   4  -7  675.83   22.80
   4  -2   7  680.93   21.20
  -2  -4   7  753.32   25.50
  -2  -4   7  694.83   22.20
  -4   2   7  638.84   25.90
  -4   2   7  687.33   22.70
  -4   2   7  695.53   24.30
   3   4  -7   57.69    4.20
  -4   3   7   46.70    4.70
  -4   3   7   50.39    4.00
  -3  -4   7   51.89    5.00
  -3  -4   7   46.50    3.50
  -4   3   7   50.49    6.40
  -3  -4   7   40.50    4.80
   4   4  -7   75.79    5.00
  -4  -4   7   82.89    4.80
  -4   4   7   81.79    5.20
  -4  -4   7   85.49    6.50
  -4  -4   7   73.49    5.90
  -4   4   7   77.49    8.00
  -4   5  -7   30.80    3.50
   5   4  -7   34.60    3.90
  -5  -4   7   26.50    4.20
  -5  -4   7   26.40    3.10
  -5  -4   7   24.70    3.40
  -4   5   7   34.00    6.50
  -3   5  -7   87.99    6.90
   5   3  -7   88.89    5.40
  -3   5  -7   87.99    6.20
  -5  -3   7   95.79    5.30
  -5  -3   7   79.69    5.60
  -5  -3   7   85.39    5.90
   5   2  -7  752.12   24.20
  -2   5  -7  734.33   26.00
  -2   5  -7  751.92   26.30
  -5  -2   7  694.23   24.50
  -5  -2   7  676.03   25.00
   2  -5   7  729.33   22.60
  -5  -2   7  739.13   23.80
  -1   5  -7  750.62   26.90
  -1   5  -7  758.22   25.60
   1  -5   7  740.63   23.20
  -5  -1   7  755.62   24.20
  -5  -1   7  727.33   24.90
  -5  -1   7  700.53   26.00
   0   5  -7 1770.82   55.09
   0  -5   7 1820.22   53.59
  -5   0   7 1627.34   56.89
  -5   0   7 1824.42   54.39
  -5   0   7 1800.12   55.29
   0   5   7 1818.22   54.29
   1   5  -7  754.32   24.90
   5  -1   7  757.92   23.00
  -1  -5   7  738.03   23.70
  -5   1   7  726.83   24.20
  -5   1   7  722.93   27.80
   1   5   7  737.03   23.90
  -5   1   7  758.72   25.40
   2   5  -7  740.03   24.80
  -2  -5   7  805.22   27.50
  -5   2   7  726.83   24.20
  -5   2   7  718.23   28.30
  -2  -5   7  714.53   23.80
  -5   2   7  723.23   25.30
   3   5  -7   93.09    5.70
  -5   3   7   97.59    5.50
  -5   3   7   90.09    6.10
  -3  -5   7   84.79    6.60
  -3  -5   7   96.39    5.10
  -3  -5   7   85.99    7.00
  -5   3   7   95.49    8.70
   4   5  -7   27.20    3.50
  -5   4   7   33.50    6.10
  -5   4   7   29.90    4.10
  -4  -5   7   31.30    4.90
  -5   4   7   31.70    3.70
  -4  -5   7   36.70    3.70
  -4  -5   7   28.10    4.10
  -5   5   7   34.20    3.90
  -5   5   7   37.60    4.70
  -5  -5   7   33.70    4.40
  -5  -5   7   27.60    3.30
  -5   5   7   35.70    6.60
   6   5  -7  448.96   17.50
  -5   6   7  465.95   17.50
  -6  -5   7  450.05   17.00
  -5   6   7  499.85   22.40
  -4   6  -7   70.19    5.40
   6   4  -7   67.89    5.30
  -4   6   7   79.19   15.40
  -6  -4   7   70.19    5.00
  -3   6  -7  395.36   16.50
  -3   6  -7  402.16   16.90
   6   3  -7  403.26   15.10
  -6  -3   7  387.86   14.60
  -2   6  -7  882.91   31.70
   6   2  -7  882.71   29.20
  -2   6  -7  872.21   31.30
  -2   6   7  903.81   29.80
  -6  -2   7  890.71   28.90
   2  -6   7  901.61   27.70
  -1   6  -7  722.63   26.20
  -6  -1   7  728.53   24.20
   1  -6   7  739.83   23.40
  -1   6   7  742.23   25.00
   0   6  -7   11.50    3.00
   0   6   7    3.80    2.00
  -6   0   7    3.80    1.80
   0  -6   7    5.20    1.60
   1   6  -7  692.53   24.30
   1   6   7  704.43   23.50
  -6   1   7  701.63   23.40
  -1  -6   7  713.53   22.90
   2   6  -7  868.51   28.80
  -2  -6   7  853.71   31.10
  -6   2   7  872.11   27.70
  -6   2   7  806.12   29.20
  -2  -6   7  856.21   27.50
  -6   2   7  863.81   27.90
   3   6  -7  390.86   15.10
  -6   3   7  390.36   16.40
  -3  -6   7  357.86   17.10
  -6   3   7  371.66   14.30
  -6   3   7  380.26   14.20
  -3  -6   7  383.36   14.00
  -3  -6   7  401.46   16.60
   4   6  -7   67.99    5.40
  -6   4   7   83.89    7.20
  -4  -6   7   57.59    6.80
  -6   4   7   64.09    4.90
  -4  -6   7   67.29    4.80
  -6   4   7   73.29    5.30
  -4  -6   7   61.89    5.70
   5   6  -7  441.26   17.30
  -6   5   7  472.35   19.80
  -6   5   7  447.26   16.80
  -6   5   7  450.25   17.70
  -5  -6   7  439.46   16.50
   6   6  -7  641.74   23.60
  -6  -6   7  645.44   22.90
  -6   6   7  681.23   26.50
  -6   6   7  652.73   24.50
  -6   6   7  652.53   23.10
   7   6  -7  225.58   11.30
  -7  -6   7  222.48   10.80
  -6   7   7  234.98   11.10
  -6   7   7  252.07   13.70
  -6   7   7  233.08   12.30
   7   5  -7  316.57   14.10
  -7  -5   7  345.57   14.00
  -5   7   7  378.96   18.70
  -4   7  -7   12.30    4.30
  -4   7  -7   11.10    3.10
   7   4  -7    8.00    2.70
  -7  -4   7    5.50    2.30
   7   3  -7   22.10    3.40
  -3   7  -7   16.70    4.50
  -3   7  -7   18.10    4.00
  -7  -3   7   16.90    3.00
  -3   7   7   25.20    4.20
  -2   7  -7 1053.19   38.30
   7   2  -7 1092.49   35.50
  -2   7  -7 1080.69   37.80
  -2   7   7 1118.99   36.50
  -7  -2   7 1088.19   35.00
  -1   7  -7  183.28   10.70
  -1   7   7  204.88    9.80
   1  -7   7  187.88    7.80
  -7  -1   7  191.68    8.70
   0   7  -7   14.00    3.70
   0  -7   7   18.00    2.60
  -7   0   7   11.30    2.50
   0   7   7   26.70    3.90
   1   7  -7  179.08    9.70
  -7   1   7  177.28    8.30
   1   7   7  205.08   10.00
  -1  -7   7  178.48    7.90
   2   7  -7 1072.09   35.70
  -7   2   7 1057.39   34.30
  -2  -7   7 1074.99   34.00
   3   7  -7   14.10    3.40
  -3  -7   7   19.70    5.00
  -3  -7   7   18.70    2.90
  -7   3   7   14.00    2.80
  -3  -7   7   13.70    3.50
   4   7  -7    6.20    3.00
  -4  -7   7   10.50    3.20
  -4  -7   7    7.30    3.80
  -7   4   7    6.30    2.40
  -4  -7   7    7.80    2.50
   5   7  -7  312.57   14.00
  -5  -7   7  321.67   13.20
  -7   5   7  337.87   13.30
   6   7  -7  230.28   11.50
  -6  -7   7  225.68   10.70
  -7   6   7  229.78   10.00
  -7   6   7  232.48   10.50
  -7   6   7  245.98   10.90
   7   7  -7   25.90    4.40
  -7   7   7   32.10    4.50
  -7   7   7   29.10    4.40
  -7  -7   7   26.10    4.10
  -7   7   7   28.30    4.00
   8   7  -7  187.68   11.00
  -7   8   7  212.38   11.00
  -8  -7   7  192.88   10.70
  -7   8   7  217.68   10.80
   8   6  -7    3.40    2.90
  -8  -6   7    6.30    2.90
  -6   8   7    6.10    3.50
  -6   8   7    6.00    3.20
   8   5  -7  129.29    8.10
  -5   8  -7  130.59    7.20
  -5   8   7  146.59   17.10
  -8  -5   7  131.09    7.90
   8   4  -7  127.59    7.90
  -4   8  -7  135.59    9.80
  -4   8  -7  126.19    8.60
  -8  -4   7  133.49    7.70
  -4   8   7  130.89    8.90
  -3   8  -7  293.57   15.10
  -3   8  -7  325.87   15.50
   8   3  -7  312.57   13.20
  -8  -3   7  294.77   12.70
  -3   8   7  315.97   14.40
   8   2  -7  149.69    8.30
  -2   8  -7  156.68   10.40
  -8  -2   7  153.68    8.10
  -2   8   7  170.78    9.60
  -1   8  -7  183.38   11.30
  -8  -1   7  176.48    8.60
   1  -8   7  184.18    8.00
  -1   8   7  181.98    9.90
   0   8  -7    2.90    3.40
  -8   0   7    2.80    2.20
   0   8   7    6.70    2.80
   0  -8   7    0.00    1.70
   1   8  -7  180.38   10.30
  -8   1   7  171.78    8.40
  -1  -8   7  174.58    8.10
   2   8  -7  145.89    9.00
  -8   2   7  147.59    7.50
  -2  -8   7  137.59    7.30
   3   8  -7  300.67   13.70
  -3  -8   7  302.67   12.10
  -3  -8   7  284.07   14.40
  -8   3   7  294.37   12.20
   4   8  -7  115.59    8.10
  -4  -8   7  129.59    9.70
  -8   4   7  118.79    6.90
  -4  -8   7  122.19    8.10
  -4  -8   7  124.69    7.10
   5   8  -7  129.79    8.70
  -5  -8   7  122.59    7.50
  -8   5   7  128.39    7.50
   6   8  -7    1.10    3.00
  -6  -8   7    8.40    3.10
  -8   6   7   12.70    3.30
   7   8  -7  186.88   11.10
  -7  -8   7  198.68   10.40
   8   8  -7  164.08   10.40
  -8  -8   7  159.58    9.80
   9   8  -7  341.97   16.50
  -9  -8   7  346.87   16.10
   9   7  -7  332.47   15.90
  -9  -7   7  314.17   15.20
  -7   9   7  349.07   15.50
  -7   9   7  360.86   15.80
   9   6  -7   63.39    6.50
  -6   9   7   51.89    6.00
  -9  -6   7   55.59    6.30
  -6   9   7   57.89    7.20
   9   5  -7  337.47   15.00
  -5   9  -7  336.07   14.30
  -9  -5   7  332.77   14.60
   9   4  -7    3.00    2.70
  -4   9  -7    3.70    3.00
  -4   9  -7    4.00    4.10
  -4   9   7    2.70    3.40
  -9  -4   7    2.40    2.70
   9   3  -7  348.97   15.10
  -3   9  -7  378.56   17.60
  -3   9  -7  367.76   18.00
  -9  -3   7  340.17   14.60
  -3   9   7  372.46   16.70
  -2   9  -7  309.77   15.40
   9   2  -7  300.57   13.20
  -2   9   7  294.17   14.20
  -9  -2   7  290.17   12.60
  -1   9  -7  135.89   10.10
   9   1  -7  121.19    7.70
  -9  -1   7  117.79    7.20
  -1   9   7  139.79    8.90
   0   9  -7  636.64   25.80
   0   9   7  617.74   23.90
   0  -9   7  657.33   22.10
  -9   0   7  658.33   22.70
   1   9  -7  138.09    9.90
  -1  -9   7  139.39    7.30
  -9   1   7  131.29    7.50
   2   9  -7  305.27   14.90
  -2  -9   7  305.57   12.50
  -9   2   7  292.97   12.40
   3   9  -7  364.46   16.30
  -3  -9   7  356.66   14.20
  -3  -9   7  339.77   16.60
  -9   3   7  348.37   14.10
   4   9  -7    0.60    3.10
  -9   4   7    4.10    2.50
  -4  -9   7    2.80    2.60
  -4  -9   7    1.70    2.50
  -4  -9   7   -0.20    2.80
   5   9  -7  333.97   15.80
  -5  -9   7  340.37   14.40
   6   9  -7   52.09    6.40
  -6  -9   7   51.99    5.90
   7   9  -7  317.47   15.80
  -7  -9   7  340.67   15.10
   8   9  -7  347.57   16.80
  -8  -9   7  331.67   15.60
  10   6  -7  180.88   10.70
  -6  10   7  166.88   11.50
 -10  -6   7  139.49    9.70
  10   5  -7 1241.78   42.00
  -5  10  -7 1167.08   41.30
  -5  10   7 1266.67   44.10
 -10  -5   7 1261.97   41.70
  10   4  -7  367.16   16.50
  -4  10  -7  364.16   18.10
  -4  10  -7  413.46   18.90
  -4  10   7  392.16   18.20
 -10  -4   7  379.06   16.20
  10   3  -7  253.67   12.50
  -3  10  -7  274.17   14.70
 -10  -3   7  243.58   12.00
  -3  10   7  243.08   13.60
  -2  10  -7  126.79   10.10
  10   2  -7  112.39    7.90
  -2  10   7  113.39    8.90
 -10  -2   7  108.29    7.40
  -1  10  -7  260.47   14.30
  10   1  -7  247.68   12.00
  -1  10   7  237.18   12.70
 -10  -1   7  236.88   11.30
   0  10  -7   -1.50    3.60
 -10   0   7   -0.30    2.30
   0  10   7    2.60    3.10
   1  10  -7  249.78   14.40
  -1 -10   7  246.88   11.00
 -10   1   7  221.08   10.90
   2  10  -7  110.59    9.80
 -10   2   7  111.29    7.30
  -2 -10   7  112.29    7.10
   3  10  -7  255.57   14.00
  -3 -10   7  218.78   13.00
  -3 -10   7  248.98   11.50
   4  10  -7  393.96   18.30
  -4 -10   7  371.16   16.00
  -4 -10   7  435.86   16.90
  -4 -10   7  367.46   15.80
   5  10  -7 1212.98   42.50
  -5 -10   7 1182.58   40.20
   6  10  -7  142.79   10.50
  -6 -10   7  151.18    9.50
  -5  11  -7  133.39    9.10
  11   5  -7  153.38   10.00
  -5  11   7  134.19   10.80
 -11  -5   7  138.49    9.50
  11   4  -7   85.29    7.60
  -4  11  -7   69.09    8.10
  -4  11  -7   83.69    9.00
  -4  11   7   71.89    8.10
 -11  -4   7   83.59    7.40
  -3  11  -7  200.98   12.90
  11   3  -7  200.88   11.20
  -3  11   7  200.08   12.30
 -11  -3   7  193.98   10.80
  -2  11  -7   44.60    7.10
  11   2  -7   55.29    6.20
  -2  11   7   58.99    7.20
 -11  -2   7   49.30    5.80
  -1  11  -7   33.90    6.40
  11   1  -7   30.20    4.90
  -1  11   7   27.80    5.40
 -11  -1   7   26.10    4.40
   0  11  -7   53.39    7.80
 -11   0   7   60.89    6.10
   1  11  -7   23.40    6.00
 -11   1   7   26.90    4.30
  -1 -11   7   28.20    4.50
   2  11  -7   55.39    8.20
  -2 -11   7   48.10    5.70
   3  11  -7  212.88   13.80
  -3 -11   7  198.78   10.70
  -3 -11   7  181.48   11.60
   4  11  -7   64.49    8.20
  -4 -11   7   77.49    6.90
   5  11  -7  137.99   11.10
  -5 -11   7  138.59    9.20
  12   1  -7   38.30    5.70
  -1  12  -7   42.40    7.20
 -12  -1   7   30.80    5.20
  -1  12   7   43.70    6.40
   0  12  -7    2.90    4.20
   1  12  -7   35.30    7.00
   0   0  -8 1567.34   47.60
   0   0   8 1613.54   48.40
   1   0  -8    3.90    1.30
   0   1  -8    2.10    1.10
   0   1  -8    0.70    1.60
   0  -1   8    2.40    1.30
  -1   0   8    4.00    1.60
   0   1   8    6.80    1.70
   1   0   8    2.00    1.30
   1   1  -8  447.36   14.90
   1  -1   8  454.55   15.00
   1   1   8  446.56   15.30
  -1  -1   8  453.75   15.20
  -1   1   8  442.36   15.40
  -1   2  -8 1847.32   59.69
   2   1  -8 1878.31   57.09
  -1   2   8 1855.41   57.69
   1  -2   8 1898.11   56.89
  -2  -1   8 1995.50   60.99
  -2  -1   8 1893.61   57.39
   0   2  -8 1935.21   61.49
   2   0  -8 2039.70   61.59
   0   2  -8 2113.99   64.69
  -2   0   8 2084.69   62.09
   0  -2   8 2027.50   61.49
  -2   0   8 2152.98   65.69
   2   0   8 2011.40   61.59
   1   2  -8 1898.21   56.89
  -1  -2   8 1862.21   56.89
   2  -1   8 1878.71   56.59
  -2   1   8 1907.01   57.39
   2   2  -8 3017.70   92.49
  -2  -2   8 3113.89   92.49
  -2  -2   8 3154.08   95.99
   2  -2   8 3044.50   91.89
  -2   2   8 3199.68   93.09
  -2   3  -8  211.98   10.10
   3   2  -8  203.58    8.50
  -3  -2   8  204.58   10.60
  -3  -2   8  205.28   10.40
   2  -3   8  204.58    7.60
  -2   3   8  205.98    8.90
  -3  -2   8  206.48    8.40
  -1   3  -8 1887.11   59.59
   3   1  -8 1838.02   56.89
  -1   3  -8 1789.22   56.99
   1  -3   8 1870.31   56.29
  -3  -1   8 1978.80   60.99
  -3  -1   8 1879.01   56.99
  -3  -1   8 1885.41   60.19
   0   3  -8    9.20    2.10
   3   0   8    1.60    1.30
   0  -3   8    3.20    1.30
  -3   0   8    4.70    1.70
  -3   0   8    2.00    2.20
   1   3  -8 1879.91   56.59
  -1  -3   8 1890.11   56.19
  -3   1   8 1769.52   59.99
  -3   1   8 1868.61   56.79
   3  -1   8 1900.61   55.89
   2   3  -8  206.68    8.60
  -2  -3   8  215.88    8.40
  -2  -3   8  203.28   10.80
   3  -2   8  207.38    7.60
  -3   2   8  204.58   11.40
   3   3  -8  739.63   24.40
  -3  -3   8  739.53   24.10
  -3  -3   8  710.23   28.10
  -3  -3   8  758.22   27.20
  -3   3   8  747.33   24.60
   3  -3   8  742.53   23.00
  -3   4  -8  583.54   21.10
   4   3  -8  580.54   19.90
  -4  -3   8  618.64   22.30
  -4  -3   8  544.15   21.50
  -4  -3   8  569.64   19.60
  -3   4   8  575.14   20.10
   3  -4   8  565.94   20.10
   4   2  -8   56.99    4.10
  -2   4  -8   60.69    5.30
  -4  -2   8   57.69    5.20
  -4  -2   8   53.49    5.40
  -4  -2   8   59.09    4.10
   2  -4   8   56.09    3.30
  -1   4  -8  124.59    8.20
  -1   4  -8  138.29    7.30
   4   1  -8  147.59    6.80
  -4  -1   8  134.69    8.60
  -4  -1   8  160.28    8.40
  -4  -1   8  163.68    7.00
   1  -4   8  135.79    5.90
   0   4  -8  407.26   14.70
  -4   0   8  396.86   16.00
  -4   0   8  405.56   17.20
   0  -4   8  407.36   13.70
  -4   0   8  397.46   14.30
   1   4  -8  144.99    7.00
  -1  -4   8  139.19    6.30
  -4   1   8  143.89    8.10
  -4   1   8  147.39    9.40
   4  -1   8  148.99    5.90
   2   4  -8   74.39    4.60
  -4   2   8   47.70    5.90
  -2  -4   8   53.99    3.80
  -2  -4   8   57.19    5.60
  -4   2   8   51.89    5.20
  -4   2   8   53.59    4.20
   4  -2   8   57.79    3.10
   3   4  -8  594.54   20.10
  -3  -4   8  590.24   22.60
  -3  -4   8  579.44   19.50
  -4   3   8  546.95   23.90
  -4   3   8  577.94   20.00
   4   4  -8    1.10    1.80
  -4  -4   8    3.10    2.40
  -4   4   8    4.60    3.50
  -4  -4   8    1.50    2.20
  -4   4   8    8.50    2.60
  -4  -4   8    2.20    1.60
   5   4  -8 1339.87   41.00
  -5  -4   8 1346.57   40.50
  -5  -4   8 1207.78   42.00
  -5  -4   8 1153.98   41.30
  -4   5   8 1324.47   41.10
   5   3  -8 1782.22   52.69
  -3   5  -8 1715.33   54.19
  -5  -3   8 1639.24   53.79
  -5  -3   8 1528.95   53.59
  -5  -3   8 1768.62   52.29
  -2   5  -8  562.24   21.40
   5   2  -8  570.84   19.20
  -5  -2   8  515.05   20.80
   2  -5   8  559.54   17.70
  -5  -2   8  555.24   18.90
  -5  -2   8  512.85   20.00
  -1   5  -8  400.46   15.50
   5   1  -8  390.16   14.40
  -5  -1   8  404.56   14.30
  -5  -1   8  362.56   16.30
   1  -5   8  393.46   13.30
  -5  -1   8  382.06   15.40
   0   5  -8    6.50    2.40
   0  -5   8    3.00    1.40
  -5   0   8    9.40    2.60
  -5   0   8    2.20    2.50
  -5   0   8    5.40    2.00
   1   5  -8  373.86   14.60
  -5   1   8  381.86   17.60
  -1  -5   8  394.26   13.60
  -5   1   8  396.16   14.30
  -5   1   8  391.36   15.50
   2   5  -8  553.34   19.60
  -5   2   8  549.05   20.50
  -2  -5   8  596.24   22.80
  -5   2   8  545.45   19.10
  -2  -5   8  539.85   18.60
  -5   2   8  520.35   23.10
   3   5  -8 1808.52   54.89
  -3  -5   8 1737.73   57.19
  -3  -5   8 1727.83   53.89
  -5   3   8 1737.53   54.39
  -5   3   8 1838.02   56.39
  -5   3   8 1674.63   59.49
   4   5  -8 1355.16   41.90
  -5   4   8 1341.67   45.20
  -4  -5   8 1300.77   43.50
  -5   4   8 1284.77   41.40
  -4  -5   8 1210.28   43.90
  -5   4   8 1314.97   47.50
  -4  -5   8 1282.57   40.90
   5   5  -8 2152.18   62.99
  -5  -5   8 2034.80   61.99
  -5   5   8 2123.49   62.69
  -5   5   8 2041.40   68.99
  -5  -5   8 1918.21   63.99
  -5  -5   8 1798.62   62.49
   6   5  -8  716.43   25.30
  -6  -5   8  696.33   24.60
  -5   6   8  716.13   25.20
  -5   6   8  732.53   30.70
   6   4  -8   80.69    5.80
  -4   6  -8   79.29    5.90
  -6  -4   8   76.19    5.50
  -3   6  -8 1094.49   37.60
   6   3  -8 1107.79   35.80
  -6  -3   8 1081.09   35.30
  -2   6  -8 1685.53   55.49
  -2   6  -8 1719.33   56.19
   6   2  -8 1738.63   53.39
  -6  -2   8 1686.13   52.99
   6   1  -8  932.11   30.50
  -1   6  -8  908.51   32.10
  -6  -1   8  926.71   30.20
   1  -6   8  934.91   29.10
   0   6  -8  742.63   25.10
  -6   0   8  623.74   24.60
  -6   0   8  713.03   23.60
  -6   0   8  695.03   23.30
   0  -6   8  725.23   22.70
   1   6  -8  889.31   30.40
  -1  -6   8  940.61   28.80
  -6   1   8  910.11   29.70
  -6   1   8  842.02   31.70
  -6   1   8  916.81   29.50
   2   6  -8 1727.93   53.99
  -6   2   8 1711.23   53.09
  -2  -6   8 1664.13   52.39
  -6   2   8 1750.72   53.69
  -6   2   8 1688.83   56.49
   3   6  -8 1082.89   35.70
  -6   3   8 1125.89   39.00
  -6   3   8 1040.40   34.80
  -3  -6   8 1071.19   34.50
  -6   3   8 1093.49   35.80
  -3  -6   8 1058.29   37.80
   4   6  -8   79.29    6.20
  -4  -6   8   82.69    7.70
  -4  -6   8   91.59    5.60
  -6   4   8   69.99    5.50
  -6   4   8   76.69    6.00
  -6   4   8   81.59    8.00
  -4  -6   8   80.69    6.80
   5   6  -8  710.83   25.10
  -6   5   8  707.63   24.60
  -6   5   8  709.63   25.80
  -6   5   8  757.02   28.60
  -5  -6   8  704.63   24.20
  -5  -6   8  718.13   25.90
  -5  -6   8  617.34   23.90
   6   6  -8  631.44   23.90
  -6   6   8  668.03   27.10
  -6   6   8  665.23   23.70
  -6  -6   8  654.83   23.30
  -6   6   8  669.53   25.30
   7   6  -8  536.65   21.40
  -6   7   8  573.44   21.20
  -7  -6   8  517.85   20.40
  -6   7   8  602.04   24.80
   7   5  -8  709.63   26.10
  -5   7   8  779.92   37.10
  -7  -5   8  709.63   25.50
  -5   7   8  740.83   26.20
  -4   7  -8  568.34   21.90
   7   4  -8  580.54   21.30
  -7  -4   8  587.64   20.90
  -3   7  -8  293.57   14.40
   7   3  -8  299.17   12.70
  -7  -3   8  297.77   12.30
   7   2  -8  351.26   14.20
  -2   7  -8  351.46   16.20
  -7  -2   8  346.37   13.80
  -1   7  -8 1114.59   38.90
   7   1  -8 1126.89   36.80
   1  -7   8 1142.39   35.30
  -7  -1   8 1115.49   36.30
   0   7  -8    1.40    2.80
   0  -7   8    6.60    2.00
   1   7  -8 1118.69   37.30
  -7   1   8 1088.29   35.60
  -1  -7   8 1100.89   34.90
   2   7  -8  362.56   14.80
  -7   2   8  330.57   13.40
  -2  -7   8  336.87   13.00
   3   7  -8  298.07   13.30
  -3  -7   8  298.97   11.80
  -3  -7   8  285.67   14.60
  -7   3   8  286.77   12.10
   4   7  -8  580.84   21.60
  -4  -7   8  551.94   20.10
  -4  -7   8  553.34   24.20
  -4  -7   8  555.64   22.40
  -7   4   8  597.94   20.70
   5   7  -8  717.23   25.70
  -7   5   8  715.83   24.90
  -7   5   8  705.93   23.90
  -7   5   8  695.23   24.50
  -5  -7   8  675.03   24.40
   6   7  -8  546.75   21.50
  -7   6   8  575.04   21.30
  -7   6   8  542.45   20.30
  -6  -7   8  543.55   20.50
  -7   6   8  569.54   20.90
   7   7  -8  255.87   13.20
  -7   7   8  270.87   12.60
  -7   7   8  282.07   13.30
  -7  -7   8  254.97   12.40
  -7   7   8  298.47   13.10
   8   7  -8  442.06   19.50
  -8  -7   8  455.95   18.90
  -7   8   8  485.45   19.20
  -7   8   8  474.75   19.20
  -7   8   8  487.25   19.70
   8   6  -8  916.21   33.50
  -6   8   8  955.10   33.20
  -8  -6   8  918.41   32.80
  -6   8   8 1028.00   37.00
   8   5  -8   23.90    4.40
  -8  -5   8   26.30    4.30
   8   4  -8    8.20    3.20
  -4   8  -8    7.90    3.10
  -8  -4   8    8.90    2.90
  -3   8  -8   57.29    6.60
   8   3  -8   54.79    5.50
  -8  -3   8   59.79    5.30
  -2   8  -8  925.31   33.20
   8   2  -8  873.81   30.60
  -2   8   8  909.51   31.50
  -8  -2   8  875.11   30.10
  -1   8  -8   85.79    8.10
   8   1  -8   89.09    6.30
  -1   8   8   87.59    6.80
  -8  -1   8   79.39    5.80
   0   8  -8  617.14   24.30
  -8   0   8  589.84   21.50
   0  -8   8  618.94   20.80
   1   8  -8   78.39    7.20
  -8   1   8   74.79    5.60
  -1  -8   8   92.59    5.60
   2   8  -8  878.91   31.00
  -8   2   8  855.51   29.10
  -2  -8   8  858.71   28.60
   3   8  -8   59.99    6.30
  -8   3   8   59.39    5.10
  -3  -8   8   50.89    4.90
  -3  -8   8   56.89    6.70
   4   8  -8    9.20    3.60
  -4  -8   8   13.20    3.80
  -8   4   8   13.00    3.20
  -4  -8   8    9.20    2.90
  -4  -8   8    7.30    4.20
   5   8  -8   24.40    4.80
  -5  -8   8   25.80    4.00
  -8   5   8   25.40    4.10
   6   8  -8  899.01   32.80
  -8   6   8  930.01   31.60
  -6  -8   8  910.61   31.50
   7   8  -8  435.76   18.90
  -7  -8   8  425.16   17.70
   8   8  -8  275.67   14.50
  -8  -8   8  295.87   13.90
   9   7  -8   75.59    7.60
  -7   9   8   67.19    6.60
  -7   9   8   76.99    7.00
  -9  -7   8   72.99    7.40
   9   6  -8  739.33   27.90
  -6   9   8  786.12   30.50
  -6   9   8  753.52   27.50
  -9  -6   8  694.13   27.00
   9   5  -8 1258.27   42.30
  -5   9  -8 1237.18   40.50
  -9  -5   8 1245.58   41.70
   9   4  -8  363.76   16.20
  -4   9  -8  376.06   17.40
  -9  -4   8  398.56   16.10
  -3   9  -8  435.66   22.30
   9   3  -8  388.36   16.70
  -3   9  -8  401.66   19.40
  -9  -3   8  393.96   16.30
  -2   9  -8 1511.25   50.69
   9   2  -8 1455.75   48.10
  -2   9   8 1510.35   49.40
  -9  -2   8 1436.96   47.50
  -1   9  -8   40.90    6.60
   9   1  -8   38.30    4.90
  -1   9   8   38.90    6.00
  -9  -1   8   32.10    4.50
   0   9  -8    1.30    3.70
  -9   0   8    1.30    2.40
   0  -9   8    4.60    2.40
   1   9  -8   45.30    6.50
  -1  -9   8   35.60    4.20
  -9   1   8   42.40    4.80
   2   9  -8 1435.66   48.90
  -9   2   8 1412.46   46.30
  -2  -9   8 1484.25   46.10
   3   9  -8  417.36   18.10
  -3  -9   8  380.26   18.40
  -3  -9   8  389.26   15.50
  -9   3   8  401.36   16.00
   4   9  -8  396.06   17.70
  -4  -9   8  368.86   15.50
  -4  -9   8  377.16   16.90
  -9   4   8  375.86   15.60
  -4  -9   8  405.56   18.70
   5   9  -8 1250.57   43.80
  -9   5   8 1300.07   42.40
  -5  -9   8 1264.57   41.90
   6   9  -8  694.83   26.90
  -6  -9   8  672.83   25.10
   7   9  -8   70.59    8.00
  -7  -9   8   76.39    7.10
  10   5  -8  177.58   10.70
  -5  10  -8  160.88    9.10
 -10  -5   8  170.88   10.20
  10   4  -8   64.59    6.70
  -4  10  -8   49.10    6.70
 -10  -4   8   60.29    6.50
  -3  10  -8   74.39    8.60
  10   3  -8   62.19    6.50
  -3  10   8   71.99    7.70
 -10  -3   8   69.19    6.40
  10   2  -8 1566.14   51.29
  -2  10  -8 1620.04   53.99
  -2  10   8 1543.45   52.39
 -10  -2   8 1536.35   50.69
  10   1  -8  752.22   28.10
  -1  10  -8  817.02   31.00
 -10  -1   8  771.02   27.50
   0  10  -8 1332.27   46.60
 -10   0   8 1276.37   42.70
   1  10  -8  797.12   31.40
  -1 -10   8  819.72   27.60
 -10   1   8  772.62   27.80
   2  10  -8 1580.04   53.29
 -10   2   8 1480.85   49.50
  -2 -10   8 1559.84   49.30
   3  10  -8   70.09    8.30
  -3 -10   8   67.69    7.60
 -10   3   8   71.79    6.30
  -3 -10   8   63.39    5.80
   4  10  -8   45.60    6.90
  -4 -10   8   50.79    5.70
  -4 -10   8   45.20    5.40
  -4 -10   8   51.99    6.30
   5  10  -8  175.88   11.80
  -5 -10   8  180.68   10.10
  11   3  -8  556.94   22.10
  -3  11  -8  546.65   24.00
  -3  11   8  527.45   23.00
 -11  -3   8  522.55   21.40
  11   2  -8  361.46   16.40
  -2  11  -8  372.16   18.60
  -2  11   8  366.96   17.40
 -11  -2   8  352.86   15.90
  11   1  -8  165.98   10.40
  -1  11  -8  194.38   13.00
 -11  -1   8  182.88   10.20
   0  11  -8    6.90    4.80
 -11   0   8   16.50    4.20
   1  11  -8  182.08   13.10
 -11   1   8  164.38    9.70
   2  11  -8  369.36   19.20
  -2 -11   8  373.56   15.80
   3  11  -8  563.84   24.80
  -3 -11   8  533.75   23.30
  -3 -11   8  553.34   21.20
   0   0   9    0.90    1.40
   0   1  -9  519.75   20.00
   1   0  -9  511.25   16.90
   0  -1   9  515.15   17.30
  -1   0   9  514.65   17.50
   0   1   9  505.55   17.50
   1   0   9  518.15   17.30
   1   1  -9  577.74   19.20
   1   1   9  591.54   19.80
  -1   1   9  599.94   20.00
  -1  -1   9  585.54   19.60
   1  -1   9  606.24   19.40
   2   1  -9  189.68    7.80
  -1   2  -9  190.18    9.90
   2   1   9  189.08    7.90
  -1   2   9  182.38    8.20
   1  -2   9  184.98    7.50
  -2  -1   9  199.18    8.10
   2   0  -9    1.50    1.30
  -2   0   9    2.50    1.70
   2   0   9    3.10    1.50
   0  -2   9    3.10    1.50
   0   2   9    7.20    2.00
   1   2  -9  187.88    7.80
  -1  -2   9  188.08    7.80
  -2   1   9  188.08    8.20
   2  -1   9  189.88    7.50
   2   2  -9  364.66   13.50
  -2  -2   9  390.56   13.60
  -2   2   9  372.16   14.00
   2  -2   9  387.86   13.00
   3   2  -9   98.49    5.60
  -2   3  -9  106.39    7.10
   2  -3   9  110.29    5.00
  -2   3   9  105.89    6.20
  -3  -2   9  109.59    7.90
  -3  -2   9  108.19    5.70
  -1   3  -9   24.20    3.90
   3   1  -9   25.90    2.90
  -3  -1   9   19.70    3.90
  -3  -1   9   24.80    3.00
   1  -3   9   26.40    2.50
   3   0  -9   56.89    3.90
   0  -3   9   56.89    3.60
  -3   0   9   53.59    5.80
   3   0   9   53.69    3.60
  -3   0   9   54.59    4.10
   1   3  -9   27.30    3.10
  -3   1   9   29.40    3.40
   3  -1   9   24.00    2.50
  -1  -3   9   30.10    3.00
   2   3  -9  106.79    5.80
  -2  -3   9  106.39    5.50
   3  -2   9  106.59    4.90
   3   3  -9  282.17   11.30
  -3  -3   9  279.57   11.00
   3  -3   9  285.27   10.10
  -3   3   9  294.27   11.70
  -3  -3   9  290.97   14.00
   4   3  -9  210.88    9.20
  -4  -3   9  187.38   10.50
  -4  -3   9  205.48   11.20
  -3   4   9  201.78    9.50
  -4  -3   9  200.18    8.80
   4   2  -9   53.59    4.20
  -2   4  -9   48.50    5.10
  -4  -2   9   48.10    5.20
  -4  -2   9   49.00    5.70
  -4  -2   9   48.40    4.00
   2  -4   9   56.49    3.40
   4   1  -9   10.90    2.30
  -1   4  -9    7.20    2.80
  -4  -1   9   12.70    2.50
   1  -4   9    9.20    1.80
  -4  -1   9   13.80    3.80
   0   4  -9    8.20    2.40
  -4   0   9    4.70    2.70
  -4   0   9    2.00    1.80
   0  -4   9    0.70    1.30
   4   0   9    9.80    1.80
   1   4  -9   14.80    2.70
  -4   1   9    9.20    2.30
  -1  -4   9    8.90    2.00
   4  -1   9    7.60    1.60
   2   4  -9   48.30    4.30
  -2  -4   9   49.00    3.90
  -4   2   9   47.80    4.20
  -4   2   9   59.19    6.60
   3   4  -9  217.98    9.50
  -4   3   9  192.88   12.60
  -4   3   9  200.88    9.40
  -3  -4   9  227.18   12.10
  -3  -4   9  208.08    8.90
   4   4  -9  509.15   18.10
  -4  -4   9  482.55   17.40
  -4   4   9  485.15   18.10
  -4  -4   9  457.35   19.80
  -4  -4   9  522.85   20.70
   5   4  -9  234.68   10.40
  -5  -4   9  226.38   11.70
  -5  -4   9  207.08   11.30
  -4   5   9  218.78   10.50
  -5  -4   9  226.08    9.90
  -3   5  -9   19.10    3.80
   5   3  -9   18.50    3.20
  -5  -3   9   21.10    4.20
  -3   5   9   15.90    3.30
  -5  -3   9   21.80    4.00
  -5  -3   9   16.90    3.00
   5   2  -9   14.40    2.90
  -2   5  -9   22.40    4.00
  -5  -2   9   18.80    3.60
  -5  -2   9   11.20    2.60
  -5  -2   9   10.20    3.40
   2  -5   9   16.50    2.20
   5   1  -9   14.70    2.70
  -5  -1   9   15.50    3.90
   1  -5   9   14.60    2.20
  -5  -1   9   22.60    3.20
  -5  -1   9   14.00    3.30
   0   5  -9   20.10    3.50
   0  -5   9   12.70    2.10
  -5   0   9   19.60    3.80
   5   0   9   12.90    2.10
  -5   0   9   11.80    2.60
  -5   0   9    9.40    3.50
   1   5  -9   29.10    3.80
  -5   1   9   14.00    3.20
  -1  -5   9   17.90    2.60
  -5   1   9   25.20    3.20
  -5   1   9   14.00    4.30
   2   5  -9   14.50    3.00
  -5   2   9   16.50    3.60
  -5   2   9    9.10    2.50
  -2  -5   9   15.60    2.60
  -5   2   9   15.50    4.70
   3   5  -9   18.10    3.30
  -5   3   9   15.40    2.90
  -3  -5   9   14.90    2.60
  -5   3   9   21.00    5.40
  -3  -5   9   16.50    3.90
   4   5  -9  237.08   10.70
  -5   4   9  213.78   10.20
  -4  -5   9  217.88   12.10
  -4  -5   9  209.98   12.20
  -4  -5   9  222.78    9.70
  -5   4   9  230.28   14.70
   5   5  -9   12.90    3.20
  -5  -5   9    8.60    3.10
  -5  -5   9   11.30    3.70
  -5  -5   9   10.30    2.70
  -5   5   9   12.40    3.20
  -5   5   9   12.20    5.10
   6   5  -9  478.25   19.00
  -5   6   9  547.05   31.20
  -6  -5   9  470.25   18.40
  -5   6   9  503.55   19.30
   6   4  -9  412.36   16.10
  -6  -4   9  388.16   15.40
  -4   6   9  410.06   16.50
   6   3  -9   25.60    3.70
  -3   6  -9   38.10    5.00
  -6  -3   9   27.90    3.70
   6   2  -9   50.19    4.80
  -2   6  -9   54.59    6.10
  -6  -2   9   50.09    4.60
   6   1  -9   32.50    4.00
  -6  -1   9   26.10    4.50
  -6  -1   9   23.70    3.30
   1  -6   9   34.60    3.20
  -6  -1   9   26.10    3.80
   0   6  -9    4.40    2.90
  -6   0   9    1.10    2.80
   0  -6   9    3.60    1.70
  -6   0   9    1.90    2.00
  -6   0   9    1.80    2.00
   1   6  -9   31.20    4.30
  -6   1   9   25.20    3.40
  -6   1   9   23.60    3.80
  -1  -6   9   25.80    3.10
  -6   1   9   24.40    5.20
   2   6  -9   57.69    5.40
  -6   2   9   52.99    7.20
  -2  -6   9   51.29    4.30
  -6   2   9   51.29    4.90
  -6   2   9   59.19    4.90
   3   6  -9   29.00    4.30
  -6   3   9   32.30    6.20
  -6   3   9   28.20    4.10
  -6   3   9   22.20    3.60
  -3  -6   9   30.00    3.60
  -3  -6   9   27.30    5.20
   4   6  -9  412.36   16.30
  -4  -6   9  390.06   17.70
  -6   4   9  431.26   20.10
  -6   4   9  408.86   16.90
  -6   4   9  391.76   15.70
  -4  -6   9  355.56   18.00
  -4  -6   9  403.56   15.20
   5   6  -9  475.05   18.70
  -6   5   9  532.15   22.90
  -5  -6   9  485.05   17.90
  -5  -6   9  455.75   20.10
  -6   5   9  493.95   21.60
  -6   5   9  488.45   18.50
  -5  -6   9  424.96   18.40
   6   6  -9  195.18   10.70
  -6   6   9  211.48   13.40
  -6  -6   9  192.08    9.80
  -6   6   9  192.48   10.40
   7   6  -9  118.89    8.50
  -6   7   9  120.39   10.20
  -7  -6   9  106.29    7.50
  -6   7   9  123.79    8.30
   7   5  -9   11.40    3.40
  -5   7   9   11.10    3.50
  -7  -5   9    8.50    2.90
   7   4  -9   96.39    6.80
  -4   7  -9   86.49    6.80
  -7  -4   9   89.69    6.30
  -3   7  -9  237.08   12.90
   7   3  -9  255.67   11.60
  -7  -3   9  255.77   11.20
   7   2  -9   82.39    6.00
  -7  -2   9   77.59    5.70
  -1   7  -9   96.89    8.20
   7   1  -9   89.89    6.30
  -7  -1   9   82.89    5.90
   0   7  -9   14.50    4.00
   0  -7   9   11.80    2.40
  -7   0   9   16.00    3.10
   1   7  -9   91.29    7.20
  -7   1   9   75.69    5.70
  -1  -7   9   88.69    5.40
   2   7  -9   86.19    6.80
  -7   2   9   70.59    5.60
  -2  -7   9   75.39    5.20
   3   7  -9  254.37   12.20
  -3  -7   9  243.18   13.70
  -7   3   9  251.07   11.40
  -3  -7   9  253.27   10.80
   4   7  -9   87.09    7.10
  -7   4   9  107.09    6.80
  -4  -7   9   96.89    6.30
  -4  -7   9   95.79    7.90
  -7   4   9   88.39    6.40
  -7   4   9   87.59    5.70
  -4  -7   9   85.59    8.80
   5   7  -9   11.00    3.50
  -5  -7   9   11.80    3.10
  -7   5   9   14.40    3.60
  -5  -7   9   10.60    3.00
  -7   5   9   11.10    2.90
  -5  -7   9   13.90    3.90
  -7   5   9   10.30    3.30
   6   7  -9  118.99    8.60
  -7   6   9  122.59    7.70
  -7   6   9  124.69    8.40
  -6  -7   9  112.59    7.50
  -7   6   9  109.89    7.90
   7   7  -9  196.88   11.50
  -7  -7   9  197.68   10.70
  -7   7   9  215.98   11.70
  -7   7   9  212.98   11.20
  -7   7   9  215.68   11.30
   8   7  -9   55.09    6.70
  -7   8   9   58.39    6.50
  -7   8   9   57.89    6.60
  -8  -7   9   44.80    5.90
  -7   8   9   51.09    5.90
   8   6  -9    8.40    3.70
  -8  -6   9    9.70    3.50
  -6   8   9   -1.00    3.00
  -6   8   9    6.50    4.00
   8   5  -9   10.10    3.50
  -8  -5   9   13.80    3.70
  -5   8   9   11.00    3.90
  -4   8  -9    6.50    3.00
   8   4  -9    9.20    3.40
  -8  -4   9   11.40    3.20
  -3   8  -9  299.27   15.40
   8   3  -9  291.97   13.30
  -8  -3   9  287.87   12.80
   8   2  -9  158.28    8.80
  -8  -2   9  148.89    8.40
  -1   8  -9   49.00    6.90
   8   1  -9   39.80    4.80
  -8  -1   9   32.00    4.40
   0   8  -9   -1.80    3.10
  -8   0   9    7.60    2.70
   0  -8   9    4.20    2.10
   1   8  -9   31.00    5.30
  -8   1   9   40.90    4.80
  -1  -8   9   44.80    4.40
   2   8  -9  165.48   10.10
  -2  -8   9  157.58    8.10
  -8   2   9  142.59    8.40
   3   8  -9  319.97   14.70
  -8   3   9  306.27   13.20
  -3  -8   9  297.27   15.90
  -3  -8   9  295.27   12.60
   4   8  -9   11.00    3.80
  -4  -8   9    8.30    3.60
  -4  -8   9    6.60    2.80
  -8   4   9    6.60    2.90
  -4  -8   9   14.60    5.10
   5   8  -9   11.70    4.00
  -8   5   9   11.40    3.50
  -5  -8   9   14.70    3.50
   6   8  -9    6.10    3.60
  -6  -8   9    3.10    2.80
  -8   6   9    1.60    3.00
   7   8  -9   53.99    6.90
  -7  -8   9   52.69    6.20
  -8   7   9   56.99    6.50
   9   5  -9    6.70    3.60
  -9  -5   9   13.00    3.70
  -5   9   9    7.20    3.80
   9   4  -9   32.50    5.10
  -4   9  -9   25.40    4.90
  -9  -4   9   33.90    4.90
   9   3  -9    8.60    3.30
  -3   9  -9    6.80    3.80
  -9  -3   9    5.30    3.00
   9   2  -9  111.59    7.90
  -9  -2   9  119.19    7.70
  -1   9  -9  375.46   18.20
   9   1  -9  370.46   15.80
  -9  -1   9  357.06   15.20
   0   9  -9   41.40    6.70
  -9   0   9   36.50    4.70
   1   9  -9  362.96   17.80
  -1  -9   9  381.46   14.70
  -9   1   9  363.06   15.30
   2   9  -9  122.69    9.50
  -2  -9   9  123.69    7.30
  -9   2   9  113.59    7.80
   3   9  -9   10.50    4.20
  -9   3   9    7.40    3.10
  -3  -9   9    8.00    4.10
  -3  -9   9    7.20    2.90
   4   9  -9   25.40    5.30
  -4  -9   9   30.90    6.30
  -4  -9   9   33.20    4.70
  -9   4   9   31.80    4.80
  -4  -9   9   30.70    5.20
   5   9  -9    9.20    4.10
  -9   5   9    3.00    3.00
  -5  -9   9   14.10    3.70
  -4  10  -9   37.80    6.00
  10   4  -9   33.10    5.30
 -10  -4   9   33.60    5.30
  10   3  -9    6.40    3.40
 -10  -3   9    4.00    3.30
  10   2  -9   47.30    5.80
 -10  -2   9   44.50    5.50
  10   1  -9  286.27   13.60
  -1  10  -9  274.87   15.60
 -10  -1   9  267.87   12.90
  10   0  -9    2.30    2.80
   0  10  -9    3.50    4.20
 -10   0   9    3.90    2.90
   1  10  -9  281.57   16.00
 -10   1   9  282.47   13.10
   2  10  -9   55.09    7.70
  -2 -10   9   55.39    5.70
 -10   2   9   42.00    5.40
   3  10  -9   12.30    4.80
 -10   3   9    5.60    3.10
  -3 -10   9    6.20    3.80
  -3 -10   9    1.50    2.70
   4  10  -9   41.30    6.70
  -4 -10   9   37.30    5.50
  -4 -10   9   33.90    5.00
 -10   4   9   47.10    8.10
  -4 -10   9   43.30    6.30
   0   0  10  858.71   27.70
   0   1  10   -0.40    1.70
   0  -1  10    3.00    1.70
   1   0  10    3.20    1.70
  -1   0  10    2.50    1.70
  -1  -1  10  139.09    6.70
   1  -1  10  141.29    6.50
   1   1  10  141.19    6.80
  -1   1  10  136.59    6.90
   2   1 -10  415.36   14.70
  -2  -1  10  409.76   14.90
   1  -2  10  424.86   14.50
  -1   2  10  404.46   15.30
   2   1  10  417.26   14.90
  -2   0  10   86.99    5.40
   0  -2  10   98.19    5.20
   2   0  10   94.59    5.10
   0   2  10   94.19    5.70
  -1  -2  10  412.86   14.70
   2  -1  10  416.16   14.40
   1   2  10  409.76   15.10
  -2   1  10  408.36   15.10
   2   2 -10  658.43   22.60
   2  -2  10  706.73   22.20
  -2   2  10  687.73   23.30
  -2  -2  10  679.43   22.80
   3   2 -10 1015.40   32.60
  -2   3  10  988.00   33.10
  -3  -2  10 1010.40   32.60
   2  -3  10 1031.70   31.70
  -1   3 -10   26.60    4.40
   3   1 -10   26.50    3.10
  -3  -1  10   21.20    3.00
   3   1  10   24.20    2.90
   1  -3  10   23.00    2.70
  -1   3  10   24.00    3.50
   3   0 -10    2.80    1.70
  -3   0  10    2.40    1.90
   3   0  10    0.00    1.40
   0  -3  10   -0.20    1.40
   0   3  10    2.30    2.10
   3  -1  10   28.80    2.90
  -3   1  10   18.70    2.90
  -1  -3  10   27.70    3.00
   2   3 -10 1007.10   32.80
   3  -2  10 1040.10   31.90
  -2  -3  10 1039.20   32.60
  -3   2  10  986.60   33.10
   3   3 -10   65.29    4.90
  -3  -3  10   71.29    4.80
  -3   3  10   59.19    4.90
   4   3 -10  100.49    6.20
  -4  -3  10  100.59    6.00
  -4  -3  10   97.19    8.10
  -3   4  10   99.59    6.60
   4   2 -10   33.20    3.70
  -2   4 -10   31.10    4.70
   2  -4  10   29.90    2.90
  -2   4  10   28.00    4.10
  -4  -2  10   35.10    5.40
  -4  -2  10   28.30    3.40
   4   1 -10  241.58   10.00
   4   1  10  237.58    9.50
   1  -4  10  240.08    9.20
  -4  -1  10  231.38   10.10
  -4  -1  10  228.18   12.90
   4   0 -10    2.70    1.90
  -4   0  10    1.10    1.70
   0  -4  10    1.90    1.60
   4   0  10    0.40    1.40
  -4   0  10    3.50    3.00
  -4   1  10  227.88   10.10
  -1  -4  10  241.38    9.60
   4  -1  10  244.88    9.10
  -4   1  10  213.28   12.90
   2   4 -10   34.10    3.90
  -2  -4  10   31.40    3.40
  -4   2  10   30.20    3.80
   3   4 -10  105.19    6.50
  -4   3  10   96.79    6.40
  -3  -4  10  104.09    6.00
   4   4 -10    9.80    2.80
  -4  -4  10    5.70    2.30
  -4   4  10    6.60    2.80
  -4  -4  10    7.60    3.40
   5   4 -10  362.16   14.30
  -5  -4  10  321.17   15.70
  -4   5  10  341.47   14.50
  -5  -4  10  347.87   13.70
  -5  -4  10  327.67   15.90
   5   3 -10   17.50    3.40
  -5  -3  10   10.20    2.80
  -5  -3  10   19.70    4.40
  -5  -3  10   14.20    3.70
  -3   5  10   19.40    3.80
   5   2 -10  188.68    8.90
  -2   5 -10  196.58   11.00
  -5  -2  10  183.98    8.80
  -5  -2  10  177.28   11.00
  -5  -2  10  178.58   10.20
   5   1 -10 1034.70   33.60
   1  -5  10 1052.59   32.40
  -5  -1  10 1004.70   35.60
  -5  -1  10 1030.10   33.50
  -5  -1  10 1011.00   37.20
   5   0 -10    6.00    2.20
  -5   0  10    9.00    3.30
  -5   0  10    1.70    2.10
   0  -5  10    2.90    1.70
  -5   0  10    0.80    2.70
   1   5 -10 1051.49   34.30
  -5   1  10  981.90   37.90
  -1  -5  10 1024.00   32.70
  -5   1  10 1044.40   33.70
   2   5 -10  197.78    9.60
  -2  -5  10  190.98    8.60
  -5   2  10  190.98    9.20
  -5   2  10  183.68   12.60
   3   5 -10   16.60    3.50
  -5   3  10   20.60    5.70
  -5   3  10   17.10    3.40
  -3  -5  10   21.80    3.30
   4   5 -10  373.86   15.00
  -5   4  10  351.56   14.70
  -5   4  10  337.27   19.30
  -4  -5  10  364.66   14.10
  -4  -5  10  354.96   17.10
   5   5 -10   80.59    6.50
  -5  -5  10   82.39    7.70
  -5  -5  10   85.49    6.10
  -5   5  10   79.49    6.50
  -5  -5  10   88.39    7.50
   6   5 -10  261.47   12.60
  -5   6  10  268.97   12.80
  -6  -5  10  261.67   11.90
   6   4 -10   39.20    4.90
  -6  -4  10   39.70    4.70
  -4   6  10   30.60    4.80
   6   3 -10  562.44   20.40
  -3   6 -10  530.25   21.90
  -3   6  10  571.94   21.20
  -6  -3  10  526.45   19.80
   6   2 -10   94.69    6.40
  -2   6 -10   99.09    8.10
  -6  -2  10   81.59    7.20
  -6  -2  10   91.89    6.60
  -6  -2  10   92.49    6.20
   6   1 -10  955.40   31.50
   1  -6  10  984.50   30.90
  -6  -1  10  958.20   32.20
  -6  -1  10  937.11   31.30
  -6  -1  10  859.31   33.70
   6   0 -10  620.24   21.90
  -6   0  10  617.84   22.70
   0  -6  10  636.04   20.80
  -6   0  10  607.84   21.70
  -6   0  10  578.24   24.80
   1   6 -10 1019.50   33.50
  -6   1  10  939.61   32.30
  -6   1  10  959.50   36.70
  -1  -6  10  981.00   31.50
  -6   1  10  980.30   33.60
   2   6 -10   93.49    6.90
  -6   2  10   94.09    7.00
  -6   2  10   88.29    6.30
  -2  -6  10   92.69    5.80
  -6   2  10   92.89    9.40
   3   6 -10  563.24   21.00
  -6   3  10  552.24   25.20
  -6   3  10  547.65   20.40
  -6   3  10  548.05   21.60
  -3  -6  10  552.64   19.70
   4   6 -10   28.90    4.60
  -4  -6  10   32.20    4.00
  -4  -6  10   40.30    6.20
  -6   4  10   41.10    7.30
  -6   4  10   35.00    4.60
   5   6 -10  264.97   12.70
  -6   5  10  272.77   16.30
  -5  -6  10  260.87   11.70
  -5  -6  10  255.87   13.10
  -6   5  10  273.57   12.60
  -5  -6  10  263.47   14.20
   6   6 -10  114.19    8.30
  -6  -6  10  117.09    7.70
  -6   6  10  132.89   11.20
  -6   6  10  131.79    8.70
   7   6 -10  144.99    9.60
  -6   7  10  152.38   11.90
  -6   7  10  151.18    9.60
  -7  -6  10  149.79    9.10
   7   5 -10  127.59    8.60
  -7  -5  10  121.49    7.90
  -5   7  10  125.39    8.90
   7   4 -10   22.70    4.10
  -4   7  10   17.80    4.20
  -7  -4  10   20.80    4.00
  -3   7 -10   91.29    7.90
   7   3 -10   86.39    6.60
  -7  -3  10   93.19    6.60
   7   2 -10  388.36   15.80
  -7  -2  10  374.66   15.30
   7   1 -10   22.20    3.80
  -7  -1  10   20.30    3.70
   7   0 -10    5.30    2.80
  -7   0  10    5.90    2.70
   0  -7  10    2.40    2.00
   1   7 -10   31.10    5.00
  -7   1  10   17.00    3.30
  -1  -7  10   19.20    3.10
   2   7 -10  418.86   17.20
  -2  -7  10  394.16   15.10
  -7   2  10  384.76   15.90
   3   7 -10   84.29    7.30
  -3  -7  10   91.19    9.00
  -7   3  10   85.59    6.50
  -7   3  10   91.79    6.60
  -7   3  10   90.69    5.90
  -3  -7  10   91.59    6.10
   4   7 -10   15.50    4.00
  -7   4  10   24.80    3.80
  -4  -7  10   20.20    3.60
  -4  -7  10   23.50    5.10
  -7   4  10   20.20    4.10
  -7   4  10   16.70    3.80
   5   7 -10  128.19    8.80
  -7   5  10  132.79    8.10
  -7   5  10  130.49    9.00
  -5  -7  10  132.89    9.60
  -5  -7  10  117.29    8.10
  -5  -7  10  122.49    7.70
  -7   5  10  133.59    8.60
   6   7 -10  144.59    9.80
  -7   6  10  153.28    9.20
  -6  -7  10  147.69    8.80
  -7   6  10  163.58   10.20
  -7   6  10  126.99    9.10
   7   7 -10  359.86   16.90
  -7   7  10  386.96   17.20
  -7   7  10  378.16   16.70
  -7   7  10  376.86   16.60
  -7  -7  10  335.37   15.60
   8   5 -10   78.69    7.40
  -8  -5  10   75.39    6.80
  -5   8  10   77.89    7.50
  -4   8 -10  120.09    8.40
   8   4 -10  111.79    8.10
  -4   8  10  123.09    9.00
  -8  -4  10  116.39    7.90
   8   3 -10  111.59    8.10
  -3   8 -10  131.29    9.70
  -8  -3  10  121.49    7.90
   8   2 -10  141.09    8.60
  -8  -2  10  137.29    8.30
   8   1 -10   88.59    7.00
  -8  -1  10   87.39    6.70
   8   0 -10   44.40    5.30
  -8   0  10   42.40    5.00
   1   8 -10   94.89    8.50
  -8   1  10   94.29    6.90
  -1  -8  10  100.89    6.40
   2   8 -10  146.09   10.00
  -8   2  10  135.29    8.40
  -2  -8  10  155.38    8.00
   3   8 -10  133.79    9.40
  -3  -8  10  123.99   10.40
  -8   3  10  118.29    7.90
  -3  -8  10  127.19    7.50
   4   8 -10  121.39    9.20
  -8   4  10  131.69    8.40
  -4  -8  10  130.29    7.80
  -4  -8  10  111.49    9.30
   5   8 -10   85.89    7.90
  -5  -8  10   74.39    6.40
  -8   5  10   79.29    7.10
  -4   9 -10  361.36   16.60
   9   4 -10  362.26   16.40
  -9  -4  10  347.87   15.70
  -3   9 -10  596.84   25.70
   9   3 -10  600.04   23.20
  -9  -3  10  584.34   22.50
   9   2 -10  304.57   14.10
  -9  -2  10  294.87   13.80
   9   1 -10   14.80    3.70
  -9  -1  10   10.10    3.50
   9   0 -10    5.20    3.20
  -9   0  10    1.90    2.90
   1   9 -10   15.90    5.20
  -1  -9  10   19.40    4.00
  -9   1  10   16.20    3.90
   2   9 -10  318.17   16.30
  -9   2  10  309.17   14.00
  -2  -9  10  313.17   13.30
   3   9 -10  615.24   24.80
  -3  -9  10  578.94   25.90
  -9   3  10  596.44   22.80
  -3  -9  10  601.34   21.90
   4   9 -10  386.86   17.90
  -4  -9  10  358.56   15.40
  -9   4  10  350.06   15.90
  -4  -9  10  393.16   19.40
  -4  -9  10  347.37   17.20
   0   0  11    1.10    1.80
   1   0  11   52.19    4.10
   0  -1  11   49.30    4.00
   0   1  11   48.90    4.20
  -1   0  11   49.40    4.30
  -1  -1  11  563.44   19.40
  -1   1  11  562.24   19.70
   1   1  11  549.25   19.50
   1  -1  11  568.44   19.20
  -1   2  11   21.30    3.40
  -2  -1  11    7.50    2.20
   1  -2  11   10.80    2.20
   2   1  11    7.40    2.20
   0  -2  11    2.40    1.70
   2   0  11    1.90    1.70
  -2   0  11   -0.10    1.70
   0   2  11    2.90    2.00
  -2   1  11    7.40    2.40
   1   2  11   12.20    2.70
   2  -1  11    9.20    2.20
  -1  -2  11    7.50    2.20
   2  -2  11    2.70    1.70
  -2   2  11    9.90    2.70
  -2  -2  11    4.90    2.10
   2   2  11    3.30    2.10
  -3  -2  11  932.31   31.00
   2  -3  11  991.50   30.20
   3   2  11  915.51   30.80
  -2   3  11  939.31   31.70
  -1   3  11   54.79    5.30
  -3  -1  11   67.09    4.90
   3   1  11   56.59    4.40
   1  -3  11   63.59    4.30
   0   3  11 1847.22   58.99
   0  -3  11 1913.51   57.89
   3   0  11 1899.41   57.89
  -3   0  11 1902.81   58.59
  -3   1  11   63.39    5.00
   1   3  11   58.39    5.20
   3  -1  11   63.59    4.20
  -1  -3  11   56.29    4.30
  -2  -3  11  954.50   31.30
  -3   2  11  942.21   32.00
   3  -2  11  995.00   30.70
   3   3 -11  227.28   10.30
  -3  -3  11  229.28   10.00
   4   3 -11   10.80    2.80
  -3   4  11   12.00    3.40
  -4  -3  11   13.40    4.20
  -4  -3  11   13.60    2.90
   4   2 -11  645.44   22.60
  -4  -2  11  627.34   22.40
  -2   4  11  644.84   23.40
  -4  -2  11  672.23   26.70
   4   1 -11   90.99    5.80
  -4  -1  11   93.09    6.00
  -1   4  11   81.79    6.40
   1  -4  11  102.79    5.40
  -4  -1  11   90.69   10.90
   4   1  11   85.39    5.40
   4   0 -11    3.50    2.00
   4   0  11    1.50    1.70
  -4   0  11   -0.40    2.10
   0  -4  11    1.40    1.70
   4  -1 -11   83.89    5.50
  -1  -4  11   86.59    5.30
  -4   1  11   87.59    6.00
  -2  -4  11  648.44   21.80
  -4   2  11  609.84   22.30
   3   4 -11   13.90    3.10
  -3  -4  11   10.30    2.60
  -4   3  11   12.10    3.20
   4   4 -11 1286.07   41.20
  -4  -4  11 1256.87   40.50
  -4   4  11 1229.28   41.30
  -4  -4  11 1255.67   44.70
   5   4 -11    0.80    2.40
  -5  -4  11    4.00    2.50
  -5  -4  11    5.70    3.60
  -5  -4  11    3.70    3.00
  -4   5  11    0.40    2.70
   5   3 -11   12.00    3.10
  -5  -3  11    9.00    3.80
  -3   5  11   15.40    3.90
  -5  -3  11    4.70    3.20
  -5  -3  11    7.20    2.70
  -2   5 -11  189.98   11.20
   5   2 -11  186.68    9.10
  -5  -2  11  170.18   11.40
  -2   5  11  172.48    9.70
  -5  -2  11  162.48    8.50
   5   1 -11   27.30    3.90
   1  -5  11   33.50    3.40
  -5  -1  11   28.10    3.80
  -5  -1  11   26.90    5.50
   5   0 -11 3086.29   93.89
  -5   0  11 3036.90   98.99
   0  -5  11 3190.88   93.09
  -5   0  11 3066.39   94.09
  -5   1  11   31.50    4.30
  -5   1  11   41.60    7.10
  -1  -5  11   32.90    3.70
  -5   2  11  169.08    9.00
  -2  -5  11  182.78    8.40
  -5   2  11  174.58   12.70
   3   5 -11    6.80    2.90
  -3  -5  11    2.90    2.20
  -5   3  11   11.00    3.20
  -5   3  11    9.00    4.60
   4   5 -11    2.10    2.60
  -4  -5  11    1.80    3.10
  -4  -5  11    0.90    2.30
  -5   4  11    2.80    2.70
   5   5 -11   44.20    5.30
  -5  -5  11   40.40    6.20
  -5   5  11   33.00    4.90
  -5  -5  11   37.70    5.90
  -5  -5  11   34.30    4.40
   6   5 -11  184.98   10.50
  -5   6  11  202.98   11.10
  -6  -5  11  196.78   10.20
   6   4 -11  157.08    9.20
  -4   6  11  151.08    9.50
  -6  -4  11  150.58    8.70
   6   3 -11  333.67   14.50
  -6  -3  11  355.16   14.90
  -6  -3  11  320.97   15.20
  -3   6  11  359.06   15.50
  -6  -3  11  350.16   14.30
   6   2 -11   51.99    5.30
  -2   6 -11   48.00    6.40
  -6  -2  11   53.29    6.60
  -2   6  11   43.50    5.50
  -6  -2  11   48.20    5.20
  -6  -2  11   51.79    5.70
   6   1 -11  221.18   10.30
  -6  -1  11  206.88   12.70
  -6  -1  11  208.58   10.10
  -6  -1  11  202.28   10.90
   6   0 -11    4.60    2.50
  -6   0  11    1.80    2.40
  -6   0  11    4.40    3.80
  -6   0  11    3.60    2.50
   0  -6  11    2.40    2.00
  -6   1  11  222.08   11.50
  -1  -6  11  222.38    9.60
  -6   1  11  207.58   13.70
  -6   1  11  208.88   10.30
  -2  -6  11   49.99    4.70
  -6   2  11   67.09    5.60
  -6   2  11   49.80    8.00
  -6   2  11   44.80    5.50
   3   6 -11  354.16   15.40
  -6   3  11  367.76   19.70
  -3  -6  11  359.56   14.10
  -6   3  11  331.17   14.70
   4   6 -11  172.28    9.80
  -6   4  11  167.38   13.10
  -4  -6  11  151.08   11.10
  -6   4  11  157.18    9.20
  -4  -6  11  157.28    8.70
   5   6 -11  193.68   10.90
  -5  -6  11  189.28   12.30
  -5  -6  11  202.68   10.00
  -6   5  11  190.08   10.60
  -6   5  11  217.38   14.70
  -5  -6  11  184.98   11.40
   6   6 -11   24.60    4.80
  -6   6  11   21.30    4.50
  -6  -6  11   25.10    4.30
  -6   6  11   23.80    6.10
   7   5 -11   62.09    6.60
  -7  -5  11   70.99    6.40
  -5   7  11   62.99    6.90
   7   4 -11    8.00    3.40
  -4   7  11    6.50    3.70
  -7  -4  11    5.40    3.10
   7   3 -11    2.10    2.70
  -3   7 -11    2.40    3.00
  -3   7  11    2.50    3.50
  -7  -3  11   11.10    3.20
   7   2 -11   44.60    5.20
  -7  -2  11   42.00    5.00
   7   1 -11 1006.20   34.40
  -7  -1  11 1028.40   34.40
   7   0 -11   64.79    5.90
  -7   0  11   65.79    5.90
  -7   1  11 1030.90   35.30
  -1  -7  11 1067.79   34.30
  -7   2  11   46.90    5.50
  -2  -7  11   50.49    4.70
   3   7 -11    6.90    3.60
  -7   3  11    2.30    2.90
  -3  -7  11    1.20    2.30
  -7   3  11    7.10    3.20
  -7   3  11    6.60    2.60
   4   7 -11    2.20    3.20
  -4  -7  11    5.70    2.80
  -7   4  11    6.40    3.20
  -4  -7  11    1.20    3.10
  -7   4  11    2.40    3.00
   5   7 -11   64.79    7.20
  -5  -7  11   74.89    8.00
  -7   5  11   71.69    6.40
  -5  -7  11   62.69    6.00
  -7   5  11   77.79    7.40
  -5  -7  11   63.39    6.60
  -7   5  11   73.49    7.10
   8   3 -11 1320.57   45.10
  -3   8 -11 1379.06   47.70
  -8  -3  11 1328.67   44.70
  -3   8  11 1385.56   46.20
   8   2 -11   89.59    7.30
  -8  -2  11   95.39    7.20
   8   1 -11   43.00    5.40
  -8  -1  11   45.90    5.40
   8   0 -11    1.00    2.60
  -8   0  11    4.40    3.00
  -1  -8  11   70.29    5.60
  -8   1  11   52.49    6.00
   2   8 -11  104.59   10.00
  -2  -8  11   99.39    6.70
  -8   2  11   96.79    7.60
   3   8 -11 1400.36   47.20
  -3  -8  11 1378.96   44.60
  -8   3  11 1350.76   45.60
   0   0  12 2549.54   77.59
   0   1  12    5.80    2.40
   0  -1  12    1.30    1.90
   1   0  12    0.30    1.90
  -1   0  12   -1.10    1.90
   1  -1  12  481.05   16.80
   1   1  12  460.45   17.10
  -1  -1  12  460.85   17.00
  -1   1  12  464.65   17.30
  -1   2  12  670.13   23.90
  -2  -1  12  679.33   23.60
   2   1  12  675.53   23.40
   1  -2  12  708.53   23.10
   0   2  12  341.07   13.80
  -2   0  12  324.07   13.40
   2   0  12  337.87   13.00
   0  -2  12  350.46   13.10
  -1  -2  12  676.43   23.10
  -2   1  12  663.03   23.50
   1   2  12  673.43   23.60
   2  -1  12  680.93   22.70
  -2  -2  12 1584.04   49.80
   2  -2  12 1629.74   49.20
  -2   2  12 1556.24   50.29
   2   2  12 1566.44   49.90
  -3  -2  12    9.50    2.70
   3   2  12   10.70    2.80
  -2   3  12    8.00    2.80
   2  -3  12   26.50    4.20
  -3  -1  12  216.68    9.70
   1  -3  12  200.88    8.90
  -1   3  12  187.08    9.80
   3   1  12  205.38    9.20
   3   0  12    3.10    2.00
   0  -3  12    1.60    1.90
   0   3  12    0.40    2.30
  -3   0  12    3.10    2.30
   1   3  12  192.48    9.80
  -1  -3  12  212.08    9.30
  -3   1  12  193.68    9.70
   3  -1  12  219.18    9.00
  -2  -3  12   11.40    2.70
   2   3  12   12.10    3.10
  -3   2  12   11.30    3.10
  -3  -3  12 1135.39   36.80
  -3   3  12 1130.39   37.60
   3   3  12 1121.69   37.10
  -3   4  12  203.78   10.70
  -4  -3  12  201.28    9.80
   4   2  12   37.30    4.20
  -4  -2  12   43.20    4.80
  -2   4  12   36.40    5.00
   1  -4  12  215.98    9.30
   4   1  12  214.08    9.40
  -4  -1  12  213.38   10.10
  -1   4  12  207.68   10.70
   0  -4  12    1.00    1.80
  -4   0  12    7.70    2.60
   0   4  12    2.70    2.70
   1   4  12  208.18   10.50
  -4   1  12  198.18   10.00
  -1  -4  12  217.58    9.50
  -4   2  12   38.20    4.70
  -2  -4  12   32.80    4.00
  -3  -4  12  213.88    9.70
  -4   3  12  187.58   10.20
  -4  -4  12  104.99    6.80
  -4   4  12  103.29    7.50
  -4  -4  12  108.19    9.70
   5   4 -12  363.96   15.40
  -5  -4  12  358.66   14.80
  -4   5  12  350.46   15.80
  -5  -4  12  349.17   17.80
   5   3 -12  463.35   18.50
  -5  -3  12  479.65   18.40
  -5  -3  12  466.55   21.80
  -3   5  12  520.75   19.80
   5   2 -12  143.19    8.20
  -5  -2  12  141.09   11.00
  -2   5  12  138.69    8.90
  -5  -2  12  152.08    8.30
   5   2  12  138.99    9.30
   5   1 -12  299.67   14.00
  -5  -1  12  299.67   16.50
  -1   5  12  292.07   13.70
  -5  -1  12  292.37   12.80
   0  -5  12    2.10    2.00
  -5   0  12    4.40    3.50
   0   5  12    2.90    2.90
  -5   0  12    0.40    2.30
  -5   1  12  279.87   12.70
  -5   1  12  293.37   17.00
  -1  -5  12  289.67   11.90
  -2  -5  12  161.98    8.10
  -5   2  12  143.49    8.60
  -5   2  12  153.38   18.60
  -5   3  12  478.75   19.20
  -3  -5  12  504.35   18.50
  -4  -5  12  379.16   18.80
  -4  -5  12  337.87   14.50
  -5   4  12  352.26   15.60
   5   5 -12 1791.82   56.09
  -5  -5  12 1701.43   58.29
  -5   5  12 1775.52   56.29
  -5  -5  12 1666.63   58.19
  -5  -5  12 1689.33   54.89
   6   4 -12  238.28   12.10
  -6  -4  12  247.68   11.80
  -4   6  12  245.98   13.00
   6   3 -12  249.97   12.00
  -6  -3  12  225.58   12.90
  -3   6  12  251.97   12.90
  -6  -3  12  255.57   12.50
  -6  -3  12  253.57   11.80
   6   2 -12  256.47   11.70
  -2   6 -12  243.58   13.90
  -2   6  12  238.88   12.60
  -6  -2  12  230.68   13.70
  -6  -2  12  238.48   11.50
  -6  -2  12  243.38   12.50
   6   1 -12  259.27   11.90
  -6  -1  12  251.07   12.90
  -1   6  12  244.48   12.70
  -6  -1  12  248.08   14.80
  -6  -1  12  254.17   11.80
   6   0 -12  685.73   25.00
  -6   0  12  741.13   27.10
  -6   0  12  702.13   25.30
  -6   0  12  675.23   29.40
   0  -6  12  724.03   25.10
   6  -1 -12  230.68   11.60
  -6   1  12  287.97   19.20
  -1  -6  12  260.47   11.10
  -6   1  12  272.17   16.30
  -6   1  12  253.67   12.10
  -6   2  12  236.48   15.70
  -2  -6  12  259.27   11.10
  -6   2  12  240.98   11.80
  -6   3  12  256.17   12.50
  -3  -6  12  270.27   11.80
  -6   3  12  260.47   16.90
   4   6 -12  252.17   15.70
  -4  -6  12  243.78   11.50
  -4  -6  12  246.58   14.90
  -6   4  12  243.58   12.40
  -6   4  12  258.27   16.80
   7   2 -12  140.79    8.80
  -7  -2  12  157.58    9.10
  -2   7  12  137.89    9.90
   7   1 -12   74.09    6.50
  -7  -1  12   96.19    7.10
   7   0 -12    7.50    3.00
  -7   0  12    4.90    3.00
   7  -1 -12   76.89    6.60
  -1  -7  12   92.09    6.20
  -7   1  12   68.49    6.50
  -2  -7  12  155.48    8.30
  -7   2  12  145.49    9.20
   0   0  13    0.90    2.10
   0   1  13    3.80    2.40
   1   0  13    0.60    2.00
   0  -1  13    2.30    2.10
  -1   0  13    2.90    2.40
  -1  -1  13  858.21   28.60
   1   1  13  815.12   28.50
   1  -1  13  878.51   28.40
  -1   1  13  841.52   28.90
  -1   2  13   51.99    5.40
   1  -2  13   58.69    4.60
   2   1  13   53.69    4.80
  -2  -1  13   49.40    5.10
   2   0  13    2.10    2.10
  -2   0  13    1.70    2.30
   0  -2  13    6.70    2.40
   0   2  13   -0.60    2.20
   1   2  13   50.99    5.30
  -1  -2  13   54.19    4.80
   2  -1  13   54.19    4.60
  -2   1  13   54.89    5.50
  -2   2  13  101.09    7.10
   2  -2  13  105.59    6.30
   2   2  13  104.89    6.80
  -2  -2  13  107.99    6.70
  -2   3  13    9.60    3.20
   3   2  13    8.60    2.80
  -3  -2  13    3.10    2.50
  -1   3  13   12.40    3.40
  -3  -1  13    3.90    2.40
   3   1  13    5.50    2.50
   1  -3  13    5.30    2.30
  -3   0  13  719.93   25.70
   0   3  13  731.73   26.20
   3   0  13  739.63   25.00
   0  -3  13  748.63   25.10
   1   3  13    6.10    2.90
  -3   1  13    8.20    3.00
  -1  -3  13    2.70    2.20
   2   3  13    6.60    2.90
  -3   2  13    9.00    3.20
  -2  -3  13   11.30    2.80
  -3  -3  13   12.70    3.10
  -3   3  13   16.60    3.70
   3   3  13   14.00    3.40
  -3   4  13   19.50    4.00
   4   3  13   14.80    3.50
  -4  -3  13   18.40    3.60
   4   2  13   87.49    6.10
  -4  -2  13   83.89    6.30
  -2   4  13   90.39    7.20
  -4  -1  13  126.99    7.70
  -1   4  13  122.59    8.30
   0  -4  13    2.20    2.10
   0   4  13    4.80    3.00
  -4   0  13    2.80    2.50
  -1  -4  13  135.99    7.30
  -4   1  13  122.49    7.80
   1   4  13  122.09    8.20
   2   4  13   82.69    6.80
  -4   2  13   86.99    6.70
  -2  -4  13   86.39    6.10
   3   4  13   22.40    4.20
  -3  -4  13   19.20    3.50
  -4   3  13   15.40    4.00
  -4   4  13 1535.65   50.49
   4   4  13 1517.15   49.70
  -4  -4  13 1549.54   49.40
  -5  -2  13   35.00    4.60
  -2   5  13   32.50    5.10
  -5  -2  13   35.40    6.80
  -5  -1  13   28.70    6.30
  -5  -1  13   25.50    4.00
  -1   5  13   23.90    4.60
  -5   0  13   55.79    5.70
   0   5  13   59.19    6.50
  -5   0  13   41.50    7.50
   0  -5  13   56.69    4.80
  -5   1  13   32.20    4.60
  -1  -5  13   34.90    4.10
   1   5  13   27.60    4.90
   2   5  13   40.60    5.60
  -2  -5  13   50.09    4.90
  -5   2  13   57.09    6.10
   0   0  14   12.70    3.10
   0   1  14   -0.70    2.20
   0  -1  14    2.00    2.30
  -1   0  14    3.50    2.50
   1   0  14    5.20    2.60
  -1   1  14   -0.10    2.30
   1   1  14    7.80    2.80
   1  -1  14    2.50    2.40
  -1  -1  14    2.10    2.30
  -1   2  14   44.00    5.30
  -2  -1  14   43.80    5.00
   1  -2  14   51.09    4.70
   2   1  14   51.89    5.10
   0   2  14   19.60    3.80
   0  -2  14   25.40    3.80
   2   0  14   24.90    3.80
  -2   0  14   31.10    4.30
   1   2  14   53.69    5.50
   2  -1  14   42.90    4.60
  -2   1  14   45.60    5.30
  -1  -2  14   49.40    5.10
   0   0   0    0.00    0.00

_computing_structure_solution     'SHELXT 2014/5 (Sheldrick, 2014)'
;
_shelx_hkl_checksum              85300
_olex2_submission_special_instructions 'No special instructions were received'
loop_
_space_group_symop_operation_xyz
'x, y, z'
'-x, -y, z'
'-y+1/2, x+1/2, z+1/2'
'y+1/2, -x+1/2, z+1/2'
'-x+1/2, y+1/2, -z+1/2'
'x+1/2, -y+1/2, -z+1/2'
'y, x, -z'
'-y, -x, -z'
'-x, -y, -z'
'x, y, -z'
'y-1/2, -x-1/2, -z-1/2'
'-y-1/2, x-1/2, -z-1/2'
'x-1/2, -y-1/2, z-1/2'
'-x-1/2, y-1/2, z-1/2'
'-y, -x, z'
'y, x, z'
loop_
_atom_site_label
_atom_site_type_symbol
_atom_site_fract_x
_atom_site_fract_y
_atom_site_fract_z
_atom_site_U_iso_or_equiv
_atom_site_adp_type
_atom_site_occupancy
_atom_site_site_symmetry_order
_atom_site_calc_flag
_atom_site_refinement_flags_posn
_atom_site_refinement_flags_adp
_atom_site_refinement_flags_occupancy
_atom_site_disorder_assembly
_atom_site_disorder_group
Ir1 Ir 0.68758(2) 0.68758(2) 0.73990(3) 0.00305(10) Uani 1 2 d S T P . .
In1 In 0.59567(7) 0.59567(7) 0.5000 0.00968(19) Uani 1 4 d S T P . .
In2 In 0.5000 0.5000 0.83403(10) 0.0119(2) Uani 1 4 d S T P . .
In3 In 0.94780(5) 0.70090(5) 0.80462(5) 0.01297(13) Uani 1 1 d . . . . .
In4 In 0.68412(8) 0.68412(8) 1.0000 0.0180(2) Uani 1 4 d S T P . .
In5 In 0.80032(8) 0.80032(8) 0.5000 0.0394(4) Uani 1 4 d S T P . .
S1 S 1.0000 0.5000 1.0000 0.0433(16) Uani 1 4 d S T P . .
loop_
_atom_site_aniso_label
_atom_site_aniso_U_11
_atom_site_aniso_U_22
_atom_site_aniso_U_33
_atom_site_aniso_U_23
_atom_site_aniso_U_13
_atom_site_aniso_U_12
Ir1 0.00174(11) 0.00174(11) 0.00567(16) -0.00030(7) -0.00030(7) -0.00002(10)
In1 0.0110(3) 0.0110(3) 0.0071(4) 0.000 0.000 -0.0060(3)
In2 0.0107(3) 0.0107(3) 0.0142(4) 0.000 0.000 -0.0076(3)
In3 0.0025(2) 0.0118(2) 0.0245(3) -0.00175(18) -0.00002(18) -0.00272(15)
In4 0.0241(4) 0.0241(4) 0.0056(4) 0.000 0.000 -0.0130(4)
In5 0.0547(7) 0.0547(7) 0.0088(5) 0.000 0.000 -0.0511(8)
S1 0.104(5) 0.0126(19) 0.0129(18) 0.000 0.000 0.022(2)
loop_
_atom_type_symbol
_atom_type_description
_atom_type_scat_dispersion_real
_atom_type_scat_dispersion_imag
_atom_type_scat_source
In In -0.7276 1.3100 'International Tables Vol C Tables 4.2.6.8 and 6.1.1.4'
Ir Ir -1.4442 7.9887 'International Tables Vol C Tables 4.2.6.8 and 6.1.1.4'
S S 0.1246 0.1234 'International Tables Vol C Tables 4.2.6.8 and 6.1.1.4'
loop_
_geom_angle_atom_site_label_1
_geom_angle_atom_site_label_2
_geom_angle_atom_site_label_3
_geom_angle
_geom_angle_site_symmetry_1
_geom_angle_site_symmetry_3
_geom_angle_publ_flag
In1 Ir1 In2 82.01(3) . . ?
In1 Ir1 In5 60.96(3) . . ?
In2 Ir1 In5 142.97(3) . . ?
In3 Ir1 In1 72.054(14) 6_466 . ?
In3 Ir1 In1 123.670(18) . . ?
In3 Ir1 In1 123.670(18) 16 . ?
In3 Ir1 In1 72.054(14) 12_757 . ?
In3 Ir1 In2 126.332(19) 16 . ?
In3 Ir1 In2 126.332(19) . . ?
In3 Ir1 In2 74.937(14) 12_757 . ?
In3 Ir1 In2 74.937(14) 6_466 . ?
In3 Ir1 In3 152.389(11) 12_757 16 ?
In3 Ir1 In3 71.56(2) 12_757 . ?
In3 Ir1 In3 135.56(3) 6_466 12_757 ?
In3 Ir1 In3 81.00(2) 16 . ?
In3 Ir1 In3 152.389(11) 6_466 . ?
In3 Ir1 In3 71.56(2) 6_466 16 ?
In3 Ir1 In5 79.29(2) 16 . ?
In3 Ir1 In5 92.410(16) 6_466 . ?
In3 Ir1 In5 79.29(2) . . ?
In3 Ir1 In5 92.410(16) 12_757 . ?
In4 Ir1 In1 151.02(3) . . ?
In4 Ir1 In2 69.01(3) . . ?
In4 Ir1 In3 99.402(17) . 12_757 ?
In4 Ir1 In3 76.54(2) . . ?
In4 Ir1 In3 76.54(2) . 16 ?
In4 Ir1 In3 99.402(17) . 6_466 ?
In4 Ir1 In5 148.02(3) . . ?
Ir1 In1 Ir1 124.15(4) 10_556 . ?
Ir1 In1 In3 52.645(12) . 12_757 ?
Ir1 In1 In3 119.48(2) 10_556 12_757 ?
Ir1 In1 In3 52.645(12) 10_556 13_575 ?
Ir1 In1 In3 119.48(2) 10_556 6_466 ?
Ir1 In1 In3 52.645(12) 10_556 3_644 ?
Ir1 In1 In3 119.48(2) . 3_644 ?
Ir1 In1 In3 119.48(2) . 13_575 ?
Ir1 In1 In3 52.645(12) . 6_466 ?
Ir1 In1 In5 62.074(19) 10_556 . ?
Ir1 In1 In5 62.074(19) . . ?
In1 In1 Ir1 117.926(19) 9_666 . ?
In1 In1 Ir1 117.926(19) 9_666 10_556 ?
In1 In1 In3 97.028(19) 9_666 13_575 ?
In1 In1 In3 97.028(19) 9_666 6_466 ?
In1 In1 In3 97.028(19) 9_666 3_644 ?
In1 In1 In3 97.028(19) 9_666 12_757 ?
In1 In1 In5 180.00(4) 9_666 . ?
In3 In1 In3 165.94(4) 6_466 3_644 ?
In3 In1 In3 165.94(4) 12_757 13_575 ?
In3 In1 In3 101.34(2) 3_644 13_575 ?
In3 In1 In3 101.34(2) 6_466 12_757 ?
In3 In1 In3 76.91(2) 6_466 13_575 ?
In3 In1 In3 76.91(2) 12_757 3_644 ?
In5 In1 In3 82.972(19) . 6_466 ?
In5 In1 In3 82.972(19) . 12_757 ?
In5 In1 In3 82.972(19) . 13_575 ?
In5 In1 In3 82.972(19) . 3_644 ?
Ir1 In2 Ir1 140.13(4) 2_665 . ?
Ir1 In2 In2 109.94(2) 2_665 9_667 ?
Ir1 In2 In2 109.94(2) . 9_667 ?
Ir1 In2 In3 110.22(2) . 5_646 ?
Ir1 In2 In3 50.651(11) 2_665 5_646 ?
Ir1 In2 In3 110.22(2) . 11_577 ?
Ir1 In2 In3 50.651(11) 2_665 11_577 ?
Ir1 In2 In3 110.22(2) 2_665 12_757 ?
Ir1 In2 In3 110.22(2) 2_665 6_466 ?
Ir1 In2 In3 50.651(11) . 12_757 ?
Ir1 In2 In3 50.651(11) . 6_466 ?
Ir1 In2 In4 53.022(17) . . ?
Ir1 In2 In4 53.023(17) 2_665 9_667 ?
Ir1 In2 In4 166.85(4) 2_665 . ?
Ir1 In2 In4 166.85(4) . 9_667 ?
Ir1 In2 In5 100.114(8) 2_665 3_645 ?
Ir1 In2 In5 100.113(8) . 11_577 ?
Ir1 In2 In5 100.114(8) 2_665 11_577 ?
Ir1 In2 In5 100.113(8) . 3_645 ?
In3 In2 In2 115.022(19) 12_757 9_667 ?
In3 In2 In2 115.02(2) 11_577 9_667 ?
In3 In2 In2 115.022(19) 5_646 9_667 ?
In3 In2 In2 115.022(19) 6_466 9_667 ?
In3 In2 In3 95.69(2) 11_577 5_646 ?
In3 In2 In3 129.96(4) 11_577 12_757 ?
In3 In2 In3 129.96(4) 5_646 6_466 ?
In3 In2 In3 95.69(2) 12_757 6_466 ?
In3 In2 In3 62.805(19) 11_577 6_466 ?
In3 In2 In3 62.805(19) 5_646 12_757 ?
In4 In2 In2 56.91(2) 9_667 9_667 ?
In4 In2 In2 56.91(2) . 9_667 ?
In4 In2 In3 78.131(14) . 6_466 ?
In4 In2 In3 78.131(14) 9_667 11_577 ?
In4 In2 In3 78.131(14) . 12_757 ?
In4 In2 In3 131.871(10) . 5_646 ?
In4 In2 In3 131.871(10) 9_667 6_466 ?
In4 In2 In3 78.131(14) 9_667 5_646 ?
In4 In2 In3 131.871(10) 9_667 12_757 ?
In4 In2 In3 131.871(10) . 11_577 ?
In4 In2 In4 113.83(4) . 9_667 ?
In4 In2 In5 73.672(17) 9_667 11_577 ?
In4 In2 In5 73.672(17) . 11_577 ?
In4 In2 In5 73.672(17) . 3_645 ?
In4 In2 In5 73.672(17) 9_667 3_645 ?
In5 In2 In2 59.003(19) 3_645 9_667 ?
In5 In2 In2 59.003(19) 11_577 9_667 ?
In5 In2 In3 65.313(16) 11_577 6_466 ?
In5 In2 In3 148.574(10) 3_645 11_577 ?
In5 In2 In3 148.574(10) 11_577 5_646 ?
In5 In2 In3 65.313(16) 11_577 11_577 ?
In5 In2 In3 65.313(15) 3_645 12_757 ?
In5 In2 In3 148.573(10) 11_577 12_757 ?
In5 In2 In3 148.574(10) 3_645 6_466 ?
In5 In2 In3 65.313(15) 3_645 5_646 ?
In5 In2 In5 118.01(4) 11_577 3_645 ?
Ir1 In3 Ir1 147.55(2) 11_677 . ?
Ir1 In3 In1 129.06(2) . 11_677 ?
Ir1 In3 In1 55.301(16) 11_677 11_677 ?
Ir1 In3 In2 95.217(17) . 11_677 ?
Ir1 In3 In2 54.412(11) 11_677 11_677 ?
Ir1 In3 In3 54.296(18) 11_677 11_677 ?
Ir1 In3 In3 54.145(17) . 12_757 ?
Ir1 In3 In3 132.00(2) . 11_677 ?
Ir1 In3 In3 134.24(2) 11_677 12_757 ?
Ir1 In3 In4 146.59(3) 11_677 . ?
Ir1 In3 In4 51.336(17) . . ?
Ir1 In3 S1 108.149(17) . . ?
Ir1 In3 S1 104.214(18) 11_677 . ?
In1 In3 In2 68.03(2) 11_677 11_677 ?
In1 In3 In4 91.36(2) 11_677 . ?
In3 In3 In1 98.63(3) 11_677 11_677 ?
In3 In3 In1 161.73(3) 12_757 11_677 ?
In3 In3 In2 98.44(2) 11_677 11_677 ?
In3 In3 In2 129.99(3) 12_757 11_677 ?
In3 In3 In3 82.737(14) 11_677 12_757 ?
In3 In3 In4 146.30(2) 11_677 . ?
In3 In3 In4 78.27(2) 12_757 . ?
In4 In3 In2 115.11(2) . 11_677 ?
S1 In3 In1 85.83(2) . 11_677 ?
S1 In3 In2 152.58(2) . 11_677 ?
S1 In3 In3 76.718(16) . 11_677 ?
S1 In3 In3 76.718(16) . 12_757 ?
S1 In3 In4 71.993(15) . . ?
Ir1 In4 Ir1 177.89(5) . 10_557 ?
Ir1 In4 In2 124.14(4) . 9_667 ?
Ir1 In4 In2 124.14(4) 10_557 . ?
Ir1 In4 In2 57.97(2) . . ?
Ir1 In4 In2 57.97(2) 10_557 9_667 ?
Ir1 In4 In3 126.29(3) . 7_557 ?
Ir1 In4 In3 126.29(3) 10_557 16 ?
Ir1 In4 In3 52.128(15) . 16 ?
Ir1 In4 In3 126.29(3) 10_557 . ?
Ir1 In4 In3 52.128(15) . . ?
Ir1 In4 In3 126.29(3) . 10_557 ?
Ir1 In4 In3 52.129(15) 10_557 7_557 ?
Ir1 In4 In3 52.129(15) 10_557 10_557 ?
In2 In4 In2 66.17(4) . 9_667 ?
In2 In4 In3 146.186(18) . 7_557 ?
In2 In4 In3 146.186(18) . 10_557 ?
In2 In4 In3 99.93(2) 9_667 10_557 ?
In2 In4 In3 99.93(2) 9_667 7_557 ?
In2 In4 In3 99.93(2) . 16 ?
In2 In4 In3 99.93(2) . . ?
In2 In4 In3 146.186(18) 9_667 . ?
In2 In4 In3 146.186(18) 9_667 16 ?
In3 In4 In3 106.44(4) 7_557 . ?
In3 In4 In3 74.17(3) 10_557 . ?
In3 In4 In3 74.17(3) 7_557 16 ?
In3 In4 In3 63.63(2) 7_557 10_557 ?
In3 In4 In3 63.62(2) . 16 ?
In3 In4 In3 106.44(4) 10_557 16 ?
Ir1 In5 Ir1 113.93(4) . 10_556 ?
Ir1 In5 In2 154.03(3) . 3_654 ?
Ir1 In5 In2 92.04(2) 10_556 3_654 ?
Ir1 In5 In2 154.03(3) 10_556 11_677 ?
Ir1 In5 In2 92.04(2) . 11_677 ?
In1 In5 Ir1 56.97(2) . 10_556 ?
In1 In5 Ir1 56.97(2) . . ?
In1 In5 In2 149.00(2) . 11_677 ?
In1 In5 In2 149.00(2) . 3_654 ?
In2 In5 In2 61.99(4) 11_677 3_654 ?
In3 S1 In3 92.21(3) 10_557 9_767 ?
In3 S1 In3 92.21(3) 2_765 . ?
In3 S1 In3 180.0 9_767 . ?
In3 S1 In3 87.79(3) 2_765 9_767 ?
In3 S1 In3 180.0 10_557 2_765 ?
In3 S1 In3 87.79(3) 10_557 . ?
loop_
_geom_bond_atom_site_label_1
_geom_bond_atom_site_label_2
_geom_bond_distance
_geom_bond_site_symmetry_2
_geom_bond_publ_flag
Ir1 In1 2.7532(7) . ?
Ir1 In2 2.7993(6) . ?
Ir1 In3 2.6668(6) . ?
Ir1 In3 2.6618(6) 12_757 ?
Ir1 In3 2.6668(6) 16 ?
Ir1 In3 2.6618(6) 6_466 ?
Ir1 In4 2.6379(6) . ?
Ir1 In5 2.9016(8) . ?
In1 Ir1 2.7531(7) 10_556 ?
In1 In1 2.6843(19) 9_666 ?
In1 In3 3.1858(6) 6_466 ?
In1 In3 3.1858(6) 13_575 ?
In1 In3 3.1858(6) 12_757 ?
In1 In3 3.1858(6) 3_644 ?
In1 In5 2.8711(15) . ?
In2 Ir1 2.7992(6) 2_665 ?
In2 In2 3.366(2) 9_667 ?
In2 In3 3.3239(8) 6_466 ?
In2 In3 3.3239(8) 5_646 ?
In2 In3 3.3239(8) 11_577 ?
In2 In3 3.3239(8) 12_757 ?
In2 In4 3.0829(11) . ?
In2 In4 3.0829(11) 9_667 ?
In2 In5 3.2679(12) 11_577 ?
In2 In5 3.2679(12) 3_645 ?
In3 Ir1 2.6618(6) 11_677 ?
In3 In1 3.1857(6) 11_677 ?
In3 In2 3.3239(8) 11_677 ?
In3 In3 3.1156(9) 12_757 ?
In3 In3 3.1155(9) 11_677 ?
In3 In4 3.2855(9) . ?
In3 S1 2.8574(6) . ?
In4 Ir1 2.6379(6) 10_557 ?
In4 In2 3.0829(11) 9_667 ?
In4 In3 3.2855(9) 16 ?
In4 In3 3.2855(9) 10_557 ?
In4 In3 3.2855(9) 7_557 ?
In5 Ir1 2.9016(8) 10_556 ?
In5 In2 3.2680(12) 11_677 ?
In5 In2 3.2680(12) 3_654 ?
S1 In3 2.8574(6) 2_765 ?
S1 In3 2.8574(6) 9_767 ?
S1 In3 2.8574(6) 10_557 ?
