#------------------------------------------------------------------------------
#$Date: 2020-02-29 01:44:47 +0200 (Sat, 29 Feb 2020) $
#$Revision: 248542 $
#$URL: file:///home/coder/svn-repositories/cod/cif/4/13/42/4134275.cif $
#------------------------------------------------------------------------------
#
# This file is available in the Crystallography Open Database (COD),
# http://www.crystallography.net/
#
# All data on this site have been placed in the public domain by the
# contributors.
#
data_4134275
loop_
_publ_author_name
'Zhang, Han-Yue'
'Song, Xian-Jiang'
'Chen, Xiao-Gang'
'Zhang, Zhi-Xu'
'You, Yu-Meng'
'Tang, Yuan-Yuan'
'Xiong, Ren-Gen'
_publ_section_title
;
 Observation of vortex domains in a two-dimensional lead iodide perovskite
 ferroelectric.
;
_journal_name_full               'Journal of the American Chemical Society'
_journal_paper_doi               10.1021/jacs.0c00371
_journal_year                    2020
_chemical_formula_moiety         'I3 Pb, C5 H9 N, F'
_chemical_formula_sum            'C5 H9 F I3 N Pb'
_chemical_formula_weight         690.03
_space_group_crystal_system      orthorhombic
_space_group_IT_number           63
_space_group_name_Hall           '-C 2c 2'
_space_group_name_H-M_alt        'C m c m'
_atom_sites_solution_hydrogens   difmap
_audit_creation_method           SHELXL-2014/7
_cell_angle_alpha                90
_cell_angle_beta                 90
_cell_angle_gamma                90
_cell_formula_units_Z            4
_cell_length_a                   8.7441(14)
_cell_length_b                   19.056(3)
_cell_length_c                   8.0199(9)
_cell_measurement_reflns_used    1248
_cell_measurement_temperature    403(2)
_cell_measurement_theta_max      29.8270
_cell_measurement_theta_min      3.3160
_cell_volume                     1336.3(3)
_computing_structure_refinement  'SHELXL-2014/7 (Sheldrick, 2014)'
_diffrn_ambient_temperature      403(2)
_diffrn_measured_fraction_theta_full 0.997
_diffrn_measured_fraction_theta_max 0.997
_diffrn_measurement_device_type  'XtaLAB Synergy R, DW system, HyPix'
_diffrn_radiation_type           MoK\a
_diffrn_radiation_wavelength     0.71073
_diffrn_reflns_av_R_equivalents  0.1677
_diffrn_reflns_av_unetI/netI     0.0818
_diffrn_reflns_Laue_measured_fraction_full 0.997
_diffrn_reflns_Laue_measured_fraction_max 0.997
_diffrn_reflns_limit_h_max       10
_diffrn_reflns_limit_h_min       -9
_diffrn_reflns_limit_k_max       20
_diffrn_reflns_limit_k_min       -22
_diffrn_reflns_limit_l_max       9
_diffrn_reflns_limit_l_min       -9
_diffrn_reflns_number            3245
_diffrn_reflns_point_group_measured_fraction_full 0.997
_diffrn_reflns_point_group_measured_fraction_max 0.997
_diffrn_reflns_theta_full        24.998
_diffrn_reflns_theta_max         24.998
_diffrn_reflns_theta_min         2.563
_diffrn_source                   'Rotating-anode X-ray tube'
_exptl_absorpt_coefficient_mu    19.524
_exptl_absorpt_correction_T_max  0.014
_exptl_absorpt_correction_T_min  0.004
_exptl_absorpt_correction_type   multi-scan
_exptl_absorpt_process_details
;
CrysAlisPro 1.171.40.14e (Rigaku Oxford Diffraction, 2018)
Empirical absorption correction using spherical harmonics,
 implemented in SCALE3 ABSPACK scaling algorithm.
;
_exptl_crystal_colour            yellow
_exptl_crystal_density_diffrn    3.430
_exptl_crystal_description       prism
_exptl_crystal_F_000             1184
_exptl_crystal_size_max          0.3
_exptl_crystal_size_mid          0.26
_exptl_crystal_size_min          0.22
_refine_diff_density_max         2.885
_refine_diff_density_min         -3.185
_refine_diff_density_rms         0.637
_refine_ls_extinction_method     none
_refine_ls_goodness_of_fit_ref   1.074
_refine_ls_hydrogen_treatment    constr
_refine_ls_matrix_type           full
_refine_ls_number_parameters     39
_refine_ls_number_reflns         685
_refine_ls_number_restraints     31
_refine_ls_restrained_S_all      1.049
_refine_ls_R_factor_all          0.1304
_refine_ls_R_factor_gt           0.1049
_refine_ls_shift/su_max          0.000
_refine_ls_shift/su_mean         0.000
_refine_ls_structure_factor_coef Fsqd
_refine_ls_weighting_details
'w=1/[\s^2^(Fo^2^)+(0.1840P)^2^+0.3798P] where P=(Fo^2^+2Fc^2^)/3'
_refine_ls_weighting_scheme      calc
_refine_ls_wR_factor_gt          0.2548
_refine_ls_wR_factor_ref         0.2796
_reflns_Friedel_coverage         0.000
_reflns_number_gt                483
_reflns_number_total             686
_reflns_threshold_expression     'I > 2\s(I)'
_cod_data_source_file            ja0c00371_si_007.cif
_cod_data_source_block           CMCM
_cod_original_formula_sum        '	C5 H9 F I3 N Pb'
_cod_database_code               4134275
_shelx_shelxl_version_number     2014/7
_shelx_space_group_comment
;
The symmetry employed for this shelxl refinement is uniquely defined
by the following loop, which should always be used as a source of
symmetry information in preference to the above space-group names.
They are only intended as comments.
;
_shelx_res_file
;

    CMCM.res created by SHELXL-2014/7


TITL CMCM in Cmcm
CELL 0.71073   8.7441  19.0560   8.0199  90.000  90.000  90.000
ZERR   4.00   0.0014   0.0029   0.0009   0.000   0.000   0.000
LATT 7
SYMM -X, -Y, 0.5+Z
SYMM -X, Y, 0.5-Z
SYMM X, -Y, -Z
SFAC C  H  N  F  I  Pb
UNIT 20 36 4 4 12 4
OMIT   0.00  50.00
L.S. 200
ACTA
BOND
FMAP 2
PLAN 5
DFIX 1.38 0.002 C1 C2
EADP C1 N1
exyz  N1 C1
SIMU 0.002
WGHT    0.184000    0.379800
FVAR       0.14740
F1    4    0.692917    0.743725    0.250000    10.25000    0.23760    0.15215 =
         0.14637    0.00000    0.00000    0.00011
C2    1    0.500000    0.816483    0.062083    10.50000    0.23746    0.15166 =
         0.14591    0.00031    0.00000    0.00000
AFIX   3
H2A   2    0.412060    0.814733   -0.009457    10.50000   -1.20000
H2B   2    0.587940    0.814733   -0.009457    10.50000   -1.20000
AFIX   0
C3    1    0.500000    0.757204    0.164611    10.50000    0.23760    0.15195 =
         0.14613    0.00015    0.00000    0.00000
AFIX   3
H3A   2    0.454370    0.717233    0.111371    10.75000   -1.20000
AFIX   0
C1    1    0.500000    0.880036    0.144598    10.25000    0.23739    0.15153 =
         0.14581    0.00037    0.00000    0.00000
N1    3    0.500000    0.880036    0.144598    10.25000    0.23739    0.15153 =
         0.14581    0.00037    0.00000    0.00000
AFIX   3
H1A   2    0.416970    0.903184    0.101635    10.25000   -1.20000
H1B   2    0.583030    0.903184    0.101635    10.25000   -1.20000
AFIX   0
PB1   6    0.000000    1.000000    0.000000    10.25000    0.07802    0.09490 =
         0.04028    0.00102    0.00000    0.00000
I1    5    0.255962    1.060632    0.250000    10.50000    0.08323    0.12569 =
         0.07481    0.00000    0.00000   -0.02158
I2    5    0.000000    0.866797    0.250000    10.25000    0.15411    0.08558 =
         0.06499    0.00000    0.00000    0.00000
HKLF 4

REM  CMCM in Cmcm
REM R1 =  0.1049 for     483 Fo > 4sig(Fo)  and  0.1304 for all     685 data
REM     39 parameters refined using     31 restraints

END

WGHT      0.1839      0.4028

REM Highest difference peak  2.885,  deepest hole -3.185,  1-sigma level  0.637
Q1    1  -0.1187  1.0000  0.0000  10.50000  0.05    2.88
Q2    1   0.1539  1.0448  0.2500  10.50000  0.05    2.55
Q3    1   0.3867  1.0606  0.2500  10.50000  0.05    2.30
Q4    1   0.5000  1.0132  0.2500  10.25000  0.05    2.14
Q5    1  -0.1105  0.8499  0.2500  10.50000  0.05    1.63
;
_shelx_res_checksum              61351
_shelx_hkl_file
;
   0   0   1    0.17    0.43
   0   0   2 2690.61   82.93
   0   0   2 2784.67   82.92
   0   0   3    1.15    2.54
   0   0  -3   53.88    2.71
   0   0  -4 8778.16  282.49
   0   0   4 9954.39  282.48
   0   0  -5    4.23    3.15
   0   0   5    0.23    4.26
   0   0   5   -0.08    4.57
   0   0   6  113.15    9.98
   0   0   6   42.65    9.50
   0   0   7    2.20    7.95
   0   0   7    1.15    7.31
   0   0   8  461.50   30.23
   0   0   9   -1.04   11.22
   0   0  10    9.23   14.76
   0  -2   1   16.89    1.77
   0   2   1   15.29    1.42
   0  -2  -2   90.94    6.57
   0   2   2   80.42    6.35
   0  -2   2   92.32    5.57
   0  -2  -3  199.28    7.71
   0  -2  -3  233.63    7.49
   0  -2   3  130.06    6.27
   0   2   3  112.61    9.18
   0  -2  -4 3628.23  109.88
   0  -2  -4 3522.15  110.46
   0  -2   5   25.22    3.63
   0  -2  -5   17.28    3.40
   0   2   5   19.73    6.12
   0  -2   5   21.08    3.65
   0   2   6   77.11   11.86
   0  -2  -6  105.78    6.94
   0  -2  -7   10.90    4.94
   0  -2   7   -1.11    7.02
   0   2   7   -3.49    8.63
   0  -2   7    2.84    7.63
   0   2   8  201.96   23.27
   0  -2   8  254.05   24.09
   0  -2   9    1.51   11.03
   0  -2   9   17.11   11.02
   0   2   9   -2.41   10.68
   0   4   0  492.98   17.17
   0  -4   0  493.81   17.92
   0   4   1 4367.06  130.21
   0  -4   1 4128.93  131.38
   0  -4  -2 2913.94   96.26
   0  -4   2 2726.60   93.15
   0  -4   3 1506.07   53.13
   0  -4  -3 1315.95   53.04
   0  -4   4  241.38   10.93
   0  -4  -4  323.94   11.70
   0  -4  -4  197.79   13.86
   0  -4  -4  313.91   12.16
   0  -4  -5  749.52   23.03
   0   4   5  483.37   29.12
   0  -4  -5  576.47   22.35
   0  -4   5  774.64   24.07
   0  -4  -6  862.29   27.21
   0  -4   6  907.18   28.66
   0  -4   6  835.86   27.77
   0   4   7   92.01   14.58
   0  -4   7  156.04    8.51
   0  -4   7  181.35   10.10
   0  -4  -7  115.53    7.69
   0  -4   8   67.29    9.80
   0  -4  -8   77.03    7.96
   0  -4   9   18.57   11.44
   0  -4   9   41.32   11.81
   0  -4  10  142.43   16.11
   0  -6   0  102.84    7.07
   0   6   0  110.00    6.26
   0   6   1 4232.22  121.06
   0  -6   1 3507.84  122.15
   0  -6   2 2630.69   83.78
   0  -6  -2 2613.12   82.32
   0  -6  -3 1405.08   51.13
   0  -6  -3 1462.07   46.89
   0  -6  -4  197.53   14.30
   0  -6   4  190.88   13.07
   0  -6  -4  200.52   12.03
   0  -6   5  562.84   22.95
   0  -6  -5  527.43   27.78
   0  -6  -6  411.01   18.77
   0  -6   6  547.00   20.58
   0  -6   7  141.05    9.22
   0  -6  -7  116.71    7.91
   0  -6  -7  127.99    7.53
   0  -6   7  153.13    9.01
   0  -6   8   67.69    8.64
   0  -6  -8   56.87    6.62
   0  -6   8   69.96    6.83
   0  -6   9   43.96   11.79
   0  -6  10  100.77   15.72
   0   8   0  493.82   17.47
   0  -8   0  329.30   16.84
   0  -8   1   13.66    3.29
   0  -8  -2  982.21   34.63
   0  -8   2  955.83   35.52
   0  -8   3    8.34    5.33
   0  -8  -3   11.36    4.06
   0  -8   4   80.94   10.46
   0  -8  -4   95.02    9.69
   0  -8   5   18.73    7.24
   0  -8  -5   14.99    7.84
   0  -8  -5   19.47    6.52
   0  -8  -5   10.19    5.81
   0  -8  -6  392.51   24.82
   0  -8   6  429.97   19.25
   0  -8   7    1.36    4.93
   0  -8  -7    7.04    5.90
   0  -8  -7    0.51    4.27
   0  -8   8   65.31    7.08
   0  -8   8   52.23    7.52
   0  -8  -8   64.57    6.61
   0  -8   9  -10.17    9.45
   0  -8  10   60.85   14.61
   0 -10   0   20.08    4.56
   0 -10   1  500.66   17.31
   0 -10   1  659.97   24.31
   0 -10  -2 1344.96   48.09
   0 -10   2 1441.04   50.29
   0 -10   3  388.08   22.42
   0 -10  -3  348.01   18.75
   0 -10  -4    3.74    7.85
   0 -10  -4   -1.77    6.96
   0 -10   4    3.93    7.82
   0 -10  -5  148.33   15.65
   0 -10   5  152.16   15.68
   0 -10  -5  127.13   11.69
   0 -10  -6  439.30   29.61
   0 -10  -6  643.99   25.45
   0 -10   7   43.88    6.81
   0 -10  -7   54.03    8.23
   0 -10  -8   21.36    6.81
   0 -10   8   10.12    6.03
   0 -10   9   17.05    6.90
   0 -10   9    6.38    7.72
   0 -12   0   33.08    6.22
   0 -12   1   75.19    8.52
   0 -12   2  509.36   25.00
   0 -12  -2  465.36   21.44
   0 -12   3   48.96   11.18
   0 -12  -3   36.50    8.96
   0 -12  -4   17.73    8.72
   0 -12   4   11.55    9.12
   0 -12  -5   25.76    8.89
   0 -12  -5   21.44   11.77
   0 -12   5   23.21   11.15
   0 -12  -6  201.12   19.27
   0 -12  -6  184.93   13.03
   0 -12  -6  185.06   14.29
   0 -12  -7   16.85    9.24
   0 -12   7   -0.39    6.58
   0 -12   8   15.13    6.42
   0 -12  -8   38.42   10.81
   0 -12   9    1.77    6.44
   0 -14   0  399.87   23.63
   0 -14   1   -2.95    8.40
   0  14   2    5.87    2.39
   0 -14  -2   -3.60    8.36
   0 -14   2   -3.77    9.15
   0 -14   2    0.60    1.68
   0 -14   3    1.44    1.99
   0  14   3    7.85    2.72
   0 -14  -3   -2.17    9.60
   0 -14   3   -0.39   10.31
   0 -14  -4  237.26   19.48
   0 -14   4  221.38   20.87
   0 -14  -5   22.20   10.76
   0 -14  -5   -1.53   11.47
   0 -14   5   18.60   13.12
   0 -14  -6   46.38   10.94
   0 -14  -7   -0.56   12.36
   0 -14   8   28.60    7.63
   0  14   9    7.03    5.57
   0 -14   9    0.52    3.61
   0 -16   0  358.83   25.69
   0 -16   1   10.21   10.20
   0 -16  -2   -3.58   11.18
   0 -16   2   -1.67   11.10
   0 -16   3   13.18   11.83
   0 -16   3    3.51    2.42
   0 -16  -3    5.26   11.28
   0  16   3   15.50    3.04
   0 -16   4  178.53   18.41
   0 -16  -4  145.44   15.86
   0  16   5   13.05    4.06
   0 -16   5    1.25    2.49
   0 -16  -5   34.65   12.45
   0 -16   5   35.15   13.96
   0  16   6    3.03    4.26
   0 -16   6    0.49    2.42
   0 -16   7    0.36    2.74
   0  16   7    5.23    5.00
   0  16   8   27.60    6.69
   0 -16   8   18.40    8.74
   0 -16   8    2.06    3.63
   0  16   9    3.94    6.56
   0 -16   9    0.23    3.11
   0 -18   0   29.77   13.77
   0 -18   1    0.87   12.24
   0 -18   2    9.04   13.04
   0 -18  -2   21.07   13.54
   0 -18   3   -2.03    3.86
   0 -18   3   17.29   12.41
   0 -18  -3    9.46   11.97
   0 -18   4   34.29   14.62
   0 -18   4    3.35    2.90
   0  18   4   21.03    4.08
   0 -18  -4   49.40   12.75
   0 -18   5   -0.74    3.26
   0  18   5   -2.28    4.42
   0 -18   6    1.27    3.50
   0  18   6    9.55    5.33
   0  18   7    3.33    5.70
   0 -20   0    7.84   13.18
   0 -20   1   30.11   14.27
   0 -20  -2   20.33   14.57
   0 -20   2   21.75   14.13
   0 -20  -3   28.72   13.59
   0 -20   3   20.76   14.45
   0  20   4   -0.17    2.56
   0 -20  -4   28.26   14.85
   0 -20   4   27.77   16.11
   0 -20  -5   86.10   16.57
   0 -20   5   51.75   16.02
   0 -22   0   13.30   13.93
   0 -22   1   15.75   13.85
   0 -22   2   15.18   14.99
   0 -22  -2   36.63   15.61
   0 -22  -3   45.95   16.81
   0 -22   3   32.81   17.32
   0 -22   4   47.96   17.68
   0 -22  -4   58.74   18.06
   0 -22   5   47.99   16.74
   0 -22  -5   85.46   17.65
   1  -1   0  531.13   24.40
  -1  -1   0 1124.11   25.89
   1   1   1   51.47    3.49
   1  -1   1   81.15    4.78
  -1  -1  -1   49.63    3.03
   1  -1  -1   66.99    3.69
  -1  -1  -1   61.93    2.65
  -1  -1  -1   71.09    3.87
   1   1   1   32.80    2.76
   1   1  -2  980.39   29.11
   1   1   2  927.30   30.58
   1   1   2  951.11   29.76
   1  -1  -2 1109.67   28.96
   1   1   2  694.96   31.59
  -1  -1  -2  728.73   29.40
   1  -1   2  917.05   30.04
   1   1   3  657.24   18.52
  -1  -1  -3  456.85   16.41
   1   1   3  534.22   16.70
   1  -1   3  372.34   16.23
   1  -1   3  512.87   16.90
   1   1  -3  575.52   16.41
   1   1   3  441.23   20.65
   1   1  -4 2326.89   69.69
   1  -1   4 2414.99   70.55
   1   1  -4 2518.82   69.60
   1   1   4 1756.79   68.99
   1  -1  -4 2241.64   69.57
   1   1   4 1816.80   75.63
   1  -1   4 2104.18   70.38
  -1  -1   4 2406.35   69.43
   1  -1  -5  135.50    6.93
   1   1   5  253.34   11.64
  -1  -1   5  208.48    8.72
  -1  -1  -5  131.63    7.95
   1  -1   5  165.53    8.13
   1  -1   5  161.65    9.69
   1   1   5  103.55   11.24
   1  -1   6  344.71   15.04
  -1  -1   6  426.16   14.63
   1  -1   6  196.96   17.34
   1   1   6  441.49   16.56
   1  -1  -6  250.46   11.99
   1   1   6  179.38   16.72
  -1  -1   7   59.76    8.20
   1   1   7   12.96    8.56
   1  -1  -7   36.75    5.49
   1  -1   7   23.16    9.35
   1  -1   7   51.17    9.38
   1  -1   8  189.23   20.86
   1   1   8  176.65   21.22
   1   1   9   -4.25   11.87
   1  -1   9    4.90   10.64
   1   3   0  718.26   19.33
  -1  -3   0  374.65   16.69
  -1  -3  -1  418.85   14.56
   1  -3   1  437.01   15.82
   1   3  -2 3402.27  115.36
   1  -3  -2 3561.72  116.98
   1  -3  -3  261.32    7.71
   1   3   3   96.44    9.26
  -1  -3   3  152.62    6.27
   1   3  -3   99.85    8.24
   1  -3  -3  126.47    9.20
   1   3   3  281.79   11.00
  -1  -3  -3  194.81    8.38
   1  -3  -4  199.45    8.88
  -1  -3  -4  390.91   12.92
   1  -3   4  208.19    9.38
   1   3   4  170.81   13.58
   1   3  -4  216.22    9.81
  -1  -3   4  284.35    9.84
   1   3   4  332.41   11.70
   1  -3  -4  420.68   11.45
   1  -3   4  290.01   11.45
   1  -3  -5   53.58    4.09
   1  -3   5   46.07    4.63
  -1  -3  -5   48.32    4.57
   1   3   5   41.88    7.91
  -1  -3  -5   56.77    4.51
   1  -3  -5   40.12    3.06
   1  -3   5   57.21    5.69
   1  -3   5   65.61    5.45
  -1  -3   5   64.92    4.24
   1  -3  -6  684.31   26.50
  -1  -3   6  948.56   27.47
   1  -3   6  889.13   28.40
   1   3   6  561.23   34.20
   1  -3   6  886.85   28.93
  -1  -3  -6  742.57   27.53
   1  -3   7   22.22    5.12
  -1  -3  -7   22.25    5.73
   1   3   7   11.99    8.76
  -1  -3   7   25.13    7.13
   1  -3   7   26.84    8.81
   1  -3  -7   17.75    4.07
   1  -3   8  120.21   13.07
   1  -3   8   40.30   12.27
   1  -3  -8   93.69    7.82
  -1  -3   8  128.20   11.40
   1   3   8   32.00   12.72
  -1  -3   9   13.29    9.78
   1   3   9    3.17   11.66
   1  -3   9    0.53   12.07
   1  -3   9   13.17   15.46
   1  -3  10  160.49   17.79
   1   5   0  604.37   23.31
  -1  -5   0  641.72   23.79
  -1  -5   1  401.58   17.95
   1   5   1  446.48   18.83
   1   5   1  423.22   14.76
   1   5  -2 1637.74   59.63
   1   5   2 2056.19   59.25
   1  -5   2 1567.21   59.83
   1   5   2 2293.86   62.01
   1  -5  -3  226.26    9.26
   1   5  -3  223.01   10.52
   1  -5   3  213.21    9.40
   1  -5  -3  212.77   13.50
   1  -5  -4  427.47   16.84
  -1  -5   4  430.87   16.33
   1   5  -4  377.60   16.89
   1  -5  -4  376.10   21.39
   1   5   4  584.08   19.29
   1  -5  -4  617.75   17.44
  -1  -5  -4  515.11   18.25
   1  -5   4  394.49   17.45
   1  -5  -5   57.60    4.37
   1  -5   5   75.40    6.35
  -1  -5   5   84.30    5.25
   1  -5  -5  107.70    6.42
   1  -5   5   31.57    5.46
  -1  -5  -5   95.02    7.48
  -1  -5  -6  456.44   20.16
   1  -5   6  604.39   21.64
   1  -5  -6  572.25   19.22
  -1  -5  -6  552.37   20.42
   1  -5   6  591.92   21.28
   1  -5  -6  480.04   19.65
  -1  -5   6  671.40   21.17
   1  -5  -6  629.40   20.49
   1  -5   7   24.06    5.46
   1  -5   7   17.71    5.96
   1  -5  -7   15.37    4.24
  -1  -5  -7   17.50    4.54
  -1  -5   7   16.53    4.84
  -1  -5   8  128.13   12.01
   1  -5   8  101.05    8.60
   1  -5   8  145.80   14.49
   1  -5  -8   78.63    7.02
   1  -5   9    5.83   10.81
  -1  -5   9   14.28    9.93
   1  -5   9   15.47   11.07
   1  -5  10  119.04   18.28
  -1  -7   0 2036.22   73.84
  -1  -7   0 2210.30   79.52
   1   7   1    7.78    4.29
   1  -7   1    3.30    1.76
   1   7   1    3.95    2.43
   1  -7   1    3.31    2.10
  -1  -7   1   10.50    5.23
   1   7   2  243.38    9.73
   1   7  -2  266.99   12.43
   1  -7  -2  171.52    8.39
   1  -7   2  175.61    8.82
  -1  -7  -2  179.31   12.70
   1  -7   2  131.91    8.94
  -1  -7   2  207.55   14.43
   1   7   2  331.51   14.96
   1   7   3   19.14    5.54
  -1  -7  -3   25.47    5.49
   1  -7  -3   14.77    2.69
   1  -7  -3    6.36    5.16
   1  -7   3   12.87    3.14
   1   7  -3   14.20    4.12
   1   7  -4 1242.45   44.61
   1   7   4 1842.96   48.02
  -1  -7  -4 1689.20   47.03
   1  -7  -4 1296.36   45.45
   1  -7   4 1158.97   46.51
   1  -7  -4 1134.90   50.65
   1  -7  -5   23.98    3.90
   1  -7  -5   47.10    6.77
   1  -7   5    9.44    4.48
  -1  -7  -5   39.14    6.83
   1  -7  -5   28.18    7.80
  -1  -7   5   26.49    4.40
  -1  -7   6   83.34    6.52
  -1  -7  -6   55.86    5.62
   1  -7   6   57.06    9.22
   1  -7  -6   70.76    7.98
  -1  -7  -6  111.40    9.38
   1  -7  -6  122.93    8.11
   1  -7   6   87.45    8.16
   1  -7   7    7.80    5.86
  -1  -7   7    8.36    4.69
  -1  -7  -7    3.65    5.53
  -1  -7  -7    3.32    4.59
   1  -7  -7    6.57    4.36
   1  -7  -7    1.03    4.28
   1  -7   8  155.18   11.19
  -1  -7   8  150.93    9.83
   1  -7   9    0.38   13.50
   1  -7   9    8.64    6.38
  -1  -7   9   -4.99   11.15
   1  -7  10   25.82   14.10
   1  -9   0  957.47   35.58
  -1  -9   0  852.52   32.73
   1   9   1  140.27    8.42
  -1  -9   1  124.50   11.59
  -1  -9   2  350.48   22.51
   1   9  -2  582.70   20.86
   1   9   2  486.43   16.63
   1   9   2  746.04   24.91
  -1  -9  -2  317.67   20.17
   1  -9   2  437.89   18.58
   1  -9   2  269.23   16.47
   1  -9  -2  374.09   16.87
   1   9   3  173.56    8.10
   1   9   3  254.08   12.60
  -1  -9   3  153.16   13.68
  -1  -9  -3  134.95   11.96
   1  -9   3   46.68    6.04
   1   9  -3  177.93    9.83
   1  -9   3  145.26    9.57
   1  -9  -3  151.53    9.00
   1   9  -4  490.99   19.79
   1  -9  -4  528.77   21.83
   1  -9  -5   57.47    5.86
   1  -9  -5   74.36   11.08
   1  -9  -6  104.65   12.71
  -1  -9   6   93.71    7.58
   1  -9  -6   72.25    9.51
   1  -9  -6  145.91   10.23
  -1  -9  -6  168.56   11.81
   1  -9   6   52.52    9.84
   1  -9  -7    5.79    3.97
   1  -9  -7   40.19    8.43
   1  -9   7   19.59    6.34
  -1  -9  -7   41.39    9.98
  -1  -9   7   18.72    5.12
   1  -9   8   87.42    8.83
  -1  -9  -8   73.28    8.05
   1  -9  -8   85.47    7.36
  -1  -9   8   99.31    8.05
   1  -9   8   80.10   10.10
   1   9   9    2.41    6.39
   1  -9   9    1.93    9.08
  -1  -9   9   -2.41    6.99
   1  -9   9   11.29    6.82
   1  -9  10   34.31   16.55
  -1 -11   0   58.57   10.17
   1 -11   0   87.12    7.93
   1  11   1    7.42    6.23
  -1 -11   1    4.13    2.25
   1 -11   1    7.97    4.14
  -1  11   1    4.89    2.15
   1 -11   1    0.95    1.73
  -1 -11   1    4.24    6.71
   1  11   2  751.68   24.19
   1  11  -2 1055.09   29.57
   1 -11   2  353.99   23.24
   1  11   2 1337.94   33.83
   1 -11  -2  735.00   27.40
   1 -11   2  746.60   28.35
  -1 -11   2  650.91   33.78
  -1 -11  -2  582.86   30.54
   1 -11   3    2.38    2.85
   1 -11  -3    7.11    4.28
   1  11   3    7.10    3.31
   1  11  -3    2.74    4.75
   1  11   3    7.07    5.63
   1 -11   3   10.93    5.34
  -1 -11   3   17.59    9.16
  -1 -11  -3   16.93    8.60
   1 -11  -4   42.86   10.83
   1 -11  -4   28.52    5.11
  -1 -11  -4   63.55    9.93
   1 -11   4   28.59    6.21
   1  11   4   61.73    5.71
   1 -11   4    6.99    3.08
   1  11   5    7.05    3.45
   1 -11  -5   -3.53    9.18
   1 -11   5   -2.43    6.98
   1 -11  -5    4.88    4.91
  -1 -11  -6  341.27   18.15
   1 -11   6  116.83   14.97
   1 -11  -6  286.92   14.39
   1 -11  -6  240.35   20.00
   1 -11  -6  145.36   14.42
   1  11   6  257.63   13.81
   1 -11   7   -6.04    7.06
  -1 -11  -7    5.90    8.49
   1  11   7    8.75    5.66
   1 -11  -7    4.85    7.74
  -1 -11   7   -2.08    4.39
  -1 -11  -8   49.86    8.73
  -1 -11   8   24.83    6.47
   1  11   8   18.67    5.83
   1 -11   8    0.55    3.57
   1 -11   8   18.37    6.76
   1 -11  -8   39.56    7.39
   1 -11   9    0.25    3.13
   1 -11   9   -4.01    8.54
   1  11   9    1.83    5.56
   1 -11   9   -1.33    7.33
  -1 -11   9    3.38    5.64
  -1 -11   9   -7.65    8.35
   1 -11  10   21.77    8.00
   1 -11  10   31.14   13.23
   1 -13   0  235.35   14.74
  -1 -13   0  179.58   17.63
  -1 -13   1   93.09   13.59
   1 -13   1  111.95   10.47
  -1 -13  -2  150.06   15.90
   1 -13   2   72.81    9.08
   1 -13   2  179.10   13.46
   1  13  -2  237.65   13.06
   1  13   2  194.06   11.41
   1 -13  -2  181.71   12.99
  -1 -13   2  177.65   18.21
   1  13   2  317.43   15.81
  -1 -13   3   58.54   14.10
   1 -13   3   35.73    6.60
   1  13   3   54.13    4.82
   1  13  -3   59.03    7.60
   1 -13  -3   43.33    6.95
  -1 -13  -3   53.24   11.88
   1  13   4  143.74    8.38
  -1 -13  -4  119.49   13.43
   1 -13   4   69.77    8.64
   1 -13  -4   72.25    7.85
   1 -13   4   21.46    5.27
  -1 -13   4  130.37   15.96
   1 -13  -5    3.36    8.18
   1 -13   5    0.66    9.00
   1 -13  -5   27.49   11.90
   1  13   5   32.47    5.41
   1 -13   5    5.12    3.31
   1 -13   6   33.40   11.05
   1 -13   6    7.77    3.75
   1 -13  -6   31.96   10.32
   1  13   6   67.75    7.32
  -1 -13  -6   49.30   10.62
   1 -13   7    2.22    3.04
  -1 -13   7    1.10    6.19
   1  13   7    8.81    5.36
   1 -13   7   21.52    9.71
   1 -13  -7   12.22   11.88
  -1 -13  -7   10.27   10.45
   1  13   8   28.90    7.14
   1 -13   8    1.52    3.37
   1 -13   8   16.60    7.87
  -1 -13   8   17.27    6.43
   1  13   9    2.17    6.54
   1 -13   9    7.79    7.64
   1 -13   9   -0.57    3.65
   1 -15   0  252.68   16.94
  -1 -15   0  262.32   22.38
   1 -15   1    0.21    5.11
  -1 -15   1    2.33   10.78
   1  15   1  -10.26    8.17
  -1 -15   2   19.06   12.20
  -1  15   2   11.94    1.72
   1 -15  -2    5.11    4.79
  -1 -15  -2   17.84   11.10
   1 -15   2    1.87    2.72
  -1  15   2   10.94    2.39
   1 -15   2    8.77    5.24
   1 -15  -3    5.24    5.29
   1  15   3    0.85    3.95
  -1 -15   3   11.78   11.95
   1 -15   3    1.78    5.39
   1 -15   3    1.07    2.67
   1 -15  -4  102.92   10.82
   1 -15   4   25.44    5.90
  -1 -15  -4  173.18   17.06
   1 -15   4   90.63   13.41
  -1 -15   4  182.90   19.92
   1  15   4  153.76    8.55
   1  15   5    2.41    5.00
   1 -15   5   -0.22    3.43
   1 -15   5   -7.67   11.91
   1 -15  -5  -14.44   11.24
   1  15   6   10.67    5.58
   1 -15   6   -0.48    3.70
   1 -15  -6    7.40   10.09
   1 -15   6    5.65   10.65
   1 -15   7   -1.76    3.58
   1 -15   7    9.49   10.18
   1  15   7   -0.97    6.05
   1 -15  -7  -12.20   10.32
   1 -15   8   20.87    8.38
   1 -15   8    0.81    3.85
   1  15   8   30.19    8.59
   1 -15   9   -0.30    4.14
   1 -15   9   -5.77    7.62
   1  15   9   -0.73    7.78
   1 -17   0   23.18    7.47
  -1 -17   0   30.07   14.06
  -1 -17   1   29.48   14.30
   1 -17   1   10.13    6.55
  -1 -17  -2   65.35   16.00
   1 -17  -2   45.94    8.19
   1 -17   2   35.23    8.49
  -1 -17   2   79.43   17.93
   1 -17  -3   19.00    8.21
   1 -17   3    1.34    8.96
   1 -17   3    0.44    5.23
  -1  17   3   15.99    2.95
  -1 -17  -3   40.09   14.42
  -1 -17   3    2.91    2.03
   1  17   3    2.13    4.39
  -1 -17   3   45.37   15.60
   1  17   4   27.98    5.71
  -1 -17  -4   73.92   14.08
  -1 -17   4   81.00   16.33
   1 -17   4    2.70    3.44
   1 -17  -4   -6.48   10.93
   1 -17   4    6.58   10.98
  -1  17   4   30.06    3.43
   1  17   5    0.12    4.79
   1 -17  -5    0.33   11.60
   1 -17   5    0.61    3.34
   1 -17   5    7.07   11.72
   1 -17   6    2.78    4.41
   1  17   6    8.73    5.86
   1 -17   6   18.81   13.00
   1 -17  -6   30.55   11.58
   1  17   7   -1.01    7.27
   1 -17   7   -0.57    4.16
   1 -17   8    1.48    8.30
   1  17   8    9.44    8.00
   1 -19   0    1.79    7.85
  -1 -19   0   35.27   15.55
   1 -19   1    9.47    8.53
  -1 -19   1   30.61   16.63
   1 -19  -2   38.90   12.62
  -1 -19  -2  111.95   19.35
  -1 -19   2   93.29   19.06
   1 -19   2   18.40   11.82
   1 -19  -3  -14.52   12.88
  -1 -19   3   35.29   15.55
   1 -19   3  -11.76   11.89
  -1 -19  -3   63.26   15.46
   1 -19  -4  -12.19   13.29
  -1  19   4   -1.06    2.93
   1  19   4   -5.34    7.02
   1 -19   4    0.79    5.46
   1 -19   4   -2.27   12.60
  -1 -19   4    1.13    2.36
   1 -19  -5   19.88   12.73
   1  19   5    5.09    5.70
  -1  19   5    0.09    3.89
   1 -19   5    2.88   11.42
  -1  19   6   17.16    4.85
   1  19   6    5.69    5.82
   1 -19  -7   67.98   14.88
  -1 -21   0   67.32   17.62
   1 -21   0   -3.24   12.68
  -1 -21   1   70.24   18.20
   1 -21   1   -6.62   13.27
  -1 -21   2   46.79   16.40
   1 -21   2  -13.26   13.95
   1 -21  -2   -7.18   14.33
  -1 -21  -2   73.52   17.15
  -1 -21  -3   93.45   17.13
  -1 -21   3   56.80   17.24
   1 -21   3   -1.42   13.70
   1 -21  -3    0.42   14.03
   1 -21   4    3.50   13.15
   1 -21  -4   -5.09   13.96
   1 -21   5   10.03   13.97
   1 -21  -5   34.52   14.56
   1 -21  -6   60.17   16.93
   1 -21   6   30.59   14.77
   1 -21  -7  100.01   16.89
  -1 -23   0   68.18   19.04
   1 -23   0    2.36   15.43
   1 -23   1   -2.88   14.66
  -1 -23   1   57.46   17.71
  -1 -23   2   81.08   19.25
  -1 -23  -2  107.87   19.41
   1 -23   2  -10.32   14.96
   1 -23  -2   -3.64   15.30
   1 -23  -3    9.73   14.94
   1 -23   3   -0.44   13.38
  -2   0   0  384.22   15.19
  -2   0   0  425.35   10.70
  -2   0   1   -0.21    1.41
  -2   0  -1   -0.36    1.83
   2   0   1    2.04    3.34
  -2   0   1    0.60    0.64
  -2   0  -1   -0.61    1.25
  -2   0  -2 3942.23  112.63
   2   0   2 4080.70  115.81
   2   0   3    3.82    3.15
   2   0   3    1.32    2.38
   2   0   3   -1.88    4.01
   2   0   4  119.19    9.35
   2   0   4  127.63   10.36
   2   0   4  139.92    8.09
  -2   0   4  142.07   10.96
   2   0  -5    3.08    2.23
   2   0   5    3.15    3.36
  -2   0   5    1.17    4.96
   2   0   5   -8.26    7.05
   2   0   5    1.32    4.65
  -2   0   6  650.83   37.02
   2   0  -6  875.67   27.74
   2   0   6  618.79   36.17
   2   0  -6  838.55   28.39
   2   0   7   -5.73    8.42
  -2   0   7   -2.54    8.31
   2   0   7   -0.16   10.77
   2   0   8   46.56   12.38
   2   0   8   35.39    7.81
  -2   0   8   66.66   14.67
   2   0   9    0.52    4.55
  -2   0   9   -7.77   13.04
   2   0   9   -5.64   12.08
   2   2   0   34.54    1.60
  -2  -2   0   37.71    1.99
  -2  -2  -1 3018.82   87.27
   2  -2   1 2794.40   92.64
  -2  -2  -1 2950.35   83.85
  -2  -2  -1 3222.72   85.96
   2  -2  -1 3186.70   86.37
  -2  -2  -2 4170.84  127.71
  -2   2   2 4296.32  131.58
   2  -2   2 4699.18  133.78
   2   2   2 3838.63  128.68
   2  -2  -2 4483.51  130.44
   2   2   2 3592.24  130.48
  -2  -2  -2 4818.10  130.85
  -2  -2  -2 4336.96  130.34
   2  -2   3 1594.76   60.43
  -2   2   3 1637.00   60.56
  -2  -2  -3 1509.22   55.48
   2   2   3 1433.16   59.50
   2  -2  -3 1932.90   53.78
   2  -2   3 1421.42   55.33
   2   2   3 1988.04   57.42
   2   2   3 1893.17   55.43
  -2   2   4   46.42    7.37
   2  -2   4   35.92    5.39
   2   2   4   46.52    7.04
  -2  -2  -4   53.16    4.34
   2  -2   4   43.74    4.59
  -2  -2   5  843.66   24.74
   2  -2   5  419.30   28.28
   2  -2  -5  675.76   24.46
   2   2  -5  842.20   26.35
  -2   2   5  591.29   32.20
   2   2   5  524.70   31.09
   2  -2   5  626.35   26.06
   2   2   5 1034.62   29.19
   2  -2   5  832.55   26.66
   2   2   5 1072.44   30.03
   2   2   6  740.18   37.84
   2  -2  -6  914.50   28.12
  -2   2   6  790.73   39.20
   2  -2   6 1357.42   35.22
   2   2  -6  682.81   26.74
  -2  -2   6 1200.35   28.80
   2   2   6  834.57   27.75
   2  -2   6 1136.99   30.66
   2  -2   6  674.54   26.93
   2  -2   7  205.88   10.65
  -2   2   7  133.19   17.34
   2  -2  -7  152.57    8.61
   2  -2   7  131.76   15.01
  -2  -2   7  147.16   16.11
   2   2   7  115.83   15.89
   2  -2   7  237.25   14.09
   2  -2   8   80.96   14.22
   2  -2   8   14.26    5.96
   2  -2   8   24.10   12.04
  -2  -2   8   24.25   12.76
   2  -2  -8   65.72    6.68
  -2   2   8   27.15   12.37
   2   2   8   30.05   12.15
  -2  -2   9   28.45   12.81
  -2   2   9   10.78   12.37
   2   2   9    4.65   10.43
   2  -2   9   15.12   11.08
   2  -2   9    6.61    4.52
  -2  -4   0   81.79    6.58
  -2   4   0   82.42    6.35
   2   4   1 1324.49   47.73
  -2  -4  -1 1256.14   41.60
  -2  -4  -2 2459.21   83.14
   2  -4  -2 2409.45   83.53
   2  -4   2 2530.45   84.54
  -2  -4  -2 2605.65   79.51
  -2  -4   3 1067.75   31.82
   2  -4  -3  946.50   37.48
   2   4   3 1042.56   37.10
  -2  -4  -3  967.87   37.87
  -2  -4  -3  935.56   33.14
   2  -4   3  933.71   39.09
  -2  -4  -4  167.82    9.79
  -2  -4   4  190.88    7.01
   2  -4   4   96.90    9.62
   2   4  -4  136.16   10.25
  -2  -4  -4  143.58    8.02
   2  -4  -4  266.36    8.17
   2   4   4  214.13   12.94
   2   4   4  163.80   10.58
   2  -4   5  142.39   12.81
   2  -4   5  322.80   12.69
   2   4   5  339.81   13.46
   2  -4   5  229.74   11.40
   2  -4  -5  279.43    9.04
   2   4  -5  156.26   11.11
  -2  -4  -5  223.98   11.04
   2   4   5  191.45   16.01
   2   4   5  236.84   13.41
   2  -4   6  483.26   20.35
   2  -4  -6  544.86   19.78
  -2  -4  -6  564.74   21.76
   2  -4   6  260.89   22.64
   2   4   6  570.61   26.16
  -2  -4  -6  564.86   20.65
   2  -4  -6  617.89   20.27
   2  -4   6  563.64   21.69
   2   4   6  474.86   29.56
   2   4  -6  557.03   19.94
   2   4   6  657.55   21.01
   2  -4   6  828.65   24.06
  -2   4   6  495.88   30.17
  -2  -4   6  692.29   19.90
   2   4   7   52.49    8.08
   2  -4   7   76.71    7.19
   2  -4  -7   48.21    5.25
   2  -4   7   98.09   12.89
   2   4   7   32.02   11.24
   2  -4   7   16.07    5.65
  -2  -4   7  122.02    9.31
  -2   4   7   43.72   12.37
   2  -4  -7   60.52    5.45
  -2  -4  -7   70.73    7.55
   2  -4   8   62.56    7.79
   2  -4   8    9.50    5.29
   2   4   8   28.56    6.72
  -2  -4   8   88.53    9.44
   2  -4  -8   47.23    5.43
   2  -4   8   43.71   10.77
   2  -4   9   37.47   13.60
   2   4   9    4.55    5.52
   2  -4   9   12.10   10.99
  -2  -4   9   19.63   12.43
  -2  -4   9   25.04    9.59
   2  -4   9    0.28    3.79
   2  -4  10  147.21   20.61
  -2  -6   0 2982.36  105.99
   2   6   0 3098.56  106.03
  -2   6  -1   66.02    4.79
   2   6   1   59.67    8.52
  -2  -6  -1   50.61    4.43
   2   6   2   21.30    7.20
   2   6  -2   29.24    7.08
   2  -6   2   22.42    4.38
   2   6   2   25.83    4.17
   2   6   3   58.93    6.37
   2   6  -3   23.94    7.32
   2  -6  -3   29.62    6.03
   2   6   3   50.03   10.26
   2  -6   3   38.55    5.88
  -2  -6  -3   43.15    7.26
  -2  -6   4 1782.40   50.18
   2  -6   4  898.93   53.56
   2   6   4 1913.82   56.70
  -2  -6  -4 1383.15   50.68
   2   6  -4 1213.30   52.78
  -2  -6  -4 1714.82   58.88
  -2  -6  -4 2177.86   55.02
   2   6   4 2421.86   58.47
   2  -6  -4 1573.42   58.04
   2   6  -5   23.31    5.17
   2   6   5   18.21    4.81
   2  -6  -5   29.20    4.90
  -2  -6   5   17.93    3.10
   2  -6  -5   14.20    2.58
   2   6   5   27.49    6.86
   2  -6   5    8.19    3.75
   2  -6  -5   13.77    6.86
   2  -6   5   15.40    2.95
  -2  -6  -5   31.25    6.07
   2  -6  -6   39.98    4.42
  -2  -6  -6   31.38    6.07
   2  -6   6   18.15    4.62
   2  -6  -6   19.68    3.63
   2   6   6   24.20    5.48
   2  -6   6    5.11    3.55
   2   6  -6   13.45    3.55
   2   6   6   27.23    4.69
   2  -6   6   32.94    6.43
   2  -6  -7    0.72    4.08
  -2  -6  -7   12.83    5.20
   2   6   7    4.69    4.66
   2  -6  -7   -6.53    4.87
   2  -6   7    0.96    3.49
  -2  -6  -7    1.23    5.07
   2  -6   7    5.23    6.51
   2  -6   7    6.01    4.59
   2  -6   7    1.21    5.91
   2  -6   8  229.01   11.52
   2  -6   8  218.26   13.72
  -2  -6   8  242.96   10.88
   2  -6   9    6.53    6.71
   2   6   9    4.90    6.42
  -2  -6   9    1.04    8.59
   2  -6   9   -1.21    3.59
   2  -6   9    2.76   13.29
   2  -6  10   39.38   16.87
   2   8   0 4388.11  156.53
  -2  -8   0 4529.59  154.39
  -2  -8  -1   53.44    4.52
   2   8   1   42.42   11.26
   2   8   1   35.35    5.01
   2   8  -2  203.29   14.40
   2   8   2  277.02   17.16
   2   8   2  278.29   13.14
   2  -8   2  158.31   11.63
   2  -8   3   31.28    5.60
   2   8   3   45.33    5.50
   2   8   3   53.91    7.79
   2   8  -3   40.09    6.23
   2   8   4 2441.92   65.10
  -2  -8  -4 2087.50   68.80
  -2  -8  -4 2180.73   61.29
   2  -8  -4 1794.52   67.06
   2   8  -4 1935.99   60.87
   2  -8   4 1602.13   58.57
   2  -8  -4 1748.06   58.45
   2  -8  -5   21.01    8.24
   2   8   5   28.29    8.04
   2   8   5   16.62    5.01
   2  -8   5    5.08    3.69
   2  -8  -5   11.15    3.22
   2   8  -5   15.07    5.40
   2  -8   5   13.71    4.42
  -2  -8  -5   18.68    9.09
  -2  -8  -5   15.63    7.29
  -2  -8   5   15.66    3.51
  -2  -8  -5    9.45    3.85
   2  -8  -6    3.62    3.74
   2   8   6    4.92    4.92
   2  -8   6    0.50    3.11
  -2  -8  -6   12.81    6.86
   2  -8  -6   13.08    5.82
   2   8   6   -1.40    4.73
   2  -8   6   -0.69    4.24
  -2  -8   6   10.78    4.08
   2  -8  -7   -3.96    5.91
   2  -8   7    0.20    6.15
  -2  -8  -7   13.92    7.30
   2   8   7    5.75    5.04
   2  -8   7   -0.27    3.58
   2  -8  -7    9.20    4.96
   2  -8   7    7.45    6.25
   2   8   8  177.93   13.63
  -2  -8   8  219.60   10.43
  -2  -8  -8  208.61   10.50
   2  -8   8  199.99   12.72
   2   8   9    3.43    6.51
   2  -8   9   -0.65    3.86
   2  -8   9    0.41    7.09
  -2  -8   9   -5.65    7.64
   2  -8   9    6.72   10.99
   2  -8  10   10.08    7.17
   2  -8  10    7.29   14.13
   2  10   0 1107.08   35.90
  -2  10   0  945.73   29.17
  -2 -10   1    2.36    3.30
   2  10   1    3.69    2.89
  -2  10   1    2.78    2.92
   2 -10   1    0.25    2.14
   2  10  -2   93.80    9.10
   2  10   2  129.93   11.12
   2  10   2  112.37    9.87
   2 -10   3    0.93    2.96
   2  10   3   -1.66    3.91
   2  10   3    9.71    8.65
   2  10  -3   16.99    7.26
   2 -10   3    5.18    2.78
   2 -10  -3    3.41    2.51
   2 -10   4  138.22   16.46
  -2 -10  -4  524.42   26.30
   2 -10   4  374.93   17.32
   2  10  -4  583.48   20.76
   2  10   4  887.69   28.63
   2 -10  -4  379.52   23.58
   2 -10  -4  418.17   16.91
   2  10   4  629.53   22.65
   2  10   5    7.86    5.25
   2 -10  -5    1.16    3.65
   2 -10   5    5.01    4.47
   2 -10   5    1.45    3.49
   2  10  -5    1.81    4.69
   2  10   5    6.34    6.73
  -2 -10  -5    4.94    7.83
   2 -10  -5    1.94    7.88
  -2 -10  -5    8.28    9.87
  -2 -10  -5   -0.82    3.77
   2  10   6   55.43    7.85
  -2 -10   6   32.94    4.63
   2 -10   6   22.13    5.78
   2 -10  -6   48.30   11.57
  -2 -10  -6   64.85   12.77
   2 -10   6    4.46    4.01
   2 -10  -6   72.22    8.33
   2 -10  -6   37.68    5.65
  -2 -10  -6   87.07   10.93
   2 -10   7   -6.82    7.59
   2  10   7    0.65    5.71
   2 -10   7   -0.29    3.55
   2 -10  -7  -10.35    7.15
   2 -10   7   -6.42    7.61
  -2 -10  -7   19.40    9.83
   2 -10  -7    4.47    6.44
  -2 -10   7    3.15    4.32
   2  10   8   54.15    9.07
   2 -10   8   61.22   10.60
   2 -10  -8   75.09    6.59
   2 -10   8   63.48    8.58
   2  10   9    0.55    7.36
   2 -10   9    0.34    3.98
   2 -10   9    1.00    7.27
   2 -10   9    1.44    9.59
   2 -10  10   36.64   18.89
  -2 -12   0   54.54    4.58
   2 -12   0   73.23    6.10
  -2  12   1  348.99   16.94
   2 -12   1  352.79   15.83
   2 -12   2  349.21   15.29
   2  12   2  351.67   19.14
   2 -12   2   93.08   14.90
   2  12  -2  638.10   23.03
   2  12   2  772.38   27.71
   2 -12  -2  345.27   15.03
   2  12   3  276.07   13.66
   2  12   3  520.86   23.15
   2 -12   3   84.95   10.39
   2  12  -3  374.99   17.15
   2 -12   3  228.93   12.89
   2 -12  -3  221.06   11.73
   2 -12   4    7.54    4.51
   2 -12  -4   54.69    7.01
  -2 -12  -4   79.07   14.85
   2 -12  -4   34.08   10.71
   2 -12   4   60.59    7.61
   2  12  -4   83.22    9.04
   2  12   4  118.77   11.82
   2  12   4   62.88    6.52
  -2 -12  -5  119.12   16.58
   2 -12  -5   83.69   14.21
   2 -12   5   12.42    5.83
   2  12   5  129.39   10.93
   2 -12  -5  103.09    8.84
   2  12  -5  104.04    8.36
   2  12   5  177.26   12.26
   2 -12   5   88.32    9.69
   2  12   6  131.20   10.81
   2 -12  -6  116.05   15.82
  -2 -12  -6  148.87   18.23
   2 -12   6   10.25    5.61
  -2 -12  -6  173.83   15.99
  -2 -12   6   94.97    7.47
   2 -12   6   34.43    7.94
   2 -12  -6   72.88    8.00
   2 -12   7    6.87    8.87
   2 -12  -7    5.24    8.95
   2 -12   7    4.78    4.66
   2  12   7   30.16    7.63
   2 -12  -7   35.07    8.89
  -2 -12   7   25.31    5.72
   2 -12   8   10.00    8.16
  -2 -12   8   14.32    5.77
   2 -12   8    1.09    4.63
   2 -12  -8   36.51    9.95
   2  12   8   17.71    8.03
   2 -12  -8   49.77   10.43
   2 -12   9   -1.52    4.59
   2 -12   9    2.90    7.85
   2  12   9    9.53    8.14
   2 -12   9   -8.52   10.12
   2 -14   0   70.20    7.75
   2  14   0  123.13   14.30
  -2 -14   1  152.40   10.53
   2 -14   1  173.01   11.72
  -2  14   1  177.66    7.38
   2 -14   2   18.27    5.78
   2  14  -2  259.28   16.25
   2  14   2   88.23    7.12
   2 -14   2  150.63   11.28
   2 -14  -2  140.41   10.65
   2  14   2  336.77   20.26
  -2  14   2  218.78    9.93
   2 -14   3   25.19    8.40
   2 -14   3   99.76    9.89
   2 -14  -3  104.21    9.57
   2  14  -3  153.06   11.52
   2  14   3  203.19   15.11
   2  14   3  118.70   11.97
   2  14   4   67.97    7.04
   2 -14   4   39.43    7.67
   2  14   4   91.02   11.81
   2 -14  -4   51.54    7.73
   2  14  -4   62.55    8.45
   2 -14   4    8.09    4.51
   2  14   5   38.20    6.57
   2 -14  -5   24.40   12.60
   2 -14   5    4.98    4.33
   2 -14  -5   35.16    6.69
   2 -14   5   19.04    6.44
  -2 -14  -5   43.67   14.98
   2 -14   6    2.93    8.18
   2 -14   6    6.54    5.56
   2 -14  -6   19.43    6.55
  -2 -14   7    6.71    5.47
   2  14   7   10.43    7.85
   2 -14   7    1.09    4.69
   2 -14   7    5.11    9.03
   2 -14  -7   -3.24   10.44
   2 -14  -7    5.47    9.68
   2 -14   8   19.26    9.10
   2  14   8   15.12    8.82
   2 -14   8   -1.11    5.24
   2 -14   9    3.24    7.72
   2  14   9   -2.77    9.56
   2 -14   9   -1.55    5.18
   2  16   0   32.29   10.54
   2 -16   0   22.29    6.74
   2 -16   1    2.54    5.29
   2  16   1   -1.79    9.68
  -2  16   2   99.12    8.10
   2 -16   2   96.29   10.68
   2 -16  -2   93.72   10.18
  -2 -16   2   82.07    7.85
   2 -16   3    3.71    6.35
   2 -16  -3    3.44    5.87
   2  16   3    1.69    4.87
   2  16  -3   -5.61    7.88
   2  16   3   -7.06    9.86
   2 -16   3    0.33    5.94
   2 -16   4    3.08    5.01
   2 -16  -4    9.68    6.72
   2 -16   4    0.81    5.84
   2  16  -4  -10.08    8.75
   2  16   4   18.39    8.29
   2 -16   5   -4.12    6.55
   2 -16  -5    5.26    5.78
   2 -16   5   -1.31    4.27
   2  16   5    7.49    5.33
   2 -16  -6   -5.14   10.31
   2 -16   6    1.60    4.30
   2 -16   6    5.82   10.85
   2  16   6   19.84    7.28
   2  16   7   -5.16    6.70
   2 -16   7   -0.93    4.20
   2 -16   7   -1.33    9.34
   2 -16  -7  -13.50   10.40
   2 -16  -7    5.10   11.02
   2 -16   8   -1.69    5.13
   2 -16   8   16.90    9.43
   2  16   8    2.70    7.55
   2  16   9   -2.21    8.23
   2 -18   0   -3.07    6.96
   2 -18   1   15.92    7.49
   2  18   1   24.13   10.71
   2 -18   2   88.30   11.08
   2 -18  -2   99.79   11.88
   2  18   2  220.29   16.82
   2  18  -2  189.78   14.11
  -2 -18   3    5.29    5.00
   2 -18   3    5.41    5.80
   2 -18   3    5.83    3.86
   2 -18  -3   10.77    6.06
  -2  18   3    8.80    4.49
   2 -18   4   -7.35    7.31
   2 -18   4   -1.57    6.70
   2  18   4   -6.88    8.22
   2 -18  -4   -4.12    6.77
   2 -18  -5   -1.01    8.27
   2 -18   5    2.35    5.02
   2  18   5    0.81    8.39
   2 -18   5   -3.92   10.25
   2 -18   6   -1.69   12.45
   2  18   6   36.97    8.39
   2 -18   6    3.79    4.65
   2 -18  -6   10.84   13.11
   2 -18   7    3.18   11.37
   2  18   7   -0.40    6.67
   2 -18  -7   28.98   12.54
   2 -20   0   -1.88    6.07
   2 -20   1    0.24    6.26
   2 -20   2   16.23    7.77
   2 -20  -2   21.59    8.07
   2 -20  -3    5.89    6.81
   2 -20   3   -1.36    7.05
   2 -20  -4    7.01    8.93
  -2  20   4    3.02    2.76
   2  20   5   -6.49    9.59
   2 -20   5  -18.89   14.36
   2 -20  -5  -17.19   13.71
   2 -20   6   -8.35   12.18
   2 -20  -6   -0.35   13.99
   2 -20  -7   35.81   14.86
   2 -22   0   19.09    8.60
   2 -22   1   -1.12    7.39
   2 -22   2   -5.90    9.57
   2 -22  -2   -7.14    9.76
   2 -22   3  -12.92   12.95
   2 -22  -4   -1.89   14.23
   2 -22   4   -9.66   15.00
   2 -22   5   -8.55   13.55
   2 -22  -5  -18.54   16.75
  -3  -1   0 1558.75   44.85
  -3  -1   0 1647.48   51.91
  -3  -1  -1   89.05    7.53
  -3  -1  -1   62.60    3.93
   3  -1   1    7.31    5.89
   3  -1  -1   51.73    3.30
  -3  -1   1   45.17    2.90
   3   1   1  105.69    4.11
   3   1   2  257.82   10.50
  -3  -1  -2  192.61    7.59
  -3   1   2  298.79   11.35
  -3  -1  -2  338.50   13.37
  -3  -1   2  125.52    6.15
   3  -1   2  243.55   15.24
   3  -1   3   93.77    9.60
   3   1  -3  131.81    4.38
  -3   1   3  121.97    9.06
   3  -1   3   88.38    8.11
   3   1   3   57.71    7.65
   3   1   3  103.50    8.15
   3   1   4 1421.48   42.22
   3  -1   4 1290.34   52.30
  -3   1   4 1160.83   47.84
   3  -1   4 1307.00   42.36
   3  -1   4 1227.43   43.95
   3   1  -4 1277.72   40.08
   3   1  -5   57.00    3.97
   3   1   5   42.30    8.01
   3  -1  -5   43.20    3.36
  -3   1   5   34.33    8.11
   3  -1   5   31.42    7.12
  -3  -1   5   44.51    8.04
   3  -1   5   32.27    7.44
   3   1   5   78.75   12.36
   3  -1   5   26.28    6.94
   3   1   5   61.65    5.62
   3  -1   5   47.06    5.32
   3  -1  -6  140.27    6.79
  -3  -1   6  123.49   14.48
   3   1   6   96.88   12.81
   3  -1   6   96.04   11.92
   3  -1   6   91.30   11.36
   3  -1   6  138.96   12.50
  -3   1   6  110.50   14.39
   3   1   7   37.72   11.03
   3  -1  -7   17.46    4.91
   3  -1   7    5.91    5.49
   3   1   7    8.66    8.72
  -3  -1   7   19.53   10.14
   3  -1   7   11.04    8.44
   3  -1   7   13.00    5.64
   3  -1   7   12.12    4.76
   3   1   7    6.42    3.25
  -3   1   7    9.99    9.58
   3  -1   7   19.75   11.68
   3   1  -7   14.94    5.51
   3  -1   8   72.43   10.75
  -3   1   8  105.69   18.51
   3  -1   8   95.14   15.29
  -3  -1   8  109.66   17.70
   3   1   8   92.76   16.44
   3   1   9    1.45   10.76
  -3   1   9    8.13   12.67
  -3  -1   9    4.48   12.63
   3  -1   9    7.19   13.81
   3  -1   9    1.85    5.84
   3  -1   9    5.45   11.53
  -3  -3   0  479.36   22.20
  -3  -3  -1   13.66    3.74
  -3  -3  -1   17.00    4.48
   3  -3   2 1213.13   54.06
   3  -3  -2 1576.75   48.00
  -3  -3  -2 1001.20   44.90
  -3  -3  -2 1689.68   48.68
  -3  -3  -2 1659.65   49.67
  -3  -3  -2 1683.31   45.79
   3  -3   3   16.98    3.82
  -3  -3  -3   28.89    4.12
   3  -3   3   27.43    5.63
  -3  -3  -4  232.45   10.94
   3  -3   4  256.79   17.64
   3  -3   4  157.26    9.96
  -3   3   4  223.29   15.65
   3   3   4  175.85   13.85
   3  -3   4  318.65   11.93
   3   3   5   16.54    6.30
   3  -3   5    9.83    5.60
  -3  -3  -5    7.55    4.16
   3  -3   5   14.05    5.78
  -3   3   5    6.37    6.48
   3   3   5    8.91    6.41
  -3  -3  -5   22.85    5.20
   3  -3   5   19.74    4.84
   3  -3   6  254.57   21.84
   3  -3   6  526.51   18.75
   3   3   6  261.59   21.91
   3  -3  -6  400.57   15.47
  -3   3   6  333.34   24.32
   3   3  -6  484.94   19.61
   3   3   6  466.59   22.23
  -3  -3   6  493.28   16.05
   3  -3   6  502.65   22.29
   3   3   6  405.26   24.01
  -3   3   7    9.30   10.09
   3   3   7    6.59    6.39
   3  -3   7    5.08    5.23
   3   3  -7   15.41    3.40
   3  -3   7    6.87    2.10
   3  -3  -7    3.75    3.87
   3  -3   7    5.19    9.02
   3   3   7    1.93    8.37
   3  -3   7   14.19    5.96
  -3  -3   7    8.13    9.12
  -3  -3   7   12.40    6.86
   3   3   7    2.90    4.29
   3  -3  -8   72.06    6.49
   3  -3   8   34.93   11.33
   3   3   8   42.08    9.33
   3  -3   8   23.05    7.51
  -3   3   8   23.27   13.65
   3   3   8   28.28   12.67
  -3  -3   8   41.36   13.52
   3  -3   8   85.93    8.86
   3  -3   8   84.07   15.48
   3   3   9   12.23    8.38
  -3  -3   9    1.09   12.01
   3  -3   9   -0.38    5.65
   3  -3   9    4.30   10.45
   3  -3  -9   21.66    6.56
   3  -3   9   13.98   19.39
   3  -3  10   94.23   18.40
  -3  -5   0  471.59   15.25
  -3  -5   0  440.79   21.86
  -3   5   0  426.42   21.69
  -3   5  -1  220.56    9.53
  -3  -5  -1  211.68    5.97
   3  -5   2  743.20   39.83
  -3  -5  -2 1087.25   34.28
  -3  -5  -2  886.49   28.88
   3   5   2 1087.69   42.34
  -3  -5  -2  947.67   34.10
  -3   5  -2 1193.86   33.01
  -3  -5  -2  664.60   29.86
   3  -5  -2  778.31   32.95
   3  -5   3  131.35   11.73
   3  -5  -3  170.44   11.36
  -3  -5  -3  190.95   11.98
  -3  -5  -3  152.25    7.68
   3   5   3  183.90   12.30
   3   5   4  316.06   16.92
   3  -5   4  215.20   16.13
  -3  -5  -4  218.97   10.87
   3   5   4  253.64   16.54
  -3  -5  -4  287.30   16.17
   3  -5  -4  259.60   15.14
   3  -5   5   70.54    7.27
   3  -5   5   59.26    6.79
   3   5   5   69.21    9.54
   3  -5   5   41.55    8.58
   3   5   5   68.54   11.27
   3   5  -5   67.30    9.37
   3  -5  -5   76.37    3.89
  -3  -5  -5   52.49    5.64
  -3  -5  -5   48.68    6.82
   3  -5   6  379.93   15.20
   3   5   6  300.31   18.92
   3   5  -6  362.71   16.12
  -3  -5  -6  270.22   12.57
   3  -5   6  261.89   13.59
   3   5   6  286.93   15.33
   3  -5   7    7.95    3.54
   3   5   7   11.96    5.33
   3  -5   7   12.84    6.43
   3  -5  -7   17.31    4.25
   3   5  -7   12.57    4.23
   3   5   7   13.19    7.69
   3  -5   7    5.75    6.04
   3  -5  -7    9.48    2.64
  -3  -5   7   15.14    4.34
   3  -5   7   19.40    8.96
   3  -5  -8   29.35    5.50
   3  -5  -8   67.84    6.26
  -3  -5   8   68.52    7.99
   3   5   8   45.35   10.13
   3  -5   8   18.28    7.67
   3  -5   8   91.77    8.72
   3  -5   8   88.74   15.07
   3   5   9    3.87    8.07
   3  -5   9    0.85    5.38
  -3  -5   9    7.59   11.79
   3  -5   9    2.64   10.14
   3  -5   9    1.68    6.96
   3  -5   9   11.26   14.68
   3  -5  10   79.34   20.24
  -3  -7   0 1345.35   47.17
  -3   7   0 1299.71   44.98
  -3   7   1  115.31    8.56
   3  -7   1    2.15    3.24
  -3   7  -1   75.13    5.59
  -3  -7  -1   52.06    5.12
   3   7   1   73.33    9.78
   3   7   1   43.83    6.45
   3  -7   2   97.89   12.42
  -3  -7  -2  173.74    9.67
  -3   7  -2  240.14    9.78
   3   7   2  199.20   16.30
   3   7   2  165.02   13.74
   3   7  -2  147.27   12.08
  -3  -7  -2  125.42    6.61
   3   7   3   52.35    7.08
  -3  -7  -3   45.20    7.99
  -3  -7  -3   31.90    3.94
   3  -7   3   29.24    6.33
   3  -7  -3   25.90    6.40
   3   7   3   58.05   11.48
   3   7  -3   62.90   10.28
   3   7   4  624.09   25.29
  -3  -7   4  483.75   17.09
   3  -7   4  363.32   24.29
  -3  -7  -4  570.15   20.01
   3   7  -4  457.95   24.22
   3   7   4  570.43   29.54
  -3  -7  -4  694.82   24.00
   3  -7  -4  603.30   26.69
  -3  -7  -4  670.84   27.18
   3   7   5   36.27   11.14
  -3  -7  -5   21.23    4.81
   3   7   5   34.18    7.88
   3  -7   5   15.53    6.85
   3  -7  -5   43.57    8.53
   3  -7  -5   36.63    5.20
  -3  -7  -5   30.45    9.06
  -3  -7  -5   24.53    6.29
   3   7  -5   15.69    9.42
   3  -7   6   87.26    8.96
   3   7   6   81.84   10.83
  -3  -7  -6   52.64    6.18
   3  -7   6   17.24    6.65
   3   7   6  110.81   11.50
   3  -7  -6  128.89    7.59
  -3  -7  -6  107.74   11.70
   3   7  -6   66.11    6.36
   3  -7   6   54.31    4.83
   3  -7   7    8.15    6.48
   3   7   7    7.27    7.09
   3  -7   7    1.11    4.84
   3  -7   7    0.95    3.81
   3  -7  -7    0.82    3.46
   3   7  -7    2.28    4.29
   3  -7   7   12.22    7.81
  -3  -7  -7    2.18    6.28
   3   7   7    5.19    5.21
   3  -7  -8   86.89    6.86
   3  -7   8  121.62   10.32
   3   7   8   88.02   12.22
  -3  -7   8   98.64    7.31
   3  -7   8  107.96   13.44
   3  -7   9    8.46    7.97
   3   7   9    1.36    8.30
   3  -7   9   -0.82    4.90
   3  -7   9   10.18   15.49
   3  -7  10   32.74   18.23
  -3  -9   0  456.68   22.62
  -3   9   0  417.59   18.98
   3   9   1   52.22   11.46
  -3  -9  -1   48.16    4.86
  -3   9  -1   74.80    5.24
  -3   9   1   61.09    6.10
  -3  -9   1   54.60    6.64
   3   9   1   44.58    6.23
   3   9   2  324.56   21.06
  -3  -9  -2  285.76   12.32
   3   9   2  288.26   20.92
   3  -9   3   17.91    6.00
   3   9  -3   18.15   11.41
   3   9   3   33.34   14.06
   3   9   3   45.74    8.09
   3   9   4  237.99   14.42
   3  -9  -4  218.85   17.16
  -3  -9  -4  296.22   19.13
   3  -9   4  100.77   12.44
   3   9  -4  164.52   14.99
   3   9   4  307.57   19.00
  -3  -9  -4  166.04    9.31
  -3  -9  -4  264.20   13.89
   3  -9  -5   22.64    8.68
  -3  -9  -5   16.71    4.41
   3   9   5   51.38    9.73
   3   9   5   22.67    6.59
   3  -9   5    4.31    4.74
  -3  -9  -5   21.85   10.17
   3   9  -5   37.46    6.48
  -3  -9  -5   31.63    9.00
  -3  -9   5   18.10    3.24
   3   9   6  110.70   12.28
  -3  -9  -6   69.60    7.14
   3  -9   6   15.87    7.38
   3  -9  -6   98.06   12.73
  -3  -9  -6   96.81   14.17
  -3  -9  -6  116.06   10.74
   3  -9  -6  123.48    8.64
   3   9  -6   73.17    8.49
   3   9   6  154.22   13.52
   3  -9   6   66.88    6.29
   3  -9  -6   72.43    6.10
   3  -9   7    4.95    7.61
   3   9   7    1.23    7.84
   3  -9   7   -1.23    4.92
   3  -9  -7    3.80    4.29
   3  -9  -7    9.97    5.38
   3   9  -7   -2.00    4.44
   3   9   7    6.73    5.75
   3  -9   7    0.97    4.88
   3  -9   8   49.80    8.49
   3   9   8   38.31   11.03
   3  -9   8    9.13    6.04
   3  -9   8   44.76   10.50
   3  -9  -8   13.17    6.86
   3  -9   9   -3.38    8.04
   3   9   9   -2.56    9.20
   3  -9   9   -0.45    5.47
   3  -9   9    4.25   12.64
  -3  11   0   19.43    3.80
   3  11   0    8.12   12.16
  -3 -11   0   21.83    4.94
  -3 -11   1    3.65    4.55
  -3  11   1   -0.93    3.93
  -3 -11  -1    3.16    2.76
  -3  11  -1    7.48    2.93
   3  11  -2  521.20   22.97
   3  11   2  385.42   17.26
   3  11  -3   21.41    7.96
   3  11   3    5.29    7.42
   3  11   3   23.94    9.86
   3 -11   3    2.79    6.50
   3  11   4   24.10    6.19
   3  11   4   39.03   10.74
   3  11  -4   21.76    6.76
   3 -11   4   10.33    5.10
  -3 -11  -4   23.62   10.97
   3 -11  -4    6.60    8.34
   3 -11   4   14.41    3.67
   3  11   5   -4.58    6.45
  -3 -11  -5  -10.25   10.84
   3  11  -5   -0.93    7.76
   3  11   5  -12.03   10.78
   3 -11  -5   -2.07    8.78
   3 -11   5    0.61    3.65
   3 -11   5    1.02    3.49
   3 -11  -5    1.05    3.11
  -3 -11  -5   -1.64   10.86
  -3 -11  -5   -3.13    4.84
   3  11   6  162.81   13.11
  -3 -11   6  121.22    7.20
   3 -11   6   17.97    7.43
   3 -11  -6  176.19   17.50
  -3 -11  -6  192.88   19.38
  -3 -11  -6  246.05   15.82
   3 -11   6  109.71    9.79
   3 -11  -6  140.39   10.17
   3  11  -6  191.56   12.51
   3  11   6  241.19   15.52
   3 -11  -7    2.19    4.57
   3  11   7   -7.76    7.86
   3 -11   7   -3.06    4.77
   3 -11   7    0.41    4.93
   3 -11  -7    4.52    7.10
   3 -11   8   12.73    8.41
   3 -11   8   -0.93    5.51
   3 -11  -8  -11.23    8.31
   3 -11   8    1.55   10.62
   3  11   8   11.43    9.19
   3 -11   9   -0.97    6.34
   3 -11   9   -1.88    8.55
   3  11   9   -3.02    9.32
   3 -11   9   -3.70   11.10
  -3  13   0  100.63    5.71
   3  13   0  126.75   13.24
  -3  13   1   21.03    6.66
  -3 -13   1   18.39    7.88
  -3 -13  -1   12.69    2.82
   3  13   2  118.63    9.29
   3  13  -2  199.28   12.98
   3  13   2  259.12   15.92
   3 -13   2  147.65    8.69
  -3  13   2  230.22   11.97
   3 -13   3    5.50    7.10
   3  13   3   29.67   12.98
   3  13   3    6.11    9.15
   3  13  -3   25.75   10.10
   3 -13   3   13.19    3.84
   3 -13  -3   10.02    3.84
   3 -13   4   47.39    6.01
   3 -13   4    6.86    5.76
   3 -13  -4   23.97   10.93
  -3 -13  -4   59.90   14.97
   3  13  -4   80.65   11.03
   3  13   4   92.70   14.40
   3  13   4   71.30   10.53
   3 -13  -4   38.07    5.28
   3 -13   5   -0.34    4.64
  -3 -13  -5   -4.00    5.17
   3 -13  -5   -0.42   11.28
   3  13   5   13.37    6.19
  -3 -13  -5    8.30   13.48
   3 -13   5    5.61    5.37
   3  13  -5    3.28    8.62
   3 -13  -5    5.00    5.22
   3  13   5    7.13   12.28
  -3 -13   6   32.80    5.45
   3  13   6   42.66    9.22
   3 -13   6    4.25    5.18
   3 -13   6   30.11    7.34
   3 -13  -6   40.07    7.17
   3  13  -6   40.47    7.37
   3  13   6   69.63   11.62
   3 -13   7   -3.05    5.60
   3 -13   7    1.12    5.17
   3 -13  -7    1.12    4.65
   3  13   7   -2.82    7.34
   3 -13  -7    4.98   11.31
   3 -13  -8  -15.64   10.64
   3 -13   8    0.79    5.22
   3  13   8    3.79    8.07
   3  13   9   -3.55    8.77
   3 -13   9   -2.46    5.62
  -3 -15   0   94.55    7.12
   3 -15   0  143.80    9.96
  -3 -15   1    5.55    5.60
  -3  15   1    7.35    2.89
   3 -15   1    4.40    3.77
  -3  15   2   13.38    5.03
  -3 -15   2    6.28    5.65
   3  15  -2   21.54   10.96
   3  15   2   27.57   13.33
   3 -15   2    9.02    4.03
   3 -15  -2    9.66    4.12
   3  15   3   -1.31    6.05
   3 -15   3    1.11    5.67
   3  15  -3    3.32    9.05
   3  15   3   -0.29   12.23
   3 -15   3    2.42    3.94
   3 -15  -3   -0.15    4.01
   3  15   4   92.55   14.54
   3 -15   4   79.32    9.50
   3 -15  -4   86.62    9.58
   3  15  -4  130.67   13.80
   3  15   4  193.47   20.15
   3 -15   4   12.02    8.52
   3  15   5    2.27    8.39
   3 -15   5    3.54    5.77
   3 -15  -5   -0.37    5.63
   3 -15   5   -1.55    4.79
   3 -15   6    2.29    4.96
   3  15   6   10.14    6.91
   3 -15   6    1.81    4.70
   3 -15  -6    4.29    5.72
   3  15  -6  -10.52    7.09
   3 -15   7  -10.95    8.80
   3 -15  -7    4.50    5.85
   3  15   7   -5.75    8.29
   3 -15   7   -0.76    5.20
   3 -15  -7   -0.62    9.73
   3 -15   8    0.39    5.50
   3  15   8    0.81    9.13
   3 -15  -8  -12.54   11.94
   3  15   9   -6.10   10.11
   3  17   0   62.67   14.43
   3 -17   0   36.50    6.95
  -3  17   1   22.79    2.64
  -3 -17   1    6.50    2.36
   3  17   1   24.97   14.11
   3 -17   1   15.15    6.34
  -3 -17   2   23.17    9.26
  -3  17   2   17.35    5.58
   3 -17   2   20.17    6.99
   3  17  -2   25.00   12.52
   3 -17  -2   23.64    7.12
   3  17   2   45.50   15.61
   3 -17   3   -0.42    3.59
  -3  17   3   15.92    5.46
   3  17   3   16.90    6.24
  -3 -17   3   12.00    6.88
   3 -17   3   14.89    6.49
   3 -17  -3   11.71    6.52
   3  17  -3    7.57    9.87
   3  17   3   19.82   11.87
   3  17   4    7.99    7.92
   3 -17   4    1.52    7.20
   3 -17   4   11.69    6.93
   3 -17  -4   16.07    7.36
   3  17  -4    6.30    8.72
   3  17   4   18.24   11.98
   3 -17   5    2.08    6.05
   3  17   5   -3.46   11.33
   3 -17   5    0.53    7.19
   3 -17  -5   12.97    7.36
   3 -17  -6    3.93    6.17
   3  17   6   18.55   11.69
   3 -17   6    2.18    6.05
   3 -17   6    1.61    6.06
   3 -17   7   -0.40    5.10
   3 -17   7   -3.77   10.80
   3  17   7   10.47    8.83
   3  17   8    9.98    8.63
   3 -19   0    4.23    6.31
   3 -19   1   -0.71    5.88
  -3 -19   2   14.82    2.65
   3 -19   2   23.53    7.88
   3 -19  -2   20.73    7.82
  -3  19   3   -3.79    6.98
   3 -19   3   -1.08    6.97
   3 -19  -3    0.98    6.86
   3  19   4    5.61    6.09
  -3  19   4   12.57    6.27
   3 -19   4   -0.74    6.43
   3 -19  -4   -1.52    7.49
   3  19   5   -6.19   10.11
   3 -19   5   -1.50    6.33
   3 -19  -5    1.88    6.04
   3 -19  -6    4.07    8.90
   3 -19   6   -4.72   10.39
   3  19   6   -1.30   14.09
   3 -19  -7  -11.38   14.53
   3 -21   0   10.16    8.08
   3 -21   1    4.84    7.84
   3 -21   2   -0.26    6.95
   3 -21  -2   -4.74    8.17
   3 -21   3    6.47    6.30
   3 -21  -3    6.33    6.53
   3 -21   4    6.45    7.08
   3 -21  -4    3.39    7.30
   3 -21  -5    7.33    9.04
   3 -21   6  -14.02   14.11
  -4   0   0 4369.01  100.58
   4   0   0 2477.06   87.34
   4   0   1    0.31    3.64
  -4   0  -1   -5.25    6.09
   4   0   1   -3.87    4.18
   4   0   2  269.25   10.17
  -4   0   2  265.29   11.86
   4   0   2  207.15   10.40
  -4   0  -2  199.61   12.00
  -4   0   3    2.35    4.15
   4   0   3   -0.27    3.27
   4   0   3    5.03    5.73
  -4   0  -3    3.30    3.44
   4   0   4 1846.13   69.27
   4   0   4 1970.46   64.43
   4   0   5    3.63    4.71
   4   0   5    2.24    5.21
  -4   0   5   -1.58    6.69
   4   0   5   -1.92    5.91
   4   0  -5    1.05    2.25
   4   0   5    1.64    8.40
   4   0   6   17.34    5.61
   4   0   6    6.66    6.56
  -4   0   6    7.27    8.79
   4   0  -6   13.90    3.58
   4   0   6    2.24   13.91
   4   0   6    7.28    7.33
   4   0   7   -3.98   12.36
   4   0   7   -1.69    7.29
  -4   0   7   -1.25   10.27
   4   0   7    0.36    8.61
   4   0   8  148.60   19.74
   4   0   8  154.89   18.73
  -4   0   9   -3.89   13.59
   4   0   9    1.95   11.45
   4   2   0 1999.67   48.95
   4  -2   0 1227.56   48.99
  -4  -2   0 1417.89   50.30
  -4  -2   0 1839.63   60.27
   4   2  -1   49.90    2.31
   4   2   1   78.99    3.82
   4  -2   1    0.95    3.73
  -4  -2   1   97.39    9.54
   4  -2   1   39.92    3.69
   4  -2  -1   43.04    3.36
  -4  -2  -1   53.94    5.81
  -4  -2   1   36.63    4.08
  -4  -2  -1   67.53    8.83
  -4  -2  -2   34.63    4.96
   4   2   2   49.20    3.71
   4  -2   2   10.34    8.19
  -4  -2  -2   33.31    4.74
  -4  -2   2   20.20    3.38
   4  -2  -2   10.19    2.71
   4  -2   3   48.30    9.58
   4   2   3   61.92    4.29
  -4  -2  -3   39.07    4.57
   4   2   3   32.55    7.00
  -4  -2   3   24.12    2.91
  -4  -2  -3   56.90    6.21
   4  -2   4  752.90   36.57
   4   2   4  742.65   32.30
   4  -2   4  798.90   31.79
   4   2   4  661.77   29.29
   4   2   5    6.85    5.53
   4  -2   5   18.19    4.93
   4   2   5   24.47    8.88
   4  -2   5   16.67    8.87
  -4   2   5   13.99    7.84
   4  -2   5    5.68    5.81
   4  -2  -6   43.77    3.83
   4  -2   6   28.84    8.10
   4  -2   6   49.17    6.78
   4  -2   6   30.88    8.49
   4   2   6   17.51    7.79
  -4  -2   6   43.02   10.12
   4  -2   6   33.44    8.59
  -4   2   6   39.32   11.13
   4   2   7   -0.37    8.29
   4  -2  -7    4.23    3.95
   4  -2   7    3.24    6.23
   4  -2   7   -0.88    6.52
  -4  -2   7    6.02   10.68
  -4   2   7   -4.96   10.59
   4  -2   7    3.32   12.09
   4   2   7   14.88    9.09
   4  -2   7   11.48    9.44
  -4   2   8  109.04   19.27
   4  -2   8  224.22   12.14
  -4  -2   8  113.83   17.83
   4  -2   8   85.78   15.00
   4   2  -8   95.81    7.64
   4  -2   8   60.99   13.16
   4   2   8   72.71   16.13
   4  -2  -8  203.78    9.24
   4  -2   9   -2.45   16.89
   4  -2   9    0.52    7.81
  -4   2   9    3.52   14.37
  -4  -2   9   -8.97   13.82
   4   2   9    5.10   12.02
   4  -2   9   -0.48   11.01
  -4  -4   0  184.92   13.68
  -4   4   0  162.28   13.14
  -4   4  -1  925.30   25.07
   4   4   1  372.70   19.18
  -4  -4  -1  875.69   25.60
  -4  -4  -1  614.80   16.97
  -4  -4   1 1053.49   28.18
  -4   4   1 1137.62   28.19
  -4  -4  -2  909.84   34.28
  -4   4  -2 1119.38   35.09
  -4  -4  -2 1083.15   33.70
   4  -4  -2  996.88   33.26
  -4  -4  -2  993.27   30.96
  -4  -4  -2  800.40   31.41
   4   4   2  728.63   44.07
  -4  -4  -3  531.35   19.51
   4   4   3  525.66   30.44
   4  -4   3  417.09   30.21
  -4  -4  -3  512.71   21.81
  -4   4  -3  588.14   21.66
  -4  -4  -3  432.37   20.12
   4   4   4  143.25   13.07
  -4  -4  -4  168.64    9.73
   4  -4   5  144.10   15.35
  -4  -4  -5  194.17   10.49
   4  -4   5  143.99   10.91
   4   4   5  207.37   16.31
   4   4   6  266.70   19.23
   4  -4   6  167.87   17.08
   4  -4   6  295.50   13.18
   4   4  -6  280.65   15.19
   4   4   6  304.99   19.38
  -4  -4  -6  324.90   13.49
  -4  -4   6  214.66   10.24
   4  -4   6  356.58   19.75
   4   4  -7   49.34    9.49
   4  -4   7   64.07    8.22
   4   4   7   15.16   10.96
   4   4   7   38.45    9.96
   4  -4   7   21.53    8.58
   4  -4  -7   53.64    5.02
   4  -4   7   55.24   13.35
   4  -4   8   15.34   10.83
   4  -4  -8   48.38    6.09
   4  -4   8   53.37    8.74
   4   4   8   23.26    9.91
   4  -4   8   13.32    8.14
   4  -4   8   14.72    3.43
   4   4  -8   43.24    5.62
  -4  -4   8   21.09   12.91
   4  -4  -8   16.21    2.97
   4  -4   8   39.21   14.83
   4  -4  -9   23.77    6.97
   4  -4   9   11.58    7.99
   4   4   9    6.50    9.33
   4  -4   9    3.47    6.57
  -4  -4   9   13.12   14.68
   4  -4   9   18.71   12.48
   4  -4   9   25.50   16.98
  -4   6   0   58.01    9.95
  -4  -6   0   72.09   11.55
  -4  -6   0   60.15    3.96
  -4  -6   1  619.78   11.00
  -4   6  -1  658.00   19.52
  -4  -6  -1  687.32   13.76
  -4  -6  -1  669.84   22.01
  -4  -6   1  772.10   25.10
  -4   6   1  783.22   23.98
  -4  -6  -2 1127.66   35.31
  -4   6  -2 1377.09   34.82
  -4  -6  -2  869.18   27.73
   4   6   2  722.58   41.23
  -4  -6  -2 1215.85   35.34
  -4  -6  -2  710.28   29.56
   4  -6   2  161.58   30.63
   4  -6  -2  837.20   32.90
   4   6   3  496.69   29.85
   4  -6   3  319.60   27.81
  -4  -6  -3  387.45   15.75
  -4  -6  -3  388.41   18.27
  -4   6  -3  478.18   18.05
   4  -6  -3  433.55   20.63
  -4  -6  -3  522.33   21.79
  -4  -6  -3  386.19   18.21
   4   6   4   77.02   10.34
   4  -6   4   49.07    9.14
  -4  -6  -4   76.08    6.61
   4  -6  -4   69.76    8.46
  -4  -6  -4   99.31   10.76
   4  -6   5   95.47   13.14
   4   6   5  161.37   14.39
   4   6  -5  201.73   13.83
   4   6   5  193.38   17.73
   4  -6  -5  137.11    6.66
   4  -6   5  160.03   10.80
  -4  -6  -5  263.52   14.88
  -4  -6  -5  200.95   10.97
  -4  -6  -6  253.84   13.13
   4   6   6  201.02   16.19
   4  -6   6   95.62   13.64
   4  -6   6  314.02   14.62
   4   6  -6  257.10   16.09
   4   6   6  213.09   20.65
   4  -6   6  165.58   12.41
  -4  -6  -6  234.74   12.12
   4  -6   7   61.43    8.12
   4   6   7   41.08    9.87
   4  -6   7   16.86    7.56
  -4  -6   7   27.04    4.06
   4   6  -7   66.25    8.01
   4   6   7   48.70    8.49
   4  -6   7   37.36   11.29
   4  -6   8   33.41    8.37
   4   6   8   19.89    9.66
   4  -6   8    5.06    6.46
   4  -6  -8   24.07    5.12
   4  -6  -8   13.62    4.13
   4  -6   8   33.51   16.91
   4   6  -8   22.40    5.64
   4  -6   9   11.97    8.65
  -4  -6   9   17.37   13.57
   4   6   9    8.25    9.01
   4  -6   9    3.82    6.33
   4  -6   9   25.63   16.43
   4  -6   9    9.91   11.31
  -4   8   0   48.03    9.25
  -4  -8   0   32.86    2.94
  -4  -8   0   61.84   11.34
   4   8   1    8.95    5.38
   4  -8   1    0.28    3.06
  -4  -8   1    0.21    4.49
  -4   8   1    0.93    3.94
  -4  -8  -1   -0.50    3.76
  -4  -8  -1    2.53    2.51
  -4   8  -1   -1.13    3.64
  -4  -8  -2  647.26   20.95
  -4  -8  -2  486.60   14.42
   4   8  -2  512.05   21.91
   4   8   2  595.63   24.23
   4   8   2  442.87   24.63
   4  -8  -3   -0.44    5.72
  -4  -8  -3    6.36    7.54
   4  -8   3   -1.70    6.51
  -4  -8  -3    4.13    3.51
   4   8  -3   32.91   10.47
   4   8   3   31.64   12.14
   4   8   3    3.67    8.66
  -4  -8  -3   -3.44    7.99
  -4  -8  -4   34.04    5.25
  -4  -8  -4   45.11    9.64
   4   8   4   42.06    9.40
   4  -8   4   19.34    7.74
   4   8  -4   63.86   12.63
   4  -8  -4   44.42    8.49
   4   8   4   35.69   13.78
   4   8  -5    4.16   10.16
   4   8   5   -3.33   14.73
  -4  -8  -5    5.55    8.74
  -4  -8  -5    5.28    4.63
   4   8   5   -0.59    6.56
   4  -8   5    3.24    5.37
   4  -8  -5    3.52    6.62
  -4  -8  -5   17.16    7.88
   4  -8   6   49.92   11.10
  -4  -8  -6  190.23   11.12
   4  -8   6  141.51   12.20
   4   8  -6   94.54   14.17
   4  -8  -6  185.27    8.86
   4   8   6  241.07   15.79
  -4  -8  -6  318.96   17.76
   4   8   6  178.35   15.80
   4  -8   7   -0.73    8.17
   4   8  -7   12.42    6.92
   4   8   7   -7.35    8.01
   4  -8   7   -0.43    5.39
   4   8   7   -4.46    9.06
   4  -8   7   -3.63    8.76
   4  -8   7    4.48    3.08
   4  -8  -7    1.38    2.91
   4  -8  -8    6.00    4.99
   4  -8   8   25.14    8.81
   4   8   8   15.88    9.41
   4  -8   8    3.17    5.65
   4  -8  -8    7.76    4.29
   4   8  -8    6.28    4.78
   4  -8   8   30.34   13.61
   4   8   9   -5.18    9.80
   4  -8   9    3.28    5.51
   4  -8   9   19.40   19.10
   4  -8   9   -1.61    9.56
  -4 -10   0   -0.31    6.70
  -4  10   0    4.11    5.46
  -4 -10  -1  190.91   11.88
  -4  10  -1  252.01   11.51
   4  10   1  228.87   19.75
  -4 -10   1  244.16   16.64
  -4  10   1  200.45   14.08
  -4 -10  -2  482.92   11.62
   4  10  -2  457.07   23.26
   4  10   2  475.05   24.56
   4  10   2  453.62   21.70
   4  10  -3   91.24   14.17
   4  10   3  111.85   18.59
  -4 -10  -3  116.90    7.29
   4  10   3  138.93   18.95
   4  10  -4   -9.08   12.98
   4  10   4   -7.91   16.82
  -4 -10  -4    0.79    4.18
  -4 -10   4    2.78    1.75
   4  10   4    8.00    9.08
   4 -10   4    4.62    7.47
  -4 -10  -4   14.18   10.40
   4 -10  -4    4.47    7.69
   4  10   5   64.75   10.01
  -4 -10  -5   43.72    6.30
   4  10  -5   27.67   11.53
   4 -10   5   11.60    6.56
   4 -10  -5   54.67   11.36
   4  10   5   96.76   12.67
  -4 -10  -5   64.87   13.65
  -4 -10  -5   71.80   11.73
   4 -10   6   22.30    8.86
   4 -10  -6  198.46   17.35
   4  10  -6  163.03   10.78
   4  10   6  264.14   17.87
   4 -10  -6  142.37   10.10
   4  10   6  156.39   14.85
   4 -10   6  111.67    7.77
   4 -10   7   19.99    9.38
   4  10   7    8.30    9.07
   4 -10   7   -0.44    5.27
   4  10  -7   20.73    7.44
   4  10   7   19.12   10.99
   4 -10   7   13.76    5.18
   4 -10  -7   13.50    4.23
   4 -10   7    3.04   10.19
   4 -10  -7   18.56    5.24
   4 -10   8   11.32    8.56
   4  10   8    1.68    8.96
   4 -10   8   -1.29    5.28
   4 -10  -8    1.30    5.08
   4 -10   8    5.20   10.56
   4  10   9    1.09    9.81
  -4  12   0   36.79    5.45
  -4 -12   0   34.64    7.19
   4  12   1   30.51   17.69
  -4  12   1   44.86    9.65
  -4 -12  -1   45.82    6.06
  -4 -12   1   56.76   10.36
  -4 -12  -2  154.74    8.52
   4  12  -2  136.51   19.38
   4  12   2  205.49   23.88
   4  12   2  173.94   12.51
  -4 -12   2  292.63   16.36
  -4  12   2  263.49   13.78
   4  12   3   19.49    9.60
   4  12   3   26.78   15.65
   4 -12   3   -3.70    8.62
   4  12  -3    8.26   12.63
  -4 -12  -3   17.44    3.95
  -4 -12  -4   28.45   12.17
   4  12   4   23.51   12.00
   4 -12   4    6.29    8.83
   4  12  -4   39.54    9.27
  -4 -12  -4   15.20    5.01
   4 -12  -4   15.62   10.24
  -4 -12   5    3.93    3.29
   4  12   5   15.53   10.25
   4 -12   5    2.61    6.33
  -4 -12  -5    8.78    5.15
   4  12  -5   30.00    8.16
   4 -12  -5    5.51   10.35
  -4 -12  -5   12.03   13.06
   4 -12   5   11.15    3.91
   4  12   6   81.57   11.60
   4 -12   6    3.37    6.19
   4  12  -6   79.00   10.87
   4  12   6  110.07   15.71
   4 -12   6   41.46    6.08
   4 -12  -6   52.55    5.94
   4 -12   7   -0.92    6.22
   4 -12   7    4.44    4.93
   4 -12  -7    5.83    5.24
   4  12  -7   -4.17    7.17
   4 -12  -7    4.40    7.47
   4  12   7   -3.48    8.34
   4 -12  -8    3.21    4.55
   4  12   8   -8.13   10.25
   4 -12   8   -0.48    5.65
   4 -12   8    1.99   12.29
  -4  14   0  241.01   11.07
  -4 -14   0  196.27   11.70
  -4 -14   1   -0.63    9.06
  -4  14   1    3.57    6.72
  -4 -14  -1   -0.25    3.64
  -4  14  -1    6.84    3.28
   4 -14   2    0.28    3.62
  -4 -14   2    4.49    6.35
  -4  14   2    1.00    5.60
   4  14  -2   18.52    9.56
   4  14   2   20.85   10.98
   4  14   3    6.71    7.04
   4 -14   3   -0.40    4.97
   4  14  -3   27.73    8.89
   4  14   3   37.44   11.71
  -4 -14  -4  178.05   21.39
  -4 -14  -4   65.71    6.85
   4 -14   4    9.00   10.81
   4  14  -4  159.92   13.90
   4  14   4  232.11   21.44
   4 -14  -4   91.71   15.96
   4 -14   4   91.78    7.59
   4 -14  -4  102.56    7.98
   4  14   4  101.14   18.08
   4 -14   5    0.69    7.48
   4  14   5    4.86   10.94
  -4 -14  -5   -5.95   16.33
   4  14  -5   18.27    9.79
   4  14   5   13.75   13.35
   4 -14   5    4.70    4.22
   4 -14  -5    4.10    3.97
   4  14   6   12.26   11.39
   4 -14   6    3.87    6.96
   4 -14   6    4.47    5.53
   4  14  -6   -1.58    9.38
   4 -14  -6   -3.77    5.85
   4  14   6  -14.83   12.74
   4  14   7    7.71    9.40
   4 -14   7    5.38    6.21
   4 -14   7   -1.54    5.78
   4 -14  -7   -3.96    6.01
   4 -14   8    1.00    6.01
   4 -14  -8    9.67    5.90
  -4 -16   0  127.78    9.33
   4  16   0  289.63   19.30
  -4  16   0  231.17    9.30
   4 -16   0  145.44   10.38
  -4  16   1   12.68    3.81
  -4 -16   1   10.13    6.00
   4 -16   1    4.74    3.96
  -4 -16   2   -1.91    8.37
  -4  16   2   -5.59    8.15
   4  16  -2   13.56   12.53
   4  16   2    8.78   14.35
   4 -16   2   -0.14    3.96
   4 -16  -2   -2.39    4.09
   4  16   3    7.70    7.37
  -4 -16   3    9.83    7.74
  -4  16   3    4.48    6.12
   4 -16   3    2.60    3.99
   4  16  -3    9.12   11.19
   4  16   3   26.30   14.64
   4 -16   3    5.19    4.23
   4 -16  -3    3.86    4.32
   4 -16   4    1.57    7.18
   4  16   4   58.93   11.63
   4  16  -4  122.94   13.92
   4  16   4  165.50   19.59
   4 -16   4   63.05    7.58
   4 -16  -4   70.97    7.79
   4  16   5  -10.80   14.78
   4 -16   5    0.74    9.34
   4 -16   5    1.54    5.65
   4 -16  -5   -1.82    6.03
   4  16   6   -8.67   13.68
   4 -16   6    2.88    9.94
   4 -16   6   -0.23    5.99
   4 -16  -6   -7.05    6.35
   4  16   7    4.56   13.26
   4 -16   7   -1.22    7.84
   4 -16   7    0.20    5.25
   4 -16  -7    0.98    5.31
   4  16   8   26.35   12.96
   4 -16   8    1.11    7.32
   4 -18   0   23.42    5.54
  -4 -18   1    2.25    2.90
  -4  18   1   -2.06    3.08
   4 -18   1    1.23    4.37
  -4 -18   2   14.21    8.35
  -4  18   2    9.28    5.41
   4 -18   2    3.97    5.06
   4 -18  -2    4.79    5.23
  -4 -18   3   -2.73    7.68
  -4  18   3   -8.15    7.13
   4 -18   3   -3.20    6.02
   4 -18  -3    6.08    5.78
   4  18   4    3.52    7.02
   4 -18   4    9.81    6.59
   4 -18  -4    1.36    6.64
   4 -18   4    1.34    4.74
   4  18   5  -12.26   10.69
   4 -18   5   -1.11    7.98
   4 -18   5   -0.24    6.31
   4 -18  -5    2.18    6.33
   4  18   6  -12.52   15.35
   4 -18   6    0.47    6.13
   4 -18  -6   -0.47    7.59
   4  18   7    7.01   15.35
   4 -18  -7    8.07    6.95
   4 -20   0   -1.24    6.86
   4 -20   1    8.73    6.81
  -4  20   2    7.84    3.04
   4 -20   2    0.25    6.78
   4 -20  -2    6.81    7.29
   4 -20   3    6.88    6.74
   4 -20  -3   -1.92    6.95
   4 -20   4    0.79    6.77
   4 -20  -4    3.29    7.51
   4 -20   5    0.25    6.52
   4 -20  -5    5.48    8.25
   4 -20   6   -0.49    6.45
   4 -20  -6    8.12    7.53
   4 -22   0    1.08    7.38
   4 -22   1   -4.63    7.39
  -5  -1   0  352.52   11.44
  -5  -1   0  465.35   24.66
   5   1   1   29.82    4.01
  -5  -1   1   27.08    6.64
   5  -1   1   -1.04    3.40
  -5  -1  -1   39.21    8.82
  -5  -1   1   23.20    3.10
  -5  -1  -1   24.21    3.55
   5  -1   1    5.58    5.01
   5  -1  -1    5.51    4.72
   5   1   1   11.55    5.81
  -5  -1  -2  306.36   14.78
   5   1   2  347.06   10.09
  -5  -1   2  429.74   13.62
   5  -1   2   16.20   10.24
  -5  -1  -2  307.37   10.96
   5  -1   2  114.33    9.98
   5   1   2  109.88   11.63
   5  -1   2  303.42   11.16
   5  -1   3   34.22    5.58
  -5  -1  -3   35.74    6.38
   5   1   3   35.02    4.74
  -5  -1   3   34.69    6.21
   5  -1   3   28.77    5.31
   5  -1   4  234.96   23.29
  -5   1   4  299.79   17.55
   5   1   4  181.84   12.89
   5   1  -4  136.83    5.83
   5   1   4  396.11   12.11
  -5  -1   4  295.17   16.18
   5  -1   4  251.38   14.48
   5   1   4  208.58   14.48
  -5  -1   5   12.85    7.90
   5   1   5    8.07    6.43
   5  -1   5   12.17    6.44
   5  -1   5   11.29    7.64
   5   1   5   10.17    9.91
   5  -1   5   15.13   10.41
  -5   1   5   10.66    7.57
   5  -1   6   67.72   12.99
  -5   1   6   67.52   13.38
   5  -1  -6  106.25    5.42
   5   1   6   50.17   11.24
   5  -1   6  128.71    9.18
  -5  -1   6   95.21   14.86
   5  -1   6   64.02   11.49
   5   1   6  138.80   15.26
   5  -1   6   91.95   15.32
   5   1   7    2.55   14.05
   5  -1   7    7.33    6.95
   5  -1   7   -1.45    8.42
   5  -1  -7   11.06    4.84
  -5  -1   7   12.80   12.58
   5  -1   7    4.56    8.52
   5   1   7    0.33    8.22
  -5   1   7    5.87   11.74
   5  -1   7   10.65   17.24
  -5  -1   8   61.52   18.04
   5  -1   8   24.76    9.96
   5  -1   8   32.98   12.87
  -5   1   8   45.44   17.49
   5   1   8   40.60   13.07
   5  -1   8   84.20   17.76
   5  -1   9   -1.65   18.55
   5  -1   9    3.84   11.70
  -5  -1   9   -6.25   16.09
  -5   1   9  -14.34   17.44
   5   1   9   -3.46   12.50
  -5  -3   0  107.92    7.50
   5   3   0  116.89    4.89
  -5   3   0  117.02   14.51
  -5  -3  -1   90.54   11.94
   5  -3   1   -0.35    3.75
   5   3   1   57.79    3.71
  -5   3   1   77.24    9.21
   5  -3   1   36.23    4.56
   5  -3  -1   48.85    4.46
  -5  -3  -1   67.22    7.13
  -5  -3   1   43.79    5.23
  -5  -3   1   73.42    9.16
   5  -3   2  419.77   16.71
  -5  -3  -2  651.41   18.42
   5  -3  -2  417.48   15.03
  -5  -3   2  491.60   16.36
  -5  -3  -2  649.53   23.03
  -5  -3  -3   42.46    6.94
   5   3   3   39.24    4.32
   5  -3   3   15.67   10.92
  -5  -3   3   25.13    3.85
  -5  -3  -3   27.26    4.93
   5   3   4   84.63   16.88
   5   3   4   86.65    5.71
   5  -3   4   76.45   16.88
  -5  -3  -4   63.96    6.38
   5   3   5   16.65    8.21
   5  -3   5   10.13    7.24
   5  -3   5    4.80   10.19
   5   3   6  140.74   16.70
   5  -3   6  111.74   15.62
  -5  -3   6  166.87   17.29
   5  -3   6  137.86   14.62
   5  -3   6  158.78   14.98
   5  -3   7    1.84    9.32
   5  -3  -7    4.45    3.93
   5  -3   7   11.91    8.04
   5   3   7   -6.99    9.97
   5  -3   7   -4.49    7.94
  -5  -3   7   12.90   12.73
   5  -3   7    8.73   13.70
   5  -3  -8   39.14    5.39
  -5  -3   8   10.71   13.86
   5  -3   8   16.11   10.78
   5  -3   8   34.05    9.24
   5   3   8   14.91   10.42
   5  -3   8   10.32    8.82
   5  -3   8   30.29   18.62
   5   3  -8   33.29    9.65
  -5  -3   9    1.15   16.12
   5  -3   9    5.19   11.41
   5  -3   9   19.54   20.70
  -5  -5   0  215.36   19.44
  -5   5   0  180.85   17.39
   5   5   1   10.81    6.22
  -5  -5   1    3.05    5.31
  -5   5   1    4.75    5.46
   5  -5   1   -1.45    4.04
  -5  -5  -1    1.07    5.91
  -5   5  -1    6.34    5.28
  -5  -5  -1   -1.40    6.15
  -5  -5   1    0.08    5.02
  -5   5  -2  411.79   15.68
   5  -5  -2  440.82   15.13
  -5  -5  -2  401.01   14.32
   5   5   3    2.10   10.17
   5  -5   3   -4.13   10.01
  -5  -5  -3   -0.19    4.22
  -5   5  -3    6.04    4.22
  -5  -5  -3   23.81    7.80
   5   5   4  137.60   19.55
  -5  -5  -4  110.09    9.30
   5  -5   5   11.64    6.83
   5   5   5    5.92    9.08
   5  -5   5    4.00    7.12
   5  -5   5    4.22    7.91
   5   5   6  127.06   14.81
   5  -5   6   71.68   12.84
   5  -5   6  180.65   11.01
   5   5   6  214.12   17.79
  -5  -5   6   49.17    3.36
  -5  -5  -6  182.14   10.80
   5  -5   6  121.64   17.79
   5   5   7    2.14   12.55
   5  -5   7    7.85    8.13
   5   5   7   -5.52   10.01
   5  -5   7   -1.05    7.37
   5  -5   7    4.58   14.36
   5   5  -7   28.83   11.21
   5   5  -8    8.53    9.52
   5  -5  -8   27.03    5.31
   5  -5   8   38.02    9.85
   5   5   8    7.96   10.11
   5  -5   8   11.82    8.08
  -5  -5   8   23.72   14.24
   5  -5   8   20.50   10.86
   5  -5   8   19.59   16.22
  -5  -5   9    0.59   16.91
   5  -5   9    1.43   11.54
   5  -5   9   14.02   19.76
  -5   7   0  515.84   31.07
  -5  -7   0  521.65   19.03
  -5  -7  -1   13.45    4.55
   5  -7   1   -0.38    4.07
  -5  -7   1    3.89    6.70
  -5   7   1    5.11    6.25
  -5  -7  -1    2.97    5.44
  -5   7  -1    3.04    4.16
  -5  -7  -1   19.76    8.13
   5  -7  -2   52.89    7.92
  -5  -7  -2  145.51   11.65
  -5  -7  -2   68.96    7.50
  -5   7  -2   86.19    7.78
   5   7   2   28.04    8.95
   5  -7   2    1.39    5.27
  -5  -7  -2   85.88    7.10
  -5  -7  -2  201.22   15.02
  -5  -7  -3   46.51    7.90
   5   7   3   -4.46   11.73
  -5  -7  -3   39.32    8.93
   5  -7   3    0.83   10.15
  -5  -7  -3   -0.35    3.82
  -5   7  -3    5.32    3.88
   5  -7  -3    2.57    5.29
   5   7   4  231.48   24.05
  -5  -7  -4  324.35   14.62
   5  -7  -4  262.73   16.55
  -5  -7  -4  324.86   18.87
  -5  -7  -4  331.78   17.02
  -5  -7  -5   73.26    9.18
   5   7   5    2.52    9.82
   5  -7   5    4.79    8.96
   5   7  -5   63.12   12.06
   5   7   5   85.45   16.06
   5  -7   5    2.00    7.15
   5   7   6   46.43   16.60
   5  -7   6   50.29    9.82
   5   7   6   36.44   10.29
   5  -7   6    8.30    7.37
   5  -7   6    7.37    9.34
   5   7  -6   64.09   14.41
   5   7  -7   -1.98   12.63
   5  -7   7   -1.97    7.96
   5   7   7    6.05    9.00
   5  -7   7    0.54    6.38
   5  -7   7   -2.85   12.27
   5  -7   8   67.51   10.42
   5  -7  -8   38.32    5.79
   5   7   8   23.58   11.19
   5  -7   8    4.45    7.00
   5  -7   8   51.06   19.37
  -5  -7   9    3.81   15.46
   5  -7   9   -0.45   10.64
  -5   9   0  326.99   21.27
  -5  -9   0  231.08   10.32
  -5  -9  -1   37.12    6.69
  -5  -9   1   22.89    3.31
  -5  -9   1   31.90    8.92
  -5   9   1   21.63    8.00
  -5   9  -1   25.23    5.46
  -5  -9  -1   31.15    4.39
  -5   9  -2   88.01    7.70
   5  -9   2   -0.42    4.47
  -5  -9  -2   68.89    8.12
  -5  -9  -2   59.19    5.89
   5   9   2   74.13   14.77
  -5  -9   2   99.00   11.81
  -5   9   2   99.80   11.15
   5   9   2   42.35    8.96
  -5  -9  -2   33.06    9.50
   5  -9  -3   14.26    7.64
  -5   9  -3   36.46    4.86
   5   9   3   12.90   10.67
  -5  -9  -3   32.86   10.46
   5  -9   3   -3.75    9.45
  -5  -9  -3   27.90    5.30
  -5  -9  -3   20.39    4.92
   5   9  -3   51.43   12.26
   5   9   3   59.12   14.74
  -5  -9  -3   23.53   12.22
   5   9   4  169.44   23.27
  -5  -9  -4  151.61    9.09
   5  -9  -4  162.73   14.34
  -5  -9  -4  229.58   17.23
   5   9  -4  196.28   17.42
   5   9   4  197.44   21.22
  -5  -9  -4  201.44   15.21
   5   9   5   22.71   16.90
  -5  -9  -5   19.05   11.18
  -5  -9  -5   27.68    6.71
   5   9   5    7.99   12.52
   5  -9   5    5.15   10.90
   5  -9  -5   22.03    8.91
   5   9  -5   19.18   12.08
   5   9  -6   18.71   14.38
   5   9   6    0.32   17.91
   5   9   6   32.46   11.54
   5  -9   6    6.88    8.02
   5  -9  -6   15.61    3.16
   5  -9   6    8.21   10.04
   5   9  -7   37.47    7.85
   5   9   7   28.30   10.16
   5   9   7   18.01   10.28
   5  -9   7   -0.59    6.28
   5  -9   7    2.25   10.17
   5  -9   7   13.60    9.87
   5  -9   8   40.13    9.41
   5   9   8   31.65   11.59
   5  -9   8    4.50    6.89
   5  -9  -8   13.05    4.31
   5  -9   8    9.65   15.14
  -5 -11   0  134.98   14.97
  -5  11   0  117.34   12.27
   5  11   0   88.24   17.75
  -5 -11   1   -3.14    9.12
  -5  11   1   -4.42    9.01
  -5 -11  -1   -2.23    3.70
  -5 -11   1   -0.52    3.04
  -5 -11  -1    3.64    4.67
  -5  11  -1   -6.03    4.36
  -5 -11  -2   94.83    8.46
  -5  11  -2  133.44    8.02
  -5 -11   2   18.39    3.43
   5 -11   2    1.53    4.58
  -5 -11  -2   71.54    5.89
   5  11  -2   82.29   16.32
   5  11   2   73.54   10.80
  -5 -11   2  116.60   11.91
  -5  11   2  116.97   11.08
   5  11   2   82.76   18.21
   5  11  -3   24.79   12.49
   5  11   3    9.40   14.98
   5  11   3    1.14    7.51
   5 -11   3   -1.56    5.98
  -5 -11  -3    1.74    4.56
   5 -11  -3   -8.40   10.54
  -5 -11  -3   -6.04   11.42
   5  11  -4   22.94   14.67
   5  11   4   16.26   20.44
  -5 -11  -4   53.14    6.82
   5  11   4   33.16   15.91
   5 -11   4    5.64   11.45
   5 -11  -4   39.97   11.22
  -5 -11  -4   69.79   14.11
   5  11  -5  -21.41   15.36
   5 -11   5    3.36    9.13
   5  11   5   -6.27   14.03
   5 -11  -5    2.37    9.14
  -5 -11  -5   -0.33   13.31
   5  11   6   41.08   16.40
   5 -11   6   10.55   10.46
   5  11  -6   75.88   10.02
   5  11   6   93.62   13.96
   5 -11  -6   23.12    6.97
   5 -11   7   17.52   10.76
   5  11   7    3.40   10.90
   5 -11   7   -1.31    7.28
   5  11  -7   16.68    9.07
   5 -11   7   -8.61   10.77
   5 -11   7    5.02    3.57
   5 -11  -7   -2.41    3.72
   5 -11   8    2.51    6.57
   5 -11  -8    6.73    5.73
  -5 -13   0   98.83   10.15
  -5  13   0   81.91    7.49
  -5  13  -1   45.30    6.14
   5  13   1   30.85   18.32
  -5 -13   1   26.67   13.03
  -5  13   1   20.40   10.24
  -5 -13  -1   11.30    3.82
  -5 -13  -1   20.21    5.39
  -5  13  -2   47.97    4.92
   5  13  -2   18.42   17.31
   5  13   2    8.07   19.05
  -5 -13   2   44.85    9.70
  -5  13   2   38.41    8.95
  -5 -13  -2   22.39    5.04
  -5 -13  -2   21.51    5.24
  -5 -13   3   25.53   10.16
  -5  13   3   35.79    9.39
   5  13  -3   -5.93   16.25
   5  13   3    9.08    8.16
   5 -13   3   -0.46    5.06
   5  13   3  -11.55   19.56
  -5 -13  -3    3.17    4.81
  -5 -13  -4   81.75   16.78
   5 -13  -4   32.71   11.48
   5  13  -4   -5.96   15.71
   5  13   4   26.11   12.89
   5 -13   4   -2.38    9.28
   5  13   4   82.39   19.40
  -5 -13  -4   39.98    6.86
  -5 -13  -5    6.84   14.08
   5  13   5   -1.37   16.49
   5 -13   5    3.80   10.71
   5  13  -5   40.67    9.32
   5  13   5   54.05   13.64
   5 -13  -5    3.42   10.54
   5  13   6   12.21   14.63
   5 -13   6   -0.89   10.10
   5  13  -6   42.97    9.84
   5  13   6   53.39   16.02
   5 -13   6   10.23    3.96
   5 -13  -6   11.59    4.45
   5  13   7   -4.41   14.77
   5 -13   7    0.83    9.26
   5  13  -7   -5.33    9.08
   5 -13   7    0.66    4.43
   5 -13  -7   -2.91    4.59
   5  13   8   15.52   13.22
   5 -13   8   -9.99    8.81
  -5 -15   0   79.16    7.93
  -5  15   0   72.49    6.76
   5  15   1    0.31   16.26
  -5 -15   1    9.34    9.34
  -5  15   1    9.96    7.47
  -5 -15  -1   -0.91    4.44
  -5  15  -1    5.37    3.75
  -5 -15   2    1.87    8.98
  -5  15   2   -3.51    9.29
   5  15  -2   21.09   12.98
  -5 -15  -2   -0.66    4.86
   5  15   3    5.19    8.45
   5 -15   3   -0.38    4.74
  -5 -15   3    3.00    8.08
  -5  15   3    2.55    6.81
  -5 -15  -3   -6.63    6.00
   5  15   4   33.60   11.37
   5 -15   4    0.53    6.55
   5 -15  -4   31.42   13.82
   5  15   5  -12.44   15.25
   5 -15   5   -3.62   11.37
   5 -15   5    4.12    3.75
   5 -15  -5   -0.42    4.16
   5  15   6  -12.83   18.00
   5 -15   6    3.97   10.91
   5 -15   6    2.95    4.53
   5 -15  -6    4.48    4.91
   5  15   7   -1.31   16.60
   5 -15   7    3.61   11.54
   5 -15   7    4.06    5.49
   5 -15  -7   -1.53    6.31
   5  15   8   20.61   17.48
   5 -15   8    6.54   10.86
  -5 -17   0    9.73    4.87
  -5  17   0   12.89    4.03
  -5 -17   1    1.51    5.55
  -5 -17  -1   -2.69    3.39
  -5 -17   2   12.55   12.67
  -5  17   2   23.16    9.49
   5 -17   2   17.18    4.91
  -5 -17   3   -3.72    9.26
  -5  17   3   -1.43    7.64
   5 -17   3    3.18    4.11
   5 -17  -3    1.66    4.27
  -5  17   4   17.90    8.91
   5  17   4   12.60    9.09
   5 -17   4   -0.78    5.19
   5 -17   4    6.63    4.62
   5 -17  -4    5.61    4.94
   5  17   5    0.74   10.05
   5 -17   5    1.64    6.61
   5 -17   5   -1.56    5.14
   5 -17  -5    1.21    4.98
   5  17   6   -1.71   15.54
   5 -17   6    1.84   11.47
   5 -17   6    2.03    5.89
   5 -17  -6   -0.86    7.06
   5  17   7   -6.21   19.08
   5 -17  -7   -3.69    7.24
   5 -19   0    0.17    4.61
  -5  19   1    0.31    3.87
   5 -19   1   -2.59    4.72
  -5  19   2   26.79    5.27
   5 -19   2   14.03    5.54
   5 -19  -2   23.43    5.96
   5 -19   3   -0.38    4.85
   5 -19  -3    0.19    5.16
   5 -19   4   -0.95    6.20
   5 -19  -4   -5.41    6.45
   5  19   5    9.73    9.48
   5 -19   5   -4.97    6.36
   5 -19  -5   -8.71    7.62
   5 -19   6    1.05    7.10
   5 -19  -6    2.66    7.75
   5 -21   0    0.45    5.96
   5 -21   1    2.46    6.07
  -6   0   0   13.91   10.61
   6   0   0    3.19    5.86
   6   0   1    1.83    4.66
  -6   0   1    0.32    6.82
  -6   0  -1    7.98    8.25
  -6   0  -2  603.57   22.03
   6   0   2  250.81   19.52
   6   0   2  810.78   17.76
  -6   0   2 1125.75   36.61
   6   0   3    2.93    4.16
  -6   0  -3   -0.65    5.24
   6   0   4    2.91   12.63
   6   0   4   20.48    5.83
  -6   0  -4   10.54    4.92
  -6   0   4   17.22    8.78
   6   0   4    8.25    5.41
   6   0   5   -3.83    6.95
   6   0  -5    2.66    2.21
   6   0   5   -1.80   11.45
   6   0   5    1.53    6.24
  -6   0   5   -0.83    9.66
   6   0   5  -15.13   14.47
   6   0   6  109.43   19.68
  -6   0   6  173.51   19.86
   6   0   6   92.97   13.64
   6   0   6  151.64   18.09
   6   0   7   -0.99    8.84
   6   0   7    7.51   10.16
  -6   0   7   -0.42   14.42
   6   0   7   -2.15   15.49
   6   0   8   17.00   10.58
  -6   0   8   11.38   17.35
   6   0   8   -1.71   11.21
   6   0   9   -6.31   13.38
  -6  -2   0    6.81   10.46
   6   2   0    5.78    2.86
  -6  -2   0    4.38    3.95
   6  -2   0   -0.24    6.14
  -6  -2  -1  383.65   23.24
   6   2  -1  145.19    6.21
   6   2   1  291.05    8.64
   6  -2   1    7.00    7.31
  -6  -2   1  210.27    7.95
  -6  -2  -1  227.46    9.03
   6  -2   1  114.42    9.17
   6  -2  -1  117.29    9.54
  -6  -2   1  293.88   18.98
  -6  -2  -2  641.29   22.25
  -6  -2   2  870.57   18.14
   6   2   2  714.82   14.28
   6  -2   2  556.40   14.58
  -6  -2  -2  671.20   15.70
   6  -2   2  265.09   15.26
  -6  -2   2 1184.02   36.93
   6  -2   3  192.44   10.24
  -6  -2  -3  192.58   13.14
   6   2   3  200.74    8.67
   6  -2   3    0.85   11.20
  -6  -2   3  201.76   12.30
   6  -2   3  152.68   10.06
   6  -2   3   57.65    9.68
  -6  -2   4   11.91    7.97
   6  -2   4   19.71    6.63
   6  -2   4    1.00   11.42
   6  -2   4   14.58    6.05
   6   2   4   19.14    5.38
  -6  -2  -4   14.24    5.18
   6   2   5   78.52    7.57
  -6  -2   5   70.08   12.48
   6  -2   5   58.17    8.97
   6  -2   5   50.11   13.76
   6  -2   6  121.41   20.24
   6  -2  -6  152.36    6.82
  -6  -2   6  181.53   20.02
   6  -2   6  110.41   14.06
   6  -2   6   63.82   18.29
   6  -2  -7   23.06    4.06
   6  -2   7   19.81   10.89
   6  -2   7   25.18    7.77
  -6  -2   7   15.99   15.76
   6  -2   7   13.88    9.70
   6  -2   7   31.25   22.05
  -6  -2   8    4.26   17.47
   6  -2   8    6.08    9.17
   6  -2   8    6.67   10.91
   6  -2   8   11.66    9.10
   6  -2   8    9.38   19.38
  -6  -2   9    1.73   19.56
   6  -2   9    0.95   12.11
  -6  -4   0  134.12   18.59
  -6   4   0   93.34   16.18
  -6  -4   0  123.82    9.73
  -6  -4   0  105.60    5.50
  -6  -4  -1  266.20   19.19
  -6   4  -1  222.63   16.02
   6  -4   1  130.69    9.51
   6  -4  -1  131.65    8.44
  -6  -4  -1  260.12   13.53
  -6  -4   1  173.73    9.74
  -6  -4   1  235.18   18.16
  -6   4   1  221.56   17.62
  -6  -4  -2  316.35   16.04
  -6   4  -2  297.11   14.58
   6  -4   2  188.28   11.53
  -6  -4  -2  310.21   12.32
   6  -4  -2  185.76    9.71
  -6  -4   2  257.92   10.00
  -6  -4   2  473.84   23.45
  -6   4   2  443.75   22.79
   6   4   2   99.31   14.91
  -6  -4  -3  137.99   10.97
  -6   4  -3  148.21   10.72
   6   4   3   50.66   13.91
   6  -4   3    0.78    9.26
  -6  -4  -3  102.20    8.14
   6  -4   3   76.29    9.50
  -6  -4   3  128.81    7.56
  -6  -4  -4   67.36    7.54
  -6   4  -4   70.83    7.20
   6   4   4   29.95   16.89
   6  -4   4   19.35   14.70
  -6  -4   4   63.12    4.66
  -6  -4  -4   58.31    7.67
   6   4   5   20.99   15.50
   6  -4   5   29.53   14.61
  -6  -4  -5   54.77    8.60
  -6  -4   5   64.57   12.26
   6   4   6   81.39   19.16
   6  -4   6   65.23   17.71
  -6  -4   6  101.06   15.72
   6  -4   6   67.30   10.96
   6  -4   6   45.63   14.89
   6  -4   7   21.34    8.43
   6   4   7   19.99   13.09
   6  -4   7   11.85   10.90
   6  -4  -7    9.49    4.33
  -6  -4   7   19.24   15.35
   6  -4   7   18.29   16.65
   6  -4   7   19.78   10.66
  -6  -4   8   22.41   17.27
   6  -4   8    9.49   10.32
   6   4   8   23.63   13.13
   6  -4   8    9.58    8.52
   6  -4   8    3.44    8.09
   6  -4   8   18.84   19.48
  -6  -4   9   -0.60   20.18
   6  -4   9    8.37   12.22
  -6  -6   0  800.53   39.94
  -6   6   0  616.41   34.32
  -6  -6  -1   39.75    6.45
  -6  -6   1   48.40   10.51
  -6   6   1   34.21    9.44
  -6  -6  -1   43.49    8.96
  -6   6  -1   35.28    7.94
   6  -6  -1   18.17    5.31
  -6  -6  -1   21.70    8.48
  -6  -6   1    4.50    9.43
   6  -6  -2   16.86    5.25
  -6  -6   2   18.51    8.89
  -6   6   2   13.78    8.12
   6   6   2    3.61    7.00
   6  -6   2    0.47    4.85
  -6  -6  -2   14.51    6.72
  -6  -6  -2   13.41    5.13
  -6   6  -2    7.27    4.64
   6  -6   2    7.26    6.78
  -6  -6  -2   22.81    7.71
  -6  -6   2   -7.33    7.56
   6   6   3   -4.69    9.93
   6  -6   3   -4.92    8.92
  -6  -6  -3   31.81    6.83
  -6   6  -3   23.90    6.01
   6  -6  -3   13.99    3.51
   6  -6   3    8.61    6.54
  -6  -6   3   -2.76    7.02
   6   6   4  197.03   28.93
  -6  -6  -4  284.30   15.92
  -6   6  -4  350.68   15.74
   6  -6   4   52.27   20.98
  -6  -6  -4  405.05   16.01
  -6  -6   4  136.22   11.57
   6   6   5   10.78   16.10
   6  -6   5    4.29   12.47
  -6  -6  -5   20.42    8.04
  -6  -6   5   -7.63    6.78
   6  -6   6   22.16   10.13
   6   6   6    4.99   14.74
   6  -6   6    1.04   11.47
   6  -6   6   -0.86   17.89
   6   6   6   53.31   15.18
   6  -6   7    2.75    8.25
   6   6   7    7.55   13.08
   6  -6   7    8.79   10.76
  -6  -6   7    4.35   14.09
   6  -6   7    4.39   16.90
   6  -6   8   61.48   10.87
  -6  -6   8   37.74   18.90
   6   6   8   50.92   16.23
   6  -6   8   13.08   10.42
   6  -6   8   28.07   11.58
   6  -6   8   36.06   19.00
  -6  -6   9   -8.94   20.35
   6  -6   9   -1.41   11.69
  -6  -8   0 1092.51   43.57
  -6   8   0  810.08   35.70
  -6  -8   1   -5.64    9.21
  -6  -8  -1    1.90    5.87
  -6   8  -1    3.15    5.16
  -6  -8  -1   -8.08   11.69
   6   8   2    6.60    7.59
  -6  -8   2    4.50    7.58
   6  -8   2    0.48    4.59
  -6   8   2    5.43    7.48
  -6  -8  -2   22.10    8.48
  -6  -8  -2   10.17    5.27
  -6   8  -2    4.83    4.76
  -6  -8  -2   12.20    9.74
   6  -8  -2    4.05    5.49
   6  -8  -3    1.79    5.80
   6   8   3   -0.49    9.08
   6  -8   3   -1.90    7.88
  -6  -8  -3    7.23    8.42
  -6  -8  -3    3.08    5.13
  -6   8  -3    5.40    4.70
  -6  -8  -3   16.88    9.71
   6  -8   4   25.60   17.11
   6  -8  -4  354.48   19.13
  -6  -8  -4  488.85   20.43
   6   8   4  179.68   26.77
   6   8   5   -1.71   16.21
   6  -8   5    8.90   12.84
   6   8  -5   66.25   13.57
   6   8   5   61.34   16.72
   6  -8   6    4.09    9.51
   6   8   6   -2.32   14.36
   6  -8   6    9.54   13.34
   6  -8   6   -3.09   11.25
   6   8  -6   35.59   14.93
   6   8   6   18.39   17.62
   6   8  -7   -0.20   13.58
   6  -8   7   12.44   10.45
   6   8   7    2.49   15.53
   6  -8   7    8.79   12.06
   6  -8   7   -3.69   13.63
   6   8   8   47.57   17.82
   6  -8   8   11.03   11.89
  -6  10   0  255.65   19.17
  -6 -10   0  228.10   11.44
  -6 -10   1    6.63   10.75
  -6 -10  -1   17.57    5.55
  -6  10   1    0.85   10.36
  -6 -10  -1   14.07    6.06
  -6  10  -1    4.20    5.02
  -6 -10  -2   23.04    6.20
   6  10   2    7.98    8.24
   6 -10   2   -0.50    5.10
  -6 -10   2   23.12    8.84
  -6  10   2   14.65    8.26
  -6 -10  -2   15.01    6.53
  -6  10  -2   16.49    5.73
  -6 -10  -2    3.74   12.13
  -6  10   3   20.84   10.49
   6  10   3    4.78    9.10
   6 -10   3    0.61    6.51
  -6 -10  -3   17.06    6.77
   6 -10  -3   -0.56    9.03
  -6 -10  -3    1.02   11.12
   6  10  -3   81.81   14.87
   6  10   3   80.92   17.12
  -6 -10  -3    2.69    5.16
  -6  10  -3   12.95    4.60
  -6 -10  -3    5.26   11.82
  -6 -10  -4  264.65   12.89
   6  10   4   57.66   15.74
   6 -10   4   -2.59    9.64
   6 -10  -4  112.83   13.56
  -6 -10  -4  189.40   17.82
   6  10  -4  138.38   18.40
   6  10   4  132.29   22.81
   6  10   5   12.96   17.32
   6  10   5   -7.60   18.56
   6 -10   5    4.89   14.21
   6  10  -5   29.04   14.73
   6  10  -6    7.44   15.03
   6  10   6   -3.30   21.52
   6  10   6    3.38   16.92
   6 -10   6    2.28   12.40
   6 -10   6    0.78   10.65
   6 -10   7   16.37   11.91
   6  10  -7   -5.39   12.48
   6  10   7    3.93   17.64
   6 -10   7    3.33   12.21
   6 -10   7   -0.32   13.21
   6  10   8    9.89   18.66
   6 -10  -8    6.94    4.24
  -6 -12   0   33.68    5.93
  -6 -12   0   46.60   11.44
  -6  12   0   23.14    7.03
   6  12   0   38.73   18.21
  -6 -12  -1   64.50    8.02
  -6  12  -1   51.71    6.55
  -6 -12   1   36.71    4.61
  -6 -12  -1   51.77    6.70
  -6 -12   1   74.84   16.95
  -6  12   1   40.83   13.63
   6  12   1   76.79   19.77
  -6 -12  -2   67.17    8.31
  -6  12  -2   84.05    7.97
  -6 -12  -2   54.72    6.94
   6  12  -2   94.38   18.90
  -6  12   2   69.43   11.73
   6  12   2   90.25   20.13
  -6 -12   2   72.93   12.82
   6  12  -3   56.92   16.86
   6  12   3   62.81   18.44
  -6 -12  -3   45.47    6.75
  -6 -12   3   53.26   12.44
  -6  12   3   41.62   10.81
   6  12   3   23.73   10.19
   6 -12   3   -1.00    5.60
  -6 -12  -3   19.46    6.22
   6 -12  -3   15.98   10.30
  -6 -12  -3   52.69   13.28
   6  12  -4    8.35   15.32
  -6 -12  -4   40.81    7.68
   6  12   4    7.28   20.73
   6  12   4    4.26   10.70
   6 -12   4    1.38    7.84
   6 -12  -4   14.06    9.75
  -6 -12  -4   37.46   13.97
   6 -12  -5   17.77   10.39
   6  12  -5    3.20   16.91
   6  12   5   -7.65   22.45
   6  12   5    4.34   15.72
   6 -12   5    1.11   12.11
  -6 -12  -5   24.27   13.24
   6  12   6   14.06   19.83
   6 -12   6    1.19   12.25
   6  12   7    3.42   19.43
   6 -12   7    1.18   12.83
   6 -12   7    5.71    3.83
  -6 -14   0    2.64    5.00
  -6 -14   0   12.53    6.66
  -6  14   0    4.07    4.91
  -6 -14   1   31.99   13.21
  -6  14   1   19.44    9.79
  -6 -14   1    8.37    4.38
  -6 -14  -1   16.74    5.48
  -6 -14  -1   27.87    6.58
  -6  14  -1   22.17    6.17
  -6  14  -2   66.81    6.43
  -6 -14   2   46.40   13.07
  -6  14   2   43.93   13.57
  -6 -14   2   19.73    4.40
  -6 -14  -2   40.25    6.45
  -6 -14  -2   30.46    6.26
   6  14   3   31.90   10.87
   6 -14   3    0.51    6.00
  -6 -14   3   24.56    9.83
  -6  14   3   14.89    9.44
  -6 -14  -3   16.97    6.64
  -6 -14  -3   15.68   15.27
  -6 -14   4   32.26   12.74
  -6  14   4   24.24   11.35
   6  14   4    9.32   10.17
   6 -14   4    2.37    6.89
   6 -14  -4    5.40   11.53
  -6 -14  -4   13.06   15.46
   6  14   5   -2.91   11.73
   6 -14   5   -0.78    8.51
   6  14   6   -6.81   17.91
   6 -14   6   -5.84   14.14
   6  14   7  -15.83   22.42
   6 -14   7   -2.54   14.93
   6 -14  -7   -0.42    4.74
  -6 -16   0   -6.11    5.45
  -6 -16   0    5.21    5.33
  -6  16   0   -0.24    4.52
  -6 -16   1   11.03    9.97
  -6  16   1    4.88    6.15
  -6 -16  -1   -6.24    5.72
  -6 -16   1   -4.77    4.94
  -6 -16  -1   -0.17    5.07
  -6  16  -1    0.76    4.11
  -6 -16   2   44.85   16.63
  -6  16   2   36.94   13.24
  -6 -16  -2   26.51    6.50
  -6 -16   3    0.68   10.30
  -6  16   3   -7.12    9.10
   6  16   4    8.35   10.44
  -6 -16   4    1.66    9.93
   6 -16   4   -0.49    6.23
  -6  16   4   11.55    9.52
   6  16   5   -2.11   11.14
   6 -16   5   -2.55    7.80
   6 -16   5    6.38    4.29
   6 -16  -5   -1.70    4.70
   6  16   6   -0.49   12.73
   6 -16   6   -1.60    9.59
   6 -16   6    8.25    4.60
   6 -16  -6    6.21    5.37
   6  16   7  -15.32   20.29
   6 -16   7   -4.62   15.53
   6 -16  -7   -1.67    6.96
  -6  18   0    0.70    4.18
  -6 -18  -1   -6.88    6.62
  -6  18   1   -2.64    5.30
  -6  18   2   19.41    8.52
  -6  18   3   -0.38   12.31
   6 -18   3    1.95    4.28
   6 -18  -3    4.51    4.93
   6 -18   4    0.97    4.25
   6 -18  -4   -3.29    4.90
   6 -18   5    1.26    4.74
   6 -18  -5   -0.85    5.22
   7   1   0  251.21    9.96
   7  -1   0  125.43   12.72
  -7  -1   1  -10.99   10.03
   7   1  -1    1.87    3.60
   7   1   1    3.64    3.66
  -7  -1  -1    3.43    9.30
   7  -1   1    5.12    9.82
   7  -1   2   47.77    6.72
   7   1   2   48.34    5.93
   7  -1   2    0.55    5.45
  -7  -1   2   34.09    9.98
  -7  -1  -2   33.25    7.14
   7  -1   2    8.47   13.90
   7   1   3   -1.68   11.40
   7  -1   3   -2.09    7.56
   7  -1   3    3.14    5.73
   7   1   3    1.60    4.98
  -7  -1  -3   -1.22    6.08
   7  -1   3    6.84   14.90
   7   1   4   53.62   16.03
   7  -1   4  187.03   10.41
  -7  -1  -4  136.97   11.18
   7   1   4  180.64   10.12
   7  -1   4   -4.27   14.68
   7  -1   4   86.28   20.52
   7  -1   4   75.61   10.24
   7  -1   5   -9.18   18.07
   7  -1   5    7.17    7.14
   7   1   5    3.86    6.60
  -7  -1   5    2.53   11.16
   7  -1   5   -2.12    7.05
   7  -1  -6   15.83    3.06
   7  -1   6   13.18   16.01
   7  -1   6   25.08    8.00
   7   1   6   26.23    7.51
  -7  -1   6   25.03   15.18
   7  -1   6    3.79    8.61
   7  -1   6    8.00   17.67
   7  -1   7    1.16   15.41
  -7  -1   7   10.05   16.60
   7  -1   7   -0.69    9.63
   7  -1   7   15.56   18.71
  -7  -1   8   29.35   21.34
   7  -1   8   10.88   12.19
  -7  -3   0  202.31   23.11
  -7   3   0  162.40   20.56
   7   3   0   93.62    5.53
  -7  -3   0  125.77    8.00
   7  -3   0   56.42   10.55
  -7  -3   1   -6.04    9.64
  -7   3   1   -5.51    9.24
  -7  -3  -1   -0.39    8.90
  -7   3  -1    4.58    7.65
   7   3   1   -1.01    3.61
   7   3  -1   -0.52    2.48
  -7  -3   1    9.08    4.64
  -7  -3  -1   -6.16    5.51
   7  -3   1    3.45    6.79
   7  -3  -1    1.41    7.76
  -7  -3  -2  105.00   10.36
  -7   3  -2   98.18   10.10
   7  -3   2   65.20    5.54
   7  -3   2    2.25    5.95
   7   3   2   99.85    6.47
  -7  -3  -2  114.05    8.79
   7  -3   2   51.87    9.37
  -7  -3   2  127.34   14.63
  -7   3   2  132.02   14.39
   7   3   3   -6.44   10.19
   7  -3   3   -0.71    7.23
  -7  -3   3    4.99    7.09
   7   3   3   -0.35    4.63
  -7  -3  -3   -2.00    6.31
  -7   3  -3   -1.63    6.10
   7  -3   3    1.95    4.33
   7  -3   3    4.46    8.77
   7  -3   4  100.71   10.77
  -7  -3  -4   62.97    8.73
  -7   3  -4   90.09    9.13
   7   3   4   79.87    6.75
  -7  -3   4   91.88   12.88
   7   3   4    7.85   14.68
   7  -3   4   -2.94   13.12
   7  -3   4   51.45    8.06
   7  -3   4   12.71   13.57
   7   3   5   -2.37   19.53
   7  -3   5   -4.03   17.37
   7  -3   5    4.58    6.61
  -7  -3   5    3.07   11.09
   7  -3   5    2.25    6.60
   7  -3   6   79.34   10.25
   7   3   6   18.55   20.10
   7  -3   6   22.33   18.01
  -7  -3   6   53.73   16.39
   7  -3   6   30.52   10.11
   7  -3   6   25.59   17.97
   7   3   7    7.48   17.19
   7  -3   7    4.77   14.87
  -7  -3   7    3.51   16.30
   7  -3   7    1.80    9.81
   7  -3   7    8.55   25.12
  -7  -3   8    9.28   19.90
   7  -3   8    5.52   12.07
   7  -3   9    2.72   11.78
  -7  -3   9   -1.10   20.44
  -7  -5   0  113.26   19.25
  -7   5   0  103.91   17.91
   7  -5   0   72.32    4.78
   7  -5   0   60.63    8.44
  -7  -5   1   20.95   10.74
  -7   5   1   11.74    9.67
  -7  -5  -1   17.47    9.55
  -7   5  -1   27.38    8.71
   7  -5   1   19.98    7.89
  -7  -5  -1   34.80    8.02
   7  -5  -1   24.67    9.00
  -7  -5  -2  114.92   11.05
  -7   5  -2   89.73    9.33
   7   5   2   41.39   12.45
   7  -5   2   -1.17    6.39
  -7  -5  -2  131.69    9.69
   7  -5   2   63.90    9.67
  -7  -5   2  152.46   10.62
   7  -5  -2   46.72    6.52
  -7  -5   2  113.91   14.01
  -7   5   2  101.75   13.13
  -7  -5   3   24.62   11.87
  -7   5   3   31.41   11.95
   7   5   3   -0.58    9.81
   7  -5   3   -2.87    7.72
  -7  -5  -3   15.70    7.15
  -7   5  -3   18.67    6.97
  -7  -5  -3   34.35    7.90
  -7  -5   3   40.83    8.81
   7  -5   3    3.95   13.42
   7  -5  -3    4.31    5.99
  -7  -5  -4   47.37    7.84
  -7   5  -4   56.72    7.65
   7   5   4    1.49   13.06
  -7  -5   4   54.84    4.88
  -7  -5  -4   76.03    9.30
   7  -5   4   13.42   15.89
   7  -5   5    3.64    6.54
   7  -5   5   16.29    9.57
   7   5   5   -7.67   18.39
   7  -5   5   -4.02   14.73
  -7  -5   5    5.11   10.70
   7   5   6   23.88   21.84
   7  -5   6    9.74   15.85
   7  -5   6   27.17    9.32
   7  -5   6   21.93   14.03
  -7  -5   6   53.31   16.94
  -7  -5   7   -6.55   16.22
   7   5   7    1.12   19.78
   7  -5   7   -1.22   14.15
   7  -5   7    4.50    9.80
   7  -5   7    9.07   18.69
  -7  -5   8   16.31   20.48
   7  -5   8    3.90   10.83
  -7  -5   9   -1.25   23.09
  -7  -7   0  114.48   18.94
  -7   7   0   87.94   15.65
   7  -7   0   58.07    7.50
  -7  -7   0  106.56   12.06
   7  -7  -1   10.55    5.33
  -7  -7   1    6.18   11.86
  -7   7   1    8.94   11.25
  -7  -7  -1   24.78    7.16
  -7  -7  -1   15.59    8.32
  -7   7  -1   13.93    6.47
   7  -7  -1    5.48    5.53
   7  -7   1    6.80    6.49
  -7  -7  -1   38.18    8.74
  -7  -7   1   25.28   10.14
  -7  -7  -2   59.19    8.34
  -7   7  -2   49.76    7.57
   7   7   2   45.52   12.28
   7  -7   2   -1.76    5.95
  -7  -7   2   62.12   12.65
   7  -7  -2   63.97    7.38
  -7  -7  -2   84.54    9.07
  -7  -7  -2  116.94   13.17
   7  -7  -2   27.24    5.73
   7  -7   2   32.80    8.28
  -7  -7   2   47.61   10.34
  -7   7   2   69.94   12.24
  -7  -7   3   11.85   10.85
  -7   7   3   22.84   11.31
   7   7   3   -3.20    9.53
   7  -7   3   -1.34    7.35
  -7  -7  -3    9.68    6.62
  -7   7  -3    8.51    6.07
   7  -7   3    2.48    8.27
   7  -7  -3   11.67    7.81
  -7  -7   3    8.25    9.72
  -7  -7  -4   45.66    7.44
  -7   7  -4   61.39    7.03
   7   7   4   22.88   14.08
   7  -7   4   -4.89    9.95
  -7  -7   4   66.35    9.51
   7  -7   4   29.80   11.15
   7   7   5   -7.90   18.52
   7  -7   5   -2.64   13.99
  -7  -7   5   30.08    6.31
   7   7   6   12.14   20.85
   7  -7   6   -8.71   17.24
  -7  -7   7   -2.10   15.79
   7  -7   7   20.17    9.65
   7   7   7   -6.59   21.31
   7  -7   7    1.34   15.46
   7  -7   7    5.07    9.46
   7  -7   7    7.23   19.88
   7  -7   8    9.56   11.35
  -7  -7   8   18.14   22.57
  -7  -9   0   47.23   13.65
  -7   9   0   25.62   10.62
  -7  -9   0    6.75   13.73
  -7  -9   1  -13.19   14.53
  -7   9   1  -13.44   13.44
  -7  -9  -1    2.59    6.58
  -7   9  -1    1.26    5.76
  -7  -9  -1   -2.00   11.72
  -7  -9  -2   82.81    9.78
  -7   9  -2   83.01    8.92
   7  -9  -2   53.94    9.71
  -7  -9   2   76.54   14.20
  -7   9   2   78.02   13.54
  -7  -9  -2  116.38   12.63
  -7  -9  -2   95.39   14.26
  -7  -9   3    4.77   10.59
  -7   9   3    3.35    9.93
   7   9   3    3.84    9.53
   7  -9   3    0.61    6.02
  -7  -9  -3   -3.96    9.38
  -7  -9  -3   -0.22    6.22
  -7   9  -3    1.38    5.29
   7  -9  -3   -0.23    7.57
   7  -9   3  -12.25    9.88
   7   9   4   -0.59   11.85
   7  -9   4   -0.79    8.09
   7  -9  -4   11.53    4.44
   7  -9   4    2.33    9.77
   7   9   5  -15.08   16.82
   7  -9   5   -1.21   13.20
   7   9  -5   74.89   15.44
   7   9   5   81.19   19.00
   7   9   6   -4.18   20.73
   7  -9   6   10.12   16.45
   7   9   6   38.15   20.94
   7   9   7  -24.73   25.22
   7  -9   7    1.46   16.05
  -7  -9   8    3.16   20.08
  -7 -11   0   -0.87   11.09
  -7  11   0    6.03    7.43
  -7 -11   1   -4.03   15.26
  -7  11   1   -4.46   12.80
  -7 -11  -1    0.46    6.41
  -7  11  -1   -5.28    6.21
  -7 -11  -2  138.87   15.37
  -7 -11  -2  108.24   11.78
  -7  11  -2  110.50   10.30
   7 -11  -2   54.17   11.78
  -7 -11   2   94.91   16.26
  -7  11   2   87.02   14.09
   7  11   3   17.04   11.47
   7 -11   3    0.62    6.96
  -7 -11   3    1.83    9.66
  -7  11   3    1.71    9.22
  -7 -11  -3   -3.81    6.04
  -7  11  -3    6.93    5.21
   7 -11  -3   -0.85    8.68
  -7 -11  -3   -1.47   11.33
   7 -11  -4    8.77    8.69
  -7  11   4   25.36   12.94
   7  11   4    8.80   11.42
   7 -11   4   -2.92    8.85
  -7 -11  -4    6.39   11.28
   7  11   5   -8.76   13.83
   7 -11   5   -3.45    9.70
   7  11   6   -3.62   19.80
   7 -11   6   -4.00   14.99
   7  11   7   -2.10   23.27
   7 -11   7   -1.52   15.66
  -7 -13   0   13.37    8.40
  -7  13   0   15.59    6.70
  -7 -13   1    6.56   13.93
  -7  13   1  -13.25   10.85
  -7 -13  -1    2.52    5.77
  -7  13  -2   46.67    7.41
  -7 -13   2   23.59   14.58
  -7  13   2   21.37   14.19
  -7 -13  -2   34.75    7.96
   7 -13   3   -0.62    6.79
  -7 -13   3    3.91   10.66
  -7  13   3   -2.28   10.48
   7 -13  -3   -1.37    9.88
  -7 -13  -3   31.57    8.98
  -7 -13  -3    0.62   14.07
  -7 -13  -3   -6.24    5.45
  -7  13  -3    6.04    5.12
   7 -13  -4    8.03    9.71
  -7  13   4    8.72   10.91
   7  13   4   15.95   11.98
   7 -13   4    1.25    6.69
  -7 -13  -4   16.71   14.31
  -7 -13  -5   -5.19   14.21
   7  13   5   -4.50   13.42
   7 -13   5    0.81    8.75
   7  13   6    3.08   14.32
   7 -13   6    0.98   11.41
   7  13   7  -21.67   22.15
  -7 -15   0   38.91    7.05
  -7 -15   0   28.12    8.14
  -7  15   0   11.81    6.28
  -7 -15  -1   22.07    6.94
  -7 -15   1   -0.41   12.11
  -7  15   1   12.73    9.25
  -7 -15  -1   -1.68    6.62
  -7  15  -1    0.48    5.85
  -7 -15   2   -3.30   16.42
  -7  15   2   -4.21   13.52
  -7 -15  -2   -0.35    5.58
  -7  15  -2    7.50    4.86
  -7 -15  -3   14.51   14.65
  -7 -15   3   -4.83   12.43
  -7  15   3   -2.71   11.22
   7 -15  -3  -10.44   12.33
   7  15   4   26.68   13.29
   7 -15   4    0.63    7.21
   7  15   5   -0.45   11.80
   7 -15   5    0.69    7.73
   7  15   6    5.02   14.34
   7 -15   6    1.63    9.60
   7 -15  -7   -2.12    5.09
  -7  17   0    8.42    5.53
  -7  17   1    1.99    5.55
  -7  17  -1    4.30    4.87
  -7  17   2    4.34   10.32
  -7  17   3    0.47   14.01
   7  17   5   10.27   13.83
   7  17   6    0.44   12.25
  -8   0   0  472.29   33.84
   8   0   0  299.69   13.47
  -8   0   1  -18.12   14.60
   8   0   1    1.56    5.31
  -8   0  -1   -1.89    9.70
   8   0   2   -4.78    8.36
  -8   0   2    3.98   10.08
   8   0   2    3.69    4.96
  -8   0  -2   -1.47    6.62
   8   0   3   -1.34    7.76
   8   0   3    0.27    6.78
   8   0   3   -3.28   12.99
   8   0   4   11.03   11.86
   8   0   4  109.71   18.34
   8   0   5   -7.42   17.45
   8   0   5  -10.11   16.61
   8   0   5    2.04    7.07
   8   0   6  -10.23   21.33
   8   0   6   -1.63    8.52
   8   2   0  141.65    7.66
   8  -2   0  152.44   14.32
  -8  -2   1   -2.69   14.12
   8   2  -1    9.16    3.55
   8   2   1   23.21    5.25
  -8  -2  -1   22.58   10.93
   8  -2   1    3.07   12.38
   8  -2   2   -0.70    7.03
  -8  -2   2   16.42   10.99
   8  -2   2   11.08    6.87
   8   2  -2    1.38    2.50
   8   2   2    9.30    4.99
  -8  -2  -2    7.98    7.18
   8  -2   2   -3.52   16.15
   8  -2   3   -0.69    6.89
   8  -2   3   14.89    7.94
   8   2   3   14.06    5.94
   8  -2   3   -3.71   18.33
   8  -2   4  122.88    9.45
   8   2   4  123.43    9.18
   8  -2   4  115.40   24.79
   8  -2   5   -7.44   14.19
   8  -2   5   13.14    8.56
   8   2   5    2.40    6.91
   8  -2   5   17.97   21.00
   8  -2   6   -6.04   20.47
   8  -2   6   11.73    9.62
   8  -2   6   -0.87    9.40
   8  -2   7   -1.42   10.88
  -8  -4   0   39.58   17.05
  -8   4   0   26.67   14.98
   8  -4   0    7.42   12.13
  -8  -4  -1   67.17   12.73
  -8   4  -1   64.93   11.85
  -8  -4   1   57.30   18.65
  -8   4   1   39.22   17.36
  -8  -4   1   69.23    7.41
  -8  -4  -1   80.90    8.49
   8  -4   1   42.49   11.93
   8  -4  -1   43.67   13.84
  -8  -4  -2   68.64   10.45
  -8   4  -2   65.49    9.92
  -8  -4   2   78.59   16.20
  -8  -4  -2  106.11   10.38
   8  -4   2   35.29   12.74
  -8   4   2   83.92   15.88
   8  -4   3   17.45    5.89
   8   4   3   13.77   11.88
   8  -4   3    2.86    7.48
   8  -4   3   32.33   13.97
   8  -4   4   42.94   10.21
  -8  -4   4   38.10   11.82
   8   4   4    9.28   13.13
   8  -4   4   -3.54    9.86
   8  -4   4   16.60    7.29
   8  -4   4    5.64   16.95
   8   4   5   -1.70   14.35
   8  -4   5   -7.55   14.29
  -8  -4   5   31.12   14.18
   8  -4   5   26.43    9.16
   8  -4   5    7.41    7.68
   8  -4   5   20.31   18.26
  -8  -4   6   28.52   17.48
   8   4   6    8.99   22.02
   8  -4   6    3.00   17.46
   8  -4   6   44.24   11.21
   8  -4   6   14.97    9.92
  -8  -4   7    9.27   18.10
   8  -4   7   -1.07   10.57
  -8  -4   8   12.22   21.04
  -8  -6   0   13.27   14.60
  -8   6   0   -2.32   12.39
   8  -6   0   -1.81   12.47
  -8  -6   1   29.94   17.93
  -8   6   1   35.88   17.51
  -8  -6  -1   42.99   10.56
  -8   6  -1   30.01    8.53
  -8  -6  -1   93.89   10.09
  -8  -6   1   79.86    9.65
   8  -6   1   37.32   14.08
   8  -6  -1   29.55   10.72
  -8  -6  -2  115.75   12.04
  -8   6  -2   89.54   10.27
  -8  -6  -2  173.66   12.76
  -8  -6   2  196.67   11.27
   8  -6   2   95.11   16.69
   8  -6  -2   65.16   11.16
  -8  -6   2  119.47   17.80
  -8   6   2  123.51   17.26
  -8  -6   3   28.00    8.80
   8   6   3   20.83   11.97
   8  -6   3    1.44    8.04
  -8  -6   3   51.46    7.41
   8  -6   3   21.91   16.71
   8   6   4    6.27   12.78
   8  -6   4    1.72    8.36
   8  -6   4   -0.38   16.90
   8  -6   4    5.99    6.23
  -8  -6   4    7.93    9.94
   8  -6   5    9.99    7.17
   8   6   5    4.89   14.11
   8  -6   5   -4.94   12.19
   8  -6   5   21.67   10.99
  -8  -6   5   15.77   14.57
   8  -6   5    0.90   15.70
   8  -6   6   54.59   10.99
  -8  -6   6   45.18   17.81
   8   6   6   10.49   21.95
   8  -6   6   -1.46   17.36
   8  -6   6   26.81   10.61
  -8  -6   7    4.77   18.74
  -8  -6   8   10.30   22.93
  -8  -8   0    2.98   12.95
  -8   8   0   -2.71   11.35
  -8  -8   0    4.23    6.57
   8  -8   0    1.28    7.47
  -8  -8  -1    5.81    6.75
  -8  -8   1    7.08   16.88
  -8   8   1  -10.85   15.68
  -8  -8  -1    7.38    7.68
  -8   8  -1   -1.67    6.25
   8  -8  -1    1.97    4.67
   8  -8   1   -0.19    8.43
   8  -8  -1   -4.72    7.79
  -8  -8   1   21.15    9.55
  -8  -8  -2  115.86   11.89
  -8   8  -2   99.66   10.48
   8  -8   2   60.19   11.10
   8  -8  -2   67.95    9.62
  -8  -8   2  103.46   17.70
  -8   8   2   98.49   16.83
   8   8   3    9.09   12.64
   8  -8   3   -0.77    7.81
   8  -8   3   -5.32   11.78
   8  -8  -3    8.04    7.45
   8   8   4    8.23   12.04
   8  -8   4   -0.82    8.60
   8  -8   4  -19.82   14.50
   8   8   5  -12.58   14.91
   8  -8   5   -4.88   11.47
   8  -8   5   -3.01   20.23
   8  -8   6   69.96   13.69
   8   8   6    1.77   17.68
   8  -8   6    1.28   13.93
  -8  -8   6   43.23   17.95
  -8  -8   7  -10.03   19.99
  -8 -10   0    5.82   13.30
  -8  10   0    0.38    9.83
  -8 -10   0   11.88   13.64
  -8 -10  -1   16.32   10.22
  -8 -10   1    1.89   16.73
  -8  10   1   19.14   15.27
  -8 -10  -1   18.37    8.47
  -8  10  -1    3.44    6.89
   8 -10   1   -4.34    9.85
   8 -10  -1   -0.19    7.66
  -8 -10  -1   43.55   13.80
  -8 -10   1   21.00   13.99
  -8 -10  -2   67.42   10.26
  -8  10  -2   69.70    9.47
  -8 -10   2   66.17   17.13
  -8  10   2   53.23   16.47
   8 -10  -2   63.25    9.85
  -8 -10  -2  106.60   13.00
   8 -10  -2   32.33    7.99
   8 -10   2   33.53   10.72
  -8 -10   2   69.64   19.41
   8 -10   3    0.76    8.13
   8 -10  -3   15.43    7.64
   8 -10  -3    1.45    6.53
   8 -10   3   -1.32   10.44
  -8 -10   3    3.90   17.16
   8  10   4   16.48   12.75
   8 -10   4    0.74    7.98
   8 -10   4   -0.13   11.45
   8 -10  -4    5.21    8.39
   8  10   5   -9.65   15.65
   8 -10   5   -0.95   10.42
   8 -10   5   -1.48   14.69
   8  10   6    7.65   16.82
   8 -10   6    1.03   11.18
  -8 -12   0    7.13    9.88
  -8  12   0   10.99    7.71
  -8 -12   1   12.88   15.84
  -8  12   1   14.61   12.30
  -8 -12  -1   13.23    8.25
  -8  12  -1    2.28    6.37
  -8  12   2    8.72   15.93
  -8 -12  -2   24.78   13.24
  -8 -12  -3   14.34   13.37
   8  12   4   25.82   15.20
   8 -12   4    3.76    8.45
   8 -12  -4   -3.50    6.32
   8 -12   4   -7.58   12.12
   8  12   5   12.66   13.69
   8 -12   5   -0.84    9.20
   8  12   6   -2.75   15.81
   8 -12   6   -0.97   10.84
  -8 -14   0   28.13    8.95
  -8  14   0   20.59    7.68
  -8 -14   1   -3.79   13.71
  -8  14   1    6.59    9.81
  -8 -14  -1   -3.25    6.78
  -8  14  -1   -4.85    6.26
  -8 -14  -2    0.26   13.14
  -8 -14  -3    8.30   14.42
   8 -14   4    2.24    8.77
   8  14   5   18.45   14.39
   8 -14   5   -3.72    8.65
  -8  16   0    9.51    6.17
  -8  16   1    9.36    6.82
  -8  16  -1    2.33    6.27
   8  16   5   28.01   15.70
   9  -1   0   22.56    6.90
   9   1   0   15.55    5.33
   9  -1   1    3.51    6.97
   9   1  -1    2.70    4.42
   9   1   1    4.81    5.52
   9  -1   2   51.59    7.21
   9   1   2   57.41    7.35
   9  -1   3   22.06   17.17
   9  -1   3   -2.43    8.89
   9  -1   3    8.22    7.80
   9   1   3   -4.60    6.64
   9  -1   4    7.40    9.87
   9  -1   4   23.32    8.60
   9   1   4   10.54    7.54
   9  -1   4   22.79   18.67
   9  -1   5   15.91   20.21
   9  -1   5    6.14   11.39
   9  -1   5    1.33    9.24
   9   1   5   -3.96    8.24
   9  -1   6   22.30   10.27
   9  -3   0   21.54   12.81
   9   3   1    0.84    4.57
   9  -3   1   13.23   14.43
   9  -3   2   64.88   10.08
   9   3   2   32.58    6.05
   9  -3   2   40.78   20.18
   9   3   3    5.24   12.17
   9  -3   3   -1.65    8.28
   9  -3   3   12.39    9.95
   9  -3   3   15.07   20.30
   9   3   4    7.56   11.47
   9  -3   4   -0.84    8.31
   9  -3   4   22.95    8.26
   9  -3   4   17.78   22.72
   9   3   5   -5.63   15.10
   9  -3   5    3.14   10.95
   9  -3   5    2.87   10.13
   9  -3   5   22.88   22.44
  -9  -5   0   54.17    9.75
   9  -5   0   12.30   13.41
  -9  -5  -1   49.40    9.99
   9  -5   1   13.75   14.79
   9  -5  -1   15.37   13.24
   9  -5   2   43.24   17.57
   9   5   3   11.28   13.68
   9  -5   3    1.76    9.07
   9  -5   3   26.76   17.72
   9   5   4   -0.73   13.23
   9  -5   4    0.87    8.60
   9  -5   4   23.89   11.06
   9  -5   4   27.60   19.28
   9   5   5   -4.25   14.90
   9  -5   5   -1.02   10.75
   9  -5   5   11.65   10.12
  -9  -5   5   -2.50   14.03
   9  -5   5    8.62   21.12
  -9  -7   0  103.37   11.80
   9  -7   0   38.71   14.45
  -9  -7  -1   44.29   10.55
  -9  -7   1   48.05   10.27
   9  -7   1    8.96   15.19
   9  -7  -1   15.82   11.76
   9  -7   2   -7.69   16.87
   9  -7  -2   12.81   11.64
  -9  -7   3    5.85    8.82
   9  -7   3    0.19   17.53
   9   7   4   14.38   15.04
   9  -7   4   -2.61    9.32
  -9  -7   4   27.77   12.77
   9  -7   4   26.62   17.23
   9   7   5    1.55   14.95
   9  -7   5   -2.95   10.82
   9  -7   5   21.72   12.60
  -9  -7   5    6.40   14.73
   9  -7   5    7.91   16.53
  -9  -9   0  198.83   19.17
   9  -9   0   38.13   12.31
   9  -9   1  -13.08   13.33
   9  -9  -1    8.67   15.28
   9  -9   2   -8.91   13.77
   9  -9  -2   15.13   12.32
   9  -9   3  -22.06   14.89
   9  -9  -3    9.46   10.62
   9   9   4   33.72   17.35
   9  -9   4    2.76    9.23
   9  -9   4   11.56   22.14
   9   9   5   -3.39   14.74
   9  -9   5   -4.51   10.49
  -9 -11   0   30.58   10.22
   9 -11   0    6.57   10.86
   9 -11   1  -10.03   11.57
   9 -11  -1   -2.05    9.78
   9 -11   2   -5.21   11.88
   9 -11  -2   -2.77    9.66
   9 -11   3   -5.12   14.03
   9 -11  -3   -3.86   12.96
   9 -11   4   -1.80    9.66
   9 -11   4    1.85   16.31
   9 -13   0    4.60   12.49
   9 -13  -1  -11.85   11.93
   9 -13   1  -16.51   13.77
   9 -13  -2   -8.21    9.80
   9 -13   2   -8.71   12.57
   9 -13   3   -8.48   13.61
  10   0   0    5.15    6.17
  10   0  -1    4.05    5.80
  10   0   1    4.73    6.63
  10   0  -2   29.06    5.24
  10   0   2   57.84    8.58
  10   0  -3    1.77    3.09
  10   0   3    4.06    8.61
  10   0   4    0.97   12.00
  10   0   4    0.60    8.39
  10   0   5    3.16    9.67
  10  -2   0    5.87    7.75
  10   2   0   -1.16    5.23
  10  -2  -1   15.17    7.54
  10  -2   1    7.32    8.59
  10   2   1    4.05    5.97
  10  -2   2   40.10    8.97
  10   2   2   24.49    7.13
  10  -2   3   10.69    8.87
  10   2   3   -1.97    7.20
  10  -2   4    7.95    9.25
  10  -2   5    6.15   10.90
  10  -4   1   28.19   16.81
  10  -4   2   24.24   10.71
  10  -4   2   36.30   19.90
  10  -4   3   29.47   11.12
  10  -4   3   42.90   22.58
  10  -4   4   14.84    9.38
  10  -4   4   15.88   22.63
  10  -6   0   37.56   20.56
  10  -6   1   26.89   19.11
  10  -6  -1   28.85   14.41
  10  -6   2   19.04   19.41
  10  -6   3   17.02   11.83
  10  -6   3   17.08   20.76
  10  -6   4   38.79   13.70
  10  -6   4   22.21   23.23
  10  -8   0   55.58   17.82
  10  -8   1    7.94   14.14
  10  -8  -1   24.58   15.77
  10  -8   2    8.02   15.35
  10  -8  -2   20.71   15.31
  10  -8   3    6.93   16.09
  10 -10   0   37.59   18.98
  10 -10   1   10.62   20.76
  10 -10  -1   -2.55   14.46
  10 -10   2    8.13   22.22
  10 -10  -2   13.71   14.63
  10 -10   3   -9.51   23.71
  10 -12   0   -3.06   15.95
  10 -12   1    6.12   16.97
  10 -12  -1    2.61   14.15
  10 -12   2   -4.72   18.03
  10 -14   0  -12.42   14.04
  10 -14   1   -2.49   14.53
  10 -14  -1    5.40   13.18
  10 -16   0  -12.99   14.73
  11  -1   0   23.22    7.80
  11   1   0   10.09    6.43
  11  -1  -1    3.54    6.57
  11  -1   1    2.76    7.74
  11   1   1   -3.32    7.12
  11  -1   2    4.91    8.54
  11   1   2    2.34    7.59
  11  -1   3    9.15    9.63
  11   1   3   -0.09    8.43
  11  -1   4    9.62    9.51
  11   1   4    4.48    8.33
  11  -3   0   18.84   10.35
  11  -3  -1    4.14    8.73
  11  -3   1    9.79    9.22
  11  -3   2    5.84    8.60
  11  -3   3   10.48   10.91
  11  -5   1    1.39   11.09
  11  -5   1   17.22   18.78
  11  -5   2   15.13   11.78
  11  -5   2   26.28   21.76
  11  -5   3   11.78   11.73
  11  -5   3   24.46   23.00
  11  -7   0   22.48   19.03
  11  -7   1   36.19   25.65
  11  -7   2   47.36   30.15
  11  -9   0   40.91   20.87
  11  -9   1   -2.19   21.86
  11  -9   2   58.36   25.12
  11 -11   0   11.48   20.34
  11 -11   1   14.06   18.08
  12   0   2    2.07    8.76
  12   0   3   -4.72    9.06
  12  -2   1    5.44    9.11
  12  -2   2    6.65    9.60
  12  -4   1    9.18    9.17
  12  -4   2   10.05   10.93
  12  -6   1   12.02   12.84
  12  -8   1   37.50   24.71
   0   0   0    0.00    0.00
;
_shelx_hkl_checksum              71598
loop_
_space_group_symop_operation_xyz
'x, y, z'
'-x, -y, z+1/2'
'-x, y, -z+1/2'
'x, -y, -z'
'x+1/2, y+1/2, z'
'-x+1/2, -y+1/2, z+1/2'
'-x+1/2, y+1/2, -z+1/2'
'x+1/2, -y+1/2, -z'
'-x, -y, -z'
'x, y, -z-1/2'
'x, -y, z-1/2'
'-x, y, z'
'-x+1/2, -y+1/2, -z'
'x+1/2, y+1/2, -z-1/2'
'x+1/2, -y+1/2, z-1/2'
'-x+1/2, y+1/2, z'
loop_
_atom_site_label
_atom_site_type_symbol
_atom_site_fract_x
_atom_site_fract_y
_atom_site_fract_z
_atom_site_U_iso_or_equiv
_atom_site_adp_type
_atom_site_occupancy
_atom_site_site_symmetry_order
_atom_site_calc_flag
_atom_site_refinement_flags_posn
_atom_site_refinement_flags_adp
_atom_site_refinement_flags_occupancy
_atom_site_disorder_assembly
_atom_site_disorder_group
F1 F 0.693(3) 0.7437(9) 0.2500 0.1787(4) Uani 0.5 2 d S TU P . .
C2 C 0.5000 0.81648(4) 0.06208(16) 0.1783(2) Uani 1 2 d DS TU P . .
H2A H 0.4121 0.8147 -0.0095 0.214 Uiso 0.5 1 d R U P . .
H2B H 0.5879 0.8147 -0.0095 0.214 Uiso 0.5 1 d R U P . .
C3 C 0.5000 0.7572(9) 0.165(2) 0.1786(3) Uani 1 2 d S TU P . .
H3A H 0.4544 0.7172 0.1114 0.214 Uiso 0.75 1 d R U P . .
C1 C 0.5000 0.88004(4) 0.14460(16) 0.1782(2) Uani 0.5 2 d DS TU P . .
N1 N 0.5000 0.88004(4) 0.14460(16) 0.1782(2) Uani 0.5 2 d S TU P . .
H1A H 0.4170 0.9032 0.1016 0.214 Uiso 0.25 1 d R U P . .
H1B H 0.5830 0.9032 0.1016 0.214 Uiso 0.25 1 d R U P . .
Pb1 Pb 0.0000 1.0000 0.0000 0.07106(16) Uani 1 4 d S T P . .
I1 I 0.25596(9) 1.06063(4) 0.2500 0.0946(3) Uani 1 2 d S T P . .
I2 I 0.0000 0.86680(5) 0.2500 0.1016(4) Uani 1 4 d S T P . .
loop_
_atom_site_aniso_label
_atom_site_aniso_U_11
_atom_site_aniso_U_22
_atom_site_aniso_U_33
_atom_site_aniso_U_23
_atom_site_aniso_U_13
_atom_site_aniso_U_12
F1 0.2376(6) 0.1521(6) 0.1464(6) 0.000 0.000 0.0001(6)
C2 0.2375(4) 0.1517(4) 0.1459(4) 0.0003(4) 0.000 0.000
C3 0.2376(4) 0.1520(4) 0.1461(4) 0.0002(4) 0.000 0.000
C1 0.2374(4) 0.1515(4) 0.1458(4) 0.0004(4) 0.000 0.000
N1 0.2374(4) 0.1515(4) 0.1458(4) 0.0004(4) 0.000 0.000
Pb1 0.0780(3) 0.0949(3) 0.0403(2) 0.00102(18) 0.000 0.000
I1 0.0832(4) 0.1257(6) 0.0748(4) 0.000 0.000 -0.0216(4)
I2 0.1541(10) 0.0856(6) 0.0650(5) 0.000 0.000 0.000
loop_
_atom_type_symbol
_atom_type_description
_atom_type_scat_dispersion_real
_atom_type_scat_dispersion_imag
_atom_type_scat_source
C C 0.0033 0.0016 'International Tables Vol C Tables 4.2.6.8 and 6.1.1.4'
H H 0.0000 0.0000 'International Tables Vol C Tables 4.2.6.8 and 6.1.1.4'
N N 0.0061 0.0033 'International Tables Vol C Tables 4.2.6.8 and 6.1.1.4'
F F 0.0171 0.0103 'International Tables Vol C Tables 4.2.6.8 and 6.1.1.4'
I I -0.4742 1.8119 'International Tables Vol C Tables 4.2.6.8 and 6.1.1.4'
Pb Pb -3.3944 10.1111 'International Tables Vol C Tables 4.2.6.8 and 6.1.1.4'
loop_
_geom_angle_atom_site_label_1
_geom_angle_atom_site_label_2
_geom_angle_atom_site_label_3
_geom_angle
_geom_angle_site_symmetry_1
_geom_angle_site_symmetry_3
_geom_angle_publ_flag
C3 F1 C3 43.7(12) 10_556 . ?
C1 C2 C3 115.3(7) . . ?
C3 C3 C2 126.1(7) 10_556 . ?
C3 C3 F1 68.1(6) 10_556 . ?
C2 C3 F1 109.4(7) . . ?
C3 C3 F1 68.1(6) 10_556 3_655 ?
C2 C3 F1 109.4(7) . 3_655 ?
F1 C3 F1 133.1(12) . 3_655 ?
C2 C1 N1 118.65(7) . 10_556 ?
C2 C1 C1 118.65(7) . 10_556 ?
N1 C1 C1 0.0 10_556 10_556 ?
I1 Pb1 I1 88.09(2) 9_575 11_575 ?
I1 Pb1 I1 91.91(2) 9_575 3 ?
I1 Pb1 I1 180.0 11_575 3 ?
I1 Pb1 I1 180.0 9_575 . ?
I1 Pb1 I1 91.91(2) 11_575 . ?
I1 Pb1 I1 88.09(2) 3 . ?
I1 Pb1 I2 84.007(15) 9_575 9_575 ?
I1 Pb1 I2 84.007(15) 11_575 9_575 ?
I1 Pb1 I2 95.993(15) 3 9_575 ?
I1 Pb1 I2 95.993(15) . 9_575 ?
I1 Pb1 I2 95.993(15) 9_575 . ?
I1 Pb1 I2 95.993(15) 11_575 . ?
I1 Pb1 I2 84.007(15) 3 . ?
I1 Pb1 I2 84.008(15) . . ?
I2 Pb1 I2 180.0 9_575 . ?
Pb1 I1 Pb1 77.040(19) . 2_575 ?
Pb1 I2 Pb1 76.61(2) 2_575 . ?
loop_
_geom_bond_atom_site_label_1
_geom_bond_atom_site_label_2
_geom_bond_distance
_geom_bond_site_symmetry_2
_geom_bond_publ_flag
F1 C3 1.84(2) 10_556 ?
F1 C3 1.84(2) . ?
C2 C1 1.3801(11) . ?
C2 C3 1.397(17) . ?
C3 C3 1.37(4) 10_556 ?
C3 F1 1.84(2) 3_655 ?
C1 N1 1.691(3) 10_556 ?
C1 C1 1.691(3) 10_556 ?
Pb1 I1 3.2193(7) 9_575 ?
Pb1 I1 3.2193(7) 11_575 ?
Pb1 I1 3.2193(7) 3 ?
Pb1 I1 3.2194(7) . ?
Pb1 I2 3.2346(8) 9_575 ?
Pb1 I2 3.2347(8) . ?
I1 Pb1 3.2194(7) 2_575 ?
I2 Pb1 3.2347(8) 2_575 ?
