#------------------------------------------------------------------------------
#$Date: 2020-04-28 22:53:27 +0300 (Tue, 28 Apr 2020) $
#$Revision: 251231 $
#$URL: file:///home/coder/svn-repositories/cod/cif/4/13/48/4134814.cif $
#------------------------------------------------------------------------------
#
# This file is available in the Crystallography Open Database (COD),
# http://www.crystallography.net/
#
# All data on this site have been placed in the public domain by the
# contributors.
#
data_4134814
loop_
_publ_author_name
'Mao, Lingling'
'Guo, Peijun'
'Kepenekian, Mika\"el'
'Spanopoulos, Ioannis'
'He, Yihui'
'Katan, Claudine'
'Even, Jacky'
'Schaller, Richard D.'
'Seshadri, Ram'
'Stoumpos, Constantinos C.'
'Kanatzidis, Mercouri G.'
_publ_section_title
;
 Organic Cation Alloying on Intralayer A and Interlayer A' sites in 2D
 Hybrid Dion-Jacobson Lead Bromide Perovskites
 (A')(A)Pb<sub>2</sub>Br<sub>7</sub>.
;
_journal_name_full               'Journal of the American Chemical Society'
_journal_paper_doi               10.1021/jacs.0c01625
_journal_year                    2020
_chemical_formula_moiety         'Br7 Pb2, C6 H16 N2, C N'
_chemical_formula_sum            'C8 H26 Br7 N4 Pb2'
_chemical_formula_weight         1152.08
_space_group_crystal_system      monoclinic
_space_group_IT_number           7
_space_group_name_Hall           'P -2yc'
_space_group_name_H-M_alt        'P 1 c 1'
_atom_sites_solution_hydrogens   geom
_atom_sites_solution_primary     direct
_audit_creation_date             2020-01-17
_audit_creation_method
;
Olex2 1.2
(compiled 2018.05.29 svn.r3508 for OlexSys, GUI svn.r5506)
;
_cell_angle_alpha                90
_cell_angle_beta                 90.024(3)
_cell_angle_gamma                90
_cell_formula_units_Z            2
_cell_length_a                   16.0142(12)
_cell_length_b                   8.4185(7)
_cell_length_c                   8.4164(6)
_cell_measurement_reflns_used    6491
_cell_measurement_temperature    293(2)
_cell_measurement_theta_max      28.27
_cell_measurement_theta_min      3.42
_cell_volume                     1134.66(15)
_computing_cell_refinement       'SAINT V8.38A (?, 2016)'
_computing_data_reduction        'SAINT V8.38A (?, 2016)'
_computing_molecular_graphics    'Olex2 (Dolomanov et al., 2009)'
_computing_publication_material  'Olex2 (Dolomanov et al., 2009)'
_computing_structure_refinement  'XL (Sheldrick, 2008)'
_computing_structure_solution    'XS (Sheldrick, 2008)'
_diffrn_ambient_temperature      292.93
_diffrn_measured_fraction_theta_full 1.000
_diffrn_measured_fraction_theta_max 0.996
_diffrn_measurement_device_type  'Bruker APEX-II CCD'
_diffrn_measurement_method       '\f and \w scans'
_diffrn_radiation_type           MoK\a
_diffrn_radiation_wavelength     0.71073
_diffrn_reflns_av_R_equivalents  0.0536
_diffrn_reflns_av_unetI/netI     0.0607
_diffrn_reflns_Laue_measured_fraction_full 1.000
_diffrn_reflns_Laue_measured_fraction_max 0.996
_diffrn_reflns_limit_h_max       21
_diffrn_reflns_limit_h_min       -21
_diffrn_reflns_limit_k_max       11
_diffrn_reflns_limit_k_min       -11
_diffrn_reflns_limit_l_max       11
_diffrn_reflns_limit_l_min       -10
_diffrn_reflns_number            13937
_diffrn_reflns_point_group_measured_fraction_full 0.985
_diffrn_reflns_point_group_measured_fraction_max 0.969
_diffrn_reflns_theta_full        26.000
_diffrn_reflns_theta_max         28.350
_diffrn_reflns_theta_min         1.272
_diffrn_standards_number         0
_exptl_absorpt_coefficient_mu    27.142
_exptl_absorpt_correction_T_max  0.6079
_exptl_absorpt_correction_T_min  0.2300
_exptl_absorpt_correction_type   numerical
_exptl_absorpt_process_details
;
SADABS-2016/2 (Bruker,2016/2) was used for absorption correction.
wR2(int) was 0.1272 before and 0.0884 after correction.
The Ratio of minimum to maximum transmission is 0.3784.
The \l/2 correction factor is Not present.
;
_exptl_crystal_colour            yellow
_exptl_crystal_colour_primary    yellow
_exptl_crystal_density_diffrn    3.372
_exptl_crystal_description       plate
_exptl_crystal_F_000             1022
_exptl_crystal_size_max          0.084
_exptl_crystal_size_mid          0.056
_exptl_crystal_size_min          0.033
_refine_diff_density_max         1.549
_refine_diff_density_min         -1.866
_refine_diff_density_rms         0.278
_refine_ls_abs_structure_details
;
 Flack x determined using 1544 quotients [(I+)-(I-)]/[(I+)+(I-)]
 (Parsons, Flack and Wagner, Acta Cryst. B69 (2013) 249-259).
;
_refine_ls_abs_structure_Flack   0.37(4)
_refine_ls_extinction_method     none
_refine_ls_goodness_of_fit_ref   1.065
_refine_ls_hydrogen_treatment    constr
_refine_ls_matrix_type           full
_refine_ls_number_parameters     115
_refine_ls_number_reflns         5492
_refine_ls_number_restraints     27
_refine_ls_restrained_S_all      1.070
_refine_ls_R_factor_all          0.0638
_refine_ls_R_factor_gt           0.0448
_refine_ls_shift/su_max          1.058
_refine_ls_shift/su_mean         0.044
_refine_ls_structure_factor_coef Fsqd
_refine_ls_weighting_details
'w=1/[\s^2^(Fo^2^)+(0.0850P)^2^] where P=(Fo^2^+2Fc^2^)/3'
_refine_ls_weighting_scheme      calc
_refine_ls_wR_factor_gt          0.1400
_refine_ls_wR_factor_ref         0.1565
_reflns_Friedel_coverage         0.943
_reflns_Friedel_fraction_full    0.971
_reflns_Friedel_fraction_max     0.943
_reflns_number_gt                3582
_reflns_number_total             5492
_reflns_threshold_expression     'I > 2\s(I)'
_cod_data_source_file            ja0c01625_si_010.cif
_cod_data_source_block           pc
_cod_database_code               4134814
_shelx_shelxl_version_number     2014/7
_shelx_space_group_comment
;
The symmetry employed for this shelxl refinement is uniquely defined
by the following loop, which should always be used as a source of
symmetry information in preference to the above space-group names.
They are only intended as comments.
;
_shelx_estimated_absorpt_t_max   0.468
_shelx_estimated_absorpt_t_min   0.209
_olex2_refinement_description
;
1. Fixed Uiso
 At 1.2 times of:
  All C(H) groups, All C(H,H) groups, All N(H,H) groups, All N(H,H,H) groups
2. Restrained distances
 N3-C2 = C2-C3
 1.5 with sigma of 0.02
 C2-C3 = C3-C4
 1.5 with sigma of 0.02
 C3-C4 = C4-C5
 1.5 with sigma of 0.02
 C4-C5 = C5-C6
 1.5 with sigma of 0.02
 C5-C6 = C6-N3
 1.5 with sigma of 0.02
 C6-N3 = N3-C2
 1.5 with sigma of 0.02
 C3-C4 = C4-C7
 1.5 with sigma of 0.02
 C4-C7 = C7-N1
 1.5 with sigma of 0.02
 N2-C8
 1.5 with sigma of 0.02
 N3-C3
 2.516 with sigma of 0.04
 C2-C4
 2.544 with sigma of 0.04
 C3-C5
 2.53 with sigma of 0.04
 C4-C6
 2.558 with sigma of 0.04
 C5-N3
 2.53 with sigma of 0.04
 C6-C2
 2.53 with sigma of 0.04
 C3-C7
 2.442 with sigma of 0.04
 C4-N1
 2.598 with sigma of 0.04
3. Uiso/Uaniso restraints and constraints
Uiso(N1) = Uiso(N3) = Uiso(C2) = Uiso(C3) = Uiso(C4) = Uiso(C5) = Uiso(C6) =
Uiso(C7)
Uiso(N2) = Uiso(C8)
4.a Ternary CH refined with riding coordinates:
 C4(H4)
4.b Secondary CH2 refined with riding coordinates:
 N3(H3B,H3A), C2(H2B,H2A), C3(H3C,H3D), C5(H5A,H5B), C6(H6A,H6B), C7(H7B,H7A)
4.c Idealised Me refined as rotating group:
 N1(H1C,H1A,H1B)
;
_shelx_res_file
;
    pc.res created by SHELXL-2014/7

TITL Pc in Pc #7
REM reset to Pc #7
CELL 0.71073 16.0142 8.4185 8.4164 90 90.0238 90
ZERR 2 0.0012 0.0007 0.0006 0 0.0032 0
LATT -1
SYMM +X,-Y,0.5+Z
SFAC C H N Br Pb
UNIT 16 52 8 14 4
DFIX 1.5 N3 C2 C2 C3
DFIX 1.5 C2 C3 C3 C4
DFIX 1.5 C3 C4 C4 C5
DFIX 1.5 C4 C5 C5 C6
DFIX 1.5 C5 C6 C6 N3
DFIX 1.5 C6 N3 N3 C2
DFIX 1.5 C3 C4 C4 C7
DFIX 1.5 C4 C7 C7 N1
DFIX 1.5 N2 C8
DANG 2.516 N3 C3
DANG 2.544 C2 C4
DANG 2.53 C3 C5
DANG 2.558 C4 C6
DANG 2.53 C5 N3
DANG 2.53 C6 C2
DANG 2.442 C3 C7
DANG 2.598 C4 N1
EADP N1 N3 C2 C3 C4 C5 C6 C7
EADP N2 C8

L.S. 99
PLAN  150
SIZE 0.033 0.056 0.084
TEMP 19.78
BOND
MORE -1
BOND $H
CONF
fmap 2
acta 52
REM <olex2.extras>
REM <HklSrc "%.\\Pc.hkl">
REM </olex2.extras>

WGHT    0.085000
FVAR       0.05901
PB1   5    1.419623    0.249951    0.965582    11.00000    0.03788    0.02876 =
         0.03907   -0.00044   -0.00033   -0.00029
PB2   5    1.039830    0.249961    0.965563    11.00000    0.04206    0.03765 =
         0.02794    0.00047    0.00014    0.00021
BR3   4    1.041521    0.474649    0.690138    11.00000    0.11029    0.07866 =
         0.08056    0.05129   -0.00090   -0.00589
BR4   4    1.419588    0.474742    0.689532    11.00000    0.10920    0.08314 =
         0.07697    0.04982    0.01020    0.00429
BR5   4    1.419547   -0.028440    0.743785    11.00000    0.10877    0.07009 =
         0.07021   -0.03906   -0.01199    0.00890
BR6   4    1.041765   -0.028747    0.743472    11.00000    0.11079    0.06690 =
         0.07224   -0.04071    0.00154   -0.00724
BR7   4    1.229724    0.250745    0.965468    11.00000    0.03399    0.09791 =
         0.09838    0.00029   -0.00042    0.00003
BR10  4    0.856812    0.249955    0.966475    11.00000    0.04142    0.19550 =
         0.19582   -0.02594    0.00062    0.00133
BR11  4    1.598799    0.250374    0.965993    11.00000    0.03230    0.22831 =
         0.21844    0.02741   -0.00482   -0.00313
N1    3    0.886538    0.208244    0.535145    11.00000    0.31087
AFIX 137
H1C   2    0.921675    0.137796    0.493374    11.00000   -1.20000
H1A   2    0.847574    0.157652    0.591015    11.00000   -1.20000
H1B   2    0.914510    0.273990    0.598608    11.00000   -1.20000
AFIX   0
N3    3    0.575705    0.231518    0.513989    11.00000    0.31087
AFIX  23
H3B   2    0.564248    0.272822    0.608849    11.00000   -1.20000
H3A   2    0.528630    0.193430    0.472624    11.00000   -1.20000
AFIX   0
C2    1    0.611973    0.356614    0.406722    11.00000    0.31087
AFIX  23
H2B   2    0.597422    0.327817    0.298606    11.00000   -1.20000
H2A   2    0.583233    0.455335    0.429978    11.00000   -1.20000
AFIX   0
C3    1    0.703924    0.391480    0.408888    11.00000    0.31087
AFIX  23
H3C   2    0.718056    0.455029    0.316599    11.00000   -1.20000
H3D   2    0.717064    0.453322    0.502874    11.00000   -1.20000
AFIX   0
C4    1    0.755439    0.244924    0.408579    11.00000    0.31087
AFIX  13
H4    2    0.743312    0.181632    0.313607    11.00000   -1.20000
AFIX   0
C5    1    0.727179    0.156728    0.556377    11.00000    0.31087
AFIX  23
H5A   2    0.763111    0.065943    0.575442    11.00000   -1.20000
H5B   2    0.729976    0.226220    0.648156    11.00000   -1.20000
AFIX   0
C6    1    0.638528    0.102409    0.529855    11.00000    0.31087
AFIX  23
H6A   2    0.636953    0.038089    0.434278    11.00000   -1.20000
H6B   2    0.622353    0.034879    0.618007    11.00000   -1.20000
AFIX   0
C7    1    0.846441    0.300068    0.406337    11.00000    0.31087
AFIX  23
H7B   2    0.872275    0.277014    0.304697    11.00000   -1.20000
H7A   2    0.850318    0.413252    0.426626    11.00000   -1.20000
AFIX   0
N2    3    1.233078    0.189730    0.538581    11.00000    0.17360
C8    1    1.228342    0.317898    0.416777    11.00000    0.17360
HKLF 4

REM  Pc in Pc #7
REM R1 =  0.0448 for    3582 Fo > 4sig(Fo)  and  0.0638 for all    5492 data
REM    115 parameters refined using     27 restraints

END

WGHT      0.0848      0.0000

REM Highest difference peak  1.549,  deepest hole -1.866,  1-sigma level  0.278
Q1    1   0.8944  0.2492  0.4643  11.00000  0.05    1.55
Q2    1   0.5652  0.2531  0.4715  11.00000  0.05    1.54
Q3    1   0.8657  0.1785  0.9004  11.00000  0.05    1.52
Q4    1   1.5930  0.3218  1.0303  11.00000  0.05    1.50
Q5    1   0.8667  0.3148  0.8920  11.00000  0.05    1.45
Q6    1   0.7054  0.2554  0.4661  11.00000  0.05    1.45
Q7    1   1.5919  0.1849  1.0384  11.00000  0.05    1.43
Q8    1   0.8678  0.3201  1.0308  11.00000  0.05    1.42
Q9    1   0.7556  0.2577  0.4681  11.00000  0.05    1.35
Q10   1   1.5902  0.3150  0.8901  11.00000  0.05    1.34
Q11   1   0.8697  0.1843  1.0439  11.00000  0.05    1.33
Q12   1   1.5904  0.1770  0.8996  11.00000  0.05    1.31
Q13   1   1.2291  0.1509  0.5715  11.00000  0.05    1.16
Q14   1   1.2329  0.3492  0.3632  11.00000  0.05    1.13
Q15   1   0.7360  0.3180  0.3196  11.00000  0.05    1.07
Q16   1   0.7253  0.1776  0.6103  11.00000  0.05    1.05
Q17   1   0.7320  0.3852  0.3858  11.00000  0.05    1.04
Q18   1   0.7287  0.1197  0.5497  11.00000  0.05    1.03
Q19   1   1.2347  0.3407  0.5857  11.00000  0.05    0.95
Q20   1   1.2235  0.2988  0.5150  11.00000  0.05    0.93
Q21   1   1.2377  0.2064  0.4176  11.00000  0.05    0.90
Q22   1   1.2249  0.1569  0.3467  11.00000  0.05    0.89
Q23   1   0.7337  0.3885  0.5226  11.00000  0.05    0.87
Q24   1   0.7224  0.1090  0.4118  11.00000  0.05    0.86
Q25   1   0.8394  0.3273  0.3295  11.00000  0.05    0.79
Q26   1   1.0422  0.4523  0.6547  11.00000  0.05    0.76
Q27   1   0.6209  0.3239  0.3354  11.00000  0.05    0.75
Q28   1   0.6229  0.1737  0.6002  11.00000  0.05    0.74
Q29   1   1.0465  0.5480  0.7659  11.00000  0.05    0.74
Q30   1   1.4139  0.5444  0.7675  11.00000  0.05    0.73
Q31   1   1.4162  0.4517  0.6519  11.00000  0.05    0.72
Q32   1   1.1411  0.4054  0.4744  11.00000  0.05    0.72
Q33   1   1.0452  0.0427  0.6640  11.00000  0.05    0.71
Q34   1   1.1395  0.0839  0.4671  11.00000  0.05    0.70
Q35   1   1.3217  0.4270  0.4640  11.00000  0.05    0.68
Q36   1   1.4178 -0.0413  0.7807  11.00000  0.05    0.68
Q37   1   1.2950  0.2431  0.4344  11.00000  0.05    0.68
Q38   1   1.4134  0.0455  0.6643  11.00000  0.05    0.65
Q39   1   1.3570  0.3714  0.9771  11.00000  0.05    0.64
Q40   1   0.8343  0.1788  0.3209  11.00000  0.05    0.64
Q41   1   0.6239  0.3988  0.5193  11.00000  0.05    0.64
Q42   1   1.0407  0.3773  0.9191  11.00000  0.05    0.62
Q43   1   1.3201  0.1034  0.4624  11.00000  0.05    0.61
Q44   1   1.1020  0.3878  0.9488  11.00000  0.05    0.60
Q45   1   0.5007  0.5311  0.4035  11.00000  0.05    0.60
Q46   1   1.3581  0.1169  0.9828  11.00000  0.05    0.60
Q47   1   0.8268  0.1961  0.2834  11.00000  0.05    0.59
Q48   1   0.8382  0.3153  0.6139  11.00000  0.05    0.59
Q49   1   0.8391  0.1021  0.4091  11.00000  0.05    0.58
Q50   1   0.9578 -0.0280  0.5273  11.00000  0.05    0.57
Q51   1   0.5180  0.0549  0.4444  11.00000  0.05    0.57
Q52   1   0.9405  0.4549  0.4770  11.00000  0.05    0.57
Q53   1   1.2627  0.1833  0.6534  11.00000  0.05    0.57
Q54   1   0.7631  0.3402  0.7631  11.00000  0.05    0.57
Q55   1   1.1624  0.2605  0.5018  11.00000  0.05    0.56
Q56   1   0.6233  0.1829  0.3190  11.00000  0.05    0.56
Q57   1   1.4198  0.3718  1.0175  11.00000  0.05    0.56
Q58   1   1.4178  0.1375  0.8935  11.00000  0.05    0.56
Q59   1   1.0392  0.1209  0.9147  11.00000  0.05    0.55
Q60   1   1.3285  0.6738  0.6783  11.00000  0.05    0.55
Q61   1   0.7601  0.1670  0.7778  11.00000  0.05    0.55
Q62   1   0.6242  0.3380  0.6006  11.00000  0.05    0.55
Q63   1   1.4202  0.1110  1.0114  11.00000  0.05    0.55
Q64   1   0.9608  0.5363  0.5245  11.00000  0.05    0.55
Q65   1   1.0423  0.3685  1.0313  11.00000  0.05    0.55
Q66   1   1.3011  0.2495  0.8176  11.00000  0.05    0.54
Q67   1   1.4993  0.0320  0.9055  11.00000  0.05    0.53
Q68   1   1.1826  0.3012  0.3064  11.00000  0.05    0.53
Q69   1   1.1238  0.4827  0.9069  11.00000  0.05    0.53
Q70   1   1.1771  0.3612  0.6549  11.00000  0.05    0.52
Q71   1   1.1262 -0.0294  0.9389  11.00000  0.05    0.52
Q72   1   1.1974  0.3120  0.2745  11.00000  0.05    0.52
Q73   1   0.9395  0.1002  0.4673  11.00000  0.05    0.52
Q74   1   1.2281  0.2498  1.1344  11.00000  0.05    0.51
Q75   1   1.3380  0.3208  1.1392  11.00000  0.05    0.50
Q76   1   0.6995  0.3332  0.1597  11.00000  0.05    0.50
Q77   1   1.1018  0.1132  0.9536  11.00000  0.05    0.50
Q78   1   1.3353  0.4997  0.4979  11.00000  0.05    0.49
Q79   1   0.8363  0.3751  0.5383  11.00000  0.05    0.49
Q80   1   0.5618  0.5773  0.4532  11.00000  0.05    0.49
Q81   1   0.5201  0.5260  0.4971  11.00000  0.05    0.49
Q82   1   0.6264  0.1156  0.3979  11.00000  0.05    0.48
Q83   1   1.2339  0.3254  0.8591  11.00000  0.05    0.48
Q84   1   0.8969  0.0841  0.9774  11.00000  0.05    0.48
Q85   1   0.5394  0.4410  0.5294  11.00000  0.05    0.48
Q86   1   1.1868  0.2047  0.3077  11.00000  0.05    0.48
Q87   1   0.5959  0.4783  0.4840  11.00000  0.05    0.47
Q88   1   1.1961  0.2069  0.2675  11.00000  0.05    0.47
Q89   1   0.5199  0.4290  0.4558  11.00000  0.05    0.47
Q90   1   0.6973  0.1561  0.1668  11.00000  0.05    0.47
Q91   1   1.0425  0.1395  1.0278  11.00000  0.05    0.47
Q92   1   1.1817  0.4162  0.9525  11.00000  0.05    0.47
Q93   1   0.8004  0.2485  1.0778  11.00000  0.05    0.47
Q94   1   1.4166  0.3432  0.8882  11.00000  0.05    0.47
Q95   1   0.8966  0.2588  0.2836  11.00000  0.05    0.46
Q96   1   0.6763 -0.0657  0.3855  11.00000  0.05    0.45
Q97   1   1.1449  0.2709  0.3838  11.00000  0.05    0.45
Q98   1   1.4133 -0.1697  0.8087  11.00000  0.05    0.45
Q99   1   1.3288 -0.1715  0.6774  11.00000  0.05    0.45
Q100  1   1.3374  0.1802  1.1306  11.00000  0.05    0.45
Q101  1   1.4745  0.1735  0.9094  11.00000  0.05    0.45
Q102  1   1.4263  0.3319  0.6353  11.00000  0.05    0.45
Q103  1   1.3357 -0.0243  0.5176  11.00000  0.05    0.45
Q104  1   0.9823  0.3104  1.0178  11.00000  0.05    0.45
Q105  1   1.3050  0.2078  0.5622  11.00000  0.05    0.44
Q106  1   1.4208  0.3912  0.9335  11.00000  0.05    0.44
Q107  1   0.7607  0.0907  0.2098  11.00000  0.05    0.44
Q108  1   1.2018  0.0587  0.5002  11.00000  0.05    0.44
Q109  1   1.1623  0.2511  0.2091  11.00000  0.05    0.44
Q110  1   1.1372  0.1696  0.7538  11.00000  0.05    0.44
Q111  1   0.8384  0.1881  0.7641  11.00000  0.05    0.44
Q112  1   1.4803  0.3031  0.8917  11.00000  0.05    0.44
Q113  1   1.1812  0.2452  0.6488  11.00000  0.05    0.43
Q114  1   0.7807  0.5719  0.5515  11.00000  0.05    0.43
Q115  1   1.2327  0.1809  1.0672  11.00000  0.05    0.43
Q116  1   1.2287  0.2606  0.8038  11.00000  0.05    0.43
Q117  1   0.8480  0.2617  0.1950  11.00000  0.05    0.42
Q118  1   1.2632  0.3211  0.2108  11.00000  0.05    0.42
Q119  1   0.7955  0.2457  0.8526  11.00000  0.05    0.42
Q120  1   1.3595  0.2507  0.8562  11.00000  0.05    0.42
Q121  1   1.3379  0.2678  0.2959  11.00000  0.05    0.42
Q122  1   0.8371  0.3199  0.7657  11.00000  0.05    0.42
Q123  1   0.9011  0.2391  0.7283  11.00000  0.05    0.42
Q124  1   0.7012  0.5905  0.2145  11.00000  0.05    0.42
Q125  1   1.1959  0.4708  0.4798  11.00000  0.05    0.42
Q126  1   1.1385  0.3333  0.7564  11.00000  0.05    0.42
Q127  1   1.2788  0.2511  0.2962  11.00000  0.05    0.42
Q128  1   1.2633  0.0351  0.4493  11.00000  0.05    0.42
Q129  1   1.2407  0.3499  1.0260  11.00000  0.05    0.42
Q130  1   1.2609  0.1823  0.2157  11.00000  0.05    0.42
Q131  1   0.8765  0.1650  0.6862  11.00000  0.05    0.41
Q132  1   1.4844  0.4012  0.9294  11.00000  0.05    0.41
Q133  1   0.6582  0.5240  0.4972  11.00000  0.05    0.41
Q134  1   1.2563  0.4468  0.4266  11.00000  0.05    0.41
Q135  1   1.4832  0.0980  0.9280  11.00000  0.05    0.41
Q136  1   0.4593  0.2448  0.6835  11.00000  0.05    0.41
Q137  1   1.4275  0.1592  0.6340  11.00000  0.05    0.41
Q138  1   0.9205  0.0541  0.4050  11.00000  0.05    0.41
Q139  1   1.2783  0.0790  0.9792  11.00000  0.05    0.40
Q140  1   1.2856  0.1339  0.2850  11.00000  0.05    0.40
Q141  1   0.9820  0.1975  1.0354  11.00000  0.05    0.40
Q142  1   1.2211  0.1434  0.9036  11.00000  0.05    0.40
Q143  1   0.8981  0.3112  0.6333  11.00000  0.05    0.40
Q144  1   1.2812  0.3493  0.7663  11.00000  0.05    0.39
Q145  1   1.1822  0.3525  1.1621  11.00000  0.05    0.39
Q146  1   1.2778  0.1510  0.7754  11.00000  0.05    0.39
Q147  1   1.1285  0.2989  0.2761  11.00000  0.05    0.39
Q148  1   0.7807  0.2413  0.7949  11.00000  0.05    0.39
Q149  1   1.1611  0.0884  1.0282  11.00000  0.05    0.39
Q150  1   0.7246  0.6003  0.4625  11.00000  0.05    0.39
;
_shelx_res_checksum              38324
_shelx_hkl_file
;
   0   0   1    0.01    0.01
   0   0   1    0.00    0.01
   0   0   1    0.00    0.03
   0   0  -1    0.00    0.03
   0   0   1    0.00    0.01
   0   0   1    0.02    0.02
   0   0  -1    0.00    0.01
   0   0  -1   -0.02    0.02
   0   0  -1    0.00    0.01
   0   0  -1    0.00    0.01
   0   0   2  289.66   22.75
   0   0   2  275.15   22.78
   0   0  -2  287.09   22.78
   0   0  -2  301.23   22.77
   0   0  -2  244.36   22.77
   0   0   2  278.62   22.77
   0   0   3   -0.01    0.05
   0   0   3   -0.01    0.02
   0   0   3    0.02    0.04
   0   0  -3    0.01    0.03
   0   0   3    0.02    0.03
   0   0   3    0.07    0.11
   0   0  -3   -0.02    0.05
   0   0   4  603.40   46.51
   0   0  -4  590.09   46.49
   0   0   4  529.47   46.51
   0   0   4  559.27   46.44
   0   0   5    0.07    0.03
   0   0   5    0.00    0.14
   0   0   5    0.05    0.07
   0   0  -5    0.03    0.06
   0   0   5    0.02    0.06
   0   0   5    0.09    0.05
   0   0  -5   -0.11    0.08
   0   0  -6   64.00    5.42
   0   0   6   62.87    5.41
   0   0   6   62.68    5.43
   0   0   6   75.32    5.40
   0   0   7   -0.15    0.17
   0   0  -7    0.20    0.10
   0   0   7    0.09    0.08
   0   0   7    0.10    0.11
   0   0  -7   -0.01    0.12
   0   0   8   43.90    3.62
   0   0   8   46.11    3.60
   0   0  -8   44.84    3.61
   0   0  -8   40.42    3.64
   0   0  -9    0.00    0.12
   0   0   9   -0.14    0.26
   0   0   9    0.10    0.17
   0   0  10   13.85    1.55
   0   0  10   16.26    1.34
   0   0  11   -0.07    0.22
   0   1   0    0.00    0.01
   0   1   0    0.01    0.02
   0   1   0    0.00    0.01
   0  -1   0    0.02    0.01
   0  -1   0    0.00    0.01
   0   1  -1  400.36   32.79
   0   1  -1  377.90   32.86
   0  -1   1  429.63   32.80
   0   1   2   10.66    0.82
   0   1  -2   10.22    0.81
   0   1  -2    9.67    0.82
   0   1   2    8.83    0.82
   0   1   2    8.99    0.82
   0   1  -2   10.23    0.81
   0   1  -2   10.65    0.82
   0  -1   2    9.07    0.85
   0  -1   2   10.05    0.82
   0  -1  -2   10.53    0.82
   0  -1  -2   10.94    0.82
   0  -1   2    8.72    0.82
   0   1  -3  468.95   39.99
   0   1   3  495.39   40.00
   0   1   3  542.33   40.01
   0  -1   3  458.10   39.97
   0  -1   3  449.51   39.99
   0  -1  -3  530.45   40.01
   0   1  -4   31.40    2.52
   0   1  -4   31.55    2.51
   0   1   4   28.08    2.52
   0   1  -4   26.09    2.57
   0   1   4   34.47    2.53
   0   1   4   30.91    2.58
   0   1   4   34.90    2.53
   0  -1   4   28.23    2.51
   0  -1  -4   31.69    2.52
   0  -1   4   29.57    2.52
   0   1   5  143.25   11.30
   0   1   5  139.09   11.31
   0   1  -5  128.66   11.30
   0   1  -5  149.50   11.31
   0   1   5  119.19   11.37
   0   1   5  155.54   11.30
   0   1  -5  133.93   11.37
   0  -1  -5  148.15   11.30
   0  -1   5  131.94   11.29
   0  -1   5  136.84   11.31
   0   1   6   17.35    1.35
   0   1  -6   16.88    1.37
   0   1   6   15.92    1.36
   0   1   6   14.46    1.46
   0   1  -6   15.75    1.34
   0  -1  -6   16.83    1.36
   0  -1   6   15.58    1.34
   0  -1   6   16.36    1.36
   0   1  -7   73.45    6.36
   0   1   7   82.19    6.37
   0   1  -7   73.54    6.38
   0   1   7   80.86    6.36
   0  -1   7   71.54    6.37
   0  -1   7   81.34    6.36
   0  -1  -7   81.85    6.37
   0   1   8    4.89    0.42
   0   1  -8    3.70    0.48
   0   1   8    4.72    0.46
   0   1   8    3.28    0.61
   0   1  -8    5.04    0.43
   0  -1  -8    5.03    0.45
   0  -1   8    4.61    0.47
   0  -1   8    4.62    0.42
   0  -1   8    3.02    0.56
   0   1   9   22.19    1.75
   0  -1  -9   22.72    1.75
   0  -1   9   16.39    1.87
   0  -1   9   20.45    1.75
   0   1  10    0.82    0.40
   0   1  10    0.95    0.23
   0  -1  10    0.61    0.40
   0  -1  10    0.77    0.21
   0   1  11    8.12    0.83
   0  -1  11    9.45    0.83
   0   2   0  247.61   21.71
   0   2   0  252.12   21.71
   0  -2   0  299.56   21.73
   0   2   1   11.05    0.85
   0   2  -1    9.02    0.84
   0   2   1    8.69    0.84
   0   2  -1   10.96    0.84
   0  -2   1   11.49    0.84
   0  -2   1   10.34    0.84
   0  -2   1   10.00    0.85
   0  -2   1    9.45    0.85
   0  -2  -1   11.00    0.85
   0   2  -2 1000.00   81.31
   0   2  -2  997.90   81.37
   0   2   3   10.25    0.85
   0   2  -3    9.87    0.84
   0   2   3   10.18    0.85
   0   2  -3    9.84    0.85
   0  -2   3   10.85    0.85
   0  -2   3    9.52    0.85
   0  -2  -3   10.21    0.86
   0  -2   3   11.26    0.90
   0   2   4   87.63    7.43
   0   2   4   93.91    7.43
   0   2  -4   91.21    7.43
   0   2  -4   86.47    7.43
   0  -2   4   90.08    7.43
   0  -2   4   94.66    7.43
   0  -2   4   88.43    7.48
   0  -2  -4   96.13    7.43
   0   2   5    0.01    0.08
   0   2  -5    0.03    0.07
   0   2   5   -0.01    0.07
   0   2   5   -0.06    0.09
   0   2  -5    0.00    0.04
   0  -2   5   -0.07    0.08
   0  -2   5   -0.06    0.06
   0  -2  -5    0.01    0.08
   0  -2   5   -0.06    0.13
   0   2  -6  147.25   12.90
   0   2   6  153.32   13.01
   0   2   6  177.66   12.93
   0   2   6  166.04   12.93
   0   2  -6  178.63   12.93
   0   2   6  154.57   12.92
   0  -2   6  135.74   12.99
   0  -2   6  143.01   12.92
   0  -2  -6  172.96   12.93
   0  -2   6  155.42   12.91
   0   2   7    0.23    0.10
   0   2   7    0.16    0.11
   0   2  -7    0.24    0.08
   0   2   7    0.19    0.25
   0   2  -7    0.34    0.13
   0   2   7    0.29    0.14
   0  -2  -7    0.30    0.12
   0  -2   7    0.20    0.10
   0  -2   7    0.24    0.14
   0  -2   7    0.03    0.21
   0   2  -8   33.44    2.46
   0   2   8   33.46    2.47
   0   2   8   28.64    2.61
   0   2   8   25.83    2.43
   0  -2   8   28.07    2.42
   0  -2  -8   29.43    2.44
   0  -2   8   29.71    2.44
   0  -2   8   25.76    2.54
   0   2   9    0.33    0.37
   0   2   9    0.29    0.16
   0  -2  -9    0.36    0.17
   0  -2   9    0.36    0.19
   0  -2   9    0.49    0.31
   0   2  10   13.44    1.18
   0  -2  10   13.36    1.18
   0  -2 -10   13.71    1.18
   0  -2  10   12.60    1.40
   0   2  11    0.06    0.22
   0   3   0   -0.03    0.04
   0   3   0    0.03    0.04
   0  -3   0    0.01    0.04
   0   3  -1  474.04   39.19
   0   3  -1  464.86   39.19
   0   3   1  467.32   39.21
   0  -3   1  509.44   39.16
   0  -3  -1  512.31   39.23
   0  -3   1  457.37   39.20
   0   3  -2    9.02    0.84
   0   3   2   11.64    0.85
   0   3  -2   11.13    0.88
   0   3   2    9.66    0.85
   0   3  -2    9.33    0.84
   0  -3  -2   10.32    0.85
   0  -3   2    9.87    0.85
   0   3   3  173.57   13.37
   0   3   3  181.88   13.38
   0   3  -3  155.09   13.35
   0   3  -3  157.54   13.33
   0  -3   3  145.49   13.33
   0  -3  -3  169.58   13.34
   0   3  -4    8.16    0.63
   0   3  -4    8.06    0.68
   0   3   4    7.64    0.66
   0   3  -4    6.97    0.65
   0   3   4    7.39    0.65
   0  -3  -4    7.92    0.66
   0  -3   4    7.03    0.65
   0   3   5  187.68   16.60
   0   3  -5  222.28   16.62
   0   3  -5  203.78   16.61
   0   3   5  210.23   16.61
   0  -3   5  185.14   16.60
   0  -3   5  209.71   16.66
   0  -3  -5  208.55   16.61
   0   3   6    6.45    0.63
   0   3  -6    7.31    0.63
   0   3  -6    7.16    0.60
   0   3   6    7.27    0.64
   0   3   6    6.46    0.65
   0  -3   6    7.46    0.74
   0  -3  -6    7.65    0.64
   0  -3   6    6.90    0.62
   0   3   7   27.13    2.43
   0   3  -7   27.58    2.32
   0   3   7   25.70    2.31
   0   3   7   31.20    2.32
   0   3   7   30.29    2.33
   0  -3   7   25.65    2.31
   0  -3  -7   25.81    2.32
   0  -3   7   30.55    2.43
   0   3   8    2.95    0.36
   0   3   8    3.70    0.58
   0   3   8    3.87    0.42
   0   3  -8    3.96    0.39
   0  -3   8    3.49    0.52
   0  -3  -8    3.30    0.39
   0  -3   8    3.27    0.36
   0   3   9   23.72    2.38
   0   3   9   27.46    2.36
   0   3   9   26.31    2.56
   0  -3   9   34.16    2.53
   0  -3  -9   30.24    2.37
   0   3  10    0.59    0.20
   0  -3 -10    0.78    0.22
   0   4   0  481.40   42.50
   0   4   0  537.06   42.52
   0  -4   0  545.94   42.50
   0   4  -1   30.17    2.45
   0   4  -1   29.76    2.45
   0   4   1   29.41    2.45
   0  -4  -1   29.82    2.45
   0  -4   1   30.11    2.44
   0   4  -2   87.40    7.65
   0   4  -2   93.55    7.64
   0   4   2  102.72    7.65
   0   4   2   80.19    7.65
   0  -4   2  104.33    7.67
   0  -4   2  101.78    7.63
   0  -4  -2   93.41    7.65
   0  -4   2   90.76    7.63
   0  -4   2   89.91    7.65
   0   4   3    7.51    0.65
   0   4   3    8.28    0.65
   0   4  -3    7.56    0.64
   0   4  -3    6.73    0.64
   0  -4  -3    7.70    0.65
   0  -4   3    7.21    0.64
   0   4  -4  241.26   21.03
   0   4  -4  258.38   21.09
   0   4   4  269.13   21.12
   0   4  -4  255.32   21.06
   0   4   4  245.05   21.07
   0  -4   4  282.27   21.11
   0   4  -5    0.98    0.12
   0   4   5    0.54    0.12
   0   4   5    0.76    0.16
   0   4  -5    0.57    0.18
   0   4   5    0.59    0.14
   0   4  -5    0.76    0.13
   0  -4  -5    0.68    0.15
   0  -4   5    0.65    0.13
   0   4  -6   36.53    2.92
   0   4  -6   33.04    2.89
   0   4   6   39.11    2.90
   0   4   6   33.79    2.88
   0  -4  -6   34.41    2.89
   0  -4   6   33.25    2.88
   0   4   7    0.45    0.15
   0   4   7    0.37    0.17
   0   4   7    0.50    0.17
   0   4  -7    0.25    0.18
   0   4  -7    0.35    0.14
   0  -4   7    0.34    0.13
   0  -4  -7    0.53    0.17
   0   4   8   43.78    3.70
   0   4   8   42.53    3.54
   0   4   8   48.20    3.57
   0  -4   8   39.96    3.53
   0  -4  -8   40.32    3.55
   0   4   9    0.70    0.23
   0   4   9    0.45    0.39
   0   4   9    0.69    0.20
   0  -4  -9    0.82    0.22
   0   4  10    7.93    0.79
   0  -4 -10    8.83    0.82
   0   5   0    0.05    0.06
   0   5   0    0.05    0.07
   0  -5   0   -0.08    0.10
   0  -5   0    0.12    0.07
   0   5   1  139.54   11.67
   0   5  -1  144.57   11.66
   0   5   1  146.25   11.67
   0  -5   1  146.14   11.67
   0  -5  -1  139.27   11.67
   0   5  -2    0.00    0.06
   0   5  -2    0.04    0.07
   0   5   2   -0.02    0.09
   0   5   2    0.04    0.08
   0  -5   2    0.03    0.10
   0  -5   2    0.12    0.04
   0  -5  -2   -0.01    0.08
   0  -5   2    0.01    0.03
   0   5   3  181.12   16.13
   0   5  -3  207.16   16.13
   0   5   3  202.51   16.13
   0   5  -3  202.83   16.14
   0  -5  -3  196.93   16.13
   0  -5   3  197.38   16.13
   0   5   4    0.66    0.15
   0   5  -4    0.62    0.12
   0   5  -4    0.33    0.16
   0   5  -4    0.74    0.13
   0   5   4    0.75    0.13
   0  -5  -4    0.70    0.15
   0  -5   4    0.65    0.13
   0   5   5   26.18    2.05
   0   5   5   26.03    2.07
   0   5  -5   20.57    2.08
   0   5  -5   24.00    2.06
   0  -5   5   25.06    2.06
   0  -5  -5   25.91    2.07
   0   5   6    1.00    0.20
   0   5   6    1.16    0.23
   0   5  -6    0.96    0.25
   0   5   6    1.14    0.18
   0  -5  -6    1.20    0.21
   0  -5   6    1.12    0.19
   0   5   7   66.35    5.53
   0   5  -7   65.41    5.57
   0   5   7   70.84    5.55
   0  -5   7   65.91    5.53
   0  -5  -7   68.24    5.54
   0   5   8    0.76    0.19
   0   5   8    0.74    0.22
   0  -5  -8    0.63    0.21
   0   5   9    7.59    0.72
   0   5   9    6.69    0.66
   0  -5  -9    6.45    0.69
   0   5  10    0.86    0.28
   0   5  10    0.69    0.22
   0  -5 -10    0.59    0.25
   0   6   0   62.89    5.11
   0   6   0   63.31    5.11
   0  -6   0   60.95    5.10
   0   6   1   17.08    1.33
   0   6  -1   15.24    1.32
   0   6   1   14.81    1.33
   0   6  -1   15.69    1.33
   0  -6   1   16.27    1.31
   0  -6  -1   15.90    1.33
   0   6  -2  174.05   13.42
   0   6   2  156.03   13.43
   0   6   2  176.15   13.44
   0   6   2  150.95   13.43
   0   6  -2  148.67   13.43
   0  -6   2  188.44   13.41
   0  -6  -2  160.94   13.43
   0  -6   2  158.09   13.41
   0  -6   2  169.30   13.46
   0   6  -3    8.36    0.64
   0   6   3    7.50    0.65
   0   6  -3    6.15    0.64
   0   6   3    7.04    0.66
   0  -6  -3    7.25    0.66
   0   6  -4   38.22    2.96
   0   6   4   36.69    2.97
   0   6   4   35.09    2.98
   0  -6  -4   33.63    2.97
   0   6  -5    0.63    0.23
   0   6   5    0.79    0.19
   0   6   5    1.25    0.18
   0  -6  -5    1.08    0.20
   0  -6   5    1.09    0.19
   0   6   6   67.18    5.54
   0   6   6   66.74    5.52
   0  -6  -6   67.82    5.53
   0   6   7    0.07    0.14
   0   6   7   -0.12    0.18
   0  -6  -7   -0.06    0.17
   0   6   8    8.25    0.78
   0   6   8    7.16    0.71
   0  -6  -8    7.89    0.76
   0   6   9    0.18    0.20
   0   6   9    0.24    0.26
   0  -6  -9    0.51    0.24
   0   7   0    0.11    0.11
   0   7   0    0.04    0.11
   0  -7   0    0.12    0.09
   0   7   1   76.45    6.23
   0   7   1   75.40    6.22
   0   7  -1   84.63    6.22
   0  -7   1   69.97    6.20
   0  -7  -1   73.87    6.22
   0   7   2    0.17    0.14
   0   7   2    0.22    0.14
   0   7  -2    0.27    0.11
   0   7   2    0.26    0.11
   0  -7  -2    0.14    0.12
   0  -7   2    0.19    0.05
   0   7  -3   28.06    2.31
   0   7   3   28.13    2.33
   0   7   3   29.37    2.32
   0   7   3   27.84    2.32
   0  -7  -3   26.14    2.32
   0   7   4    0.25    0.12
   0   7   4    0.38    0.16
   0   7  -4    0.41    0.12
   0   7   4    0.37    0.15
   0  -7  -4    0.35    0.16
   0   7   5   69.22    5.39
   0   7   5   64.86    5.41
   0  -7  -5   62.82    5.40
   0   7   6    0.17    0.20
   0   7   6    0.14    0.15
   0  -7  -6    0.01    0.17
   0   7   7    6.23    0.67
   0   7   7    6.39    0.61
   0  -7  -7    6.44    0.65
   0   7   8    0.10    0.17
   0   7   8    0.15    0.24
   0  -7  -8    0.06    0.22
   0   8   0   43.39    3.80
   0  -8   0   48.85    3.79
   0   8  -1    5.00    0.48
   0   8   1    4.99    0.50
   0  -8   1    5.08    0.45
   0  -8  -1    4.94    0.48
   0   8   2   32.00    2.53
   0   8  -2   28.99    2.51
   0   8   2   31.52    2.53
   0  -8  -2   28.84    2.51
   0   8   3    3.66    0.40
   0   8  -3    3.55    0.37
   0   8   3    3.53    0.43
   0  -8  -3    3.18    0.40
   0   8   4   45.78    3.56
   0   8   4   42.72    3.57
   0  -8  -4   40.54    3.56
   0   8   5    1.11    0.19
   0   8   5    0.78    0.25
   0  -8  -5    0.62    0.21
   0   8   6    7.13    0.76
   0   8   6    7.97    0.71
   0  -8  -6    7.38    0.74
   0   8   7    0.08    0.24
   0  -8  -7   -0.08    0.21
   0   9   0    0.04    0.15
   0  -9   0    0.06    0.11
   0   9   1   19.57    1.79
   0   9   1   22.62    1.81
   0   9  -1   20.14    1.78
   0  -9   1   22.57    1.75
   0  -9  -1   20.39    1.77
   0   9  -2    0.32    0.16
   0   9   2    0.36    0.19
   0   9   2    0.43    0.19
   0  -9  -2    0.44    0.16
   0   9   3   32.55    2.45
   0   9   3   27.75    2.46
   0  -9  -3   27.41    2.44
   0   9   4    0.87    0.25
   0   9   4    0.56    0.20
   0  -9  -4    0.53    0.21
   0   9   5    7.57    0.75
   0  -9  -5    6.73    0.71
   0   9   6    0.45    0.26
   0  -9  -6    0.28    0.24
   0  10   0   17.39    1.52
   0 -10   0   17.70    1.48
   0  10   1    0.75    0.23
   0  10  -1    1.15    0.23
   0  10   1    0.72    0.38
   0 -10  -1    0.92    0.19
   0  10  -2   13.65    1.16
   0  10   2   12.97    1.19
   0 -10  -2   12.91    1.15
   0  10   3    0.64    0.25
   0 -10  -3    0.58    0.21
   0  10   4    9.82    0.87
   0 -10  -4    7.39    0.81
   0  10   5    0.48    0.27
   0 -10  -5    0.36    0.23
   0  11   0    0.04    0.21
   0  11  -1   10.28    0.96
   0  11   1   11.06    0.99
   0 -11  -1    9.64    0.91
   0  11   2    0.06    0.25
   0 -11  -2   -0.12    0.18
  -1   0  11   -0.02    0.21
  -1   0  10    3.08    0.38
  -1   0  10    2.84    0.58
  -1   0   9   -0.02    0.16
   1   0  -9    0.01    0.12
  -1   0   9   -0.10    0.29
  -1   0   8    8.53    0.67
   1   0  -8    6.23    0.72
   1   0  -8    7.78    0.68
  -1   0   8    7.52    0.69
  -1   0   7    0.02    0.05
  -1   0   7   -0.05    0.09
   1   0  -7   -0.04    0.08
  -1   0   7   -0.14    0.18
   1   0  -7   -0.21    0.13
  -1   0   7   -0.09    0.11
   1   0  -6    8.89    0.81
  -1   0   6   10.03    0.80
  -1   0   6    8.84    0.82
  -1   0   6    9.74    0.79
  -1   0   6   10.15    0.81
   1   0  -5   -0.17    0.09
  -1   0   5    0.04    0.07
   1   0  -5    0.00    0.06
  -1   0   5   -0.06    0.06
  -1   0   5    0.09    0.06
  -1   0   5   -0.01    0.14
  -1   0   4   52.43    4.32
   1   0  -4   50.55    4.31
   1   0  -4   55.76    4.34
  -1   0   3   -0.04    0.10
   1   0  -3   -0.01    0.03
  -1   0   3   -0.02    0.05
  -1   0   3    0.00    0.04
   1   0  -3   -0.03    0.06
  -1   0   3   -0.07    0.05
   1   0  -2    0.45    0.05
  -1   0   2    0.34    0.05
   1   0  -2    0.55    0.07
   1   0  -2    0.40    0.05
  -1   0   2    0.28    0.07
  -1   0   2    0.26    0.09
  -1   0   2    0.32    0.05
  -1   0   1    0.00    0.01
   1   0  -1   -0.01    0.01
   1   0  -1    0.01    0.02
  -1   0   1   -0.02    0.01
   1   0  -1   -0.02    0.03
  -1   0   1    0.03    0.03
  -1   0   1   -0.01    0.03
  -1   0   1    0.00    0.02
   1   0  -1    0.01    0.01
  -1   0   0   29.30    2.44
  -1   0   0   34.10    2.44
   1   0   0   26.52    2.44
   1   0   1    0.00    0.01
  -1   0  -1    0.00    0.01
   1   0   1    0.02    0.02
  -1   0  -1    0.02    0.04
  -1   0  -1   -0.01    0.02
   1   0   1    0.00    0.01
   1   0   1    0.03    0.05
  -1   0  -1    0.01    0.01
  -1   0  -1    0.00    0.01
  -1   0  -2    0.59    0.06
   1   0   2    0.43    0.06
  -1   0  -2    0.34    0.09
  -1   0  -2    0.40    0.05
   1   0   2    0.46    0.06
   1   0   2    0.37    0.10
   1   0   2    0.56    0.05
  -1   0  -2    0.40    0.06
  -1   0  -3   -0.05    0.04
  -1   0  -3   -0.01    0.03
   1   0   3    0.02    0.03
   1   0   3   -0.02    0.03
   1   0   3    0.07    0.11
   1   0   3    0.01    0.02
   1   0   3    0.00    0.05
   1   0   4   57.65    4.47
  -1   0  -4   50.44    4.47
  -1   0  -4   62.82    4.47
   1   0   4   45.87    4.54
   1   0   4   57.61    4.46
   1   0   4   53.11    4.46
  -1   0  -5   -0.13    0.07
   1   0   5    0.02    0.05
  -1   0  -5    0.07    0.05
   1   0   5    0.03    0.15
   1   0   5   -0.01    0.08
   1   0   6    8.49    0.76
   1   0   6    9.14    0.74
  -1   0  -6    8.73    0.75
   1   0   7    0.05    0.19
  -1   0  -7   -0.06    0.08
   1   0   7   -0.03    0.11
   1   0   7    0.04    0.07
  -1   0  -7    0.13    0.12
   1   0   8    7.54    0.68
   1   0   8    7.60    0.64
  -1   0  -8    8.01    0.66
   1   0   8    5.31    0.84
   1   0   9   -0.17    0.25
   1   0   9   -0.14    0.17
   1   0  10    1.45    0.52
   1   0  10    3.33    0.37
   1   0  11   -0.17    0.22
  -1   1  11    1.10    0.24
  -1  -1  11    1.17    0.26
  -1   1  10    0.14    0.16
  -1   1  10    0.19    0.29
  -1  -1  10   -0.19    0.34
   1  -1 -10    0.15    0.16
  -1  -1  10   -0.03    0.19
  -1   1   9    2.24    0.54
  -1   1   9    3.96    0.42
  -1  -1   9    3.44    0.42
   1  -1  -9    4.26    0.41
  -1  -1   9    3.20    0.54
   1   1  -8    0.58    0.19
  -1   1   8    0.45    0.16
  -1   1   8    0.71    0.14
   1   1  -8    0.73    0.14
  -1   1   8    0.48    0.31
  -1   1   8    0.87    0.14
  -1  -1   8    0.63    0.17
  -1  -1   8    0.73    0.14
  -1  -1   8    0.77    0.29
   1  -1  -8    0.52    0.15
  -1   1   7   16.14    1.22
   1   1  -7   15.07    1.26
  -1   1   7   13.45    1.22
   1   1  -7   14.12    1.21
  -1  -1   7   13.77    1.21
  -1  -1   7   12.80    1.35
  -1  -1   7   14.06    1.23
   1  -1  -7   15.86    1.23
  -1   1   6    2.55    0.24
   1   1  -6    1.84    0.21
   1   1  -6    2.21    0.26
  -1   1   6    1.64    0.25
  -1   1   6    2.03    0.23
  -1   1   6    1.50    0.33
   1  -1  -6    2.40    0.24
  -1  -1   6    2.45    0.23
  -1  -1   6    1.50    0.33
  -1  -1   6    2.15    0.24
  -1   1   5   21.53    1.55
   1   1  -5   17.33    1.53
   1   1  -5   19.55    1.61
  -1   1   5   16.51    1.62
  -1   1   5   18.05    1.54
  -1   1   5   19.90    1.56
   1   1  -5   19.42    1.55
  -1  -1   5   15.66    1.54
   1  -1  -5   19.42    1.56
  -1  -1   5   18.08    1.54
   1  -1  -5   19.38    1.54
  -1   1   4    3.65    0.35
   1   1  -4    3.59    0.40
  -1   1   4    3.59    0.33
   1   1  -4    3.90    0.34
   1   1  -4    3.54    0.32
  -1   1   4    3.98    0.34
   1  -1  -4    3.80    0.33
  -1  -1   4    3.49    0.33
  -1  -1   4    3.68    0.33
  -1  -1   4    3.59    0.31
   1  -1  -4    4.52    0.36
  -1  -1   4    2.97    0.40
   1   1  -3   35.00    2.96
  -1   1   3   38.66    2.97
  -1   1   3   31.55    2.96
   1   1  -3   35.76    2.95
   1  -1  -3   38.34    2.96
  -1  -1   3   38.32    2.95
  -1  -1   3   39.16    2.95
  -1  -1   3   33.41    2.96
   1  -1  -3   37.15    2.96
  -1  -1   3   34.43    2.96
   1   1  -2    3.54    0.30
   1   1  -2    3.55    0.29
  -1   1   2    3.35    0.32
   1   1  -2    3.24    0.30
  -1   1   2    3.37    0.30
  -1   1   2    3.97    0.30
  -1  -1   2    3.41    0.30
  -1  -1   2    3.57    0.29
   1  -1  -2    3.55    0.30
   1  -1  -2    3.66    0.30
  -1  -1   2    3.57    0.33
  -1  -1   2    3.21    0.29
  -1  -1   2    3.48    0.30
  -1   1   1   42.49    3.74
   1   1  -1   46.85    3.75
   1   1  -1   44.45    3.74
  -1   1   1   48.17    3.75
   1   1  -1   48.23    3.77
   1  -1  -1   43.01    3.74
  -1  -1   1   43.48    3.75
   1  -1  -1   50.70    3.75
  -1   1   0    0.00    0.01
   1   1   0    0.00    0.02
   1   1   0    0.01    0.02
  -1   1   0   -0.01    0.01
   1   1   0    0.00    0.01
   1   1   0    0.00    0.01
  -1  -1   0   -0.01    0.02
  -1  -1   0    0.01    0.02
   1  -1   0    0.00    0.01
  -1  -1   0    0.00    0.02
   1  -1   0    0.01    0.01
  -1   1  -1   44.80    3.78
  -1   1  -1   48.18    3.79
   1   1   1   44.19    3.80
   1   1   1   47.68    3.79
  -1   1  -1   47.97    3.80
   1  -1   1   44.61    3.80
   1  -1   1   50.43    3.79
  -1  -1  -1   46.79    3.79
   1  -1   1   43.25    3.78
  -1   1  -2    3.33    0.29
   1   1   2    3.38    0.29
  -1   1  -2    3.49    0.29
   1   1   2    3.58    0.30
   1  -1   2    2.72    0.33
   1  -1   2    3.37    0.29
  -1  -1  -2    3.67    0.29
   1  -1   2    3.33    0.29
   1   1   3   36.96    2.88
   1   1   3   33.91    2.88
  -1   1  -3   35.55    2.87
   1   1   3   36.66    2.88
  -1   1  -3   31.77    2.88
   1  -1   3   34.68    2.88
   1  -1   3   34.33    2.88
  -1  -1  -3   38.18    2.88
   1   1   4    3.60    0.35
  -1   1  -4    2.73    0.41
   1   1   4    4.04    0.34
  -1   1  -4    3.82    0.33
  -1   1  -4    4.51    0.34
   1   1   4    4.30    0.43
   1   1   4    4.15    0.35
   1  -1   4    3.40    0.34
   1  -1   4    3.88    0.34
  -1  -1  -4    3.85    0.34
   1   1   5   17.90    1.56
  -1   1  -5   17.75    1.54
   1   1   5   21.21    1.55
   1   1   5   21.20    1.56
   1   1   5   17.72    1.64
  -1   1  -5   20.54    1.56
   1  -1   5   17.17    1.56
   1  -1   5   17.91    1.54
  -1  -1  -5   17.27    1.55
   1   1   6    1.86    0.36
   1   1   6    2.43    0.22
   1   1   6    1.48    0.23
  -1   1  -6    2.29    0.22
   1   1   6    2.12    0.25
  -1   1  -6    2.25    0.25
  -1  -1  -6    2.23    0.24
   1  -1   6    2.40    0.22
  -1   1  -7   13.05    1.21
   1   1   7   14.14    1.18
   1   1   7   12.40    1.35
   1   1   7   13.69    1.19
  -1   1  -7   14.07    1.18
   1   1   7   14.55    1.21
   1  -1   7   15.07    1.18
   1  -1   7   14.22    1.21
  -1  -1  -7   15.59    1.20
   1   1   8    0.44    0.15
  -1   1  -8    0.49    0.17
   1   1   8    0.63    0.30
   1   1   8    0.88    0.17
   1  -1   8    0.33    0.26
   1  -1   8    0.73    0.12
  -1  -1  -8    0.59    0.15
   1  -1   8    0.61    0.18
   1   1   9    3.44    0.38
   1   1   9    2.10    0.50
  -1  -1  -9    3.90    0.39
   1  -1   9    3.49    0.39
   1  -1   9    2.88    0.53
   1   1  10    0.42    0.56
   1   1  10   -0.01    0.19
   1  -1  10    0.06    0.34
   1  -1  10    0.16    0.18
   1   1  11    1.54    0.29
   1  -1  11    1.02    0.26
  -1   2  11    0.29    0.20
  -1   2  10    1.55    0.55
  -1   2  10    2.43    0.32
  -1  -2  10    2.55    0.50
   1  -2 -10    2.05    0.30
  -1   2   9   -0.06    0.16
  -1   2   9   -0.23    0.27
   1  -2  -9   -0.08    0.14
  -1  -2   9   -0.10    0.15
  -1  -2   9    0.20    0.29
  -1   2   8    5.11    0.51
  -1   2   8    3.87    0.68
  -1   2   8    6.26    0.51
  -1   2   8    4.02    0.53
   1   2  -8    5.76    0.54
  -1  -2   8    5.00    0.66
  -1  -2   8    5.52    0.53
   1  -2  -8    5.64    0.52
  -1  -2   8    5.31    0.49
   1   2  -7    0.09    0.07
  -1   2   7    0.07    0.14
   1   2  -7   -0.02    0.11
  -1   2   7   -0.03    0.11
  -1   2   7    0.05    0.11
  -1   2   7    0.25    0.24
  -1  -2   7    0.06    0.11
  -1  -2   7    0.00    0.09
   1  -2  -7    0.14    0.12
  -1  -2   7   -0.02    0.19
  -1   2   6   19.29    1.91
  -1   2   6   24.55    1.84
   1   2  -6   23.77    1.83
   1   2  -6   21.61    1.81
  -1   2   6   24.43    1.84
  -1   2   6   21.38    1.82
  -1  -2   6   20.80    1.90
  -1  -2   6   20.89    1.82
  -1  -2   6   19.09    1.81
   1  -2  -6   23.43    1.83
  -1   2   5   -0.04    0.06
   1   2  -5   -0.05    0.16
  -1   2   5   -0.13    0.10
   1   2  -5    0.07    0.08
  -1   2   5   -0.05    0.08
   1   2  -5    0.00    0.05
   1  -2  -5    0.07    0.08
  -1  -2   5    0.04    0.13
  -1  -2   5    0.02    0.08
  -1  -2   5    0.05    0.07
  -1   2   4    6.10    0.54
   1   2  -4    6.67    0.55
   1   2  -4    6.46    0.53
  -1   2   4    6.52    0.55
  -1  -2   4    6.18    0.55
  -1  -2   4    6.45    0.60
   1  -2  -4    6.73    0.55
  -1  -2   4    5.64    0.54
   1   2  -3    0.49    0.08
   1   2  -3    0.11    0.11
  -1   2   3    0.45    0.07
   1   2  -3    0.52    0.06
  -1   2   3    0.36    0.08
  -1   2   3    0.56    0.10
  -1  -2   3    0.57    0.13
  -1  -2   3    0.48    0.07
   1  -2  -3    0.45    0.08
  -1   2   2   82.08    6.84
   1   2  -2   77.93    6.83
  -1   2   2   83.22    6.83
   1   2  -2   88.97    6.84
   1   2  -2   93.26    6.86
   1  -2  -2   83.63    6.83
  -1  -2   2   79.00    6.83
  -1  -2   2   81.94    6.84
  -1  -2   2   79.16    6.83
   1  -2  -2   89.92    6.84
   1   2  -1    3.82    0.29
  -1   2   1    3.17    0.29
   1   2  -1    3.12    0.30
  -1   2   1    3.46    0.29
  -1  -2   1    3.35    0.29
   1  -2  -1    3.70    0.29
  -1  -2   1    2.72    0.29
  -1  -2   1    3.76    0.30
  -1  -2   1    3.41    0.29
  -1   2   0    0.38    0.05
   1   2   0    0.57    0.06
   1   2   0    0.29    0.05
   1  -2   0    0.51    0.06
  -1  -2   0    0.42    0.06
  -1  -2   0    0.44    0.06
   1  -2   0    0.35    0.05
  -1   2  -1    3.72    0.28
   1   2   1    3.00    0.30
  -1   2  -1    3.50    0.29
  -1   2  -1    3.48    0.29
   1   2   1    3.38    0.29
  -1  -2  -1    3.47    0.29
   1  -2   1    2.77    0.30
  -1   2  -2   81.78    6.81
  -1   2  -2   94.46    6.83
  -1   2  -2   78.68    6.81
   1   2   2   78.71    6.81
   1   2   2   84.44    6.82
   1  -2   2   80.76    6.81
   1  -2   2   81.60    6.81
  -1  -2  -2   87.75    6.82
  -1  -2  -2   84.59    6.82
   1   2   3    0.53    0.08
  -1   2  -3    0.48    0.07
   1   2   3    0.53    0.09
  -1   2  -3    0.47    0.14
  -1  -2  -3    0.51    0.08
   1  -2   3    0.46    0.08
   1  -2   3    0.46    0.08
   1  -2   3    0.54    0.15
   1   2   4    6.20    0.53
  -1   2  -4    6.62    0.51
   1   2   4    5.72    0.53
  -1   2  -4    5.74    0.53
  -1  -2  -4    6.62    0.54
   1  -2   4    6.63    0.54
   1  -2   4    4.89    0.59
   1  -2   4    6.26    0.53
  -1   2  -5    0.02    0.07
   1   2   5    0.09    0.08
   1   2   5   -0.02    0.08
  -1   2  -5   -0.02    0.04
   1   2   5   -0.03    0.08
   1  -2   5    0.01    0.06
   1  -2   5    0.11    0.08
   1  -2   5   -0.03    0.14
  -1  -2  -5    0.00    0.08
  -1   2  -6   20.36    1.82
  -1   2  -6   23.42    1.84
   1   2   6   19.70    1.84
   1   2   6   24.77    1.85
   1   2   6   24.81    1.83
   1   2   6   22.21    1.94
   1  -2   6   20.52    1.83
  -1  -2  -6   21.76    1.84
   1  -2   6   22.21    1.85
   1   2   7    0.09    0.11
   1   2   7    0.10    0.08
  -1   2  -7    0.24    0.11
   1   2   7    0.19    0.12
   1   2   7    0.38    0.27
  -1   2  -7    0.08    0.07
   1  -2   7    0.04    0.09
   1  -2   7   -0.07    0.11
   1  -2   7    0.05    0.21
  -1  -2  -7    0.02    0.12
   1   2   8    5.31    0.53
   1   2   8    5.81    0.77
  -1   2  -8    5.52    0.54
   1  -2   8    5.51    0.54
   1  -2   8    4.43    0.68
   1  -2   8    5.48    0.50
  -1  -2  -8    5.36    0.52
   1   2   9    0.14    0.32
   1   2   9    0.19    0.15
   1  -2   9    0.14    0.28
  -1  -2  -9    0.06    0.14
   1  -2   9   -0.01    0.16
   1   2  10    2.27    0.33
  -1  -2 -10    2.29    0.32
   1  -2  10    2.45    0.33
   1   2  11   -0.12    0.19
   1  -2  11    0.14    0.21
  -1   3  10    0.04    0.16
   1  -3 -10    0.24    0.19
  -1   3   9    4.01    0.54
  -1   3   9    5.10    0.49
  -1   3   9    3.38    0.66
  -1  -3   9    5.48    0.65
   1  -3  -9    4.61    0.50
  -1   3   8    0.55    0.30
  -1   3   8    0.42    0.15
  -1   3   8    0.50    0.19
   1  -3  -8    0.37    0.17
  -1  -3   8    0.44    0.29
  -1  -3   8    0.22    0.14
   1   3  -7    5.48    0.51
   1   3  -7    5.76    0.49
  -1   3   7    5.90    0.52
  -1   3   7    4.91    0.52
  -1   3   7    5.05    0.49
  -1  -3   7    4.45    0.48
  -1  -3   7    5.93    0.61
   1  -3  -7    5.01    0.51
  -1   3   6    0.89    0.15
   1   3  -6    1.17    0.15
  -1   3   6    1.21    0.18
   1   3  -6    1.22    0.16
  -1   3   6    0.63    0.19
  -1  -3   6    1.27    0.27
   1  -3  -6    1.22    0.18
  -1  -3   6    0.85    0.14
  -1   3   5   29.34    2.38
  -1   3   5   29.91    2.37
   1   3  -5   31.77    2.36
   1   3  -5   26.11    2.37
   1  -3  -5   29.73    2.38
  -1  -3   5   25.65    2.37
  -1   3   4    1.24    0.15
   1   3  -4    1.35    0.14
  -1   3   4    1.76    0.20
   1   3  -4    0.46    0.20
   1   3  -4    1.28    0.16
  -1   3   4    1.03    0.15
  -1  -3   4    0.89    0.13
   1  -3  -4    1.33    0.16
  -1   3   3   10.23    1.00
   1   3  -3   12.13    1.01
  -1   3   3   12.16    0.99
   1   3  -3   12.12    0.99
   1  -3  -3   13.18    1.00
  -1  -3   3   11.66    0.99
   1   3  -2    0.33    0.08
  -1   3   2    0.44    0.07
   1   3  -2    0.25    0.10
   1   3  -2    0.42    0.08
  -1   3   2    0.44    0.08
  -1  -3   2    0.45    0.08
  -1  -3   2    0.47    0.06
  -1  -3   2    0.58    0.06
   1  -3  -2    0.59    0.09
  -1   3   1   31.01    2.75
   1   3  -1   35.23    2.75
   1   3  -1   33.55    2.75
  -1  -3   1   31.71    2.76
  -1  -3   1   34.00    2.74
  -1  -3   1   33.55    2.75
   1  -3  -1   35.92    2.75
  -1   3   0    0.02    0.04
   1   3   0    0.01    0.04
   1   3   0    0.01    0.04
   1  -3   0   -0.01    0.03
  -1  -3   0    0.03    0.04
   1   3   1   31.41    2.75
  -1   3  -1   36.41    2.75
  -1   3  -1   33.00    2.75
   1   3   1   33.08    2.75
   1  -3   1   32.81    2.74
  -1  -3  -1   34.93    2.75
  -1   3  -2    0.66    0.13
   1   3   2    0.44    0.09
  -1   3  -2    0.32    0.11
  -1   3  -2    0.58    0.08
   1   3   2    0.35    0.08
  -1   3  -2    0.55    0.07
   1  -3   2    0.55    0.10
  -1  -3  -2    0.40    0.08
   1  -3   2    0.39    0.08
   1   3   3   12.94    1.08
  -1   3  -3   13.43    1.06
  -1   3  -3   11.68    1.12
   1   3   3   13.46    1.08
  -1   3  -3   12.41    1.09
  -1   3  -3   12.25    1.07
  -1  -3  -3   13.73    1.08
   1  -3   3   12.86    1.08
   1   3   4    1.10    0.15
  -1   3  -4    1.10    0.15
  -1   3  -4    1.27    0.11
   1   3   4    1.07    0.15
  -1   3  -4    1.51    0.19
   1  -3   4    1.12    0.15
  -1  -3  -4    1.11    0.15
  -1   3  -5   28.66    2.39
  -1   3  -5   27.70    2.41
   1   3   5   28.08    2.41
   1   3   5   31.36    2.42
   1  -3   5   28.92    2.41
   1  -3   5   29.12    2.41
   1  -3   5   29.93    2.48
  -1  -3  -5   30.26    2.42
   1   3   6    1.12    0.18
   1   3   6    0.81    0.16
  -1   3  -6    1.05    0.13
  -1   3  -6    1.39    0.17
   1   3   6    1.35    0.18
  -1  -3  -6    1.25    0.19
   1  -3   6    1.48    0.20
   1  -3   6    1.06    0.27
   1  -3   6    1.29    0.16
   1   3   7    6.10    0.70
   1   3   7    4.47    0.50
   1   3   7    5.38    0.49
  -1   3  -7    5.41    0.50
   1   3   7    5.62    0.52
  -1  -3  -7    5.38    0.51
   1  -3   7    4.93    0.48
   1  -3   7    4.72    0.61
   1  -3   7    5.56    0.52
   1   3   8    0.35    0.17
  -1   3  -8    0.84    0.17
   1   3   8    0.33    0.31
   1   3   8    0.33    0.17
  -1  -3  -8    0.32    0.16
   1  -3   8    0.42    0.16
   1  -3   8    0.27    0.13
   1  -3   8    0.42    0.29
   1   3   9    4.44    0.70
   1   3   9    3.56    0.50
   1   3   9    4.81    0.49
   1  -3   9    4.97    0.67
  -1  -3  -9    4.60    0.50
   1  -3   9    4.92    0.49
   1   3  10    0.20    0.19
  -1  -3 -10   -0.08    0.18
  -1   4  10    1.54    0.28
   1  -4 -10    1.40    0.28
  -1   4   9   -0.36    0.30
  -1   4   9    0.26    0.21
  -1   4   9    0.04    0.15
   1  -4  -9    0.21    0.20
  -1   4   8    5.94    0.58
  -1   4   8    6.67    0.64
  -1  -4   8    6.26    0.58
   1  -4  -8    6.04    0.62
   1   4  -7    0.02    0.15
  -1   4   7    0.07    0.11
  -1   4   7    0.01    0.15
  -1   4   7   -0.10    0.15
   1  -4  -7    0.16    0.15
  -1  -4   7    0.12    0.12
   1   4  -6    3.94    0.41
   1   4  -6    4.77    0.40
  -1   4   6    4.00    0.40
  -1   4   6    3.34    0.46
  -1   4   6    4.53    0.44
   1   4  -6    4.91    0.48
  -1  -4   6    4.01    0.41
   1  -4  -6    4.24    0.44
  -1   4   5    0.17    0.13
   1   4  -5    0.16    0.12
   1   4  -5    0.10    0.08
  -1   4   5    0.08    0.08
  -1   4   5    0.03    0.11
   1   4  -5    0.24    0.10
  -1  -4   5    0.10    0.10
   1  -4  -5    0.05    0.11
  -1   4   4   30.54    2.52
  -1   4   4   32.01    2.54
   1   4  -4   29.14    2.54
   1   4  -4   29.46    2.56
   1   4  -4   31.09    2.53
  -1  -4   4   28.60    2.53
   1  -4  -4   34.10    2.54
  -1   4   3    1.32    0.16
   1   4  -3    0.94    0.15
  -1   4   3    1.14    0.14
   1   4  -3    0.64    0.16
   1   4  -3    0.97    0.19
   1   4  -3    1.19    0.14
   1  -4  -3    1.14    0.15
  -1  -4   3    1.19    0.15
   1   4  -2    5.78    0.51
  -1   4   2    5.80    0.51
  -1   4   2    5.65    0.51
  -1  -4   2    5.63    0.51
   1  -4  -2    6.50    0.52
  -1  -4   2    5.85    0.49
   1   4  -1    3.56    0.34
   1   4  -1    3.66    0.33
  -1  -4   1    3.50    0.33
  -1  -4   1    3.31    0.35
  -1  -4   1    4.01    0.32
   1  -4  -1    3.76    0.33
  -1   4   0   53.67    4.53
  -1   4   0   58.41    4.54
   1   4   0   53.98    4.54
   1   4   0   53.60    4.54
   1  -4   0   54.03    4.53
  -1  -4   0   59.33    4.53
   1   4   1    4.01    0.33
   1   4   1    3.44    0.33
  -1   4  -1    3.52    0.32
  -1   4  -1    3.33    0.32
   1  -4   1    3.15    0.32
   1  -4   1    3.55    0.31
  -1  -4  -1    4.32    0.33
  -1   4  -2    6.06    0.51
  -1   4  -2    5.59    0.52
   1   4   2    5.74    0.52
   1   4   2    6.67    0.53
  -1  -4  -2    6.19    0.53
   1  -4   2    5.67    0.54
   1   4   3    1.20    0.16
  -1   4  -3    1.24    0.17
   1   4   3    1.32    0.17
  -1   4  -3    1.46    0.15
  -1   4  -3    1.06    0.20
  -1  -4  -3    1.38    0.17
   1  -4   3    1.37    0.17
  -1   4  -4   30.54    2.48
   1   4   4   33.42    2.49
  -1   4  -4   25.44    2.47
  -1   4  -4   28.66    2.51
   1   4   4   31.79    2.49
  -1  -4  -4   33.79    2.50
   1  -4   4   27.58    2.48
   1   4   5    0.14    0.10
  -1   4  -5    0.28    0.15
  -1   4  -5    0.12    0.06
  -1   4  -5    0.14    0.09
   1   4   5    0.03    0.11
   1  -4   5    0.08    0.09
  -1  -4  -5    0.05    0.10
   1   4   6    2.69    0.42
  -1   4  -6    4.15    0.39
   1   4   6    4.00    0.42
  -1   4  -6    4.75    0.45
   1   4   6    4.33    0.39
  -1  -4  -6    4.23    0.42
   1  -4   6    3.87    0.39
  -1   4  -7    0.22    0.20
   1   4   7    0.02    0.15
   1   4   7    0.05    0.13
  -1   4  -7    0.10    0.12
   1   4   7    0.08    0.13
   1  -4   7   -0.01    0.11
  -1  -4  -7   -0.04    0.14
   1   4   8    8.23    0.89
   1   4   8    7.57    0.67
   1   4   8    6.30    0.64
  -1  -4  -8    6.34    0.65
   1  -4   8    6.36    0.62
   1   4   9    0.08    0.18
   1   4   9    0.26    0.37
   1   4   9    0.11    0.20
  -1  -4  -9    0.25    0.19
   1   4  10    1.70    0.28
  -1  -4 -10    1.20    0.28
  -1   5  10    0.26    0.27
  -1   5  10    0.34    0.19
   1  -5 -10    0.25    0.23
  -1   5   9    1.20    0.29
  -1   5   9    0.87    0.21
   1  -5  -9    1.02    0.25
  -1   5   8    0.06    0.19
  -1   5   8    0.05    0.15
   1  -5  -8    0.08    0.19
  -1   5   7    9.08    0.84
  -1   5   7   10.49    0.89
   1   5  -7    8.64    0.89
   1  -5  -7   10.56    0.88
  -1  -5   7    9.16    0.85
  -1   5   6    0.27    0.16
  -1   5   6    0.17    0.14
  -1   5   6    0.07    0.11
   1   5  -6   -0.04    0.18
  -1  -5   6    0.16    0.12
   1  -5  -6    0.09    0.14
   1   5  -5    2.24    0.36
   1   5  -5    2.99    0.33
  -1   5   5    3.59    0.36
  -1   5   5    3.39    0.33
  -1  -5   5    3.37    0.33
   1  -5  -5    3.61    0.37
   1   5  -4    0.14    0.09
   1   5  -4    0.03    0.14
  -1   5   4    0.04    0.08
  -1   5   4    0.13    0.12
   1   5  -4    0.03    0.09
  -1  -5   4   -0.02    0.09
   1  -5  -4    0.11    0.12
   1   5  -3   34.42    2.46
   1   5  -3   27.81    2.45
  -1   5   3   28.89    2.45
  -1   5   3   29.78    2.46
  -1  -5   3   27.95    2.46
   1  -5  -3   29.59    2.46
  -1   5   2    0.05    0.08
   1   5  -2    0.09    0.07
  -1   5   2   -0.01    0.08
   1   5  -2    0.01    0.07
   1  -5  -2   -0.07    0.08
  -1  -5   2    0.05    0.10
  -1  -5   2    0.05    0.11
  -1  -5   2    0.03    0.04
  -1  -5   2    0.03    0.08
  -1   5   1   15.66    1.43
   1   5  -1   18.37    1.43
   1   5  -1   19.42    1.43
  -1  -5   1   17.16    1.42
   1  -5  -1   17.45    1.43
  -1  -5   1   14.79    1.45
  -1   5   0    0.06    0.07
   1   5   0    0.06    0.08
   1   5   0   -0.03    0.07
  -1   5   0    0.05    0.07
  -1  -5   0   -0.01    0.06
  -1  -5   0   -0.06    0.09
   1  -5   0    0.02    0.06
   1  -5   0    0.08    0.12
  -1   5  -1   17.66    1.44
   1   5   1   16.96    1.44
   1   5   1   17.32    1.44
  -1   5  -1   16.95    1.44
   1  -5   1   17.95    1.43
  -1  -5  -1   17.07    1.44
   1   5   2   -0.06    0.10
   1   5   2    0.09    0.07
  -1   5  -2    0.02    0.05
   1   5   2   -0.03    0.08
  -1   5  -2    0.00    0.07
  -1  -5  -2   -0.01    0.09
   1  -5   2    0.02    0.10
  -1   5  -3   30.19    2.41
  -1   5  -3   28.30    2.43
   1   5   3   27.15    2.43
   1   5   3   32.37    2.44
  -1  -5  -3   29.11    2.43
  -1   5  -4    0.04    0.08
   1   5   4   -0.02    0.10
   1   5   4   -0.03    0.10
  -1   5  -4    0.12    0.14
  -1   5  -4    0.10    0.07
  -1  -5  -4   -0.02    0.10
   1   5   5    3.62    0.36
  -1   5  -5    3.35    0.34
  -1   5  -5    3.56    0.41
   1   5   5    3.20    0.37
  -1  -5  -5    3.33    0.38
   1  -5   5    3.31    0.34
  -1   5  -6    0.12    0.17
   1   5   6   -0.06    0.15
   1   5   6    0.09    0.12
   1   5   6    0.08    0.14
  -1  -5  -6    0.01    0.15
   1  -5   6    0.07    0.11
   1   5   7   10.17    0.91
   1   5   7   11.19    0.95
  -1   5  -7   10.80    0.99
  -1  -5  -7    9.84    0.93
   1  -5   7    9.95    0.91
   1   5   8    0.16    0.16
   1   5   8    0.21    0.19
  -1  -5  -8    0.08    0.18
   1   5   9    1.44    0.26
   1   5   9    1.33    0.29
  -1  -5  -9    1.08    0.26
   1   5  10    0.05    0.20
  -1  -5 -10    0.20    0.23
  -1   6   9    0.06    0.26
  -1   6   9    0.05    0.18
   1  -6  -9    0.10    0.21
  -1   6   8    1.19    0.21
  -1   6   8    1.17    0.28
   1  -6  -8    0.81    0.24
  -1   6   7   -0.04    0.19
  -1   6   7   -0.15    0.12
   1   6  -7   -0.23    0.21
   1  -6  -7   -0.07    0.19
  -1   6   6    8.73    0.88
  -1   6   6   10.98    0.91
  -1   6   6    9.96    0.84
   1  -6  -6    9.00    0.88
   1   6  -5    0.14    0.14
  -1   6   5    0.14    0.11
  -1   6   5   -0.10    0.14
   1   6  -5   -0.02    0.16
   1  -6  -5    0.11    0.15
  -1  -6   5    0.25    0.13
  -1   6   4    4.74    0.42
  -1   6   4    4.17    0.45
   1   6  -4    4.59    0.43
  -1  -6   4    3.90    0.43
   1  -6  -4    4.94    0.46
   1   6  -3    1.21    0.16
   1   6  -3    0.98    0.17
  -1   6   3    1.16    0.16
  -1   6   3    0.73    0.16
   1  -6  -3    1.38    0.19
  -1  -6   3    1.07    0.17
  -1   6   2   23.59    1.78
   1   6  -2   18.84    1.77
   1   6  -2   21.70    1.77
  -1   6   2   20.67    1.78
   1  -6  -2   22.01    1.78
  -1  -6   2   19.03    1.75
  -1  -6   2   24.26    1.80
  -1   6   1    2.17    0.25
  -1   6   1    2.10    0.24
   1   6  -1    1.84    0.25
   1   6  -1    2.10    0.24
  -1  -6   1    2.41    0.29
  -1  -6   1    2.27    0.22
   1  -6  -1    2.12    0.24
  -1   6   0    8.73    0.77
   1   6   0    8.99    0.77
  -1   6   0    8.34    0.77
   1   6   0    9.54    0.77
  -1  -6   0    8.70    0.76
   1  -6   0    9.29    0.76
   1   6   1    1.94    0.23
  -1   6  -1    2.29    0.23
   1   6   1    1.93    0.22
  -1   6  -1    1.91    0.23
  -1  -6  -1    2.07    0.24
   1  -6   1    1.65    0.27
   1  -6   1    1.85    0.19
   1   6   2   20.81    1.74
  -1   6  -2   20.79    1.73
   1   6   2   19.70    1.72
   1   6   2   21.73    1.75
  -1   6  -2   22.97    1.72
  -1  -6  -2   20.60    1.73
   1  -6   2   18.06    1.75
   1   6   3    0.97    0.19
   1   6   3    1.26    0.18
   1   6   3    1.00    0.15
  -1   6  -3    1.13    0.14
  -1   6  -3    1.15    0.17
  -1  -6  -3    0.99    0.18
   1   6   4    4.72    0.46
  -1   6  -4    4.78    0.43
   1   6   4    4.62    0.44
   1   6   4    4.71    0.48
   1   6   5    0.18    0.13
  -1   6  -5    0.04    0.17
   1   6   5    0.01    0.15
  -1  -6  -5    0.02    0.15
   1   6   6    9.73    0.91
   1   6   6    9.99    0.89
  -1  -6  -6   10.22    0.90
   1   6   7   -0.03    0.18
   1   6   7    0.00    0.14
  -1  -6  -7    0.04    0.17
   1   6   8    0.90    0.27
   1   6   8    1.09    0.23
  -1  -6  -8    1.02    0.25
   1   6   9    0.27    0.25
   1   6   9    0.26    0.19
  -1  -6  -9    0.16    0.22
  -1   7   8    0.27    0.25
   1  -7  -8   -0.07    0.21
  -1   7   7    0.88    0.25
  -1   7   7    0.75    0.18
   1  -7  -7    0.75    0.25
  -1   7   6    0.03    0.17
  -1   7   6    0.08    0.13
   1   7  -6    0.35    0.18
   1  -7  -6   -0.04    0.18
  -1   7   5    9.29    0.88
  -1   7   5    9.50    0.84
   1  -7  -5   10.15    0.88
  -1   7   4    0.25    0.16
  -1   7   4    0.08    0.11
   1   7  -4    0.16    0.11
   1  -7  -4   -0.11    0.13
   1   7  -3    5.59    0.48
  -1   7   3    4.58    0.50
  -1   7   3    5.32    0.48
   1  -7  -3    4.64    0.50
  -1   7   2    0.13    0.12
  -1   7   2    0.26    0.13
  -1   7   2    0.00    0.12
   1   7  -2    0.08    0.10
   1  -7  -2    0.05    0.12
  -1  -7   2    0.12    0.06
  -1   7   1   14.15    1.20
  -1   7   1   12.48    1.20
   1   7  -1   15.51    1.20
  -1  -7   1   14.07    1.17
   1  -7  -1   13.77    1.18
   1   7   0   -0.08    0.11
  -1   7   0   -0.06    0.09
   1   7   0    0.06    0.11
   1  -7   0   -0.04    0.08
  -1  -7   0   -0.01    0.09
   1   7   1   14.38    1.26
   1   7   1   16.00    1.27
  -1   7  -1   14.07    1.25
   1  -7   1   14.51    1.24
  -1  -7  -1   15.86    1.26
  -1   7  -2    0.08    0.09
   1   7   2   -0.02    0.14
   1   7   2    0.07    0.09
   1   7   2   -0.06    0.11
  -1  -7  -2    0.12    0.12
   1   7   3    4.58    0.49
   1   7   3    5.32    0.50
  -1   7  -3    4.87    0.45
   1   7   3    4.95    0.46
  -1  -7  -3    4.73    0.49
   1   7   4   -0.02    0.10
   1   7   4   -0.01    0.16
   1   7   4    0.12    0.14
  -1  -7  -4   -0.07    0.14
   1   7   5   10.14    0.91
   1   7   5    9.78    0.86
   1   7   5   10.56    0.88
  -1  -7  -5    9.10    0.89
   1   7   6   -0.11    0.15
   1   7   6   -0.05    0.19
  -1  -7  -6   -0.03    0.17
   1   7   7    0.80    0.26
   1   7   7    0.85    0.21
  -1  -7  -7    0.74    0.24
   1   7   8    0.24    0.18
   1   7   8    0.16    0.24
  -1  -7  -8   -0.05    0.21
  -1   8   7    0.12    0.24
   1  -8  -7    0.03    0.22
  -1   8   6    0.89    0.26
   1  -8  -6    1.23    0.26
  -1   8   5    0.06    0.19
  -1   8   5    0.15    0.13
   1  -8  -5    0.15    0.20
  -1   8   4    5.67    0.62
  -1   8   4    6.57    0.58
   1  -8  -4    5.96    0.61
  -1   8   3    0.43    0.15
  -1   8   3    0.42    0.18
   1   8  -3    0.40    0.15
   1  -8  -3    0.32    0.16
   1   8  -2    5.31    0.51
  -1   8   2    5.02    0.53
  -1   8   2    5.40    0.51
  -1  -8   2    5.23    0.45
   1  -8  -2    5.15    0.51
  -1   8   1    0.56    0.17
   1   8  -1    0.74    0.16
   1  -8  -1    0.65    0.15
  -1  -8   1    0.69    0.12
   1   8   0    8.67    0.74
  -1   8   0    8.10    0.74
  -1  -8   0    8.32    0.72
   1  -8   0    7.84    0.71
  -1   8  -1    0.71    0.15
   1   8   1    0.80    0.18
   1  -8   1    0.63    0.11
  -1  -8  -1    0.63    0.15
  -1   8  -2    4.69    0.48
   1   8   2    5.35    0.53
   1   8   2    5.40    0.53
  -1  -8  -2    5.37    0.51
  -1   8  -3    0.40    0.13
   1   8   3    0.63    0.19
   1   8   3    0.32    0.17
  -1  -8  -3    0.48    0.17
   1   8   4    6.91    0.64
   1   8   4    6.58    0.67
  -1  -8  -4    6.41    0.64
   1   8   5    0.15    0.17
   1   8   5    0.12    0.20
  -1  -8  -5    0.10    0.18
   1   8   6    1.18    0.23
   1   8   6    0.99    0.28
  -1  -8  -6    1.02    0.25
   1   8   7   -0.03    0.23
   1   8   7   -0.20    0.17
  -1  -8  -7    0.17    0.21
  -1   9   6    0.12    0.24
   1  -9  -6    0.14    0.22
  -1   9   5    1.14    0.27
   1  -9  -5    0.75    0.24
  -1   9   4    0.11    0.22
   1  -9  -4    0.17    0.19
  -1   9   3    5.59    0.57
   1   9  -3    5.58    0.53
   1  -9  -3    4.45    0.53
   1   9  -2    0.07    0.15
  -1   9   2   -0.02    0.15
  -1   9   2    0.12    0.18
   1  -9  -2    0.03    0.14
  -1   9   1    4.27    0.45
  -1   9   1    4.19    0.45
   1   9  -1    3.67    0.42
  -1  -9   1    3.67    0.38
   1  -9  -1    3.86    0.40
  -1   9   0   -0.03    0.15
   1   9   0   -0.08    0.15
   1  -9   0    0.04    0.11
  -1  -9   0    0.08    0.12
   1   9   1    3.83    0.45
   1   9   1    3.74    0.46
  -1   9  -1    4.18    0.43
  -1  -9  -1    3.53    0.40
  -1   9  -2    0.00    0.14
   1   9   2    0.03    0.17
   1   9   2   -0.05    0.18
  -1  -9  -2    0.09    0.16
   1   9   3    4.71    0.56
   1   9   3    6.05    0.56
  -1  -9  -3    4.65    0.53
   1   9   4    0.14    0.18
   1   9   4   -0.07    0.21
  -1  -9  -4   -0.02    0.19
   1   9   5    0.91    0.29
   1   9   5    1.23    0.24
  -1  -9  -5    1.00    0.26
   1   9   6    0.09    0.25
  -1  -9  -6    0.00    0.21
  -1  10   5    0.25    0.26
   1 -10  -5   -0.10    0.21
  -1  10   4    1.44    0.32
   1 -10  -4    1.54    0.28
  -1  10   3    0.28    0.24
   1 -10  -3    0.04    0.18
  -1  10   2    2.37    0.35
   1  10  -2    2.19    0.30
   1 -10  -2    2.18    0.29
  -1  10   1    0.05    0.20
   1  10  -1    0.19    0.17
   1 -10  -1    0.07    0.14
  -1  10   0    3.08    0.41
   1  10   0    3.25    0.42
  -1 -10   0    2.90    0.36
   1 -10   0    3.23    0.39
   1  10   1    0.10    0.21
   1  10   1    0.22    0.21
  -1  10  -1    0.13    0.17
  -1 -10  -1    0.13    0.15
   1  10   2    2.74    0.36
   1  10   2    2.45    0.37
  -1  10  -2    2.50    0.35
  -1 -10  -2    2.46    0.32
   1  10   3   -0.05    0.23
  -1 -10  -3    0.32    0.20
   1  10   4    1.49    0.33
  -1 -10  -4    1.70    0.30
   1  10   5    0.35    0.27
  -1 -10  -5    0.34    0.23
  -1  11   2    0.16    0.23
   1 -11  -2    0.01    0.18
   1  11  -1    1.26    0.28
  -1  11   1    1.71    0.32
   1  11   0    0.21    0.23
  -1  11   0   -0.01    0.21
  -1  11  -1    1.29    0.28
   1  11   1    1.43    0.31
  -1 -11  -1    1.45    0.24
   1  11   2    0.06    0.23
  -1 -11  -2   -0.03    0.18
  -2   0  11   -0.04    0.21
  -2   0  10    8.31    0.98
  -2   0  10    7.96    0.76
  -2   0   9    0.20    0.30
   2   0  -9    0.11    0.12
  -2   0   9    0.06    0.15
  -2   0   8   18.54    1.64
   2   0  -8   19.76    1.64
  -2   0   8   20.24    1.64
   2   0  -7   -0.08    0.13
   2   0  -7    0.04    0.09
  -2   0   7    0.08    0.10
  -2   0   7    0.05    0.08
  -2   0   7   -0.09    0.21
  -2   0   7   -0.12    0.11
   2   0  -6   15.59    1.32
  -2   0   6   14.25    1.33
  -2   0   6   16.64    1.33
  -2   0   6   17.01    1.33
  -2   0   5   -0.01    0.07
  -2   0   5   -0.01    0.07
   2   0  -5   -0.10    0.10
  -2   0   5   -0.12    0.14
  -2   0   5    0.02    0.08
   2   0  -5    0.03    0.06
   2   0  -4  147.60   11.74
  -2   0   4  152.37   11.77
   2   0  -4  132.13   11.74
  -2   0   3   -0.06    0.09
  -2   0   3    0.02    0.06
  -2   0   3   -0.04    0.06
   2   0  -3   -0.02    0.04
   2   0  -3    0.03    0.08
  -2   0   3   -0.01    0.04
   2   0  -2    2.12    0.16
   2   0  -2    1.73    0.16
  -2   0   2    1.75    0.16
   2   0  -2    1.97    0.18
  -2   0   2    1.36    0.20
  -2   0   2    1.87    0.18
  -2   0   2    1.23    0.18
   2   0  -1    0.01    0.02
   2   0  -1   -0.07    0.04
  -2   0   1   -0.03    0.05
  -2   0   1    0.02    0.03
  -2   0   1    0.00    0.04
  -2   0   0  185.64   14.82
   2   0   0  181.96   14.79
   2   0   0  201.22   14.83
  -2   0   0  185.43   14.79
   2   0   0  169.54   14.79
  -2   0   0  181.30   14.79
   2   0   0  177.42   14.78
   2   0   0  168.62   14.80
  -2   0  -1    0.00    0.02
   2   0   1    0.05    0.06
  -2   0  -1    0.03    0.02
   2   0   1    0.01    0.03
   2   0   1    0.03    0.02
   2   0   1   -0.01    0.01
  -2   0  -1    0.01    0.01
  -2   0  -1   -0.06    0.04
  -2   0  -2    1.78    0.17
  -2   0  -2    1.77    0.16
   2   0   2    2.22    0.25
  -2   0  -2    1.42    0.22
   2   0   2    1.90    0.18
   2   0   2    2.02    0.16
   2   0   2    1.89    0.16
   2   0   2    2.16    0.16
  -2   0  -2    1.97    0.16
  -2   0  -3    0.00    0.03
  -2   0  -3   -0.04    0.03
   2   0   3    0.06    0.05
   2   0   3    0.00    0.02
   2   0   3    0.04    0.11
   2   0   4  127.57   11.96
  -2   0  -4  148.42   11.91
   2   0   4  162.52   11.96
  -2   0  -4  143.30   11.89
   2   0   4  148.88   11.90
   2   0   5    0.04    0.15
   2   0   5    0.01    0.04
  -2   0  -5   -0.03    0.05
   2   0   5   -0.03    0.07
  -2   0  -5   -0.14    0.07
   2   0   6   15.79    1.21
   2   0   6   12.27    1.32
  -2   0  -6   15.48    1.20
   2   0   6   13.23    1.18
   2   0   7   -0.05    0.07
   2   0   7    0.11    0.21
  -2   0  -7    0.12    0.10
  -2   0  -7   -0.05    0.08
   2   0   7    0.05    0.13
   2   0   8   18.33    1.57
  -2   0  -8   18.62    1.55
   2   0   9    0.20    0.29
   2   0   9   -0.11    0.17
   2   0  10    7.80    0.76
   2   0  11    0.10    0.22
  -2   1  11    4.56    0.52
  -2   1  10    0.50    0.21
  -2   1  10    0.78    0.38
  -2  -1  10    0.61    0.22
  -2  -1  10    0.33    0.36
   2  -1 -10    0.46    0.19
  -2   1   9    7.22    0.99
  -2   1   9    7.76    0.79
  -2  -1   9    9.11    0.81
   2  -1  -9    9.85    0.81
  -2  -1   9    9.25    0.80
  -2  -1   9   10.02    0.97
  -2   1   8    2.25    0.30
  -2   1   8    3.18    0.31
  -2   1   8    2.58    0.32
   2   1  -8    2.77    0.29
  -2   1   8    1.88    0.45
   2   1  -8    2.15    0.34
  -2  -1   8    2.63    0.30
  -2  -1   8    2.51    0.31
  -2  -1   8    2.13    0.43
   2  -1  -8    2.82    0.32
  -2   1   7   23.46    2.46
   2   1  -7   30.20    2.38
  -2   1   7   28.50    2.34
   2   1  -7   27.49    2.33
   2  -1  -7   31.68    2.35
  -2  -1   7   30.64    2.34
  -2  -1   7   26.79    2.34
  -2  -1   7   26.34    2.44
  -2   1   6    7.24    0.64
  -2   1   6    7.37    0.64
   2   1  -6    7.29    0.62
   2   1  -6    8.61    0.67
  -2   1   6    5.38    0.73
  -2   1   6    6.43    0.67
  -2  -1   6    6.87    0.64
  -2  -1   6    7.57    0.77
   2  -1  -6    7.73    0.67
   2  -1  -6    7.35    0.64
  -2  -1   6    7.36    0.60
  -2  -1   6    7.41    0.63
  -2   1   5   30.48    2.50
  -2   1   5   32.69    2.50
   2   1  -5   33.77    2.55
   2   1  -5   27.24    2.48
   2   1  -5   33.69    2.50
  -2   1   5   30.92    2.48
   2  -1  -5   25.82    2.50
  -2  -1   5   31.33    2.49
  -2  -1   5   29.45    2.56
  -2  -1   5   32.74    2.47
  -2  -1   5   28.05    2.47
  -2  -1   5   26.81    2.48
  -2   1   4   11.71    0.95
   2   1  -4   10.90    0.92
   2   1  -4   11.65    0.98
   2   1  -4   11.45    0.94
  -2   1   4   10.59    0.93
   2  -1  -4   10.76    0.93
   2  -1  -4    9.97    0.95
  -2  -1   4   10.65    0.92
  -2  -1   4   12.74    0.92
  -2  -1   4   10.80    0.93
  -2  -1   4   11.08    1.00
   2   1  -3   91.86    7.07
  -2   1   3   91.36    7.07
   2   1  -3   85.52    7.06
  -2   1   3   74.03    7.06
   2   1  -3   80.49    7.10
   2  -1  -3   85.97    7.08
  -2  -1   3   88.13    7.06
   2  -1  -3   83.44    7.06
  -2  -1   3   93.47    7.08
   2  -1  -3   89.38    7.06
  -2  -1   3   89.65    7.07
  -2  -1   3   86.57    7.06
  -2   1   2   10.34    0.95
  -2   1   2   10.26    0.92
  -2   1   2   10.77    0.93
   2   1  -2   11.24    0.93
   2   1  -2   11.22    0.93
   2   1  -2   11.27    0.93
  -2  -1   2   11.21    0.93
  -2  -1   2   12.69    0.93
   2  -1  -2   11.35    0.93
  -2  -1   2   11.31    0.94
   2  -1  -2   11.74    0.92
  -2   1   1  108.29    9.55
  -2   1   1  119.76    9.58
   2   1  -1  105.89    9.55
   2   1  -1  125.96    9.57
  -2  -1   1  129.82    9.57
  -2  -1   1  108.06    9.56
   2  -1  -1  113.36    9.58
   2  -1  -1  126.82    9.55
   2   1   0    0.04    0.03
  -2   1   0   -0.01    0.01
   2   1   0    0.00    0.02
  -2   1   0    0.02    0.02
  -2  -1   0   -0.01    0.02
   2  -1   0   -0.01    0.02
   2  -1   0    0.00    0.01
  -2  -1   0    0.01    0.02
   2  -1   0    0.01    0.02
  -2   1  -1  122.64    9.71
   2   1   1  127.31    9.65
   2   1   1  121.03    9.64
   2   1   1  122.29    9.62
  -2   1  -1  107.24    9.64
  -2  -1  -1  121.37    9.64
  -2  -1  -1  118.43    9.64
  -2  -1  -1  126.67    9.63
   2  -1   1  105.42    9.62
   2  -1   1  115.29    9.63
  -2  -1  -1  111.62    9.65
  -2   1  -2   11.21    0.92
  -2   1  -2   10.48    0.92
   2   1   2   12.02    0.92
   2   1   2   11.14    0.93
  -2  -1  -2   11.70    0.92
   2  -1   2   11.40    0.92
   2  -1   2   10.82    0.92
  -2  -1  -2   10.44    0.92
   2   1   3   87.55    7.03
   2   1   3   77.14    7.02
  -2   1  -3   81.92    7.03
   2  -1   3   89.45    7.04
  -2  -1  -3   95.32    7.04
   2   1   4   13.59    1.03
   2   1   4   11.72    0.93
  -2   1  -4   10.90    0.94
   2   1   4   11.88    0.95
   2   1   4   11.85    0.94
  -2   1  -4   11.83    0.93
   2  -1   4   10.37    0.94
   2  -1   4   10.34    0.95
   2  -1   4    9.08    1.02
  -2  -1  -4   11.62    0.94
   2   1   5   32.46    2.66
   2   1   5   28.16    2.56
   2   1   5   31.43    2.56
  -2   1  -5   35.27    2.56
   2   1   5   29.43    2.54
  -2   1  -5   33.62    2.55
  -2  -1  -5   30.19    2.56
   2  -1   5   28.94    2.56
   2  -1   5   31.00    2.55
   2   1   6    7.14    0.60
  -2   1  -6    7.39    0.63
   2   1   6    7.69    0.79
   2   1   6    6.59    0.60
  -2   1  -6    7.47    0.61
   2   1   6    6.91    0.63
  -2  -1  -6    8.14    0.63
   2  -1   6    5.69    0.74
   2  -1   6    6.53    0.63
   2  -1   6    7.93    0.61
   2   1   7   28.00    2.41
   2   1   7   31.12    2.38
   2   1   7   29.07    2.38
  -2   1  -7   33.08    2.39
   2   1   7   26.84    2.54
   2  -1   7   22.83    2.52
  -2  -1  -7   28.37    2.40
   2  -1   7   31.50    2.39
   2  -1   7   27.97    2.41
   2   1   8    2.43    0.49
   2   1   8    2.04    0.28
   2  -1   8    1.44    0.38
   2  -1   8    2.33    0.30
   2  -1   8    2.53    0.25
  -2  -1  -8    2.61    0.29
   2   1   9    7.79    1.02
   2   1   9   10.26    0.83
  -2  -1  -9    9.13    0.80
   2  -1   9    8.86    0.81
   2  -1   9    7.34    0.97
   2   1  10    0.53    0.23
   2  -1  10    0.45    0.21
   2   1  11    4.17    0.54
   2  -1  11    4.72    0.55
  -2   2  11   -0.03    0.20
  -2   2  10    6.50    0.61
  -2   2  10    4.38    0.80
   2  -2 -10    6.03    0.61
  -2  -2  10    6.90    0.76
  -2   2   9    0.12    0.16
  -2   2   9    0.13    0.17
  -2   2   9    0.11    0.34
  -2  -2   9    0.18    0.13
  -2  -2   9    0.08    0.24
   2  -2  -9    0.27    0.17
  -2   2   8   10.79    1.02
   2   2  -8   12.34    1.06
  -2   2   8   13.62    1.03
   2   2  -8   11.35    1.01
  -2  -2   8   11.21    1.12
   2  -2  -8   12.18    1.03
  -2  -2   8   11.45    1.01
  -2   2   7    0.01    0.12
  -2   2   7   -0.01    0.23
   2   2  -7    0.16    0.13
  -2   2   7    0.04    0.10
  -2   2   7    0.14    0.15
   2   2  -7    0.00    0.08
  -2  -2   7   -0.16    0.16
  -2  -2   7    0.05    0.10
   2  -2  -7    0.21    0.12
  -2   2   6   61.34    4.25
  -2   2   6   47.31    4.22
  -2   2   6   43.21    4.30
   2   2  -6   55.87    4.24
   2   2  -6   51.56    4.21
  -2  -2   6   49.07    4.29
  -2  -2   6   49.97    4.22
   2  -2  -6   53.53    4.23
   2   2  -5    0.04    0.08
  -2   2   5    0.06    0.09
   2   2  -5    0.11    0.15
  -2   2   5    0.07    0.07
   2   2  -5    0.08    0.06
  -2   2   5   -0.03    0.11
  -2  -2   5    0.05    0.15
   2  -2  -5    0.09    0.09
  -2  -2   5    0.03    0.07
  -2   2   4    9.48    0.78
   2   2  -4    9.49    0.77
  -2   2   4    7.57    0.76
   2   2  -4    8.70    0.76
  -2  -2   4    9.67    0.77
  -2  -2   4    9.46    0.81
  -2  -2   4    8.55    0.74
   2  -2  -4   10.28    0.78
  -2   2   3    1.15    0.13
   2   2  -3    0.89    0.18
  -2   2   3    1.51    0.16
   2   2  -3    1.54    0.14
   2   2  -3    1.27    0.14
  -2   2   3    1.46    0.17
   2  -2  -3    1.34    0.15
  -2  -2   3    1.26    0.12
  -2  -2   3    1.18    0.14
  -2  -2   3    1.44    0.19
  -2  -2   3    1.12    0.12
   2  -2  -3    1.18    0.14
  -2   2   2  238.89   19.21
  -2   2   2  221.53   19.15
   2   2  -2  204.03   19.15
   2   2  -2  249.53   19.21
  -2  -2   2  231.72   19.21
  -2  -2   2  219.60   19.15
  -2  -2   2  239.31   19.17
   2  -2  -2  242.46   19.18
   2  -2  -2  270.23   19.23
   2   2  -1    9.83    0.84
  -2   2   1    9.48    0.84
  -2   2   1   10.76    0.83
   2  -2  -1   10.64    0.84
  -2  -2   1   10.84    0.84
  -2  -2   1    9.45    0.84
   2   2   0    2.17    0.18
  -2   2   0    1.70    0.17
   2   2   0    2.41    0.18
   2  -2   0    2.05    0.17
   2  -2   0    1.78    0.17
  -2  -2   0    1.66    0.18
  -2  -2   0    2.00    0.18
   2   2   1    9.09    0.88
  -2   2  -1   11.60    0.86
   2   2   1   10.85    0.86
   2   2   1   11.37    0.87
  -2   2  -1   10.36    0.86
  -2   2  -1    8.52    0.88
  -2  -2  -1   10.87    0.87
   2   2   2  215.81   18.43
  -2   2  -2  214.21   18.40
  -2   2  -2  239.77   18.46
  -2   2  -2  218.21   18.43
  -2  -2  -2  255.96   18.47
   2  -2   2  212.66   18.42
   2   2   3    1.09    0.14
   2   2   3    1.39    0.16
  -2   2  -3    0.97    0.20
  -2   2  -3    1.26    0.13
   2  -2   3    0.96    0.19
  -2  -2  -3    1.23    0.14
   2  -2   3    1.21    0.13
   2  -2   3    1.33    0.14
   2   2   4   10.21    0.78
  -2   2  -4    9.36    0.77
   2   2   4    9.16    0.78
   2  -2   4    8.50    0.77
  -2  -2  -4    9.10    0.78
   2  -2   4    8.63    0.78
   2   2   5    0.05    0.08
   2   2   5    0.03    0.06
  -2   2  -5    0.03    0.03
   2   2   5    0.11    0.10
  -2   2  -5    0.04    0.07
   2  -2   5    0.06    0.09
   2  -2   5    0.01    0.17
   2  -2   5    0.09    0.07
  -2  -2  -5    0.08    0.08
   2   2   6   58.89    4.49
   2   2   6   55.43    4.46
   2   2   6   51.83    4.48
   2   2   6   61.45    4.59
  -2   2  -6   54.50    4.48
  -2   2  -6   54.20    4.46
  -2  -2  -6   53.25    4.48
   2  -2   6   51.58    4.47
   2  -2   6   51.98    4.49
   2   2   7    0.06    0.11
   2   2   7    0.08    0.07
   2   2   7   -0.04    0.13
   2   2   7   -0.04    0.23
  -2   2  -7    0.12    0.11
  -2  -2  -7    0.14    0.11
   2  -2   7   -0.06    0.23
   2  -2   7    0.14    0.09
   2  -2   7   -0.04    0.14
   2   2   8   10.50    1.15
   2   2   8   11.58    0.95
   2   2   8    8.94    0.92
  -2  -2  -8   11.52    0.94
   2  -2   8   10.55    0.92
   2  -2   8   11.52    0.95
   2   2   9    0.15    0.36
   2   2   9    0.50    0.19
   2  -2   9    0.15    0.17
  -2  -2  -9    0.08    0.14
   2  -2   9   -0.05    0.24
   2   2  10    7.28    0.67
   2  -2  10    5.84    0.64
  -2  -2 -10    6.34    0.67
   2   2  11    0.00    0.22
   2  -2  11    0.11    0.25
  -2   3  10    0.23    0.20
  -2  -3  10    0.30    0.34
   2  -3 -10    0.39    0.20
  -2   3   9   11.59    1.19
  -2   3   9   12.95    1.14
  -2  -3   9   14.86    1.26
   2  -3  -9   12.98    1.15
  -2   3   8    0.77    0.37
  -2   3   8    1.19    0.21
  -2   3   8    1.77    0.28
  -2   3   8    1.48    0.24
   2  -3  -8    1.61    0.24
  -2  -3   8    1.70    0.35
  -2  -3   8    1.42    0.21
  -2   3   7   10.87    0.89
   2   3  -7   10.05    0.88
  -2   3   7    9.90    0.86
  -2   3   7   10.57    0.89
   2   3  -7    9.52    0.84
  -2  -3   7   10.65    0.96
   2  -3  -7    9.09    0.87
  -2  -3   7    9.10    0.86
  -2   3   6    4.19    0.41
  -2   3   6    4.18    0.38
   2   3  -6    4.28    0.40
   2   3  -6    3.91    0.37
  -2  -3   6    3.55    0.38
   2  -3  -6    3.99    0.41
  -2  -3   6    4.31    0.46
   2   3  -5   66.04    5.50
  -2   3   5   60.53    5.49
  -2   3   5   73.04    5.51
  -2  -3   5   64.85    5.50
   2  -3  -5   71.78    5.51
  -2   3   4    4.19    0.41
   2   3  -4    3.68    0.48
   2   3  -4    4.32    0.42
  -2   3   4    5.09    0.44
  -2   3   4    6.02    0.47
   2   3  -4    5.31    0.42
   2  -3  -4    4.77    0.44
  -2  -3   4    4.81    0.43
   2   3  -3   26.11    2.04
  -2   3   3   24.30    2.02
  -2   3   3   23.51    2.03
   2   3  -3   22.56    2.03
   2  -3  -3   26.86    2.07
  -2  -3   3   24.65    2.01
  -2  -3   3   25.68    2.01
  -2  -3   3   24.31    2.03
   2  -3  -3   24.36    2.04
  -2   3   2    1.21    0.12
  -2   3   2    1.25    0.15
   2   3  -2    0.98    0.13
  -2  -3   2    1.18    0.12
   2  -3  -2    1.25    0.15
  -2  -3   2    1.27    0.15
  -2   3   1   82.74    6.83
   2   3  -1   87.02    6.83
   2   3  -1   76.69    6.83
  -2   3   1   87.81    6.82
  -2  -3   1   92.98    6.84
  -2  -3   1   82.05    6.83
  -2  -3   1   83.79    6.83
   2  -3  -1   77.12    6.82
  -2   3   0    0.00    0.04
   2   3   0    0.06    0.05
   2   3   0    0.02    0.05
  -2  -3   0    0.05    0.05
  -2  -3   0    0.01    0.04
   2  -3   0   -0.01    0.03
  -2   3  -1   75.22    6.83
   2   3   1   78.38    6.84
  -2   3  -1   85.66    6.84
  -2   3  -1   78.46    6.84
   2   3   1   94.06    6.85
  -2  -3  -1   82.14    6.84
   2  -3   1   93.54    6.84
   2   3   2    1.43    0.17
  -2   3  -2    1.58    0.20
  -2   3  -2    1.46    0.12
   2   3   2    1.25    0.15
  -2   3  -2    1.09    0.17
  -2   3  -2    1.13    0.14
   2   3   2    1.21    0.13
  -2  -3  -2    1.11    0.14
   2  -3   2    1.01    0.16
   2   3   3   24.93    2.07
   2   3   3   24.01    2.06
  -2   3  -3   28.45    2.09
  -2   3  -3   22.87    2.06
  -2   3  -3   26.05    2.12
  -2  -3  -3   24.47    2.06
   2   3   4    4.94    0.46
  -2   3  -4    4.54    0.44
  -2   3  -4    5.73    0.48
   2   3   4    4.71    0.45
   2  -3   4    5.48    0.45
   2  -3   4    5.54    0.45
  -2  -3  -4    4.82    0.45
   2  -3   4    4.49    0.51
   2   3   5   54.58    5.40
  -2   3  -5   67.14    5.39
   2   3   5   66.18    5.39
  -2   3  -5   64.33    5.36
   2   3   5   63.87    5.39
   2  -3   5   72.08    5.40
   2  -3   5   70.64    5.39
  -2  -3  -5   68.26    5.40
   2   3   6    4.22    0.38
   2   3   6    4.11    0.40
  -2   3  -6    4.31    0.38
   2   3   6    3.95    0.40
   2  -3   6    3.71    0.37
   2  -3   6    3.83    0.39
   2  -3   6    3.21    0.49
  -2  -3  -6    3.80    0.39
   2   3   7   10.80    1.01
   2   3   7   10.62    0.81
   2   3   7   10.06    0.85
   2   3   7    8.41    0.84
  -2   3  -7   10.10    0.84
   2  -3   7    7.23    0.92
   2  -3   7    9.91    0.83
  -2  -3  -7    9.31    0.85
   2  -3   7    9.14    0.85
   2   3   8    1.29    0.23
   2   3   8    1.46    0.24
   2   3   8    1.72    0.40
   2  -3   8    1.39    0.25
  -2  -3  -8    1.44    0.23
   2  -3   8    1.19    0.33
   2  -3   8    1.59    0.20
   2   3   9   14.06    1.36
   2   3   9   13.02    1.13
  -2  -3  -9   13.35    1.12
   2  -3   9   13.72    1.14
   2  -3   9    9.77    1.23
   2   3  10    0.36    0.19
   2  -3  10    0.28    0.24
  -2  -3 -10    0.57    0.20
  -2   4  10    4.53    0.59
  -2   4  10    4.23    0.49
   2  -4 -10    4.39    0.54
  -2   4   9    0.29    0.23
  -2   4   9    0.29    0.17
  -2   4   9   -0.29    0.35
   2  -4  -9    0.17    0.19
  -2   4   8   17.26    1.57
  -2   4   8   20.78    1.62
   2  -4  -8   18.23    1.60
  -2   4   7    0.15    0.15
   2   4  -7    0.29    0.17
  -2   4   7    0.12    0.11
  -2   4   7   -0.01    0.17
  -2  -4   7    0.29    0.13
   2  -4  -7    0.13    0.15
   2   4  -6    8.04    0.78
  -2   4   6    7.11    0.78
  -2   4   6    8.56    0.76
   2   4  -6    7.55    0.73
  -2   4   6    7.82    0.72
   2   4  -6   10.04    0.73
  -2  -4   6    8.55    0.74
   2  -4  -6    8.35    0.75
  -2   4   5    0.29    0.12
  -2   4   5    0.56    0.17
  -2   4   5    0.28    0.09
   2   4  -5    0.49    0.15
   2   4  -5    0.57    0.12
   2   4  -5    0.20    0.10
  -2  -4   5    0.34    0.12
   2  -4  -5    0.48    0.14
   2   4  -4   73.12    6.29
  -2   4   4   76.65    6.29
   2   4  -4   80.74    6.30
  -2   4   4   74.91    6.28
  -2  -4   4   73.07    6.29
   2  -4  -4   83.19    6.30
  -2   4   3    4.84    0.45
  -2   4   3    4.94    0.43
   2   4  -3    4.83    0.44
   2   4  -3    4.34    0.49
  -2  -4   3    5.71    0.41
  -2  -4   3    4.69    0.41
  -2  -4   3    4.29    0.44
   2  -4  -3    5.02    0.45
  -2   4   2    8.71    0.74
  -2   4   2    9.20    0.75
   2   4  -2    8.68    0.75
   2   4  -2    7.96    0.74
   2  -4  -2    9.51    0.75
  -2  -4   2    8.87    0.75
  -2  -4   2    8.72    0.73
   2   4  -1   11.63    0.96
   2   4  -1   10.70    0.95
  -2   4   1   12.13    0.95
  -2  -4   1   12.32    0.95
  -2  -4   1   10.20    0.95
  -2  -4   1   11.43    0.97
   2  -4  -1   11.10    0.95
   2   4   0  168.19   13.15
   2   4   0  158.03   13.13
  -2   4   0  170.11   13.15
  -2  -4   0  166.62   13.15
   2  -4   0  142.16   13.12
  -2   4  -1   10.44    0.88
   2   4   1   11.31    0.89
  -2   4  -1    9.74    0.89
   2   4   1    9.89    0.89
  -2  -4  -1   11.35    0.90
   2  -4   1   11.38    0.87
   2  -4   1   10.23    0.88
   2   4   2    9.04    0.75
   2   4   2    9.27    0.76
   2   4   2    8.70    0.77
  -2   4  -2    8.93    0.74
   2  -4   2    7.69    0.78
  -2  -4  -2    9.37    0.76
   2   4   3    5.08    0.45
  -2   4  -3    5.53    0.42
   2   4   3    4.87    0.43
  -2   4  -3    4.05    0.44
   2   4   3    5.21    0.46
  -2   4  -3    4.36    0.48
  -2  -4  -3    5.09    0.45
  -2   4  -4   67.66    6.35
  -2   4  -4   78.87    6.40
   2   4   4   84.61    6.38
   2   4   4   78.40    6.38
  -2   4  -4   74.80    6.37
  -2  -4  -4   84.29    6.38
   2   4   5    0.31    0.13
   2   4   5    0.27    0.12
  -2   4  -5    0.42    0.11
  -2   4  -5    0.42    0.06
  -2   4  -5    0.32    0.15
   2  -4   5    0.42    0.11
  -2  -4  -5    0.29    0.12
  -2   4  -6    8.68    0.79
  -2   4  -6    8.10    0.74
   2   4   6    8.62    0.75
   2   4   6    8.89    0.76
   2  -4   6    8.07    0.74
  -2  -4  -6    8.53    0.76
  -2   4  -7    0.23    0.18
   2   4   7    0.15    0.15
   2   4   7    0.22    0.15
  -2   4  -7    0.23    0.11
  -2  -4  -7    0.10    0.15
   2  -4   7    0.22    0.12
   2   4   8   19.43    1.58
   2   4   8   17.11    1.57
   2   4   8   19.64    1.73
   2  -4   8   17.21    1.55
  -2  -4  -8   19.19    1.58
   2   4   9    0.30    0.20
   2   4   9    0.18    0.17
  -2  -4  -9    0.34    0.19
   2   4  10    4.38    0.52
  -2  -4 -10    4.47    0.52
  -2   5  10    0.20    0.19
  -2   5   9    2.41    0.34
  -2   5   9    3.14    0.41
   2  -5  -9    3.40    0.41
  -2   5   8    0.39    0.22
  -2   5   8    0.36    0.15
   2  -5  -8    0.49    0.21
  -2   5   7   21.18    2.18
  -2   5   7   28.36    2.16
  -2   5   7   25.22    2.12
   2  -5  -7   26.90    2.15
  -2   5   6    0.60    0.17
   2   5  -6    0.14    0.17
  -2   5   6    0.49    0.12
  -2   5   6    0.58    0.20
   2  -5  -6    0.28    0.17
  -2  -5   6    0.36    0.14
  -2   5   5    7.68    0.61
  -2   5   5    6.44    0.64
   2   5  -5    6.44    0.65
   2  -5  -5    7.79    0.65
  -2  -5   5    6.42    0.62
  -2   5   4    0.30    0.09
  -2   5   4    0.33    0.13
   2   5  -4    0.24    0.15
   2   5  -4    0.41    0.12
   2   5  -4    0.17    0.11
   2  -5  -4    0.49    0.13
  -2  -5   4    0.53    0.13
   2   5  -3   65.02    5.44
  -2   5   3   62.89    5.44
   2   5  -3   60.52    5.43
  -2   5   3   67.08    5.42
  -2  -5   3   62.59    5.44
  -2  -5   3   76.33    5.41
  -2  -5   3   67.27    5.41
   2  -5  -3   68.84    5.44
  -2   5   2   -0.02    0.08
  -2   5   2    0.04    0.07
   2   5  -2    0.04    0.07
   2   5  -2    0.13    0.08
   2  -5  -2    0.03    0.09
  -2  -5   2    0.01    0.09
  -2  -5   2    0.05    0.09
  -2  -5   2    0.08    0.05
   2   5  -1   30.14    2.45
  -2   5   1   27.67    2.45
   2   5  -1   31.41    2.45
  -2  -5   1   29.82    2.47
  -2  -5   1   31.96    2.44
  -2  -5   1   28.51    2.45
   2  -5  -1   28.61    2.44
   2   5   0   -0.02    0.07
   2   5   0    0.04    0.08
  -2   5   0    0.09    0.07
  -2   5   0   -0.07    0.07
   2  -5   0    0.11    0.11
  -2  -5   0   -0.01    0.07
   2  -5   0    0.00    0.05
  -2  -5   0   -0.10    0.10
  -2   5  -1   27.54    2.39
   2   5   1   29.05    2.39
   2   5   1   31.82    2.40
  -2   5  -1   25.69    2.38
  -2  -5  -1   30.59    2.39
   2  -5   1   28.14    2.37
   2  -5   1   30.66    2.40
  -2   5  -2    0.09    0.09
   2   5   2    0.03    0.07
  -2   5  -2    0.07    0.05
   2   5   2    0.02    0.11
   2   5   2    0.17    0.09
   2  -5   2    0.15    0.11
  -2  -5  -2    0.11    0.09
   2   5   3   77.52    5.54
  -2   5  -3   68.82    5.51
   2   5   3   68.98    5.52
  -2   5  -3   62.70    5.53
   2   5   3   60.92    5.53
  -2  -5  -3   66.91    5.54
  -2   5  -4    0.51    0.08
   2   5   4    0.47    0.14
   2   5   4    0.35    0.10
   2   5   4    0.31    0.13
  -2   5  -4    0.18    0.15
  -2   5  -4    0.30    0.11
  -2  -5  -4    0.35    0.12
  -2   5  -5    6.50    0.62
   2   5   5    7.29    0.65
  -2   5  -5    6.93    0.69
   2   5   5    6.94    0.64
  -2  -5  -5    7.24    0.64
  -2   5  -6    0.36    0.13
   2   5   6    0.15    0.16
   2   5   6    0.38    0.17
   2   5   6    0.45    0.16
  -2   5  -6    0.42    0.21
  -2  -5  -6    0.52    0.17
   2   5   7   29.03    2.42
   2   5   7   27.65    2.40
  -2   5  -7   32.03    2.46
  -2  -5  -7   27.21    2.41
   2   5   8    0.39    0.18
   2   5   8    0.47    0.21
  -2  -5  -8    0.38    0.19
   2   5   9    2.97    0.37
   2   5   9    3.27    0.40
  -2  -5  -9    2.52    0.37
   2   5  10    0.27    0.21
  -2   6   9    0.43    0.26
   2  -6  -9    0.18    0.23
  -2   6   8    3.13    0.41
  -2   6   8    2.96    0.37
   2  -6  -8    2.86    0.38
   2   6  -7   -0.32    0.20
  -2   6   7    0.13    0.13
  -2   6   7    0.41    0.26
  -2   6   7    0.08    0.18
   2  -6  -7   -0.04    0.17
  -2   6   6   24.96    2.23
  -2   6   6   25.35    2.20
  -2   6   6   29.47    2.27
   2  -6  -6   27.08    2.24
   2   6  -5    0.42    0.20
  -2   6   5    0.35    0.11
  -2   6   5    0.30    0.15
   2   6  -5    0.30    0.15
   2  -6  -5    0.44    0.17
  -2  -6   5    0.46    0.15
   2   6  -4    9.53    0.72
  -2   6   4    7.30    0.72
   2   6  -4    5.93    0.74
  -2   6   4    8.05    0.69
  -2  -6   4    8.22    0.71
   2  -6  -4    8.20    0.72
  -2   6   3    4.14    0.36
  -2   6   3    3.71    0.39
   2   6  -3    3.43    0.36
   2   6  -3    3.92    0.37
  -2  -6   3    3.95    0.38
  -2  -6   3    3.62    0.32
   2  -6  -3    3.56    0.39
   2   6  -2   55.54    4.44
   2   6  -2   47.36    4.44
  -2   6   2   57.27    4.44
  -2   6   2   53.25    4.45
  -2  -6   2   51.06    4.42
  -2  -6   2   54.92    4.46
  -2  -6   2   55.38    4.45
   2  -6  -2   58.75    4.45
   2   6  -1    7.32    0.64
  -2   6   1    7.37    0.65
   2   6  -1    7.62    0.65
   2  -6  -1    6.74    0.63
  -2  -6   1    7.23    0.63
  -2  -6   1    7.86    0.68
  -2   6   0   13.75    1.24
   2   6   0   15.31    1.24
  -2   6   0   16.29    1.24
   2   6   0   14.93    1.25
  -2  -6   0   13.81    1.24
   2  -6   0   14.62    1.23
  -2   6  -1    6.76    0.60
   2   6   1    7.62    0.62
  -2   6  -1    7.08    0.62
   2   6   1    7.05    0.62
   2  -6   1    6.65    0.59
  -2  -6  -1    7.01    0.62
   2   6   2   53.87    4.14
   2   6   2   48.86    4.12
   2   6   2   52.08    4.11
  -2   6  -2   47.85    4.12
  -2   6  -2   50.19    4.10
  -2  -6  -2   48.22    4.12
   2   6   3    3.25    0.39
   2   6   3    4.02    0.40
   2   6   3    3.82    0.36
  -2   6  -3    3.95    0.34
  -2   6  -3    3.36    0.36
  -2  -6  -3    3.43    0.38
   2   6   4    8.97    0.76
  -2   6  -4    8.46    0.71
   2   6   4    7.54    0.75
   2   6   4    8.58    0.73
  -2  -6  -4    8.14    0.75
   2   6   5    0.38    0.11
   2   6   5    0.38    0.16
  -2   6  -5    0.23    0.20
   2   6   5    0.42    0.17
  -2  -6  -5    0.44    0.16
  -2   6  -6   23.16    2.28
   2   6   6   28.22    2.24
   2   6   6   28.05    2.23
  -2  -6  -6   26.06    2.23
   2   6   7    0.04    0.16
   2   6   7    0.01    0.18
  -2  -6  -7   -0.03    0.17
   2   6   8    3.92    0.49
   2   6   8    3.27    0.42
  -2  -6  -8    3.12    0.40
   2   6   9    0.31    0.24
   2   6   9    0.17    0.19
  -2  -6  -9    0.07    0.22
  -2   7   8   -0.09    0.23
   2  -7  -8   -0.02    0.22
  -2   7   7    2.32    0.35
   2  -7  -7    2.13    0.34
  -2   7   6    0.04    0.18
  -2   7   6   -0.01    0.12
   2  -7  -6    0.04    0.17
  -2   7   5   27.15    2.35
  -2   7   5   29.16    2.32
   2  -7  -5   27.45    2.34
  -2   7   4    0.21    0.11
  -2   7   4    0.45    0.17
   2   7  -4    0.36    0.13
   2  -7  -4    0.30    0.15
   2   7  -3   10.10    0.84
  -2   7   3    9.36    0.86
  -2   7   3    9.87    0.83
   2  -7  -3    8.96    0.84
   2   7  -2    0.09    0.11
  -2   7   2    0.08    0.10
  -2   7   2    0.04    0.13
   2  -7  -2    0.05    0.11
  -2  -7   2    0.08    0.07
  -2   7   1   27.68    2.42
   2   7  -1   31.01    2.42
   2  -7  -1   28.34    2.41
  -2  -7   1   30.92    2.45
  -2  -7   1   28.26    2.40
   2   7   0    0.00    0.11
   2   7   0   -0.04    0.10
  -2   7   0    0.02    0.10
   2  -7   0    0.04    0.08
  -2  -7   0   -0.04    0.09
  -2  -7   0    0.19    0.14
   2   7   1   27.32    2.31
  -2   7  -1   26.52    2.29
   2   7   1   27.16    2.30
   2  -7   1   30.18    2.28
  -2  -7  -1   27.38    2.30
  -2   7  -2    0.08    0.09
   2   7   2    0.16    0.11
   2   7   2   -0.07    0.12
   2   7   2    0.02    0.15
  -2  -7  -2   -0.06    0.11
   2   7   3    9.73    0.84
   2   7   3    9.09    0.84
   2   7   3    9.74    0.81
  -2   7  -3    9.03    0.79
  -2  -7  -3    8.82    0.82
   2   7   4    0.22    0.11
   2   7   4    0.01    0.16
   2   7   4    0.13    0.16
  -2  -7  -4    0.18    0.15
   2   7   5   28.83    2.40
   2   7   5   30.99    2.39
   2   7   5   27.95    2.37
  -2  -7  -5   26.50    2.39
   2   7   6   -0.13    0.15
   2   7   6    0.02    0.19
  -2  -7  -6   -0.21    0.17
   2   7   7    2.18    0.30
   2   7   7    2.32    0.35
  -2  -7  -7    1.98    0.32
   2   7   8   -0.16    0.18
   2   7   8    0.12    0.26
  -2  -7  -8    0.22    0.23
  -2   8   7   -0.06    0.24
   2  -8  -7   -0.09    0.21
  -2   8   6    2.68    0.38
   2  -8  -6    3.13    0.39
  -2   8   5    0.42    0.22
   2  -8  -5    0.51    0.19
  -2   8   4   16.76    1.51
  -2   8   4   17.60    1.46
   2   8  -4   18.05    1.48
   2  -8  -4   17.13    1.49
  -2   8   3    1.30    0.24
  -2   8   3    1.65    0.20
   2   8  -3    1.45    0.21
   2  -8  -3    0.95    0.21
  -2   8   2   11.86    1.03
   2   8  -2   11.53    1.01
  -2   8   2   12.48    1.00
   2  -8  -2   11.40    1.01
  -2  -8   2   11.08    0.97
  -2   8   1    2.42    0.32
  -2   8   1    2.79    0.34
   2   8  -1    2.51    0.32
  -2  -8   1    2.32    0.28
   2  -8  -1    2.87    0.30
   2   8   0   17.66    1.60
  -2   8   0   18.58    1.60
  -2  -8   0   19.40    1.59
   2  -8   0   19.99    1.58
   2   8   1    3.00    0.35
  -2   8  -1    2.61    0.31
  -2  -8  -1    2.43    0.32
   2  -8   1    2.54    0.25
   2   8   2   10.02    0.93
  -2   8  -2    9.99    0.88
   2   8   2   10.83    0.92
  -2  -8  -2   10.08    0.91
   2   8   3    1.70    0.28
   2   8   3    1.92    0.28
  -2  -8  -3    1.51    0.25
   2   8   4   19.46    1.61
   2   8   4   17.20    1.61
  -2  -8  -4   19.44    1.60
   2   8   5    0.56    0.23
   2   8   5    0.60    0.20
  -2  -8  -5    0.42    0.20
   2   8   6    3.43    0.41
   2   8   6    3.23    0.44
  -2  -8  -6    3.63    0.46
   2   8   7    0.12    0.18
   2   8   7    0.12    0.24
  -2  -8  -7   -0.02    0.21
  -2   9   6    0.32    0.24
   2  -9  -6    0.25    0.23
  -2   9   5    2.98    0.40
   2  -9  -5    2.53    0.36
  -2   9   4    0.31    0.22
   2  -9  -4    0.12    0.18
  -2   9   3   13.24    1.17
   2   9  -3   13.40    1.15
   2  -9  -3   12.54    1.14
  -2   9   2    0.18    0.17
   2   9  -2    0.28    0.17
   2  -9  -2    0.26    0.16
   2   9  -1   10.10    0.88
  -2   9   1    8.96    0.88
  -2   9   1   10.85    0.88
  -2  -9   1    8.92    0.83
   2  -9  -1    9.80    0.85
   2   9   0   -0.03    0.16
  -2   9   0   -0.01    0.15
   2  -9   0   -0.04    0.10
  -2  -9   0   -0.04    0.12
  -2   9  -1    9.04    0.82
   2   9   1    9.29    0.85
  -2  -9  -1    9.14    0.82
   2   9   2    0.08    0.19
   2   9   2    0.03    0.20
  -2   9  -2    0.09    0.13
  -2  -9  -2    0.15    0.16
   2   9   3   14.44    1.18
   2   9   3   12.79    1.19
  -2  -9  -3   12.71    1.17
   2   9   4    0.39    0.22
   2   9   4    0.35    0.21
  -2  -9  -4    0.18    0.19
   2   9   5    3.16    0.38
   2   9   5    3.09    0.42
  -2  -9  -5    2.55    0.37
   2   9   6    0.14    0.21
   2   9   6    0.22    0.25
  -2  -9  -6    0.29    0.23
  -2  10   4    4.70    0.58
   2 -10  -4    4.11    0.51
  -2  10   3    0.34    0.25
   2 -10  -3    0.50    0.20
  -2  10   2    6.18    0.69
   2  10  -2    7.55    0.68
   2 -10  -2    6.62    0.65
   2  10  -1    0.41    0.20
  -2  10   1    0.44    0.21
   2 -10  -1    0.52    0.16
  -2  10   0    7.59    0.76
   2  10   0    8.18    0.77
  -2 -10   0    7.83    0.71
   2  10   1    0.04    0.23
  -2  10  -1    0.45    0.19
   2  10   1    0.24    0.22
  -2 -10  -1    0.57    0.18
   2  10   2    6.50    0.69
   2  10   2    7.09    0.69
  -2 -10  -2    6.19    0.64
   2  10   3    0.30    0.24
   2  10   3    0.34    0.24
  -2 -10  -3    0.22    0.20
   2  10   4    4.41    0.58
  -2 -10  -4    3.90    0.52
  -2 -10  -5    0.27    0.23
   2  11  -2    0.01    0.22
  -2  11   1    4.35    0.55
   2  11  -1    4.13    0.53
   2  11   0    0.05    0.22
  -2  11   0    0.00    0.20
  -2  11  -1    4.63    0.55
   2  11   1    4.48    0.60
  -2 -11  -1    4.63    0.50
  -2 -11  -2    0.02    0.19
  -3   0  10   13.99    1.34
  -3   0  10   12.02    1.14
   3   0 -10   13.82    1.18
  -3   0   9   -0.02    0.14
   3   0  -9    0.03    0.12
  -3   0   9   -0.04    0.14
  -3   0   9    0.20    0.29
  -3   0   8   27.83    2.52
   3   0  -8   30.14    2.52
  -3   0   8   33.27    2.53
   3   0  -7   -0.03    0.09
  -3   0   7    0.07    0.10
  -3   0   7   -0.05    0.11
  -3   0   7   -0.11    0.18
  -3   0   7   -0.04    0.11
   3   0  -7    0.06    0.16
  -3   0   6   20.98    1.93
   3   0  -6   24.67    1.83
  -3   0   6   22.91    1.83
  -3   0   6   21.15    1.84
   3   0  -6   19.78    1.88
   3   0  -5   -0.01    0.06
  -3   0   5   -0.19    0.08
  -3   0   5   -0.04    0.08
  -3   0   5   -0.07    0.15
   3   0  -5   -0.15    0.11
  -3   0   5    0.03    0.08
   3   0  -4  169.24   12.60
  -3   0   4  138.22   12.58
  -3   0   4  158.86   12.60
   3   0  -4  148.77   12.59
  -3   0   4  156.38   12.62
   3   0  -3    0.02    0.04
   3   0  -3   -0.05    0.07
  -3   0   3   -0.07    0.08
  -3   0   3   -0.04    0.07
  -3   0   3   -0.03    0.07
  -3   0   3    0.04    0.04
   3   0  -2   30.09    2.29
  -3   0   2   30.56    2.30
   3   0  -2   28.53    2.29
  -3   0   2   25.24    2.30
   3   0  -2   25.27    2.30
   3   0  -1   -0.05    0.06
  -3   0   1   -0.05    0.06
  -3   0   1   -0.02    0.06
   3   0  -1   -0.01    0.03
   3   0   0  210.74   17.99
  -3   0   0  240.91   18.01
   3   0   0  221.65   17.95
   3   0   0  211.51   17.99
  -3   0   0  231.05   17.97
   3   0   0  228.08   17.97
  -3   0   0  197.95   17.97
  -3   0  -1    0.00    0.03
  -3   0  -1   -0.03    0.05
   3   0   1    0.00    0.02
   3   0   1    0.04    0.03
  -3   0  -1    0.05    0.03
  -3   0  -1    0.01    0.02
   3   0   1    0.00    0.07
   3   0   1    0.00    0.03
  -3   0  -2   31.71    2.35
  -3   0  -2   26.80    2.36
   3   0   2   27.68    2.40
   3   0   2   31.01    2.35
  -3   0  -2   26.66    2.35
   3   0   3    0.10    0.12
  -3   0  -3    0.02    0.03
  -3   0  -3    0.03    0.03
   3   0   3    0.01    0.05
  -3   0  -4  154.67   13.14
   3   0   4  137.18   13.19
   3   0   4  182.91   13.14
  -3   0  -4  165.34   13.16
   3   0   4  165.49   13.17
  -3   0  -5   -0.01    0.06
  -3   0  -5    0.03    0.05
   3   0   5    0.02    0.16
   3   0   5   -0.05    0.08
   3   0   5    0.00    0.04
   3   0   6   26.21    2.08
  -3   0  -6   23.38    2.06
   3   0   6   26.81    2.05
  -3   0  -6   23.69    2.07
  -3   0  -7    0.01    0.08
   3   0   7   -0.01    0.06
  -3   0  -7   -0.06    0.09
   3   0   7    0.20    0.23
   3   0   7   -0.06    0.12
   3   0   8   27.89    2.34
  -3   0  -8   29.65    2.32
   3   0   8   25.60    2.49
   3   0   9    0.40    0.31
   3   0   9    0.04    0.16
   3   0  10   11.96    1.08
   3   0  11   -0.09    0.22
  -3   1  11    6.68    0.67
  -3   1  10    1.26    0.40
  -3   1  10    0.56    0.20
   3  -1 -10    0.44    0.18
  -3  -1  10    0.39    0.31
  -3   1   9   11.28    1.39
  -3   1   9   13.86    1.23
   3   1  -9   14.97    1.23
  -3  -1   9   15.51    1.39
   3  -1  -9   14.70    1.24
  -3  -1   9   15.03    1.23
  -3   1   8    2.68    0.37
  -3   1   8    2.86    0.38
   3   1  -8    3.59    0.44
  -3   1   8    3.70    0.58
  -3   1   8    4.10    0.39
   3   1  -8    4.06    0.37
  -3  -1   8    3.41    0.37
   3  -1  -8    3.70    0.39
  -3  -1   8    3.32    0.50
  -3  -1   8    3.98    0.38
   3   1  -7   43.69    3.59
   3   1  -7   45.40    3.54
  -3   1   7   40.88    3.55
  -3   1   7   36.40    3.57
  -3   1   7   41.11    3.67
  -3  -1   7   43.81    3.55
  -3  -1   7   44.78    3.52
  -3  -1   7   43.58    3.65
  -3  -1   7   45.69    3.55
   3  -1  -7   45.10    3.55
  -3   1   6   10.91    1.11
  -3   1   6   11.41    1.00
   3   1  -6   12.02    0.99
   3   1  -6   11.99    1.03
  -3   1   6   14.09    1.02
  -3  -1   6   11.66    1.00
   3  -1  -6   11.12    1.00
  -3  -1   6   11.47    1.00
  -3  -1   6   11.21    1.09
  -3   1   5   41.02    3.32
   3   1  -5   39.88    3.29
  -3   1   5   38.27    3.32
  -3   1   5   38.38    3.29
   3  -1  -5   41.13    3.30
  -3  -1   5   41.09    3.36
  -3  -1   5   42.54    3.29
  -3  -1   5   37.37    3.29
  -3  -1   5   41.91    3.30
  -3   1   4   16.43    1.42
   3   1  -4   16.01    1.42
  -3   1   4   16.04    1.45
  -3   1   4   18.77    1.45
   3   1  -4   18.55    1.44
  -3  -1   4   16.62    1.47
   3  -1  -4   16.48    1.43
  -3  -1   4   19.02    1.43
  -3  -1   4   17.24    1.43
   3   1  -3   82.92    7.80
  -3   1   3  106.00    7.82
  -3   1   3   87.98    7.80
   3   1  -3  101.68    7.84
   3   1  -3   89.69    7.82
  -3  -1   3   92.30    7.83
   3  -1  -3   90.74    7.81
  -3  -1   3  102.59    7.82
  -3  -1   3  101.00    7.81
   3  -1  -3  103.76    7.81
   3   1  -2   11.42    1.12
   3   1  -2   13.11    1.11
  -3   1   2   13.05    1.10
  -3   1   2   12.18    1.13
   3   1  -2   14.48    1.11
  -3  -1   2   15.41    1.11
  -3  -1   2   14.45    1.12
   3  -1  -2   13.51    1.10
   3  -1  -2   12.41    1.10
  -3  -1   2   13.71    1.11
  -3   1   1   60.49    5.30
   3   1  -1   66.04    5.30
   3   1  -1   60.85    5.30
  -3  -1   1   66.42    5.30
  -3  -1   1   72.87    5.30
   3  -1  -1   64.67    5.32
   3  -1  -1   63.38    5.30
  -3   1   0    0.02    0.03
   3   1   0    0.03    0.04
   3   1   0    0.04    0.03
  -3   1   0    0.00    0.01
   3  -1   0    0.02    0.03
  -3  -1   0   -0.01    0.03
   3  -1   0   -0.02    0.01
  -3  -1   0   -0.01    0.03
   3  -1   0    0.02    0.02
  -3   1  -1   70.77    5.06
  -3   1  -1   56.99    5.05
  -3   1  -1   60.97    5.04
   3   1   1   63.36    5.05
  -3   1  -1   65.79    5.04
   3   1   1   61.48    5.05
   3   1   1   60.68    5.04
  -3   1  -1   65.32    5.04
   3  -1   1   52.96    5.04
  -3  -1  -1   60.40    5.04
  -3  -1  -1   61.05    5.05
  -3   1  -2   12.43    1.08
  -3   1  -2   11.26    1.13
   3   1   2   12.46    1.08
  -3   1  -2   14.12    1.08
   3   1   2   14.69    1.09
   3  -1   2   14.01    1.08
   3  -1   2   11.51    1.12
  -3  -1  -2   13.68    1.08
  -3  -1  -2   13.54    1.09
  -3  -1  -2   13.05    1.08
   3   1   3   92.23    7.34
  -3   1  -3   84.56    7.32
  -3   1  -3   78.37    7.38
   3   1   3   91.82    7.33
   3   1   3  104.10    7.38
   3  -1   3   97.81    7.33
  -3  -1  -3   88.62    7.34
   3  -1   3   81.21    7.38
  -3   1  -4   16.56    1.45
   3   1   4   18.97    1.46
  -3   1  -4   17.51    1.46
   3   1   4   16.40    1.44
   3   1   4   20.78    1.55
   3  -1   4   17.02    1.47
   3  -1   4   17.24    1.56
   3  -1   4   18.64    1.46
  -3  -1  -4   17.31    1.46
   3   1   5   42.27    3.29
  -3   1  -5   40.42    3.17
   3   1   5   37.22    3.18
  -3   1  -5   43.37    3.19
   3   1   5   39.82    3.20
   3   1   5   36.47    3.17
   3   1   5   37.96    3.17
  -3  -1  -5   37.91    3.19
   3  -1   5   34.10    3.28
   3  -1   5   37.58    3.20
   3  -1   5   40.55    3.18
   3   1   6   11.17    0.93
   3   1   6   10.99    0.95
   3   1   6   11.58    0.93
  -3   1  -6   11.14    0.96
   3   1   6   11.13    0.97
  -3   1  -6   11.06    0.94
   3  -1   6   11.44    0.94
   3  -1   6   10.59    1.09
  -3  -1  -6   12.33    0.96
   3   1   7   38.49    3.74
   3   1   7   45.58    3.62
   3   1   7   46.40    3.59
  -3   1  -7   43.96    3.60
   3  -1   7   41.09    3.62
   3  -1   7   43.76    3.60
   3  -1   7   41.64    3.74
  -3  -1  -7   48.65    3.61
   3   1   8    3.25    0.56
   3   1   8    3.16    0.39
  -3  -1  -8    3.53    0.36
   3  -1   8    3.01    0.51
   3  -1   8    3.62    0.38
   3   1   9   13.41    1.44
   3   1   9   15.55    1.24
   3  -1   9   12.20    1.37
   3  -1   9   14.74    1.24
   3   1  10    0.65    0.23
   3  -1  10    0.56    0.23
   3   1  11    6.81    0.69
   3  -1  11    6.83    0.69
  -3   2  10   10.22    0.90
  -3   2  10    8.43    1.11
  -3  -2  10   10.93    1.04
   3  -2 -10    9.37    0.89
  -3   2   9    0.20    0.34
  -3   2   9   -0.02    0.18
  -3   2   9    0.22    0.17
  -3  -2   9    0.34    0.15
  -3  -2   9    0.10    0.26
   3  -2  -9    0.30    0.17
   3   2  -8   22.45    1.74
  -3   2   8   18.20    1.90
  -3   2   8   22.24    1.76
  -3   2   8   19.93    1.74
  -3  -2   8   20.70    1.74
  -3  -2   8   20.79    1.84
   3  -2  -8   20.24    1.75
  -3   2   7    0.25    0.15
   3   2  -7    0.17    0.10
  -3   2   7    0.29    0.12
  -3   2   7    0.14    0.25
  -3   2   7    0.33    0.18
   3   2  -7    0.19    0.14
  -3  -2   7    0.26    0.22
  -3  -2   7    0.32    0.12
   3  -2  -7    0.26    0.14
  -3   2   6   75.61    6.50
  -3   2   6   80.01    6.49
   3   2  -6   75.48    6.49
   3   2  -6   76.69    6.47
  -3   2   6   80.32    6.47
  -3  -2   6   82.04    6.48
   3  -2  -6   79.70    6.48
  -3  -2   6   83.99    6.54
  -3   2   5    0.07    0.12
   3   2  -5    0.16    0.10
   3   2  -5    0.30    0.08
  -3   2   5    0.15    0.10
  -3   2   5    0.26    0.08
   3   2  -5    0.27    0.16
  -3  -2   5    0.22    0.04
   3  -2  -5    0.23    0.10
  -3  -2   5    0.22    0.04
  -3  -2   5    0.35    0.10
  -3  -2   5    0.17    0.14
   3   2  -4    6.97    0.51
   3   2  -4    5.24    0.57
  -3   2   4    4.80    0.55
  -3   2   4    5.92    0.50
   3   2  -4    6.17    0.52
  -3   2   4    6.15    0.52
  -3  -2   4    5.60    0.51
  -3  -2   4    5.42    0.49
   3  -2  -4    5.80    0.52
  -3   2   3    2.42    0.25
   3   2  -3    2.09    0.21
  -3   2   3    2.39    0.22
   3   2  -3    1.99    0.21
  -3   2   3    2.05    0.19
   3   2  -3    1.98    0.26
   3  -2  -3    2.06    0.21
  -3  -2   3    2.11    0.19
   3  -2  -3    2.29    0.20
  -3  -2   3    2.06    0.22
   3   2  -2  248.94   18.06
  -3   2   2  207.51   17.97
   3   2  -2  213.97   18.02
  -3   2   2  186.74   17.97
   3  -2  -2  245.99   18.00
  -3  -2   2  197.21   17.99
   3  -2  -2  244.51   17.98
  -3  -2   2  221.30   17.99
  -3   2   1   12.24    1.02
   3   2  -1   12.43    1.04
  -3   2   1   13.23    1.04
   3   2  -1   12.05    1.04
  -3  -2   1   11.92    1.03
  -3  -2   1   12.88    1.04
   3  -2  -1   13.16    1.04
   3   2   0   27.97    2.29
  -3   2   0   26.85    2.27
   3   2   0   26.98    2.28
  -3   2   0   28.18    2.28
   3  -2   0   29.16    2.28
  -3  -2   0   27.22    2.28
  -3  -2   0   27.79    2.28
  -3  -2   0   28.89    2.28
  -3   2  -1   13.51    1.09
   3   2   1   13.22    1.10
  -3   2  -1   14.02    1.09
   3   2   1   12.61    1.09
   3  -2   1   15.17    1.10
  -3  -2  -1   12.23    1.10
  -3  -2  -1   12.55    1.10
   3   2   2  245.08   19.31
   3   2   2  237.94   19.29
   3   2   2  240.76   19.33
  -3   2  -2  237.60   19.32
  -3   2  -2  248.92   19.36
  -3   2  -2  229.97   19.31
  -3  -2  -2  215.67   19.34
   3  -2   2  239.90   19.34
  -3   2  -3    1.89    0.28
  -3   2  -3    1.88    0.19
   3   2   3    2.20    0.20
   3   2   3    2.03    0.18
  -3   2  -3    2.22    0.22
   3  -2   3    1.44    0.25
  -3  -2  -3    2.23    0.20
   3  -2   3    2.16    0.21
  -3   2  -4    6.17    0.49
   3   2   4    5.97    0.51
   3   2   4    6.34    0.51
  -3   2  -4    4.69    0.59
   3   2   4    5.36    0.50
   3  -2   4    6.35    0.50
  -3  -2  -4    5.47    0.50
   3  -2   4    5.37    0.50
  -3   2  -5    0.23    0.04
   3   2   5    0.27    0.11
   3   2   5    0.27    0.06
  -3   2  -5    0.28    0.08
   3   2   5    0.23    0.08
   3  -2   5    0.36    0.11
   3  -2   5    0.23    0.07
   3  -2   5    0.12    0.18
  -3  -2  -5    0.28    0.09
   3   2   6   86.89    6.68
  -3   2  -6   76.76    6.66
   3   2   6   91.96    6.79
   3   2   6   80.44    6.69
   3   2   6   73.87    6.66
  -3   2  -6   82.50    6.68
   3  -2   6   81.48    6.67
   3  -2   6   79.15    6.69
  -3  -2  -6   84.28    6.68
  -3   2  -7    0.37    0.12
   3   2   7    0.31    0.06
   3   2   7    0.33    0.15
   3   2   7    0.23    0.12
   3   2   7    0.36    0.26
   3  -2   7    0.34    0.10
   3  -2   7    0.39    0.14
   3  -2   7    0.31    0.26
  -3  -2  -7    0.39    0.13
   3   2   8   20.71    1.67
   3   2   8   19.88    1.83
  -3  -2  -8   19.57    1.65
   3  -2   8   18.42    1.67
   3   2   9    0.34    0.34
   3   2   9    0.15    0.16
   3  -2   9    0.29    0.19
   3  -2   9    0.13    0.26
  -3  -2  -9    0.14    0.16
   3   2  10   11.26    0.99
   3  -2  10   10.07    0.98
  -3   3  10    0.42    0.20
   3  -3 -10    0.21    0.22
  -3  -3  10    0.64    0.32
  -3   3   9   18.63    1.89
  -3   3   9   18.95    1.76
  -3   3   9   18.91    1.70
   3  -3  -9   20.74    1.72
  -3  -3   9   23.53    1.83
  -3   3   8    1.47    0.43
  -3   3   8    2.05    0.32
  -3   3   8    2.12    0.29
  -3   3   8    1.87    0.25
   3  -3  -8    1.88    0.27
  -3  -3   8    2.10    0.26
  -3  -3   8    1.94    0.35
   3   3  -7   15.11    1.17
  -3   3   7   11.10    1.20
  -3   3   7   12.03    1.16
  -3   3   7   14.86    1.20
  -3  -3   7   13.99    1.17
  -3  -3   7   15.34    1.25
   3  -3  -7   14.03    1.19
  -3   3   6    5.56    0.50
   3   3  -6    5.08    0.48
  -3   3   6    4.73    0.46
   3   3  -6    5.65    0.47
  -3   3   6    3.66    0.52
   3  -3  -6    4.98    0.49
  -3  -3   6    4.81    0.48
  -3  -3   6    6.17    0.56
   3   3  -5   94.06    7.23
  -3   3   5   76.85    7.27
   3   3  -5   89.05    7.22
  -3   3   5   91.72    7.22
  -3   3   5   84.08    7.24
   3  -3  -5   98.18    7.24
  -3  -3   5   84.82    7.23
   3   3  -4    9.58    0.70
  -3   3   4    8.07    0.71
  -3   3   4    9.57    0.74
   3   3  -4    7.67    0.70
   3   3  -4    6.90    0.76
  -3   3   4    7.92    0.69
   3  -3  -4    7.88    0.70
  -3  -3   4    8.53    0.67
  -3  -3   4    7.89    0.70
  -3  -3   4    7.76    0.67
  -3   3   3   23.50    1.98
   3   3  -3   25.14    2.01
   3   3  -3   24.09    1.99
  -3   3   3   22.83    1.99
   3  -3  -3   25.35    1.99
  -3  -3   3   24.82    1.99
  -3  -3   3   24.00    1.98
   3  -3  -3   23.49    1.99
   3   3  -2    1.93    0.19
   3   3  -2    1.70    0.20
  -3   3   2    1.78    0.17
   3   3  -2    1.35    0.20
  -3   3   2    1.94    0.19
  -3  -3   2    1.98    0.18
   3  -3  -2    1.95    0.19
  -3  -3   2    1.95    0.19
   3   3  -1   88.44    7.55
  -3   3   1   86.91    7.55
   3   3  -1   98.05    7.55
  -3   3   1   84.96    7.54
  -3  -3   1   97.48    7.55
  -3  -3   1   89.35    7.54
  -3  -3   1  103.78    7.55
   3  -3  -1   91.84    7.54
   3   3   0   -0.01    0.04
   3   3   0    0.01    0.05
  -3   3   0   -0.01    0.04
  -3  -3   0   -0.01    0.05
   3  -3   0   -0.01    0.03
  -3  -3   0    0.00    0.05
   3   3   1   95.49    7.22
  -3   3  -1   90.40    7.20
  -3   3  -1   93.37    7.22
   3   3   1   90.15    7.21
  -3  -3  -1   82.97    7.21
  -3  -3  -1   91.22    7.20
   3  -3   1   74.90    7.22
   3   3   2    2.02    0.22
  -3   3  -2    2.04    0.25
   3   3   2    1.83    0.20
  -3   3  -2    2.23    0.25
  -3   3  -2    2.11    0.18
  -3   3  -2    1.98    0.20
   3   3   2    2.18    0.19
   3  -3   2    1.76    0.23
  -3  -3  -2    2.14    0.21
  -3   3  -3   27.86    2.10
  -3   3  -3   25.11    2.05
   3   3   3   26.01    2.03
   3   3   3   24.32    2.01
  -3   3  -3   20.75    2.02
   3   3   3   26.10    2.04
   3  -3   3   25.06    2.02
  -3  -3  -3   22.45    2.03
  -3   3  -4    8.28    0.70
  -3   3  -4    8.30    0.72
   3   3   4    8.77    0.71
   3   3   4    8.50    0.71
  -3  -3  -4    8.35    0.71
   3  -3   4    8.10    0.70
   3  -3   4    6.70    0.76
   3   3   5  102.69    7.59
   3   3   5  101.41    7.59
   3   3   5   84.38    7.58
  -3   3  -5   91.50    7.57
   3  -3   5   96.93    7.58
  -3  -3  -5   80.29    7.58
   3   3   6    5.43    0.50
   3   3   6    5.56    0.50
  -3   3  -6    5.12    0.48
   3   3   6    6.06    0.47
   3  -3   6    5.30    0.48
  -3  -3  -6    5.17    0.49
   3  -3   6    3.48    0.59
   3  -3   6    4.87    0.50
   3   3   7   14.37    1.21
  -3   3  -7   14.66    1.20
   3   3   7   15.03    1.36
   3   3   7   14.65    1.22
   3  -3   7   14.16    1.22
   3  -3   7   14.45    1.20
  -3  -3  -7   12.30    1.21
   3   3   8    2.08    0.28
   3   3   8    1.60    0.24
   3   3   8    1.80    0.45
  -3  -3  -8    1.91    0.26
   3  -3   8    1.93    0.28
   3  -3   8    1.34    0.38
   3   3   9   19.66    1.81
   3   3   9   22.98    2.06
   3  -3   9   21.87    1.83
  -3  -3  -9   21.93    1.82
   3   3  10    0.51    0.23
  -3  -3 -10    0.75    0.22
   3  -3  10    0.59    0.23
  -3   4  10    6.37    0.75
  -3   4  10    6.39    0.65
   3  -4 -10    6.99    0.70
  -3   4   9   -0.19    0.37
  -3   4   9    0.53    0.18
  -3   4   9    0.32    0.24
   3  -4  -9    0.41    0.20
  -3   4   8   29.40    2.26
  -3   4   8   26.79    2.27
  -3   4   8   24.68    2.21
   3  -4  -8   25.92    2.24
   3   4  -7    0.17    0.14
  -3   4   7    0.23    0.12
  -3   4   7    0.08    0.19
  -3   4   7    0.31    0.18
  -3  -4   7    0.23    0.13
   3  -4  -7    0.14    0.16
   3   4  -6   11.73    1.10
   3   4  -6   10.98    1.06
  -3   4   6   13.20    1.01
  -3   4   6   12.01    1.05
  -3   4   6   10.85    1.08
   3  -4  -6   12.94    1.05
  -3  -4   6   11.33    1.03
  -3   4   5    0.26    0.12
  -3   4   5    0.30    0.15
   3   4  -5    0.12    0.13
   3   4  -5    0.24    0.11
   3   4  -5    0.23    0.12
  -3   4   5    0.18    0.08
   3  -4  -5    0.18    0.11
  -3  -4   5    0.24    0.11
  -3   4   4   98.29    8.63
  -3   4   4  110.30    8.65
   3   4  -4  112.53    8.65
   3   4  -4   93.76    8.66
   3  -4  -4  109.37    8.65
  -3  -4   4  102.00    8.65
  -3  -4   4  114.66    8.62
  -3   4   3    7.80    0.64
  -3   4   3    8.37    0.67
   3   4  -3    6.53    0.68
   3   4  -3    7.93    0.66
   3   4  -3    6.56    0.68
  -3  -4   3    7.85    0.66
  -3  -4   3    7.69    0.64
   3  -4  -3    7.73    0.66
  -3   4   2    6.42    0.50
   3   4  -2    4.66    0.53
  -3   4   2    6.39    0.52
   3   4  -2    6.09    0.52
   3   4  -2    6.17    0.53
  -3  -4   2    5.88    0.52
   3  -4  -2    5.87    0.52
  -3  -4   2    5.37    0.50
   3   4  -1   17.43    1.41
  -3   4   1   15.56    1.40
  -3   4   1   17.73    1.40
  -3  -4   1   17.16    1.41
  -3  -4   1   18.69    1.42
   3  -4  -1   15.91    1.40
  -3  -4   1   16.39    1.40
  -3   4   0  159.61   13.60
   3   4   0  177.77   13.60
   3   4   0  155.29   13.61
  -3  -4   0  162.53   13.59
  -3  -4   0  179.37   13.62
   3  -4   0  166.74   13.60
   3   4   1   17.92    1.35
  -3   4  -1   17.34    1.34
  -3   4  -1   15.31    1.33
   3   4   1   17.26    1.35
   3  -4   1   13.90    1.38
  -3  -4  -1   16.07    1.35
   3  -4   1   15.53    1.33
   3   4   2    4.94    0.51
  -3   4  -2    4.39    0.53
   3   4   2    6.11    0.48
  -3   4  -2    5.90    0.49
   3   4   2    5.21    0.50
  -3   4  -2    5.60    0.47
  -3   4  -2    6.56    0.55
  -3  -4  -2    6.49    0.50
   3  -4   2    4.43    0.52
   3   4   3    8.35    0.71
  -3   4  -3    8.83    0.70
  -3   4  -3    7.82    0.76
   3   4   3    8.06    0.73
  -3   4  -3    8.07    0.72
  -3  -4  -3    9.13    0.73
   3   4   4  105.18    8.58
  -3   4  -4  115.89    8.61
   3   4   4  105.99    8.56
   3   4   4  114.10    8.59
  -3   4  -4  102.24    8.57
  -3   4  -4   89.67    8.55
  -3  -4  -4  103.76    8.58
  -3   4  -5    0.12    0.14
  -3   4  -5    0.17    0.09
   3   4   5    0.10    0.11
   3   4   5    0.08    0.11
  -3  -4  -5    0.07    0.11
  -3   4  -6   12.46    1.05
   3   4   6   10.12    1.05
   3   4   6   12.86    1.06
   3   4   6   11.34    1.06
  -3   4  -6   14.57    1.10
  -3  -4  -6   13.04    1.07
   3   4   7    0.18    0.14
   3   4   7    0.28    0.16
  -3   4  -7    0.12    0.17
  -3   4  -7    0.28    0.13
  -3  -4  -7    0.34    0.16
   3   4   8   26.66    2.35
   3   4   8   29.81    2.50
   3   4   8   29.34    2.36
  -3  -4  -8   26.78    2.35
   3   4   9    0.47    0.20
   3   4   9    0.39    0.19
  -3  -4  -9    0.54    0.21
   3   4  10    5.87    0.63
  -3  -4 -10    5.80    0.63
  -3   5   9    4.67    0.59
  -3   5   9    4.66    0.50
   3  -5  -9    4.51    0.55
  -3   5   8    0.82    0.24
  -3   5   8    0.57    0.16
   3  -5  -8    0.51    0.20
  -3   5   7   39.15    3.39
  -3   5   7   37.18    3.43
  -3   5   7   43.09    3.36
   3  -5  -7   43.11    3.39
  -3   5   6    0.53    0.18
   3   5  -6    0.71    0.19
  -3   5   6    0.86    0.23
  -3   5   6    0.78    0.14
   3   5  -6    0.17    0.20
   3  -5  -6    0.72    0.18
  -3  -5   6    0.67    0.17
  -3   5   5    7.99    0.66
   3   5  -5    6.05    0.71
   3   5  -5    6.72    0.71
   3  -5  -5    8.77    0.70
  -3  -5   5    8.10    0.69
   3   5  -4   -0.10    0.11
   3   5  -4    0.19    0.14
  -3   5   4    0.13    0.12
   3   5  -4    0.16    0.10
  -3   5   4    0.17    0.07
  -3  -5   4    0.14    0.11
   3  -5  -4    0.21    0.11
   3   5  -3   87.14    7.32
   3   5  -3   90.49    7.31
  -3   5   3   88.71    7.32
  -3   5   3   96.50    7.30
  -3  -5   3   87.32    7.29
  -3  -5   3   88.02    7.32
   3  -5  -3   88.15    7.31
  -3   5   2    0.25    0.07
   3   5  -2    0.20    0.09
   3   5  -2    0.40    0.11
  -3   5   2    0.22    0.10
   3  -5  -2    0.23    0.09
  -3  -5   2    0.31    0.10
  -3  -5   2    0.31    0.10
  -3  -5   2    0.26    0.07
   3   5  -1   35.85    3.29
  -3   5   1   37.37    3.29
   3   5  -1   41.56    3.29
  -3  -5   1   43.28    3.30
   3  -5  -1   39.31    3.28
  -3  -5   1   43.82    3.29
  -3  -5   1   39.45    3.29
   3   5   0   -0.02    0.07
   3   5   0    0.04    0.09
  -3   5   0   -0.06    0.06
  -3  -5   0   -0.01    0.07
  -3  -5   0   -0.03    0.10
   3  -5   0    0.25    0.12
   3  -5   0   -0.02    0.05
  -3   5  -1   38.06    3.17
   3   5   1   43.81    3.17
  -3   5  -1   34.49    3.16
   3   5   1   43.68    3.18
   3  -5   1   33.96    3.15
  -3  -5  -1   38.79    3.17
   3  -5   1   42.83    3.15
   3  -5   1   32.45    3.20
   3   5   2    0.20    0.10
  -3   5  -2    0.26    0.10
   3   5   2    0.06    0.13
  -3   5  -2    0.27    0.06
   3   5   2    0.23    0.08
  -3  -5  -2    0.27    0.10
   3  -5   2    0.18    0.13
   3   5   3  100.71    7.57
   3   5   3   92.20    7.58
  -3   5  -3   93.62    7.55
   3   5   3   88.09    7.58
  -3   5  -3   87.66    7.57
  -3  -5  -3   93.65    7.58
   3   5   4    0.20    0.08
   3   5   4    0.15    0.12
   3   5   4    0.13    0.12
  -3   5  -4    0.22    0.06
  -3   5  -4    0.32    0.15
  -3   5  -4    0.14    0.10
  -3  -5  -4    0.13    0.12
  -3   5  -5    8.88    0.79
  -3   5  -5    9.15    0.85
   3   5   5    9.25    0.81
   3   5   5    9.47    0.81
   3   5   5    9.24    0.77
  -3  -5  -5    8.32    0.80
   3   5   6    0.83    0.19
   3   5   6    0.76    0.18
  -3   5  -6    0.83    0.15
  -3   5  -6    0.48    0.23
   3   5   6    0.73    0.19
   3   5   6    0.19    0.17
  -3  -5  -6    0.72    0.19
   3   5   7   42.57    3.52
   3   5   7   45.40    3.53
  -3  -5  -7   39.52    3.52
   3   5   8    1.06    0.24
   3   5   8    0.66    0.19
  -3  -5  -8    0.65    0.21
   3   5   9    5.96    0.58
   3   5   9    4.45    0.52
  -3  -5  -9    4.54    0.55
  -3   6   9    0.62    0.26
   3  -6  -9   -0.12    0.22
  -3   6   8    4.66    0.55
  -3   6   8    4.36    0.54
   3  -6  -8    4.40    0.54
  -3   6   7    0.10    0.20
  -3   6   7   -0.07    0.13
  -3   6   7    0.43    0.24
   3   6  -7   -0.21    0.21
   3  -6  -7   -0.04    0.19
  -3   6   6   36.54    3.24
  -3   6   6   42.65    3.28
   3  -6  -6   39.30    3.28
   3   6  -5    0.70    0.22
  -3   6   5    0.45    0.17
   3   6  -5    0.37    0.17
  -3   6   5    0.72    0.12
  -3  -6   5    0.87    0.18
   3  -6  -5    0.67    0.17
  -3   6   4   12.92    1.11
   3   6  -4   13.36    1.11
  -3   6   4   13.09    1.08
  -3  -6   4   12.12    1.10
   3  -6  -4   12.66    1.11
  -3   6   3    4.88    0.44
  -3   6   3    4.72    0.48
   3   6  -3    5.47    0.48
   3  -6  -3    5.15    0.48
  -3  -6   3    4.86    0.43
  -3  -6   3    5.12    0.48
   3   6  -2   92.32    6.79
  -3   6   2   82.53    6.77
   3   6  -2   76.01    6.78
  -3   6   2   85.72    6.79
   3  -6  -2   76.65    6.78
  -3  -6   2   75.31    6.77
  -3  -6   2   83.39    6.79
  -3  -6   2   92.53    6.80
  -3   6   1   10.77    0.96
   3   6  -1   12.38    0.97
   3   6  -1   10.43    0.95
  -3  -6   1   12.52    0.98
  -3  -6   1   11.01    0.95
   3  -6  -1   10.70    0.95
   3   6   0   26.95    2.06
   3   6   0   25.53    2.05
  -3   6   0   24.30    2.06
  -3   6   0   23.23    2.05
   3  -6   0   23.83    2.03
  -3  -6   0   24.71    2.05
   3   6   1   11.49    1.00
  -3   6  -1   11.35    1.01
  -3   6  -1   11.38    0.99
   3   6   1   12.78    1.01
  -3  -6  -1   11.57    1.00
   3  -6   1   12.04    0.97
  -3   6  -2   69.75    6.01
   3   6   2   75.09    6.02
   3   6   2   82.30    6.04
  -3   6  -2   70.82    6.03
   3   6   2   72.39    6.05
  -3  -6  -2   71.57    6.03
   3   6   3    4.26    0.47
   3   6   3    4.92    0.43
  -3   6  -3    4.55    0.44
   3   6   3    4.57    0.46
  -3   6  -3    4.59    0.41
  -3  -6  -3    4.90    0.46
   3   6   4   13.96    1.15
   3   6   4   12.62    1.14
   3   6   4   12.72    1.11
  -3  -6  -4   13.32    1.14
  -3   6  -5    0.60    0.22
   3   6   5    0.67    0.13
   3   6   5    0.93    0.20
   3   6   5    0.82    0.20
  -3  -6  -5    0.77    0.19
  -3   6  -6   34.73    3.14
   3   6   6   37.34    3.11
   3   6   6   40.29    3.10
  -3  -6  -6   36.40    3.10
   3   6   7    0.05    0.19
   3   6   7    0.26    0.19
  -3  -6  -7   -0.15    0.18
   3   6   8    4.77    0.55
   3   6   8    5.22    0.60
  -3  -6  -8    5.34    0.59
   3   6   9    0.08    0.21
   3   6   9    0.46    0.24
  -3  -6  -9    0.29    0.23
  -3   7   8   -0.10    0.23
   3  -7  -8    0.20    0.24
  -3   7   7    4.03    0.49
   3  -7  -7    3.13    0.43
  -3   7   6    0.13    0.18
   3   7  -6    0.55    0.19
   3  -7  -6    0.11    0.19
   3   7  -5   45.18    3.32
  -3   7   5   36.30    3.30
   3   7  -5   35.23    3.33
  -3   7   5   40.20    3.27
   3  -7  -5   41.35    3.30
  -3   7   4    0.18    0.16
  -3   7   4    0.22    0.10
   3   7  -4    0.34    0.14
   3  -7  -4    0.10    0.14
  -3   7   3   14.01    1.16
   3   7  -3   16.20    1.20
  -3   7   3   13.72    1.20
   3  -7  -3   13.38    1.19
  -3  -7   3   12.95    1.15
  -3  -7   3   13.45    1.19
   3   7  -2    0.43    0.13
  -3   7   2    0.27    0.14
  -3   7   2    0.27    0.10
   3  -7  -2    0.15    0.12
  -3  -7   2    0.24    0.14
  -3  -7   2    0.25    0.09
  -3   7   1   46.21    3.60
  -3   7   1   42.65    3.61
   3   7  -1   43.47    3.61
   3  -7  -1   41.74    3.59
  -3  -7   1   47.36    3.63
  -3  -7   1   41.85    3.59
   3   7   0    0.05    0.12
   3   7   0   -0.01    0.10
  -3   7   0   -0.01    0.10
  -3  -7   0   -0.05    0.09
   3  -7   0   -0.01    0.07
  -3  -7   0    0.07    0.14
   3   7   1   40.62    3.61
   3   7   1   44.13    3.61
  -3   7  -1   48.75    3.61
   3  -7   1   44.02    3.58
  -3  -7  -1   41.58    3.61
   3   7   2    0.09    0.16
   3   7   2    0.28    0.14
  -3   7  -2    0.31    0.10
   3   7   2    0.31    0.12
  -3  -7  -2    0.24    0.13
   3   7   3   13.09    1.19
   3   7   3   14.48    1.16
   3   7   3   14.01    1.19
  -3   7  -3   13.17    1.14
  -3  -7  -3   13.25    1.17
   3   7   4    0.31    0.12
   3   7   4    0.28    0.18
   3   7   4    0.30    0.17
  -3  -7  -4    0.21    0.16
   3   7   5   42.58    3.28
   3   7   5   43.40    3.28
  -3   7  -5   32.15    3.32
  -3  -7  -5   38.19    3.27
   3   7   6   -0.07    0.18
   3   7   6   -0.02    0.20
  -3  -7  -6    0.01    0.18
   3   7   7    3.54    0.45
   3   7   7    3.50    0.45
  -3  -7  -7    3.68    0.45
   3   7   8    0.24    0.25
   3   7   8    0.04    0.21
  -3  -7  -8    0.07    0.23
  -3   8   7    0.01    0.24
   3  -8  -7    0.05    0.23
  -3   8   6    4.12    0.51
   3  -8  -6    4.25    0.51
  -3   8   5    0.56    0.22
   3  -8  -5    0.75    0.21
   3   8  -4   29.21    2.15
  -3   8   4   22.95    2.15
   3  -8  -4   24.50    2.15
   3   8  -3    2.36    0.31
  -3   8   3    2.08    0.30
   3  -8  -3    2.05    0.28
  -3   8   2   19.77    1.70
   3   8  -2   21.25    1.73
  -3   8   2   21.02    1.73
   3  -8  -2   19.79    1.71
  -3  -8   2   20.33    1.69
  -3   8   1    3.67    0.39
   3   8  -1    3.93    0.42
  -3   8   1    3.56    0.41
  -3  -8   1    3.88    0.38
   3  -8  -1    3.91    0.38
   3   8   0   33.30    2.60
  -3   8   0   30.35    2.59
  -3  -8   0   29.12    2.58
   3  -8   0   31.87    2.56
   3   8   1    3.28    0.40
  -3   8  -1    3.33    0.37
   3  -8   1    4.16    0.36
  -3  -8  -1    3.24    0.39
   3   8   2   16.99    1.59
  -3   8  -2   18.99    1.55
   3   8   2   18.74    1.58
  -3  -8  -2   18.76    1.57
   3   8   3    2.54    0.32
   3   8   3    1.57    0.27
  -3  -8  -3    1.59    0.26
   3   8   4   27.31    2.22
   3   8   4   27.07    2.21
  -3  -8  -4   24.12    2.20
   3   8   5    0.73    0.24
   3   8   5    0.70    0.23
  -3  -8  -5    0.72    0.22
   3   8   6    4.69    0.60
   3   8   6    5.33    0.56
  -3  -8  -6    4.74    0.57
   3   8   7   -0.17    0.22
   3   8   7    0.01    0.25
  -3  -8  -7   -0.09    0.22
  -3   9   6    0.20    0.25
   3  -9  -6    0.10    0.22
  -3   9   5    5.24    0.59
   3  -9  -5    4.36    0.54
  -3   9   4    0.28    0.22
   3  -9  -4    0.34    0.19
   3   9  -3   23.12    1.79
  -3   9   3   19.85    1.79
   3  -9  -3   19.67    1.76
  -3   9   2    0.23    0.19
   3   9  -2    0.26    0.18
   3  -9  -2    0.26    0.15
  -3   9   1   16.22    1.30
   3   9  -1   14.76    1.29
   3  -9  -1   14.20    1.26
  -3  -9   1   14.63    1.26
  -3   9   0   -0.01    0.16
   3   9   0    0.05    0.16
   3  -9   0   -0.07    0.10
  -3  -9   0    0.08    0.13
  -3   9  -1   13.61    1.30
   3   9   1   15.94    1.33
  -3  -9  -1   16.07    1.30
   3   9   2    0.23    0.19
   3   9   2    0.09    0.21
  -3   9  -2    0.12    0.14
  -3  -9  -2    0.32    0.18
   3   9   3   21.53    1.88
   3   9   3   23.78    1.89
  -3  -9  -3   20.57    1.86
   3   9   4    0.65    0.25
   3   9   4    0.96    0.24
  -3  -9  -4    0.51    0.22
   3   9   5    5.05    0.61
   3   9   5    4.95    0.54
  -3  -9  -5    4.17    0.56
   3   9   6    0.43    0.28
   3   9   6    0.34    0.23
  -3  -9  -6    0.12    0.23
  -3  10   4    6.19    0.69
   3 -10  -4    6.28    0.65
  -3  10   3    0.42    0.25
   3  10  -3    0.82    0.24
   3 -10  -3    0.52    0.20
  -3  10   2   10.61    0.96
   3  10  -2   10.84    0.94
   3 -10  -2    9.44    0.91
  -3  10   1    0.29    0.20
   3  10  -1    0.64    0.21
  -3 -10   1    0.52    0.15
   3 -10  -1    0.52    0.15
   3  10   0   12.48    1.13
  -3  10   0   13.19    1.12
  -3 -10   0   11.95    1.08
  -3  10  -1    0.61    0.20
   3  10   1    0.20    0.24
   3  10   1    0.78    0.25
  -3 -10  -1    0.49    0.18
   3  10   2    9.82    0.95
   3  10   2    9.51    0.95
  -3 -10  -2   10.18    0.90
   3  10   3    0.37    0.25
   3  10   3    0.50    0.27
  -3 -10  -3    0.54    0.22
   3  10   4    6.14    0.74
   3  10   4    8.03    0.71
  -3 -10  -4    5.97    0.68
  -3  11   1    7.02    0.75
   3  11  -1    7.32    0.74
   3  11   0   -0.02    0.23
  -3  11   0   -0.17    0.21
   3  11   1    5.47    0.74
   3  11   1    7.31    0.75
  -3 -11  -1    7.06    0.67
  -4   0  10    0.29    0.30
   4   0 -10    0.24    0.17
   4   0  -9   -0.09    0.13
  -4   0   9    0.04    0.28
  -4   0   9    0.00    0.15
  -4   0   9   -0.04    0.14
  -4   0   8    1.07    0.34
  -4   0   8    0.90    0.19
   4   0  -8    0.88    0.26
  -4   0   8    1.42    0.17
  -4   0   8    1.24    0.21
   4   0  -8    1.16    0.19
   4   0  -7    0.00    0.16
   4   0  -7    0.02    0.10
  -4   0   7   -0.11    0.11
  -4   0   7   -0.17    0.21
  -4   0   7   -0.03    0.12
  -4   0   7    0.17    0.11
   4   0  -6    0.64    0.12
   4   0  -6    0.70    0.20
  -4   0   6    0.47    0.14
  -4   0   6    0.74    0.15
  -4   0   6    0.59    0.12
  -4   0   6    0.42    0.20
  -4   0   5    0.03    0.06
  -4   0   5    0.06    0.15
   4   0  -5   -0.04    0.07
  -4   0   5   -0.09    0.09
  -4   0   5   -0.04    0.10
   4   0  -5   -0.06    0.12
  -4   0   4    0.62    0.09
   4   0  -4    0.39    0.08
   4   0  -4    0.35    0.14
  -4   0   4    0.44    0.12
  -4   0   4    0.49    0.13
  -4   0   3   -0.02    0.09
  -4   0   3   -0.07    0.07
  -4   0   3    0.04    0.09
   4   0  -3    0.01    0.05
   4   0  -3   -0.06    0.09
  -4   0   2    1.91    0.24
   4   0  -2    2.22    0.21
   4   0  -2    2.53    0.21
  -4   0   2    2.04    0.25
   4   0  -2    2.02    0.24
  -4   0   2    2.58    0.23
  -4   0   1    0.00    0.07
   4   0  -1   -0.02    0.04
   4   0  -1   -0.08    0.06
  -4   0   1   -0.05    0.06
  -4   0   0    2.52    0.27
  -4   0   0    3.02    0.26
  -4   0   0    2.69    0.27
   4   0   0    2.86    0.27
   4   0   0    3.02    0.25
   4   0   0    3.04    0.26
   4   0   0    2.82    0.27
  -4   0  -1   -0.06    0.04
   4   0   1    0.00    0.07
   4   0   1   -0.04    0.04
  -4   0  -1    0.01    0.06
   4   0   1    0.03    0.03
   4   0   1    0.06    0.04
  -4   0  -1    0.07    0.05
  -4   0  -1    0.01    0.03
  -4   0  -2    1.86    0.26
  -4   0  -2    2.14    0.21
   4   0   2    2.45    0.20
   4   0   2    2.11    0.28
  -4   0  -2    2.49    0.21
   4   0   2    2.34    0.22
   4   0   2    2.36    0.21
   4   0   3   -0.01    0.13
  -4   0  -3    0.04    0.03
   4   0   3    0.02    0.06
  -4   0  -3   -0.01    0.02
   4   0   4    0.42    0.19
   4   0   4    0.49    0.10
  -4   0  -4    0.36    0.06
  -4   0  -4    0.39    0.06
  -4   0  -5    0.15    0.05
   4   0   5   -0.09    0.16
  -4   0  -5    0.01    0.05
   4   0   5   -0.06    0.09
   4   0   6    0.96    0.16
  -4   0  -6    0.87    0.11
  -4   0  -6    0.57    0.11
   4   0   6    0.84    0.10
   4   0   6    0.78    0.27
   4   0   7    0.12    0.13
   4   0   7    0.03    0.06
  -4   0  -7   -0.01    0.08
   4   0   7   -0.12    0.23
  -4   0  -7    0.01    0.08
   4   0   8    1.11    0.22
   4   0   8    1.73    0.41
   4   0   9   -0.16    0.19
   4   0   9    0.09    0.34
   4   0  10    0.08    0.22
   4   0  11   -0.08    0.21
  -4   1  10    0.26    0.30
  -4   1  10   -0.07    0.18
  -4  -1  10    0.11    0.28
   4  -1 -10   -0.11    0.17
  -4   1   9    0.34    0.17
  -4   1   9    0.26    0.29
   4   1  -9    0.31    0.16
  -4   1   9    0.46    0.16
  -4   1   9    0.50    0.18
   4  -1  -9    0.26    0.15
  -4  -1   9    0.51    0.17
  -4  -1   9    0.32    0.29
  -4   1   8   -0.12    0.14
  -4   1   8    0.27    0.28
  -4   1   8   -0.06    0.13
   4   1  -8   -0.09    0.11
  -4   1   8   -0.02    0.13
  -4  -1   8   -0.03    0.22
  -4  -1   8   -0.11    0.13
   4  -1  -8    0.04    0.12
  -4   1   7    1.01    0.18
   4   1  -7    1.14    0.17
  -4   1   7    1.30    0.33
  -4   1   7    1.16    0.20
   4   1  -7    1.17    0.24
  -4   1   7    1.41    0.23
  -4  -1   7    1.47    0.20
  -4  -1   7    1.30    0.16
  -4  -1   7    0.86    0.27
   4  -1  -7    1.11    0.18
  -4   1   6    0.07    0.19
  -4   1   6   -0.16    0.13
  -4   1   6   -0.11    0.12
   4   1  -6   -0.13    0.13
  -4   1   6   -0.02    0.08
   4   1  -6   -0.03    0.08
  -4  -1   6    0.07    0.07
   4  -1  -6   -0.28    0.13
  -4  -1   6   -0.09    0.17
  -4  -1   6    0.01    0.11
   4  -1  -6    0.06    0.09
  -4   1   5    0.76    0.13
  -4   1   5    0.83    0.17
   4   1  -5    1.26    0.19
   4   1  -5    1.20    0.15
  -4   1   5    1.12    0.23
  -4   1   5    1.14    0.20
  -4  -1   5    1.03    0.16
   4  -1  -5    1.09    0.15
  -4  -1   5    1.46    0.16
  -4  -1   5    1.21    0.22
   4   1  -4   -0.04    0.07
   4   1  -4    0.00    0.09
  -4   1   4   -0.11    0.10
  -4   1   4   -0.02    0.09
  -4   1   4   -0.02    0.05
   4   1  -4    0.07    0.06
   4  -1  -4    0.04    0.06
  -4  -1   4    0.06    0.08
  -4  -1   4    0.00    0.10
   4  -1  -4   -0.25    0.10
  -4  -1   4    0.17    0.07
  -4   1   3    0.14    0.08
   4   1  -3    0.05    0.05
  -4   1   3    0.10    0.04
   4   1  -3    0.22    0.07
  -4   1   3    0.08    0.10
   4   1  -3    0.16    0.08
   4  -1  -3   -0.15    0.08
  -4  -1   3    0.15    0.07
  -4  -1   3    0.19    0.07
   4  -1  -3    0.10    0.05
  -4  -1   3    0.15    0.08
   4  -1  -3    0.11    0.05
   4   1  -2    0.03    0.05
  -4   1   2    0.06    0.06
   4   1  -2    0.00    0.06
  -4   1   2    0.10    0.09
   4   1  -2    0.00    0.05
   4  -1  -2    0.05    0.04
   4  -1  -2    0.05    0.03
  -4  -1   2    0.02    0.05
  -4  -1   2    0.06    0.05
  -4   1   1    4.58    0.39
   4   1  -1    3.65    0.40
   4   1  -1    4.45    0.39
  -4   1   1    4.79    0.40
  -4  -1   1    4.74    0.40
   4  -1  -1    4.90    0.37
  -4  -1   1    4.60    0.39
   4  -1  -1    4.27    0.38
   4   1   0   -0.01    0.04
   4   1   0    0.01    0.05
  -4   1   0    0.00    0.03
   4  -1   0   -0.01    0.04
  -4  -1   0    0.01    0.04
   4  -1   0    0.01    0.02
   4  -1   0    0.00    0.04
  -4  -1   0    0.04    0.04
  -4   1  -1    4.42    0.37
   4   1   1    3.43    0.39
  -4   1  -1    4.80    0.39
   4   1   1    4.70    0.38
  -4   1  -1    4.27    0.41
   4   1   1    4.33    0.37
  -4   1  -1    4.45    0.37
  -4  -1  -1    4.48    0.38
  -4  -1  -1    4.36    0.37
   4  -1   1    4.66    0.37
   4  -1   1    4.55    0.36
  -4   1  -2   -0.01    0.08
  -4   1  -2   -0.02    0.06
   4   1   2    0.04    0.06
  -4   1  -2    0.00    0.03
  -4   1  -2    0.03    0.02
   4   1   2   -0.06    0.03
   4   1   2    0.04    0.04
   4  -1   2    0.07    0.09
  -4  -1  -2    0.03    0.02
  -4  -1  -2    0.06    0.04
   4  -1   2    0.03    0.04
   4   1   3    0.17    0.11
  -4   1  -3    0.08    0.04
   4   1   3    0.08    0.08
   4   1   3    0.08    0.05
  -4   1  -3    0.21    0.12
  -4   1  -3    0.21    0.03
  -4  -1  -3    0.04    0.04
   4  -1   3    0.09    0.06
  -4  -1  -3    0.05    0.04
   4  -1   3    0.40    0.14
  -4   1  -4    0.04    0.03
  -4   1  -4   -0.04    0.13
   4   1   4    0.00    0.05
   4   1   4    0.04    0.13
  -4   1  -4    0.04    0.04
   4   1   4   -0.02    0.07
  -4  -1  -4   -0.03    0.05
   4  -1   4    0.06    0.15
   4  -1   4    0.10    0.08
  -4   1  -5    1.03    0.13
   4   1   5    1.39    0.29
   4   1   5    0.94    0.11
   4   1   5    1.02    0.15
   4   1   5    1.09    0.12
  -4   1  -5    0.94    0.11
   4  -1   5    1.29    0.17
  -4  -1  -5    1.16    0.15
   4  -1   5    1.26    0.27
   4   1   6    0.00    0.12
   4   1   6    0.07    0.23
  -4   1  -6   -0.08    0.07
  -4   1  -6   -0.01    0.05
   4  -1   6   -0.13    0.10
   4  -1   6    0.08    0.21
  -4  -1  -6   -0.04    0.07
   4   1   7    1.16    0.12
   4   1   7    1.25    0.34
   4   1   7    1.15    0.20
   4  -1   7    1.15    0.33
   4  -1   7    1.11    0.19
   4  -1   7    1.18    0.14
  -4  -1  -7    1.24    0.17
   4   1   8    0.15    0.27
   4   1   8   -0.04    0.14
  -4  -1  -8   -0.10    0.10
   4  -1   8    0.25    0.27
   4  -1   8   -0.05    0.14
   4   1   9    0.44    0.35
   4   1   9    0.50    0.21
   4  -1   9    0.34    0.19
   4  -1   9    0.89    0.36
   4   1  10   -0.23    0.22
   4  -1  10    0.14    0.20
  -4   2  10    0.33    0.19
  -4   2  10    0.61    0.37
  -4  -2  10    0.15    0.28
   4  -2 -10    0.28    0.18
  -4   2   9    0.01    0.15
  -4   2   9   -0.13    0.30
  -4   2   9   -0.23    0.19
  -4  -2   9   -0.04    0.24
   4  -2  -9   -0.05    0.16
  -4   2   8    0.36    0.32
  -4   2   8    0.68    0.17
   4   2  -8    0.41    0.14
  -4   2   8    0.55    0.22
  -4   2   8    0.59    0.15
   4  -2  -8    0.52    0.16
  -4  -2   8    0.55    0.25
  -4  -2   8    0.59    0.16
  -4   2   7   -0.14    0.22
   4   2  -7   -0.02    0.14
  -4   2   7   -0.02    0.14
   4   2  -7   -0.05    0.10
  -4   2   7   -0.08    0.11
  -4   2   7   -0.18    0.16
  -4  -2   7   -0.10    0.18
  -4  -2   7   -0.04    0.11
   4  -2  -7   -0.04    0.12
   4   2  -6    1.37    0.20
  -4   2   6    1.33    0.23
  -4   2   6    1.33    0.22
   4   2  -6    1.66    0.20
  -4   2   6    1.44    0.18
  -4   2   6    0.94    0.27
  -4  -2   6    1.71    0.26
  -4  -2   6    1.47    0.15
   4  -2  -6    1.29    0.19
  -4  -2   6    1.78    0.21
   4   2  -5    0.05    0.07
   4   2  -5   -0.04    0.13
  -4   2   5   -0.02    0.11
  -4   2   5   -0.02    0.07
  -4   2   5    0.09    0.13
   4   2  -5   -0.05    0.09
  -4  -2   5   -0.08    0.09
  -4  -2   5    0.03    0.05
   4  -2  -5   -0.04    0.09
  -4  -2   5    0.09    0.12
   4   2  -4    0.06    0.10
  -4   2   4    0.09    0.09
   4   2  -4    0.16    0.09
  -4   2   4    0.11    0.06
  -4   2   4    0.29    0.13
   4   2  -4    0.17    0.07
  -4  -2   4    0.27    0.11
  -4  -2   4    0.16    0.08
  -4  -2   4    0.14    0.06
   4  -2  -4    0.06    0.08
   4   2  -3   -0.02    0.06
   4   2  -3    0.01    0.09
  -4   2   3    0.00    0.06
  -4   2   3    0.09    0.09
   4   2  -3    0.01    0.06
  -4   2   3    0.05    0.04
  -4  -2   3    0.04    0.05
   4  -2  -3    0.04    0.04
   4  -2  -3    0.07    0.06
  -4  -2   3    0.03    0.07
   4   2  -2    0.10    0.08
   4   2  -2    0.13    0.06
  -4   2   2    0.20    0.07
  -4   2   2    0.11    0.03
   4  -2  -2    0.12    0.04
  -4  -2   2    0.18    0.07
   4  -2  -2    0.12    0.06
  -4  -2   2    0.11    0.05
   4   2  -1   -0.09    0.06
  -4   2   1    0.01    0.04
   4   2  -1   -0.01    0.04
   4   2  -1   -0.02    0.04
  -4  -2   1    0.02    0.05
   4  -2  -1    0.03    0.04
  -4  -2   1    0.00    0.04
  -4   2   0    2.35    0.20
  -4   2   0    2.23    0.19
   4   2   0    2.25    0.20
   4   2   0    2.46    0.22
   4  -2   0    2.22    0.20
   4  -2   0    2.24    0.23
  -4  -2   0    2.19    0.20
  -4  -2   0    2.17    0.21
   4   2   1    0.09    0.05
  -4   2  -1    0.10    0.07
  -4   2  -1    0.04    0.03
  -4   2  -1    0.01    0.03
   4   2   1    0.04    0.03
  -4   2  -1    0.02    0.07
  -4  -2  -1    0.03    0.04
  -4  -2  -1    0.08    0.04
  -4  -2  -1    0.06    0.05
   4  -2   1    0.04    0.03
   4  -2   1   -0.04    0.06
  -4   2  -2    0.16    0.08
   4   2   2    0.13    0.06
  -4   2  -2    0.16    0.11
   4   2   2    0.08    0.03
   4   2   2    0.12    0.08
  -4   2  -2    0.10    0.04
   4  -2   2    0.16    0.05
  -4  -2  -2    0.03    0.05
   4  -2   2    0.02    0.09
  -4   2  -3    0.09    0.08
   4   2   3    0.00    0.08
  -4   2  -3   -0.03    0.04
   4   2   3    0.01    0.02
   4   2   3    0.02    0.06
  -4   2  -3   -0.01    0.10
   4  -2   3   -0.04    0.12
   4  -2   3    0.04    0.06
  -4  -2  -3   -0.02    0.05
   4   2   4    0.10    0.07
  -4   2  -4    0.06    0.05
   4   2   4    0.07    0.09
   4   2   4    0.07    0.03
   4   2   4    0.10    0.03
  -4  -2  -4    0.09    0.07
   4  -2   4    0.12    0.08
   4  -2   4    0.06    0.13
   4   2   5    0.08    0.11
   4   2   5    0.04    0.08
  -4   2  -5    0.09    0.06
   4   2   5   -0.03    0.18
  -4  -2  -5   -0.03    0.07
   4  -2   5    0.21    0.18
   4  -2   5   -0.09    0.09
  -4   2  -6    1.33    0.14
   4   2   6    1.52    0.21
   4   2   6    1.33    0.18
  -4   2  -6    1.32    0.17
   4   2   6    1.47    0.32
  -4  -2  -6    1.22    0.18
   4  -2   6    1.41    0.20
   4  -2   6    1.41    0.31
   4   2   7    0.07    0.25
  -4   2  -7   -0.01    0.10
   4   2   7   -0.03    0.13
   4   2   7   -0.15    0.09
   4  -2   7    0.13    0.23
   4  -2   7   -0.03    0.14
  -4  -2  -7   -0.02    0.11
   4   2   8    0.73    0.34
   4   2   8    0.16    0.17
  -4  -2  -8    0.33    0.15
   4  -2   8    0.80    0.30
   4  -2   8    0.76    0.21
   4   2   9   -0.08    0.19
   4   2   9   -0.10    0.30
   4  -2   9   -0.01    0.19
   4  -2   9    0.29    0.30
  -4  -2  -9   -0.04    0.14
   4   2  10    0.19    0.19
   4  -2  10    0.23    0.22
  -4   3  10    0.00    0.23
  -4   3  10    0.11    0.43
  -4   3  10   -0.05    0.18
   4  -3 -10    0.04    0.19
  -4  -3  10   -0.31    0.28
  -4   3   9    0.35    0.17
  -4   3   9    0.21    0.38
  -4   3   9    0.53    0.24
   4  -3  -9    0.35    0.19
  -4  -3   9    0.22    0.25
  -4   3   8   -0.26    0.28
  -4   3   8   -0.01    0.13
  -4   3   8   -0.10    0.19
   4   3  -8   -0.06    0.12
  -4   3   8    0.17    0.17
  -4  -3   8   -0.16    0.20
   4  -3  -8   -0.04    0.16
  -4  -3   8    0.04    0.16
  -4   3   7    0.71    0.20
   4   3  -7    0.60    0.13
  -4   3   7    0.19    0.17
  -4   3   7    0.70    0.14
   4  -3  -7    0.45    0.16
  -4  -3   7    0.78    0.22
  -4  -3   7    0.47    0.15
   4   3  -6    0.05    0.09
  -4   3   6   -0.07    0.08
  -4   3   6    0.04    0.12
  -4   3   6    0.07    0.16
   4   3  -6    0.06    0.12
  -4  -3   6    0.13    0.12
   4  -3  -6   -0.02    0.12
  -4   3   5    0.70    0.19
   4   3  -5    0.68    0.13
  -4   3   5    0.59    0.14
  -4   3   5    0.53    0.10
   4   3  -5    0.67    0.13
   4   3  -5    1.17    0.22
  -4  -3   5    0.54    0.08
  -4  -3   5    0.58    0.08
  -4  -3   5    0.74    0.14
   4  -3  -5    0.73    0.14
  -4   3   4    0.04    0.05
   4   3  -4   -0.01    0.08
   4   3  -4    0.01    0.08
  -4   3   4    0.00    0.09
  -4   3   4   -0.04    0.10
   4   3  -4    0.15    0.12
  -4  -3   4    0.05    0.05
  -4  -3   4    0.09    0.09
  -4  -3   4    0.05    0.05
   4  -3  -4   -0.08    0.08
   4   3  -3    0.09    0.10
  -4   3   3    0.21    0.08
   4   3  -3    0.18    0.10
  -4   3   3    0.15    0.04
   4   3  -3    0.23    0.08
   4   3  -3    0.11    0.08
  -4  -3   3    0.21    0.09
   4  -3  -3    0.07    0.06
  -4  -3   3    0.13    0.05
   4  -3  -3    0.16    0.07
  -4  -3   3    0.15    0.05
   4   3  -2   -0.07    0.06
   4   3  -2    0.03    0.07
  -4   3   2   -0.01    0.06
   4   3  -2   -0.03    0.08
  -4   3   2    0.02    0.03
   4  -3  -2   -0.01    0.06
  -4  -3   2    0.02    0.06
  -4  -3   2    0.00    0.05
  -4  -3   2    0.01    0.05
  -4   3   1    0.04    0.05
   4   3  -1    0.11    0.07
   4   3  -1    0.09    0.06
  -4   3   1    0.13    0.02
  -4  -3   1    0.07    0.06
   4  -3  -1    0.14    0.05
  -4  -3   1    0.14    0.05
  -4  -3   1    0.09    0.05
  -4  -3   1    0.19    0.06
   4   3   0    0.02    0.05
   4   3   0    0.00    0.06
  -4   3   0    0.01    0.02
  -4   3   0    0.01    0.04
   4  -3   0    0.03    0.03
  -4  -3   0   -0.02    0.05
   4  -3   0    0.12    0.08
  -4  -3   0   -0.01    0.04
   4   3   1    0.08    0.05
  -4   3  -1    0.09    0.03
  -4   3  -1    0.07    0.04
   4   3   1    0.09    0.06
  -4  -3  -1    0.05    0.05
  -4  -3  -1    0.14    0.06
   4  -3   1    0.19    0.10
  -4   3  -2    0.10    0.10
  -4   3  -2    0.00    0.02
   4   3   2    0.00    0.08
  -4   3  -2    0.03    0.10
   4   3   2    0.03    0.04
   4   3   2   -0.01    0.06
  -4   3  -2   -0.03    0.06
  -4  -3  -2    0.00    0.06
   4  -3   2    0.00    0.05
   4  -3   2   -0.10    0.08
   4   3   3    0.09    0.11
  -4   3  -3    0.12    0.06
   4   3   3    0.17    0.05
  -4   3  -3    0.17    0.10
  -4   3  -3    0.16    0.15
   4   3   3    0.11    0.08
   4  -3   3    0.12    0.07
  -4  -3  -3    0.15    0.08
   4   3   4   -0.08    0.09
   4   3   4   -0.04    0.08
   4   3   4    0.01    0.04
  -4   3  -4    0.16    0.12
  -4   3  -4    0.02    0.06
   4  -3   4    0.02    0.14
   4  -3   4   -0.04    0.07
  -4  -3  -4    0.00    0.08
  -4   3  -5    0.63    0.11
   4   3   5    0.60    0.15
  -4   3  -5    0.60    0.15
   4   3   5    0.58    0.08
   4   3   5    0.65    0.11
   4   3   5    0.54    0.12
  -4  -3  -5    0.54    0.12
   4  -3   5    0.48    0.12
   4  -3   5    0.19    0.19
   4   3   6    0.02    0.11
  -4   3  -6    0.00    0.08
  -4   3  -6    0.03    0.13
   4   3   6    0.05    0.05
   4   3   6    0.00    0.05
   4   3   6    0.05    0.12
  -4  -3  -6    0.03    0.10
   4  -3   6   -0.20    0.21
   4  -3   6    0.09    0.12
   4   3   7    0.49    0.15
  -4   3  -7    0.50    0.13
   4   3   7    0.54    0.18
   4   3   7    0.75    0.32
  -4  -3  -7    0.58    0.16
   4  -3   7    0.77    0.17
   4  -3   7    0.66    0.26
   4   3   8   -0.13    0.17
   4   3   8   -0.02    0.13
   4   3   8    0.09    0.33
   4  -3   8   -0.06    0.27
  -4  -3  -8   -0.11    0.14
   4  -3   8   -0.02    0.17
   4   3   9    0.42    0.22
   4   3   9    0.28    0.36
  -4  -3  -9    0.21    0.18
   4  -3   9    0.19    0.33
   4  -3   9    0.29    0.19
   4   3  10   -0.20    0.21
   4  -3  10   -0.06    0.20
  -4  -3 -10   -0.12    0.18
  -4   4  10    0.51    0.19
  -4   4  10    0.67    0.28
   4  -4 -10    0.04    0.23
  -4   4   9   -0.44    0.30
  -4   4   9    0.02    0.16
  -4   4   9   -0.14    0.22
   4  -4  -9    0.04    0.20
  -4   4   8    0.33    0.22
  -4   4   8    0.55    0.15
  -4   4   8    0.25    0.20
   4  -4  -8    0.43    0.19
  -4   4   7    0.18    0.18
  -4   4   7    0.05    0.16
   4   4  -7    0.04    0.13
  -4   4   7    0.05    0.11
  -4  -4   7   -0.03    0.13
   4  -4  -7   -0.01    0.15
  -4   4   6    0.34    0.11
  -4   4   6    0.27    0.13
  -4   4   6    0.58    0.19
   4   4  -6    0.27    0.14
   4   4  -6    0.37    0.14
   4  -4  -6    0.57    0.17
  -4  -4   6    0.40    0.13
  -4   4   5   -0.03    0.11
   4   4  -5   -0.11    0.12
   4   4  -5    0.02    0.11
   4   4  -5    0.01    0.09
  -4   4   5   -0.03    0.14
  -4   4   5   -0.03    0.07
  -4  -4   5   -0.06    0.10
   4  -4  -5    0.00    0.12
   4   4  -4    1.39    0.21
  -4   4   4    0.87    0.12
  -4   4   4    0.83    0.15
   4   4  -4    0.84    0.17
   4   4  -4    1.04    0.22
   4   4  -4    0.99    0.15
  -4  -4   4    0.90    0.15
   4  -4  -4    0.88    0.16
  -4  -4   4    1.09    0.12
   4   4  -3   -0.12    0.10
  -4   4   3    0.01    0.04
   4   4  -3    0.06    0.08
   4   4  -3    0.07    0.10
   4   4  -3   -0.07    0.11
  -4   4   3    0.01    0.09
   4  -4  -3   -0.05    0.08
  -4  -4   3    0.01    0.07
  -4  -4   3   -0.02    0.05
  -4   4   2    0.07    0.04
  -4   4   2    0.07    0.08
   4   4  -2    0.14    0.09
   4   4  -2    0.18    0.08
   4   4  -2    0.09    0.09
   4  -4  -2    0.12    0.08
  -4  -4   2    0.05    0.06
  -4  -4   2    0.09    0.09
  -4   4   1   -0.01    0.03
   4   4  -1    0.03    0.06
   4   4  -1    0.14    0.08
  -4   4   1   -0.01    0.07
  -4  -4   1   -0.03    0.06
  -4  -4   1    0.07    0.07
   4  -4  -1    0.00    0.05
  -4  -4   1   -0.05    0.06
  -4   4   0    0.41    0.08
   4   4   0    0.47    0.09
  -4   4   0    0.39    0.05
   4   4   0    0.56    0.11
   4  -4   0    0.32    0.06
  -4  -4   0    0.25    0.08
  -4  -4   0    0.47    0.09
  -4   4  -1    0.00    0.04
   4   4   1   -0.02    0.06
  -4   4  -1   -0.03    0.04
   4   4   1   -0.01    0.08
  -4  -4  -1   -0.01    0.07
   4  -4   1    0.02    0.10
  -4  -4  -1   -0.01    0.06
   4  -4   1   -0.01    0.03
   4   4   2    0.11    0.06
   4   4   2    0.05    0.10
  -4   4  -2    0.14    0.08
  -4   4  -2    0.10    0.11
   4   4   2    0.11    0.08
  -4   4  -2    0.05    0.04
  -4  -4  -2    0.05    0.07
   4  -4   2   -0.12    0.11
   4   4   3   -0.02    0.08
  -4   4  -3   -0.03    0.07
   4   4   3   -0.02    0.10
  -4   4  -3    0.04    0.11
   4   4   3    0.04    0.06
  -4   4  -3    0.03    0.03
  -4  -4  -3   -0.04    0.09
  -4   4  -4    1.01    0.19
   4   4   4    0.97    0.12
   4   4   4    0.91    0.16
   4   4   4    0.94    0.18
  -4   4  -4    1.00    0.14
  -4  -4  -4    1.14    0.17
   4   4   5    0.00    0.12
   4   4   5   -0.03    0.06
  -4   4  -5    0.02    0.13
   4   4   5    0.00    0.11
  -4   4  -5    0.00    0.08
  -4  -4  -5   -0.11    0.10
   4  -4   5   -0.05    0.10
   4   4   6    0.42    0.16
   4   4   6    0.49    0.12
  -4   4  -6    0.53    0.18
   4   4   6    0.36    0.15
   4   4   6    0.52    0.08
  -4   4  -6    0.39    0.12
   4  -4   6    0.56    0.17
  -4  -4  -6    0.34    0.15
   4   4   7    0.12    0.15
  -4   4  -7    0.09    0.11
   4   4   7    0.10    0.15
  -4   4  -7    0.06    0.18
   4  -4   7    0.14    0.17
  -4  -4  -7    0.02    0.15
   4   4   8    0.64    0.19
   4   4   8    0.26    0.19
   4   4   8    0.08    0.30
  -4  -4  -8    0.34    0.18
   4  -4   8    0.46    0.19
   4   4   9   -0.20    0.20
  -4  -4  -9    0.11    0.18
   4   4  10    0.23    0.24
  -4  -4 -10   -0.09    0.20
  -4   5   9    0.16    0.25
   4  -5  -9    0.10    0.23
   4   5  -8   -0.58    0.22
  -4   5   8   -0.12    0.19
  -4   5   8   -0.16    0.14
   4  -5  -8    0.13    0.20
  -4   5   7    1.46    0.27
  -4   5   7    0.30    0.13
   4   5  -7    0.52    0.22
  -4   5   7    0.46    0.20
   4  -5  -7    0.32    0.19
  -4   5   6    0.05    0.09
   4   5  -6   -0.36    0.16
  -4   5   6    0.18    0.19
   4   5  -6    0.18    0.16
  -4   5   6    0.00    0.14
  -4  -5   6   -0.03    0.13
   4  -5  -6    0.13    0.15
   4   5  -5    0.55    0.19
  -4   5   5    0.55    0.19
  -4   5   5    0.43    0.10
  -4   5   5    0.45    0.15
   4   5  -5    0.31    0.17
  -4  -5   5    0.41    0.15
   4  -5  -5    0.36    0.15
   4   5  -4    0.25    0.14
  -4   5   4    0.01    0.06
  -4   5   4    0.03    0.12
   4   5  -4   -0.09    0.09
   4   5  -4   -0.16    0.11
  -4  -5   4    0.05    0.11
   4  -5  -4    0.01    0.12
  -4  -5   4    0.01    0.05
   4   5  -3    0.39    0.14
  -4   5   3    0.56    0.08
   4   5  -3    0.29    0.15
  -4   5   3    0.66    0.15
   4   5  -3    0.50    0.12
  -4  -5   3    0.50    0.09
   4  -5  -3    0.66    0.13
  -4  -5   3    0.38    0.13
  -4   5   2    0.00    0.08
  -4   5   2    0.03    0.05
   4   5  -2    0.07    0.09
   4   5  -2    0.03    0.09
  -4  -5   2    0.04    0.07
   4  -5  -2   -0.01    0.08
  -4  -5   2    0.00    0.09
  -4   5   1    0.90    0.14
   4   5  -1    1.76    0.20
   4   5  -1    0.87    0.14
  -4   5   1    1.23    0.13
  -4  -5   1    0.84    0.13
   4  -5  -1    0.90    0.13
  -4  -5   1    0.98    0.14
  -4  -5   1    1.13    0.15
   4   5   0   -0.04    0.07
   4   5   0    0.02    0.09
  -4   5   0   -0.05    0.07
  -4  -5   0    0.10    0.10
  -4  -5   0   -0.02    0.07
   4  -5   0    0.02    0.11
  -4  -5   0    0.02    0.08
   4  -5   0    0.00    0.05
   4   5   1    1.20    0.17
   4   5   1    0.97    0.14
  -4   5  -1    0.85    0.12
   4  -5   1    0.88    0.11
  -4  -5  -1    0.80    0.14
   4  -5   1    1.16    0.11
   4  -5   1    0.87    0.20
  -4   5  -2    0.00    0.05
   4   5   2   -0.21    0.13
  -4   5  -2    0.11    0.08
   4   5   2    0.01    0.07
   4   5   2   -0.02    0.09
   4  -5   2   -0.07    0.12
  -4  -5  -2    0.02    0.09
  -4   5  -3    0.59    0.12
  -4   5  -3    0.64    0.08
   4   5   3    0.51    0.13
   4   5   3    0.51    0.16
   4   5   3    0.61    0.11
  -4   5  -3    0.26    0.16
  -4  -5  -3    0.78    0.15
   4   5   4   -0.07    0.12
   4   5   4    0.02    0.07
   4   5   4   -0.04    0.12
  -4   5  -4   -0.13    0.14
  -4   5  -4   -0.06    0.08
  -4  -5  -4    0.05    0.11
  -4   5  -5    0.33    0.19
   4   5   5    0.45    0.16
   4   5   5    0.40    0.09
   4   5   5    0.31    0.15
  -4   5  -5    0.44    0.12
  -4  -5  -5    0.59    0.16
  -4   5  -6   -0.15    0.18
   4   5   6    0.00    0.14
  -4   5  -6    0.05    0.11
   4   5   6   -0.08    0.14
  -4  -5  -6   -0.10    0.13
   4   5   7    0.05    0.18
   4   5   7    0.43    0.20
  -4  -5  -7    0.19    0.18
   4   5   8    0.01    0.20
   4   5   8    0.06    0.19
  -4  -5  -8    0.15    0.19
   4   5   9    0.17    0.21
   4   5   9    0.27    0.23
  -4  -5  -9    0.00    0.20
  -4   6   9   -0.05    0.25
   4  -6  -9   -0.10    0.25
  -4   6   8    0.14    0.23
   4  -6  -8    0.15    0.22
  -4   6   7   -0.06    0.19
   4   6  -7    0.03    0.22
   4  -6  -7   -0.06    0.18
   4   6  -6    0.02    0.34
  -4   6   6    0.38    0.12
  -4   6   6    0.05    0.22
   4   6  -6    0.68    0.23
  -4   6   6    0.23    0.18
   4  -6  -6    0.22    0.18
   4   6  -5    0.15    0.18
  -4   6   5   -0.03    0.14
  -4   6   5    0.00    0.09
   4  -6  -5    0.06    0.15
   4   6  -4    0.60    0.18
  -4   6   4    0.49    0.16
   4   6  -4    0.41    0.15
  -4   6   4    0.44    0.09
   4  -6  -4    0.59    0.17
  -4  -6   4    0.36    0.06
  -4  -6   4    0.34    0.15
  -4   6   3    0.03    0.06
  -4   6   3   -0.01    0.11
   4   6  -3    0.15    0.11
  -4  -6   3    0.05    0.07
   4  -6  -3   -0.03    0.10
  -4  -6   3    0.02    0.12
  -4   6   2    1.25    0.19
   4   6  -2    1.50    0.21
  -4   6   2    1.33    0.16
   4   6  -2    1.43    0.20
   4  -6  -2    1.46    0.19
  -4  -6   2    1.51    0.19
  -4  -6   2    1.59    0.21
  -4  -6   2    1.15    0.16
   4   6  -1    0.02    0.10
  -4   6   1   -0.08    0.07
  -4   6   1   -0.02    0.09
   4   6  -1    0.07    0.09
  -4  -6   1    0.03    0.09
  -4  -6   1    0.03    0.10
  -4  -6   1   -0.07    0.10
   4  -6  -1   -0.03    0.08
   4   6   0    0.88    0.16
  -4   6   0    0.63    0.13
   4   6   0    0.64    0.13
  -4  -6   0    0.70    0.13
  -4  -6   0    0.63    0.15
   4  -6   0    0.63    0.10
   4   6   1    0.01    0.11
  -4   6  -1   -0.01    0.07
  -4   6  -1   -0.11    0.09
   4   6   1    0.05    0.09
   4  -6   1   -0.16    0.05
  -4  -6  -1    0.12    0.10
   4  -6   1   -0.03    0.04
  -4   6  -2    1.50    0.17
  -4   6  -2    1.57    0.20
   4   6   2    1.14    0.19
   4   6   2    1.40    0.18
   4   6   2    1.31    0.25
  -4  -6  -2    1.28    0.19
  -4   6  -3    0.02    0.10
   4   6   3   -0.07    0.14
   4   6   3    0.03    0.13
  -4   6  -3   -0.01    0.06
   4   6   3   -0.07    0.09
  -4  -6  -3   -0.08    0.11
   4   6   4    0.43    0.11
   4   6   4    0.35    0.16
   4   6   4    0.61    0.17
  -4   6  -4    0.41    0.20
  -4  -6  -4    0.56    0.17
   4   6   5   -0.03    0.17
   4   6   5    0.11    0.16
  -4   6  -5   -0.20    0.18
   4   6   5    0.00    0.10
  -4  -6  -5   -0.16    0.14
   4   6   6    0.31    0.20
   4   6   6    0.02    0.19
  -4  -6  -6    0.27    0.19
   4   6   7    0.00    0.19
   4   6   7    0.03    0.17
  -4  -6  -7    0.08    0.18
   4   6   8    0.12    0.23
   4   6   8    0.02    0.20
  -4  -6  -8    0.05    0.21
   4   6   9    0.20    0.23
   4   6   9   -0.06    0.22
  -4  -6  -9    0.08    0.23
  -4   7   8   -0.03    0.23
   4  -7  -8    0.06    0.24
  -4   7   7    0.14    0.22
   4  -7  -7    0.08    0.21
  -4   7   6    0.19    0.19
   4   7  -6    0.58    0.20
   4  -7  -6   -0.03    0.17
   4   7  -5    0.40    0.18
   4   7  -5    0.66    0.22
  -4   7   5    0.10    0.17
   4  -7  -5    0.26    0.18
  -4   7   4   -0.05    0.09
  -4   7   4   -0.02    0.15
   4   7  -4    0.37    0.15
   4  -7  -4    0.04    0.14
  -4   7   3    0.39    0.16
  -4   7   3    0.51    0.10
   4   7  -3    0.82    0.17
  -4  -7   3    0.49    0.10
   4  -7  -3    0.50    0.16
  -4   7   2    0.02    0.07
   4   7  -2    0.16    0.13
  -4   7   2    0.03    0.12
  -4  -7   2    0.08    0.13
   4  -7  -2    0.04    0.12
  -4  -7   2    0.01    0.09
  -4  -7   2   -0.03    0.12
  -4   7   1    0.86    0.18
  -4   7   1    1.26    0.16
   4   7  -1    1.22    0.20
   4  -7  -1    0.88    0.15
  -4  -7   1    1.20    0.17
  -4  -7   1    1.42    0.21
   4   7   0    0.00    0.13
   4   7   0    0.05    0.12
  -4   7   0   -0.04    0.10
   4  -7   0    0.03    0.07
  -4  -7   0   -0.08    0.14
  -4  -7   0    0.13    0.11
   4   7   1    1.17    0.20
  -4   7  -1    0.96    0.16
   4   7   1    1.17    0.17
  -4  -7  -1    0.69    0.17
   4  -7   1    1.17    0.12
   4   7   2   -0.34    0.17
   4   7   2   -0.03    0.10
  -4   7  -2    0.01    0.09
   4   7   2    0.02    0.13
  -4  -7  -2   -0.01    0.13
   4   7   3    0.37    0.16
   4   7   3    0.42    0.20
   4   7   3    0.56    0.13
  -4  -7  -3    0.48    0.17
   4   7   4   -0.02    0.17
   4   7   4   -0.04    0.17
   4   7   4   -0.09    0.11
  -4  -7  -4    0.05    0.15
   4   7   5    0.42    0.20
   4   7   5    0.21    0.20
  -4  -7  -5    0.25    0.19
   4   7   6   -0.01    0.19
   4   7   6    0.07    0.20
  -4  -7  -6   -0.10    0.17
   4   7   7   -0.07    0.20
   4   7   7    0.13    0.23
  -4  -7  -7    0.19    0.22
   4   7   8    0.00    0.22
   4   7   8    0.21    0.25
  -4  -7  -8    0.06    0.24
  -4   8   7    0.18    0.24
   4  -8  -7    0.11    0.24
  -4   8   6    0.10    0.21
   4  -8  -6    0.06    0.21
  -4   8   5    0.10    0.19
   4  -8  -5   -0.01    0.19
  -4   8   4    0.46    0.22
   4   8  -4    0.60    0.19
   4  -8  -4    0.33    0.19
  -4   8   3    0.13    0.18
   4   8  -3    0.07    0.15
   4  -8  -3    0.24    0.15
   4   8  -2    0.64    0.18
  -4   8   2    0.28    0.17
  -4  -8   2    0.42    0.12
   4  -8  -2    0.34    0.15
   4   8  -1   -0.05    0.15
  -4   8   1    0.04    0.14
   4  -8  -1   -0.05    0.10
  -4  -8   1   -0.05    0.11
   4   8   0    1.34    0.22
  -4   8   0    0.91    0.18
   4  -8   0    0.99    0.14
  -4  -8   0    1.05    0.18
  -4   8  -1    0.03    0.12
   4   8   1   -0.05    0.15
  -4  -8  -1   -0.02    0.14
   4   8   2    0.62    0.19
  -4   8  -2    0.42    0.13
   4   8   2    0.03    0.20
  -4  -8  -2    0.38    0.16
   4   8   3    0.03    0.17
   4   8   3   -0.25    0.19
  -4  -8  -3   -0.06    0.16
   4   8   4    0.27    0.21
   4   8   4    0.67    0.24
  -4  -8  -4    0.41    0.19
   4   8   5    0.05    0.21
   4   8   5   -0.15    0.20
  -4  -8  -5   -0.04    0.19
   4   8   6    0.13    0.25
   4   8   6    0.09    0.22
  -4  -8  -6    0.11    0.21
   4   8   7    0.14    0.23
   4   8   7    0.05    0.27
  -4  -8  -7   -0.12    0.23
  -4   9   6    0.20    0.24
   4  -9  -6   -0.10    0.23
  -4   9   5    0.07    0.22
   4  -9  -5    0.21    0.22
  -4   9   4    0.14    0.21
   4   9  -4    0.14    0.18
   4  -9  -4   -0.02    0.18
   4   9  -3    0.47    0.20
  -4   9   3    0.26    0.21
   4  -9  -3    0.23    0.17
   4   9  -2    0.09    0.18
  -4   9   2    0.05    0.19
   4  -9  -2    0.05    0.14
  -4  -9   2    0.04    0.10
  -4   9   1    0.46    0.18
   4   9  -1    0.51    0.20
   4  -9  -1    0.29    0.13
  -4  -9   1    0.26    0.14
  -4   9   0   -0.02    0.15
   4   9   0    0.07    0.17
  -4  -9   0   -0.09    0.13
   4  -9   0    0.01    0.09
  -4   9  -1    0.40    0.17
   4   9   1    0.31    0.20
  -4  -9  -1    0.49    0.17
   4   9   2    0.12    0.18
   4   9   2   -0.13    0.20
  -4  -9  -2    0.12    0.17
   4   9   3    0.40    0.24
   4   9   3    0.06    0.23
  -4  -9  -3    0.40    0.20
   4   9   4   -0.09    0.22
   4   9   4    0.23    0.24
  -4  -9  -4   -0.15    0.18
   4   9   5    0.21    0.26
   4   9   5   -0.03    0.23
  -4  -9  -5    0.34    0.23
   4   9   6   -0.02    0.26
   4   9   6   -0.17    0.22
  -4  -9  -6   -0.06    0.23
  -4  10   4    0.10    0.25
   4 -10  -4    0.04    0.20
  -4  10   3   -0.13    0.22
   4  10  -3    0.03    0.21
   4 -10  -3    0.08    0.17
  -4  10   2    0.12    0.22
   4  10  -2    0.19    0.21
   4 -10  -2    0.10    0.16
   4  10  -1    0.07    0.21
  -4  10   1   -0.07    0.20
  -4 -10   1    0.02    0.14
   4 -10  -1    0.01    0.12
  -4  10   0    0.11    0.20
   4  10   0    0.22    0.21
  -4 -10   0    0.11    0.15
  -4  10  -1   -0.08    0.17
   4  10   1    0.09    0.22
   4  10   1   -0.11    0.22
  -4 -10  -1   -0.01    0.17
   4  10   2    0.17    0.25
   4  10   2    0.23    0.24
  -4 -10  -2    0.36    0.20
   4  10   3   -0.01    0.24
   4  10   3   -0.05    0.25
  -4 -10  -3   -0.08    0.20
   4  10   4    0.14    0.24
   4  10   4    0.08    0.28
  -4 -10  -4    0.11    0.22
  -4  11   0   -0.01    0.21
   4  11   0    0.10    0.25
  -4 -11   0   -0.03    0.17
  -5   0  10   13.61    1.31
   5   0 -10   13.10    1.17
  -5   0   9   -0.17    0.26
   5   0  -9   -0.03    0.14
  -5   0   8   37.06    2.94
   5   0  -8   34.10    2.94
  -5   0   8   32.62    3.04
  -5   0   8   38.26    2.97
   5   0  -7    0.02    0.11
  -5   0   7    0.04    0.12
  -5   0   7   -0.03    0.13
  -5   0   7    0.06    0.20
   5   0  -7    0.05    0.17
  -5   0   6   39.99    3.56
   5   0  -6   44.47    3.49
   5   0  -5   -0.08    0.14
  -5   0   5   -0.08    0.10
  -5   0   5    0.06    0.11
   5   0  -5    0.04    0.08
  -5   0   5   -0.07    0.13
  -5   0   4  318.70   24.54
   5   0  -4  264.97   24.45
  -5   0   4  303.93   24.44
   5   0  -4  313.02   24.49
  -5   0   3   -0.14    0.09
   5   0  -3   -0.03    0.05
  -5   0   3   -0.05    0.08
   5   0  -3   -0.11    0.09
  -5   0   3    0.01    0.09
   5   0  -2  105.89    8.60
  -5   0   2  118.52    8.60
   5   0  -2   91.13    8.59
   5   0  -1   -0.01    0.05
   5   0  -1   -0.06    0.07
  -5   0   1    0.03    0.08
  -5   0   1   -0.01    0.07
   5   0   0  964.62   79.10
   5   0   0  990.82   79.07
  -5   0   0  956.00   79.09
   5   0   1   -0.01    0.05
  -5   0  -1    0.04    0.04
  -5   0  -1   -0.02    0.04
  -5   0  -1   -0.03    0.06
  -5   0  -1   -0.10    0.05
   5   0   1    0.00    0.04
  -5   0  -1    0.05    0.06
   5   0   1    0.01    0.07
  -5   0  -2  118.17    9.27
  -5   0  -2  116.09    9.28
   5   0   2   99.14    9.29
   5   0   2  121.95    9.26
   5   0   2  111.61    9.26
  -5   0  -2  113.29    9.29
   5   0   2  114.80    9.25
   5   0   3    0.00    0.13
  -5   0  -3    0.06    0.04
   5   0   3    0.01    0.06
  -5   0  -3   -0.01    0.02
   5   0   4  353.79   29.11
  -5   0  -4  359.32   29.08
   5   0   5   -0.15    0.16
  -5   0  -5   -0.02    0.05
   5   0   5    0.07    0.10
  -5   0  -6   52.35    4.09
   5   0   6   47.33    4.11
  -5   0  -7    0.00    0.08
   5   0   7   -0.04    0.14
   5   0   7   -0.03    0.23
   5   0   8   37.62    2.94
   5   0   8   32.25    3.06
   5   0   9    0.03    0.16
   5   0   9    0.30    0.35
   5   0  10   13.41    1.20
  -5   1  10    0.72    0.36
  -5  -1  10    0.67    0.31
   5  -1 -10    0.55    0.21
   5   1  -9   17.02    1.52
  -5   1   9   17.53    1.52
  -5   1   9   20.16    1.56
  -5   1   9   15.77    1.66
   5  -1  -9   18.17    1.53
  -5  -1   9   18.67    1.63
  -5   1   8    2.37    0.45
  -5   1   8    2.74    0.32
  -5   1   8    1.91    0.32
   5   1  -8    2.08    0.31
  -5   1   8    2.65    0.33
  -5  -1   8    2.74    0.34
  -5  -1   8    2.70    0.42
   5  -1  -8    2.92    0.33
  -5  -1   8    3.04    0.27
  -5   1   7   60.79    5.14
  -5   1   7   57.76    5.03
  -5   1   7   59.09    5.07
  -5   1   7   68.23    5.07
   5   1  -7   53.11    5.08
   5   1  -7   52.21    5.03
   5  -1  -7   58.48    5.04
  -5  -1   7   68.07    5.12
  -5  -1   7   65.39    5.06
  -5  -1   7   71.51    5.03
  -5   1   6    8.64    0.80
  -5   1   6    7.35    0.80
  -5   1   6    8.45    0.75
   5   1  -6    8.43    0.76
  -5   1   6   10.81    0.88
   5   1  -6    9.56    0.82
  -5  -1   6    8.05    0.83
  -5  -1   6    9.48    0.79
   5  -1  -6    8.94    0.77
  -5   1   5  106.14    8.85
  -5   1   5  110.61    8.87
   5   1  -5  107.27    8.84
   5   1  -5  111.21    8.81
  -5   1   5  103.04    8.81
  -5  -1   5  118.21    8.86
  -5  -1   5  112.75    8.83
   5  -1  -5   91.05    8.84
  -5  -1   5  114.06    8.82
   5  -1  -5  105.60    8.81
   5   1  -4   16.13    1.18
  -5   1   4   11.79    1.18
  -5   1   4   12.79    1.18
   5   1  -4   14.25    1.15
  -5   1   4   11.50    1.14
  -5  -1   4   15.17    1.17
  -5  -1   4   14.76    1.17
  -5  -1   4   16.17    1.18
   5  -1  -4   11.91    1.19
   5  -1  -4   13.60    1.15
  -5   1   3  314.04   25.93
   5   1  -3  337.94   26.00
  -5   1   3  342.13   26.01
   5   1  -3  319.59   25.99
   5   1  -3  303.21   26.02
  -5  -1   3  287.91   26.00
   5  -1  -3  321.13   25.93
  -5  -1   3  354.23   26.05
   5  -1  -3  292.83   25.98
  -5  -1   3  311.32   25.97
   5   1  -2    7.39    0.63
  -5   1   2    6.17    0.65
  -5   1   2    8.56    0.64
   5   1  -2    6.94    0.63
   5   1  -2    6.92    0.62
  -5  -1   2    7.91    0.63
   5  -1  -2    7.80    0.61
   5  -1  -2    7.14    0.62
  -5  -1   2    6.94    0.63
   5   1  -1  439.27   32.64
  -5   1   1  390.66   32.67
  -5   1   1  412.97   32.65
   5  -1  -1  382.67   32.60
  -5  -1   1  385.47   32.64
  -5  -1   1  388.48   32.60
   5   1   0    0.02    0.05
   5   1   0    0.02    0.05
  -5   1   0    0.01    0.04
  -5   1   0   -0.02    0.04
   5  -1   0   -0.02    0.06
  -5  -1   0    0.03    0.05
   5  -1   0    0.01    0.03
   5  -1   0    0.00    0.06
  -5  -1   0    0.04    0.05
  -5   1  -1  362.19   32.81
  -5   1  -1  361.64   32.74
  -5   1  -1  433.61   32.72
  -5   1  -1  386.89   32.70
   5   1   1  385.60   32.71
   5   1   1  392.44   32.72
   5  -1   1  434.99   32.71
   5  -1   1  424.21   32.69
  -5  -1  -1  394.39   32.70
   5  -1   1  403.49   32.69
  -5  -1  -1  434.49   32.75
   5   1   2    7.85    0.64
   5   1   2    7.06    0.62
  -5   1  -2    6.67    0.66
   5   1   2    7.08    0.60
  -5   1  -2    7.32    0.61
  -5   1  -2    6.69    0.60
  -5   1  -2    8.16    0.60
   5   1   2    7.14    0.60
  -5  -1  -2    6.71    0.60
   5  -1   2    7.15    0.61
   5  -1   2    7.16    0.65
  -5  -1  -2    7.14    0.59
   5   1   3  307.61   25.40
   5   1   3  322.88   25.33
  -5   1  -3  310.98   25.32
  -5   1  -3  309.98   25.32
  -5   1  -3  345.79   25.36
   5   1   3  284.59   25.32
   5  -1   3  280.62   25.33
  -5  -1  -3  274.90   25.33
   5  -1   3  361.28   25.41
   5   1   4   14.66    1.23
   5   1   4   15.17    1.21
  -5   1  -4   14.30    1.20
   5   1   4   15.36    1.22
   5   1   4   15.77    1.30
  -5   1  -4   14.71    1.30
  -5   1  -4   13.60    1.20
  -5  -1  -4   13.16    1.21
   5  -1   4   15.61    1.31
   5  -1   4   14.73    1.22
  -5   1  -5  112.50    9.02
   5   1   5  115.30    9.01
   5   1   5  122.19    9.04
  -5   1  -5  105.15    9.01
   5   1   5  101.86    9.01
   5   1   5  118.48    9.13
  -5  -1  -5   98.81    9.02
   5  -1   5  107.91    9.03
   5  -1   5  115.59    9.13
   5   1   6    8.22    0.86
  -5   1  -6    8.26    0.71
  -5   1  -6    8.42    0.70
   5   1   6    8.57    0.74
   5  -1   6    8.06    0.74
  -5  -1  -6    7.77    0.71
   5  -1   6    9.53    0.90
   5   1   7   52.45    4.78
   5   1   7   58.36    4.67
   5  -1   7   56.04    4.66
  -5  -1  -7   60.93    4.64
   5  -1   7   54.35    4.77
   5   1   8    2.70    0.52
   5   1   8    3.08    0.38
   5  -1   8    3.45    0.40
   5  -1   8    2.45    0.48
  -5  -1  -8    2.94    0.33
   5   1   9   17.19    1.48
   5   1   9   15.17    1.65
   5  -1   9   17.78    1.49
   5  -1   9   17.85    1.64
   5   1  10    0.33    0.21
   5  -1  10    0.33    0.22
  -5   2  10   11.13    0.99
  -5   2  10   10.43    1.19
   5  -2 -10   11.26    1.01
   5   2  -9    0.15    0.15
  -5   2   9    0.04    0.22
  -5   2   9    0.16    0.16
  -5   2   9    0.31    0.33
  -5  -2   9    0.26    0.24
   5  -2  -9    0.10    0.17
   5   2  -8   24.18    2.06
  -5   2   8   22.76    2.12
  -5   2   8   27.65    2.10
  -5   2   8   25.67    2.21
  -5   2   8   24.93    2.06
   5  -2  -8   22.18    2.07
  -5  -2   8   25.40    2.07
  -5  -2   8   25.20    2.13
  -5   2   7    0.06    0.18
   5   2  -7    0.09    0.11
  -5   2   7    0.13    0.16
  -5   2   7    0.20    0.24
  -5   2   7    0.06    0.11
  -5  -2   7    0.13    0.07
  -5  -2   7    0.13    0.18
   5  -2  -7    0.13    0.14
  -5  -2   7    0.09    0.13
   5   2  -6  110.31    8.92
   5   2  -6  109.07    8.94
  -5   2   6   93.82    8.91
  -5   2   6  111.68    8.96
  -5   2   6  112.47    9.00
   5  -2  -6  102.27    8.93
  -5  -2   6  114.63    8.96
  -5  -2   6  111.88    8.91
  -5  -2   6  118.37    8.94
   5   2  -5   -0.01    0.09
   5   2  -5    0.06    0.12
  -5   2   5   -0.01    0.07
  -5   2   5    0.01    0.11
  -5   2   5    0.06    0.14
   5   2  -5    0.02    0.08
  -5  -2   5   -0.07    0.10
  -5  -2   5    0.13    0.07
   5  -2  -5    0.02    0.09
  -5  -2   5    0.04    0.12
   5   2  -4   63.92    5.35
  -5   2   4   65.75    5.36
   5   2  -4   64.88    5.32
  -5   2   4   54.57    5.30
   5   2  -4   64.76    5.32
  -5   2   4   65.74    5.33
  -5  -2   4   73.73    5.31
   5  -2  -4   59.57    5.31
  -5  -2   4   72.57    5.33
   5   2  -3    2.75    0.31
  -5   2   3    2.81    0.33
  -5   2   3    3.25    0.30
   5   2  -3    2.97    0.30
  -5   2   3    2.84    0.26
   5   2  -3    2.93    0.29
   5  -2  -3    3.27    0.27
  -5  -2   3    2.89    0.30
  -5  -2   3    3.36    0.29
   5  -2  -3    2.89    0.29
   5   2  -2  546.85   49.08
   5   2  -2  578.24   49.03
  -5   2   2  645.58   49.12
  -5   2   2  584.35   49.09
   5   2  -2  538.24   49.04
  -5  -2   2  651.28   49.06
   5  -2  -2  582.80   49.04
   5  -2  -2  685.36   48.97
   5   2  -1    6.18    0.62
  -5   2   1    7.51    0.60
   5   2  -1    7.04    0.60
   5  -2  -1    6.55    0.59
  -5  -2   1    7.60    0.60
  -5  -2   1    7.54    0.61
  -5   2   0  114.09    9.37
  -5   2   0  104.88    9.38
   5   2   0  111.72    9.38
   5   2   0  109.18    9.37
  -5  -2   0  122.62    9.40
   5  -2   0  127.79    9.39
   5  -2   0  102.91    9.39
  -5  -2   0  122.89    9.37
   5  -2   0  119.22    9.37
  -5   2  -1    6.69    0.59
  -5   2  -1    7.60    0.63
  -5   2  -1    6.78    0.59
   5   2   1    8.04    0.61
   5   2   1    7.13    0.59
   5  -2   1    7.35    0.59
  -5  -2  -1    7.29    0.59
   5  -2   1    7.00    0.58
  -5  -2  -1    6.45    0.60
   5  -2   1    6.93    0.62
   5   2   2  485.04   47.62
   5   2   2  555.89   47.62
  -5   2  -2  611.66   47.72
   5   2   2  566.05   47.54
  -5   2  -2  562.73   47.78
  -5   2  -2  599.39   47.59
   5  -2   2  652.48   47.61
  -5  -2  -2  619.69   47.56
  -5  -2  -2  575.23   47.62
  -5  -2  -2  613.16   47.64
  -5   2  -3    3.16    0.28
  -5   2  -3    2.68    0.37
   5   2   3    3.31    0.26
   5   2   3    3.02    0.29
  -5   2  -3    3.44    0.31
   5   2   3    3.25    0.33
  -5  -2  -3    3.01    0.29
   5  -2   3    3.27    0.29
   5  -2   3    2.59    0.35
   5   2   4   69.19    5.53
   5   2   4   75.56    5.55
  -5   2  -4   63.58    5.52
  -5   2  -4   69.94    5.55
   5  -2   4   60.65    5.59
  -5  -2  -4   67.59    5.53
   5  -2   4   67.40    5.54
   5   2   5    0.09    0.12
   5   2   5    0.05    0.08
  -5   2  -5    0.14    0.07
   5   2   5    0.01    0.16
   5  -2   5    0.04    0.10
   5  -2   5   -0.01    0.17
  -5  -2  -5    0.07    0.08
   5   2   6  118.87    9.18
   5   2   6  114.26    9.27
   5   2   6  115.38    9.16
  -5   2  -6  113.69    9.16
   5  -2   6  111.16    9.27
   5  -2   6  105.29    9.17
  -5  -2  -6  107.47    9.17
   5   2   7    0.03    0.09
   5   2   7    0.31    0.16
   5   2   7    0.19    0.26
  -5   2  -7    0.07    0.10
  -5  -2  -7    0.06    0.11
   5  -2   7    0.25    0.25
   5  -2   7    0.05    0.15
   5   2   8   24.62    2.17
   5   2   8   23.79    2.00
   5  -2   8   22.74    2.11
   5  -2   8   22.69    1.99
  -5  -2  -8   24.11    1.98
   5   2   9    0.37    0.34
   5   2   9    0.11    0.18
  -5  -2  -9    0.15    0.15
   5  -2   9    0.09    0.19
   5  -2   9    0.24    0.28
   5   2  10   10.69    0.98
   5  -2  10   10.54    1.00
  -5   3  10    0.42    0.20
  -5   3  10    0.40    0.40
  -5   3  10    0.66    0.27
   5  -3 -10    0.26    0.22
  -5   3   9   21.21    1.79
  -5   3   9   24.54    2.02
  -5   3   9   18.33    1.86
   5  -3  -9   21.89    1.82
  -5   3   8    1.56    0.28
  -5   3   8    1.59    0.23
  -5   3   8    1.48    0.30
  -5   3   8    1.59    0.41
   5   3  -8    1.76    0.24
   5  -3  -8    1.62    0.26
   5   3  -7   24.50    2.00
  -5   3   7   23.77    1.99
  -5   3   7   24.58    2.04
  -5  -3   7   24.00    2.01
   5  -3  -7   23.13    2.01
  -5   3   6    3.44    0.36
  -5   3   6    4.22    0.46
   5   3  -6    4.20    0.38
   5   3  -6    3.62    0.40
  -5   3   6    3.93    0.41
  -5  -3   6    3.54    0.33
   5  -3  -6    3.79    0.40
  -5  -3   6    3.68    0.39
   5   3  -5  134.69   11.84
  -5   3   5  159.93   11.85
  -5   3   5  132.35   11.89
   5   3  -5  161.89   11.85
   5   3  -5  129.13   11.89
  -5   3   5  138.83   11.82
  -5  -3   5  156.00   11.85
   5  -3  -5  141.65   11.84
  -5  -3   5  151.34   11.82
  -5   3   4    3.98    0.43
   5   3  -4    5.11    0.49
   5   3  -4    4.70    0.44
  -5   3   4    4.46    0.47
  -5   3   4    4.74    0.40
   5   3  -4    4.47    0.43
  -5  -3   4    4.54    0.43
  -5  -3   4    4.62    0.40
   5  -3  -4    4.49    0.43
  -5   3   3  128.52    9.91
   5   3  -3  125.24    9.91
   5   3  -3  116.59    9.93
   5   3  -3  126.32    9.94
  -5   3   3  108.30    9.90
  -5  -3   3  111.55    9.92
  -5  -3   3  131.59    9.91
   5  -3  -3  122.77    9.89
   5  -3  -3  122.78    9.91
   5   3  -2    2.70    0.28
  -5   3   2    2.67    0.28
  -5   3   2    2.99    0.25
   5   3  -2    3.13    0.28
   5   3  -2    3.36    0.32
   5  -3  -2    3.11    0.28
  -5  -3   2    2.93    0.29
  -5  -3   2    2.70    0.27
   5   3  -1  300.72   24.16
  -5   3   1  292.79   24.16
   5  -3  -1  329.02   24.20
  -5  -3   1  312.47   24.21
  -5  -3   1  247.39   24.15
   5   3   0    0.10    0.08
   5   3   0    0.07    0.05
  -5   3   0    0.01    0.02
  -5   3   0    0.01    0.05
   5  -3   0   -0.05    0.10
  -5  -3   0   -0.03    0.06
   5  -3   0   -0.02    0.04
  -5  -3   0    0.03    0.06
  -5  -3   0    0.00    0.05
  -5   3  -1  307.04   24.14
   5   3   1  283.77   24.14
   5   3   1  331.88   24.24
  -5   3  -1  264.41   24.15
  -5  -3  -1  279.13   24.19
   5  -3   1  312.89   24.14
  -5  -3  -1  296.31   24.18
   5   3   2    3.23    0.26
  -5   3  -2    2.38    0.31
  -5   3  -2    3.09    0.25
   5   3   2    2.44    0.30
   5   3   2    2.78    0.28
   5  -3   2    2.13    0.30
  -5  -3  -2    2.89    0.28
   5  -3   2    3.30    0.27
   5   3   3  127.56    9.64
  -5   3  -3  116.16    9.64
   5   3   3  116.90    9.66
  -5   3  -3  120.87    9.67
   5   3   3  116.89    9.65
   5  -3   3  115.72    9.64
  -5  -3  -3  113.75    9.64
  -5   3  -4    5.43    0.47
  -5   3  -4    4.53    0.42
   5   3   4    4.80    0.47
   5   3   4    4.71    0.44
   5   3   4    4.50    0.40
  -5  -3  -4    5.17    0.44
   5  -3   4    4.66    0.44
  -5   3  -5  136.67   11.63
   5   3   5  154.94   11.58
   5   3   5  150.12   11.61
  -5   3  -5  141.62   11.60
   5   3   5  152.83   11.63
   5   3   5  139.89   11.58
   5  -3   5  119.56   11.67
   5  -3   5  145.33   11.61
  -5  -3  -5  139.28   11.61
  -5   3  -6    4.58    0.45
  -5   3  -6    3.71    0.38
   5   3   6    3.73    0.43
   5   3   6    4.47    0.53
   5   3   6    4.01    0.40
   5  -3   6    4.01    0.42
  -5  -3  -6    4.23    0.40
   5  -3   6    3.06    0.49
   5   3   7   24.38    2.00
  -5   3  -7   24.87    1.99
  -5   3  -7   24.92    2.03
   5   3   7   25.78    2.14
   5   3   7   24.08    2.02
  -5  -3  -7   23.00    2.00
   5  -3   7   21.30    2.01
   5   3   8    1.66    0.26
   5   3   8    1.71    0.42
   5   3   8    1.55    0.22
  -5  -3  -8    1.57    0.24
   5  -3   8    1.27    0.35
   5  -3   8    1.69    0.28
   5   3   9   20.68    1.83
   5  -3   9   22.67    1.84
  -5  -3  -9   21.10    1.82
   5   3  10    0.64    0.26
   5  -3  10    0.50    0.23
  -5   4  10    6.93    0.77
   5  -4 -10    6.63    0.71
  -5   4   9    0.32    0.38
  -5   4   9    0.36    0.26
  -5   4   9    0.31    0.16
   5  -4  -9    0.41    0.22
  -5   4   8   30.02    2.53
  -5   4   8   29.92    2.48
   5  -4  -8   29.62    2.51
   5   4  -7    0.05    0.14
  -5   4   7    0.18    0.11
  -5   4   7    0.07    0.18
  -5   4   7    0.51    0.21
   5  -4  -7    0.11    0.17
  -5   4   6   27.97    2.30
   5   4  -6   28.34    2.30
  -5   4   6   25.72    2.26
  -5   4   6   23.88    2.34
  -5  -4   6   28.37    2.29
   5  -4  -6   30.15    2.30
   5   4  -5    0.31    0.15
   5   4  -5    0.10    0.13
  -5   4   5    0.22    0.14
  -5   4   5    0.22    0.17
  -5   4   5    0.41    0.09
   5   4  -5    0.34    0.13
   5  -4  -5    0.54    0.15
  -5  -4   5    0.33    0.07
  -5  -4   5    0.25    0.13
  -5   4   4  188.54   14.50
  -5   4   4  166.97   14.47
   5   4  -4  167.54   14.51
   5   4  -4  184.22   14.48
  -5   4   4  175.27   14.48
   5   4  -4  167.40   14.47
   5  -4  -4  189.85   14.48
  -5  -4   4  175.40   14.48
  -5  -4   4  182.76   14.45
   5   4  -3    4.44    0.43
  -5   4   3    4.90    0.39
   5   4  -3    5.40    0.48
   5   4  -3    5.09    0.45
   5   4  -3    3.80    0.46
  -5   4   3    4.17    0.43
  -5  -4   3    4.69    0.41
  -5  -4   3    4.77    0.43
   5  -4  -3    4.47    0.43
  -5   4   2   64.84    5.40
   5   4  -2   59.11    5.42
  -5   4   2   66.61    5.42
   5  -4  -2   71.66    5.42
  -5  -4   2   68.54    5.43
  -5  -4   2   67.09    5.42
  -5   4   1   14.31    1.10
   5   4  -1   13.14    1.14
   5   4  -1   13.51    1.13
  -5   4   1   11.44    1.13
   5  -4  -1   12.45    1.12
  -5  -4   1   14.42    1.14
  -5  -4   1   14.80    1.12
  -5  -4   1   13.85    1.13
  -5   4   0  317.07   26.45
   5   4   0  329.83   26.42
   5   4   0  340.78   26.47
  -5   4   0  332.01   26.40
   5  -4   0  327.17   26.44
  -5  -4   0  360.27   26.51
   5  -4   0  284.49   26.42
  -5  -4   0  304.22   26.39
   5   4   1   13.35    1.14
  -5   4  -1   13.58    1.10
  -5   4  -1   13.22    1.11
   5   4   1   12.81    1.12
   5  -4   1   13.45    1.10
   5  -4   1   15.00    1.17
  -5  -4  -1   14.14    1.12
  -5  -4  -1   12.38    1.13
  -5   4  -2   60.06    5.07
  -5   4  -2   67.48    5.09
  -5   4  -2   59.80    5.12
   5   4   2   67.40    5.08
   5  -4   2   57.13    5.11
  -5  -4  -2   60.53    5.09
  -5   4  -3    4.27    0.38
   5   4   3    4.61    0.45
   5   4   3    4.86    0.43
  -5   4  -3    4.52    0.48
   5   4   3    4.63    0.40
  -5   4  -3    4.59    0.42
  -5  -4  -3    4.83    0.43
  -5   4  -4  180.69   15.12
   5   4   4  197.04   15.11
   5   4   4  179.04   15.09
   5   4   4  180.96   15.07
  -5   4  -4  194.02   15.09
  -5  -4  -4  167.39   15.09
   5  -4   4  196.98   15.09
  -5   4  -5    0.46    0.16
   5   4   5    0.38    0.07
   5   4   5    0.40    0.14
   5   4   5    0.24    0.14
  -5   4  -5    0.40    0.11
  -5  -4  -5    0.35    0.14
   5  -4   5    0.32    0.14
  -5   4  -6   25.40    2.31
  -5   4  -6   29.06    2.36
   5   4   6   27.47    2.34
   5   4   6   30.15    2.33
  -5  -4  -6   26.14    2.32
   5  -4   6   29.74    2.33
   5   4   7    0.05    0.25
   5   4   7    0.17    0.15
  -5   4  -7    0.08    0.19
  -5   4  -7    0.20    0.12
   5   4   7   -0.04    0.18
   5  -4   7    0.16    0.16
  -5  -4  -7    0.20    0.15
   5   4   8   34.23    2.70
   5   4   8   28.85    2.54
   5   4   8   28.64    2.55
   5  -4   8   33.75    2.56
  -5  -4  -8   27.73    2.54
   5   4   9    0.48    0.24
   5  -4   9    0.38    0.24
  -5  -4  -9    0.40    0.20
   5   4  10    7.20    0.73
  -5  -4 -10    6.42    0.70
  -5   5   9    5.56    0.93
  -5   5   9    6.64    0.72
   5  -5  -9    6.37    0.68
  -5   5   8    0.46    0.23
   5   5  -8   -0.10    0.22
   5  -5  -8    0.47    0.22
   5   5  -7   51.06    4.22
  -5   5   7   47.01    4.02
  -5   5   7   50.24    4.06
  -5   5   7   46.22    4.11
   5  -5  -7   51.00    4.06
   5   5  -6    0.58    0.21
  -5   5   6    0.82    0.24
  -5   5   6    0.55    0.12
  -5   5   6    0.36    0.18
   5   5  -6    0.55    0.19
   5  -5  -6    0.62    0.19
   5   5  -5   23.04    2.02
  -5   5   5   23.22    1.95
  -5   5   5   26.70    2.03
   5   5  -5   24.26    2.01
  -5   5   5   21.69    1.99
  -5  -5   5   23.34    1.99
  -5  -5   5   23.77    1.94
   5  -5  -5   24.17    1.99
  -5   5   4    0.28    0.07
   5   5  -4    0.10    0.15
  -5   5   4    0.35    0.13
   5   5  -4    0.30    0.14
   5  -5  -4    0.37    0.14
  -5  -5   4    0.33    0.12
  -5  -5   4    0.34    0.08
   5   5  -3  125.02   11.19
   5   5  -3  135.62   11.18
  -5   5   3  129.14   11.18
  -5   5   3  145.14   11.16
   5  -5  -3  143.00   11.18
  -5  -5   3  138.48   11.18
  -5  -5   3  142.26   11.17
   5   5  -2    0.10    0.10
  -5   5   2    0.07    0.04
   5   5  -2    0.08    0.10
  -5   5   2    0.09    0.10
   5  -5  -2    0.04    0.08
  -5  -5   2    0.03    0.07
  -5  -5   2    0.00    0.08
   5   5  -1  104.45    9.10
  -5   5   1  119.16    9.10
  -5   5   1  111.31    9.08
   5   5  -1  107.12    9.09
  -5  -5   1  127.25    9.10
  -5  -5   1  103.74    9.10
  -5  -5   1  106.25    9.09
   5  -5  -1  112.35    9.08
   5   5   0   -0.02    0.07
   5   5   0    0.05    0.10
  -5   5   0    0.00    0.07
  -5   5   0    0.02    0.04
  -5  -5   0   -0.02    0.09
  -5  -5   0   -0.03    0.08
  -5  -5   0    0.01    0.09
   5  -5   0    0.02    0.05
   5  -5   0    0.14    0.14
   5   5   1  105.10    8.80
  -5   5  -1   97.56    8.79
  -5   5  -1  116.22    8.80
   5   5   1  102.74    8.82
  -5  -5  -1   99.26    8.81
   5  -5   1  112.94    8.85
   5  -5   1  121.79    8.79
   5   5   2    0.06    0.08
   5   5   2    0.06    0.10
  -5   5  -2   -0.02    0.05
  -5   5  -2   -0.09    0.08
   5   5   2   -0.24    0.13
  -5  -5  -2    0.01    0.10
   5  -5   2   -0.01    0.13
  -5   5  -3  120.44   10.95
   5   5   3  143.18   10.92
  -5   5  -3  124.34   10.89
   5   5   3  147.27   10.90
  -5   5  -3  133.35   10.91
   5   5   3  129.15   10.93
  -5  -5  -3  137.69   10.92
  -5   5  -4    0.25    0.12
   5   5   4    0.40    0.09
   5   5   4    0.26    0.17
   5   5   4    0.24    0.14
  -5   5  -4    0.34    0.17
  -5  -5  -4    0.34    0.14
   5   5   5   25.10    1.99
   5   5   5   23.40    1.99
   5   5   5   24.09    1.95
  -5   5  -5   21.43    2.01
  -5   5  -5   24.29    1.97
  -5  -5  -5   22.95    1.98
   5   5   6    0.84    0.21
  -5   5  -6    0.41    0.20
   5   5   6    0.72    0.19
  -5   5  -6    0.67    0.15
  -5  -5  -6    0.70    0.18
   5   5   7   52.14    3.79
   5   5   7   42.09    3.78
  -5  -5  -7   42.55    3.77
   5   5   8    0.60    0.23
   5   5   8    0.54    0.21
  -5  -5  -8    0.50    0.21
   5   5   9    6.91    0.82
   5   5   9    6.08    0.66
  -5  -5  -9    5.76    0.66
  -5   6   9    0.26    0.27
   5  -6  -9    0.15    0.24
  -5   6   8    7.30    0.72
   5  -6  -8    6.17    0.70
  -5   6   7    0.07    0.19
   5   6  -7   -0.37    0.21
   5  -6  -7   -0.13    0.20
  -5   6   6   46.86    3.92
   5   6  -6   42.63    3.93
   5   6  -6   48.87    3.94
   5  -6  -6   50.65    3.92
  -5   6   5    0.57    0.11
   5   6  -5    0.01    0.18
   5   6  -5    0.48    0.20
  -5   6   5    0.70    0.19
   5  -6  -5    0.63    0.18
  -5   6   4   27.16    2.13
   5   6  -4   24.69    2.19
  -5   6   4   23.61    2.16
   5  -6  -4   29.16    2.17
  -5  -6   4   24.12    2.17
  -5  -6   4   26.28    2.13
  -5   6   3    3.74    0.40
   5   6  -3    3.82    0.41
  -5   6   3    3.67    0.34
  -5  -6   3    4.23    0.36
  -5  -6   3    3.81    0.39
   5  -6  -3    3.83    0.39
  -5   6   2  100.05    8.49
  -5   6   2  100.13    8.52
   5   6  -2  109.01    8.54
   5   6  -2  108.70    8.53
  -5  -6   2  103.60    8.53
  -5  -6   2  104.36    8.51
   5  -6  -2  104.56    8.52
  -5   6   1    9.06    0.75
   5   6  -1    8.46    0.78
  -5   6   1    8.85    0.78
   5   6  -1   10.26    0.80
  -5  -6   1    9.58    0.78
  -5  -6   1    9.30    0.79
   5  -6  -1    8.51    0.76
  -5  -6   1    8.16    0.77
   5   6   0   52.44    4.00
  -5   6   0   47.07    3.99
  -5   6   0   44.30    3.97
   5   6   0   54.10    4.01
  -5  -6   0   49.08    4.00
  -5  -6   0   41.63    4.00
   5  -6   0   49.54    3.98
  -5  -6   0   51.14    4.00
  -5   6  -1    9.88    0.79
   5   6   1    8.83    0.81
   5   6   1    9.24    0.79
  -5   6  -1    8.51    0.80
   5  -6   1    9.85    0.76
   5  -6   1    8.76    0.76
  -5  -6  -1    8.79    0.80
   5   6   2  122.65    8.83
   5   6   2  110.31    8.81
  -5   6  -2   96.81    8.80
  -5   6  -2  105.46    8.82
  -5  -6  -2  104.74    8.82
  -5   6  -3    3.48    0.32
   5   6   3    3.91    0.35
   5   6   3    2.99    0.40
  -5   6  -3    3.53    0.37
   5   6   3    3.24    0.38
  -5  -6  -3    3.68    0.38
   5   6   4   25.43    2.18
   5   6   4   27.91    2.18
  -5   6  -4   21.43    2.20
   5   6   4   29.62    2.14
  -5  -6  -4   23.61    2.16
   5   6   5    0.38    0.18
   5   6   5    0.42    0.19
  -5   6  -5    0.58    0.22
  -5  -6  -5    0.72    0.19
   5   6   6   49.73    3.93
   5   6   6   49.87    3.93
  -5  -6  -6   42.62    3.91
   5   6   7    0.13    0.21
   5   6   7   -0.07    0.18
  -5  -6  -7   -0.24    0.17
   5   6   8    6.64    0.70
   5   6   8    7.53    0.72
  -5  -6  -8    6.32    0.70
   5   6   9    0.54    0.24
   5   6   9    0.16    0.24
  -5  -6  -9    0.03    0.23
  -5   7   8   -0.06    0.24
   5  -7  -8   -0.07    0.23
  -5   7   7    5.44    0.62
   5  -7  -7    5.38    0.61
   5   7  -6    0.39    0.20
  -5   7   6   -0.02    0.17
   5  -7  -6    0.06    0.21
   5   7  -5   41.46    3.63
  -5   7   5   40.10    3.62
   5  -7  -5   49.57    3.63
   5   7  -4    0.31    0.15
  -5   7   4    0.28    0.16
   5  -7  -4    0.35    0.16
   5   7  -3   23.40    1.94
  -5   7   3   22.01    1.93
   5  -7  -3   22.21    1.92
  -5  -7   3   23.92    1.90
   5   7  -2    0.19    0.14
  -5   7   2    0.22    0.09
  -5   7   2    0.17    0.14
  -5  -7   2    0.10    0.14
  -5  -7   2    0.10    0.10
   5  -7  -2    0.21    0.12
  -5   7   1   60.74    5.08
  -5   7   1   60.26    5.06
   5   7  -1   63.19    5.10
  -5  -7   1   54.63    5.07
  -5  -7   1   61.88    5.09
   5  -7  -1   62.58    5.07
  -5  -7   1   70.75    5.09
   5   7   0   -0.08    0.14
  -5   7   0   -0.03    0.11
   5  -7   0   -0.09    0.07
  -5  -7   0    0.03    0.13
  -5  -7   0   -0.05    0.11
   5   7   1   55.87    5.00
  -5   7  -1   67.70    4.99
   5   7   1   64.49    4.99
  -5  -7  -1   55.14    4.99
   5   7   2   -0.04    0.13
   5   7   2    0.08    0.11
   5   7   2   -0.26    0.16
  -5   7  -2    0.19    0.10
  -5  -7  -2    0.06    0.13
   5   7   3   19.82    1.93
   5   7   3   24.45    1.89
   5   7   3   21.54    1.92
  -5  -7  -3   24.33    1.91
   5   7   4    0.24    0.12
   5   7   4   -0.10    0.19
   5   7   4    0.17    0.19
  -5  -7  -4    0.09    0.17
   5   7   5   46.98    3.97
   5   7   5   55.23    3.99
  -5  -7  -5   41.96    3.95
   5   7   6   -0.09    0.20
   5   7   6   -0.03    0.21
  -5  -7  -6   -0.06    0.18
   5   7   7    6.04    0.65
   5   7   7    6.50    0.68
  -5  -7  -7    5.14    0.64
   5   7   8    0.26    0.25
   5   7   8   -0.13    0.23
  -5  -7  -8    0.16    0.24
  -5   8   7    0.06    0.25
   5  -8  -7   -0.02    0.23
  -5   8   6    6.70    0.73
   5  -8  -6    7.27    0.72
  -5   8   5    0.55    0.21
   5   8  -5    0.45    0.21
   5  -8  -5    0.28    0.20
   5   8  -4   33.44    2.62
  -5   8   4   30.82    2.62
   5  -8  -4   29.38    2.60
   5   8  -3    1.72    0.26
  -5   8   3    1.66    0.27
  -5  -8   3    1.78    0.22
   5  -8  -3    1.69    0.25
   5   8  -2   22.95    1.90
  -5   8   2   22.85    1.90
   5  -8  -2   22.95    1.87
  -5  -8   2   21.00    1.86
   5   8  -1    2.92    0.35
  -5   8   1    2.60    0.34
  -5  -8   1    2.56    0.31
   5  -8  -1    2.46    0.29
  -5   8   0   34.89    2.97
   5   8   0   36.85    2.99
   5  -8   0   37.59    2.94
  -5  -8   0   33.94    2.97
  -5   8  -1    2.45    0.32
   5   8   1    3.10    0.37
  -5  -8  -1    2.62    0.34
  -5   8  -2   23.21    1.93
   5   8   2   24.73    1.97
  -5  -8  -2   21.59    1.95
   5   8   3    1.72    0.29
   5   8   3    1.41    0.32
  -5  -8  -3    1.87    0.27
   5   8   4   30.13    2.57
   5   8   4   34.90    2.58
  -5  -8  -4   26.58    2.54
   5   8   5    0.20    0.23
   5   8   5    0.58    0.26
  -5  -8  -5    0.41    0.22
   5   8   6    6.96    0.73
   5   8   6    6.55    0.69
  -5  -8  -6    6.20    0.69
   5   8   7   -0.05    0.23
   5   8   7    0.27    0.26
  -5  -8  -7    0.05    0.24
  -5   9   6    0.09    0.25
   5  -9  -6    0.06    0.24
  -5   9   5    6.27    0.67
   5  -9  -5    5.93    0.64
   5   9  -4    0.64    0.22
  -5   9   4    0.26    0.23
   5  -9  -4    0.27    0.19
   5   9  -3   22.62    1.89
  -5   9   3   20.44    1.88
   5  -9  -3   22.89    1.86
   5   9  -2    0.30    0.20
  -5   9   2    0.08    0.18
  -5  -9   2    0.09    0.12
   5  -9  -2    0.12    0.14
  -5   9   1   18.22    1.52
   5   9  -1   18.50    1.54
   5  -9  -1   17.98    1.48
  -5  -9   1   16.26    1.49
   5   9   0   -0.06    0.19
  -5   9   0    0.03    0.15
  -5  -9   0    0.01    0.15
  -5   9  -1   17.56    1.51
   5   9   1   18.20    1.54
  -5  -9  -1   17.32    1.51
   5   9   2    0.34    0.21
   5   9   2   -0.01    0.21
  -5  -9  -2    0.04    0.18
   5   9   3   18.74    1.77
   5   9   3   21.87    1.77
  -5  -9  -3   20.27    1.74
   5   9   4    0.23    0.23
   5   9   4    0.22    0.24
  -5  -9  -4    0.20    0.20
   5   9   5    6.31    0.71
   5   9   5    7.26    0.74
  -5  -9  -5    6.01    0.69
   5   9   6    0.14    0.28
   5   9   6    0.46    0.26
  -5  -9  -6    0.11    0.24
  -5  10   4    6.67    0.74
   5 -10  -4    7.02    0.69
  -5  10   3    0.73    0.25
   5  10  -3    0.71    0.25
   5 -10  -3    0.24    0.19
  -5  10   2   10.78    1.02
   5  10  -2   12.52    1.04
   5 -10  -2   10.22    0.96
  -5  10   1    0.51    0.22
   5  10  -1    0.45    0.24
  -5 -10   1    0.33    0.16
  -5  10   0   14.43    1.26
   5  10   0   15.63    1.29
  -5 -10   0   13.08    1.23
   5  10   1    0.37    0.25
   5  10   1    0.14    0.24
  -5 -10  -1    0.45    0.19
   5  10   2   10.33    1.02
  -5 -10  -2   11.00    0.99
   5  10   3    0.51    0.28
   5  10   3    0.31    0.27
  -5 -10  -3    0.59    0.23
   5  10   4    6.97    0.77
   5  10   4    7.86    0.81
  -5 -10  -4    6.65    0.75
   6   0 -10    6.34    0.64
   6   0  -9   -0.03    0.15
  -6   0   9    0.06    0.23
  -6   0   8   14.75    1.39
   6   0  -8   15.65    1.29
  -6   0   8   13.48    1.29
  -6   0   8   16.53    1.32
  -6   0   7    0.00    0.15
  -6   0   7   -0.23    0.17
  -6   0   7   -0.22    0.13
   6   0  -7   -0.03    0.12
   6   0  -6   22.48    1.82
  -6   0   6   21.62    1.89
  -6   0   6   24.09    1.85
   6   0  -6   22.87    1.89
  -6   0   6   18.59    1.84
   6   0  -5    0.00    0.14
   6   0  -5   -0.03    0.08
  -6   0   5   -0.04    0.12
  -6   0   5   -0.09    0.11
  -6   0   5   -0.02    0.12
   6   0  -4  139.43   11.23
   6   0  -4  127.83   11.27
  -6   0   4  130.03   11.25
  -6   0   4  138.47   11.26
  -6   0   4  152.71   11.26
   6   0  -3    0.04    0.07
   6   0  -3   -0.12    0.10
  -6   0   3   -0.11    0.09
  -6   0   3    0.00    0.07
  -6   0   3   -0.18    0.10
  -6   0   2   59.97    4.46
   6   0  -2   53.78    4.46
   6   0  -2   55.83    4.43
  -6   0   2   47.93    4.42
  -6   0   1    0.03    0.08
   6   0  -1   -0.03    0.06
   6   0  -1   -0.02    0.08
  -6   0   1   -0.06    0.08
  -6   0   0  511.61   41.42
  -6   0   0  501.75   41.36
   6   0   0  533.20   41.33
   6   0   0  524.45   41.42
   6   0   0  481.48   41.36
   6   0   0  511.58   41.35
  -6   0   0  487.08   41.36
  -6   0  -1   -0.01    0.04
   6   0   1    0.03    0.05
  -6   0  -1   -0.06    0.05
   6   0   1    0.00    0.08
  -6   0  -1   -0.04    0.06
  -6   0  -1   -0.07    0.07
   6   0   1   -0.03    0.06
   6   0   2   57.37    4.43
   6   0   2   55.46    4.42
  -6   0  -2   48.24    4.42
  -6   0  -2   45.67    4.42
   6   0   2   57.71    4.41
  -6   0  -2   60.61    4.46
   6   0   3   -0.08    0.07
   6   0   3   -0.06    0.13
  -6   0  -3    0.06    0.04
  -6   0  -3    0.02    0.05
   6   0   4  117.20   10.80
  -6   0  -4  129.64   10.72
   6   0   4  147.73   10.74
   6   0   5    0.00    0.10
   6   0   5   -0.02    0.17
  -6   0  -5   -0.02    0.05
  -6   0  -5    0.02    0.06
  -6   0  -6   21.31    1.82
   6   0   6   21.83    1.97
   6   0   6   23.18    1.85
   6   0   7    0.14    0.27
  -6   0  -7   -0.06    0.08
   6   0   7   -0.01    0.14
   6   0   8   15.20    1.45
   6   0   8   14.17    1.26
   6   0   9    0.12    0.18
   6   0   9    0.04    0.31
   6   0  10    7.11    0.74
   6   1 -10    0.06    0.17
   6  -1 -10    0.20    0.20
  -6   1   9    7.50    0.88
   6   1  -9    7.63    0.73
  -6  -1   9    8.72    0.85
   6  -1  -9    7.88    0.75
  -6   1   8    0.78    0.29
   6   1  -8    0.93    0.19
  -6   1   8    0.79    0.24
  -6   1   8    0.96    0.24
  -6  -1   8    1.18    0.16
  -6  -1   8    0.80    0.21
   6  -1  -8    0.95    0.19
  -6  -1   8    1.21    0.28
  -6   1   7   25.25    2.20
   6   1  -7   24.23    2.16
  -6   1   7   25.70    2.26
  -6   1   7   22.86    2.19
   6  -1  -7   25.32    2.17
  -6  -1   7   27.76    2.16
  -6  -1   7   27.55    2.19
  -6  -1   7   29.60    2.23
  -6   1   6    3.41    0.43
   6   1  -6    3.39    0.36
   6   1  -6    3.46    0.43
  -6   1   6    4.13    0.49
  -6   1   6    3.04    0.41
   6  -1  -6    3.50    0.37
  -6  -1   6    3.70    0.37
  -6  -1   6    4.23    0.44
   6  -1  -6    3.42    0.43
  -6  -1   6    4.17    0.41
   6   1  -5   41.63    3.43
   6   1  -5   41.56    3.39
  -6   1   5   44.62    3.45
  -6  -1   5   44.37    3.42
   6  -1  -5   37.62    3.39
   6  -1  -5   40.34    3.44
  -6  -1   5   44.14    3.41
  -6  -1   5   36.59    3.40
  -6   1   4    6.87    0.62
   6   1  -4    5.88    0.58
   6   1  -4    6.87    0.61
  -6   1   4    7.12    0.63
  -6  -1   4    5.79    0.60
   6  -1  -4    7.31    0.58
   6  -1  -4    6.38    0.62
  -6  -1   4    7.11    0.59
  -6  -1   4    6.64    0.60
   6   1  -3  108.95    9.57
  -6   1   3  106.74    9.59
   6   1  -3  119.00    9.59
  -6   1   3  120.02    9.60
   6  -1  -3  129.13    9.56
   6  -1  -3  105.89    9.57
   6  -1  -3  116.63    9.60
  -6  -1   3  127.56    9.59
  -6  -1   3  122.66    9.57
   6   1  -2    2.73    0.28
   6   1  -2    2.69    0.29
   6   1  -2    3.24    0.25
  -6   1   2    2.97    0.31
  -6   1   2    2.73    0.30
   6  -1  -2    2.89    0.27
   6  -1  -2    3.00    0.25
  -6  -1   2    2.13    0.29
   6   1  -1  120.57    9.08
   6   1  -1   95.68    9.09
  -6   1   1  121.87    9.09
  -6   1   1  107.20    9.10
  -6  -1   1  107.87    9.08
  -6  -1   1  106.30    9.09
   6  -1  -1  119.69    9.08
   6   1   0   -0.08    0.06
   6   1   0   -0.06    0.05
  -6   1   0   -0.08    0.05
  -6   1   0    0.07    0.07
  -6   1   0   -0.01    0.05
  -6  -1   0   -0.03    0.05
   6  -1   0   -0.01    0.06
  -6  -1   0    0.06    0.06
   6  -1   0   -0.07    0.06
   6  -1   0   -0.03    0.04
  -6   1  -1  101.56    9.11
  -6   1  -1  100.64    9.11
  -6   1  -1   96.07    9.13
   6   1   1  116.99    9.11
  -6   1  -1  117.73    9.11
   6   1   1  124.65    9.12
   6   1   1  105.64    9.11
   6  -1   1  111.47    9.10
   6  -1   1  107.82    9.12
   6  -1   1  127.37    9.14
  -6  -1  -1  121.25    9.11
   6  -1   1  110.80    9.11
   6  -1   1  111.08    9.10
   6   1   2    2.58    0.28
   6   1   2    3.15    0.26
   6   1   2    3.10    0.26
  -6   1  -2    2.41    0.32
   6   1   2    3.21    0.31
  -6   1  -2    2.87    0.27
  -6   1  -2    2.54    0.26
   6  -1   2    2.49    0.26
  -6  -1  -2    2.82    0.25
  -6  -1  -2    2.74    0.26
   6  -1   2    3.18    0.33
   6   1   3  111.86    9.37
  -6   1  -3  124.60    9.37
   6   1   3  114.66    9.38
   6   1   3  119.82    9.42
  -6   1  -3  120.49    9.44
   6  -1   3  107.48    9.37
  -6  -1  -3  110.87    9.37
   6  -1   3  110.33    9.43
   6   1   4    7.24    0.70
   6   1   4    7.23    0.62
  -6   1  -4    7.31    0.59
   6   1   4    7.17    0.60
   6   1   4    6.92    0.63
  -6   1  -4    6.92    0.59
  -6  -1  -4    6.80    0.60
   6  -1   4    7.01    0.70
  -6  -1  -4    7.12    0.60
   6  -1   4    6.83    0.62
   6   1   5   39.48    3.33
   6   1   5   41.80    3.41
   6   1   5   34.64    3.29
  -6   1  -5   40.62    3.30
  -6   1  -5   41.50    3.30
  -6  -1  -5   40.83    3.31
   6  -1   5   41.60    3.32
   6  -1   5   43.55    3.42
  -6   1  -6    3.28    0.33
   6   1   6    3.75    0.53
  -6   1  -6    3.88    0.33
   6   1   6    3.72    0.40
   6  -1   6    4.07    0.38
  -6  -1  -6    3.67    0.35
   6  -1   6    3.27    0.49
   6   1   7   24.23    2.08
   6   1   7   22.46    2.19
  -6  -1  -7   24.74    2.05
   6  -1   7   25.67    2.08
   6  -1   7   26.57    2.21
   6   1   8    0.68    0.32
   6   1   8    1.13    0.23
   6  -1   8    1.09    0.34
  -6  -1  -8    1.03    0.17
   6  -1   8    0.81    0.21
   6   1   9    7.60    0.75
   6   1   9    7.92    1.00
   6  -1   9    7.92    0.77
   6  -1   9    8.39    0.97
   6   1  10    0.07    0.23
   6  -1  10    0.02    0.22
   6  -2 -10    4.46    0.52
  -6   2   9    0.10    0.23
  -6   2   9    0.19    0.28
   6   2  -9   -0.02    0.14
  -6   2   9    0.07    0.16
   6  -2  -9   -0.05    0.17
  -6  -2   9   -0.18    0.23
  -6   2   8   13.04    1.21
  -6   2   8   10.77    1.10
   6   2  -8   12.17    1.04
  -6   2   8   11.35    1.08
  -6   2   8   11.38    1.03
  -6  -2   8   12.91    1.10
   6  -2  -8   12.18    1.05
  -6   2   7    0.03    0.23
  -6   2   7    0.18    0.20
   6   2  -7    0.14    0.12
  -6   2   7   -0.06    0.15
  -6   2   7    0.00    0.10
  -6  -2   7    0.13    0.09
  -6  -2   7    0.03    0.17
  -6  -2   7    0.15    0.14
   6  -2  -7    0.13    0.14
   6   2  -6   41.50    3.62
  -6   2   6   44.74    3.61
  -6   2   6   42.23    3.66
  -6   2   6   38.36    3.66
  -6   2   6   46.91    3.70
   6   2  -6   46.07    3.65
  -6  -2   6   46.60    3.64
  -6  -2   6   47.04    3.65
   6  -2  -6   43.12    3.63
  -6   2   5   -0.07    0.12
  -6   2   5   -0.09    0.07
   6   2  -5   -0.02    0.10
   6   2  -5   -0.16    0.08
   6   2  -5   -0.04    0.12
  -6   2   5    0.28    0.16
  -6  -2   5    0.01    0.08
  -6  -2   5    0.04    0.10
   6  -2  -5   -0.05    0.10
  -6  -2   5   -0.10    0.11
  -6   2   4   30.26    2.59
   6   2  -4   33.58    2.61
   6   2  -4   29.76    2.61
  -6   2   4   32.80    2.62
  -6   2   4   29.94    2.64
   6   2  -4   32.96    2.63
   6  -2  -4   29.69    2.60
  -6  -2   4   31.90    2.62
  -6  -2   4   33.47    2.61
   6   2  -3    1.64    0.20
   6   2  -3    1.76    0.21
  -6   2   3    1.36    0.19
  -6   2   3    1.30    0.22
   6   2  -3    1.89    0.22
  -6  -2   3    2.01    0.20
   6  -2  -3    1.88    0.17
  -6  -2   3    1.53    0.21
   6  -2  -3    1.70    0.19
   6   2  -2  240.61   21.09
   6   2  -2  253.49   21.10
  -6   2   2  259.61   21.06
  -6   2   2  249.58   21.10
   6  -2  -2  271.71   21.05
   6  -2  -2  263.93   21.13
  -6  -2   2  263.88   21.11
  -6  -2   2  265.17   21.05
   6   2  -1    2.22    0.28
  -6   2   1    2.54    0.25
   6   2  -1    2.57    0.25
  -6  -2   1    2.49    0.25
   6  -2  -1    2.66    0.25
  -6  -2   1    3.15    0.26
   6   2   0   56.87    4.71
  -6   2   0   52.84    4.71
  -6  -2   0   57.05    4.71
   6  -2   0   59.64    4.71
   6  -2   0   58.20    4.69
  -6  -2   0   61.38    4.72
   6   2   1    2.60    0.29
  -6   2  -1    2.59    0.28
  -6   2  -1    2.39    0.29
  -6   2  -1    2.57    0.23
   6   2   1    2.79    0.25
  -6   2  -1    2.71    0.24
   6   2   1    2.99    0.27
   6  -2   1    2.65    0.24
  -6  -2  -1    2.84    0.25
   6  -2   1    2.83    0.23
   6  -2   1    2.97    0.29
  -6  -2  -1    2.50    0.26
  -6   2  -2  255.98   21.29
   6   2   2  243.31   21.31
   6   2   2  271.33   21.30
  -6   2  -2  271.68   21.35
  -6   2  -2  227.14   21.28
  -6   2  -2  258.94   21.31
   6  -2   2  294.35   21.33
  -6  -2  -2  264.81   21.29
  -6  -2  -2  265.48   21.34
   6   2   3    1.88    0.23
  -6   2  -3    1.71    0.18
  -6   2  -3    2.02    0.23
  -6   2  -3    1.82    0.16
   6   2   3    1.73    0.20
  -6   2  -3    1.70    0.29
   6   2   3    1.84    0.16
  -6  -2  -3    1.39    0.19
   6  -2   3    1.98    0.20
  -6  -2  -3    1.68    0.20
   6  -2   3    1.86    0.28
  -6   2  -4   28.03    2.59
  -6   2  -4   34.33    2.57
   6   2   4   29.53    2.59
   6   2   4   33.25    2.62
  -6   2  -4   31.65    2.61
   6   2   4   33.97    2.66
   6  -2   4   32.98    2.68
   6  -2   4   32.23    2.60
  -6  -2  -4   28.78    2.59
   6   2   5    0.05    0.08
   6   2   5   -0.15    0.11
  -6   2  -5   -0.05    0.06
   6   2   5   -0.01    0.17
  -6  -2  -5    0.05    0.09
   6  -2   5   -0.01    0.11
   6  -2   5   -0.01    0.17
   6   2   6   47.71    3.71
   6   2   6   46.62    3.68
   6   2   6   47.46    3.80
  -6   2  -6   43.44    3.68
   6  -2   6   45.51    3.70
  -6  -2  -6   39.62    3.69
   6  -2   6   44.51    3.79
   6   2   7    0.15    0.10
   6   2   7    0.03    0.24
   6   2   7    0.02    0.15
   6  -2   7    0.14    0.16
  -6  -2  -7    0.00    0.11
   6  -2   7    0.13    0.24
   6   2   8   11.02    1.01
   6   2   8   10.29    1.15
   6  -2   8   11.43    1.12
  -6  -2  -8   10.68    0.97
   6  -2   8   11.89    1.00
   6   2   9    0.28    0.20
   6   2   9    0.15    0.39
   6  -2   9   -0.02    0.19
   6  -2   9    0.18    0.32
   6   2  10    3.96    0.50
   6  -2  10    4.15    0.50
  -6   3  10    0.23    0.26
  -6   3  10    0.09    0.18
   6  -3 -10    0.03    0.22
  -6   3   9   10.45    1.07
  -6   3   9    9.27    0.83
  -6   3   9    8.09    0.93
   6  -3  -9    9.41    0.87
  -6   3   8    0.91    0.33
   6   3  -8    0.72    0.18
  -6   3   8    0.82    0.26
  -6   3   8    0.62    0.16
  -6   3   8    0.51    0.26
   6  -3  -8    0.84    0.21
  -6   3   7   10.06    0.90
  -6   3   7    9.46    0.83
  -6   3   7    8.43    0.90
   6   3  -7   10.02    0.86
   6  -3  -7    9.95    0.87
  -6  -3   7    9.72    0.87
   6   3  -6    1.68    0.22
  -6   3   6    2.28    0.30
  -6   3   6    1.68    0.21
  -6   3   6    1.80    0.25
  -6  -3   6    1.45    0.22
  -6  -3   6    1.49    0.18
   6  -3  -6    1.35    0.22
  -6   3   5   58.23    4.92
  -6   3   5   54.37    4.87
   6   3  -5   54.70    4.87
   6   3  -5   55.08    4.90
  -6   3   5   57.51    4.85
   6   3  -5   57.90    4.87
  -6  -3   5   61.50    4.87
   6  -3  -5   65.30    4.87
  -6  -3   5   68.70    4.85
   6   3  -4    1.82    0.23
   6   3  -4    1.86    0.24
  -6   3   4    1.85    0.27
   6   3  -4    1.58    0.24
  -6   3   4    1.76    0.17
  -6   3   4    1.46    0.21
  -6  -3   4    1.73    0.22
   6  -3  -4    1.69    0.21
  -6  -3   4    1.73    0.20
   6   3  -3   44.82    3.36
  -6   3   3   40.55    3.31
   6   3  -3   38.63    3.33
  -6   3   3   36.20    3.33
   6  -3  -3   39.91    3.31
  -6  -3   3   42.99    3.33
   6  -3  -3   40.97    3.33
  -6  -3   3   40.48    3.34
   6   3  -2    1.83    0.24
   6   3  -2    1.74    0.19
   6   3  -2    1.74    0.19
  -6   3   2    1.57    0.20
   6  -3  -2    1.79    0.19
  -6  -3   2    1.52    0.19
  -6  -3   2    1.83    0.20
   6   3  -1  105.48    8.47
  -6   3   1   98.68    8.47
  -6  -3   1  105.87    8.48
   6  -3  -1  105.55    8.47
  -6   3   0   -0.03    0.05
   6   3   0    0.00    0.06
   6   3   0    0.11    0.08
  -6  -3   0   -0.01    0.06
  -6  -3   0   -0.11    0.04
  -6  -3   0   -0.06    0.06
   6  -3   0    0.03    0.05
   6  -3   0   -0.10    0.09
  -6   3  -1  113.58    9.34
   6   3   1  122.57    9.36
  -6   3  -1  130.69    9.38
   6   3   1   98.66    9.34
  -6   3  -1  103.34    9.35
   6  -3   1  119.33    9.34
  -6  -3  -1  112.52    9.35
  -6  -3  -1  107.25    9.35
  -6  -3  -1  115.96    9.34
   6  -3   1  124.00    9.38
   6   3   2    1.97    0.20
  -6   3  -2    1.85    0.24
  -6   3  -2    1.27    0.21
   6   3   2    1.58    0.16
  -6   3  -2    1.64    0.15
   6   3   2    0.95    0.20
  -6  -3  -2    1.43    0.19
   6  -3   2    1.73    0.17
  -6  -3  -2    1.54    0.16
   6  -3   2    1.40    0.20
   6   3   3   41.82    3.47
   6   3   3   37.60    3.50
   6   3   3   44.20    3.49
  -6   3  -3   42.21    3.51
  -6   3  -3   44.57    3.46
  -6   3  -3   44.65    3.49
   6  -3   3   43.21    3.49
  -6  -3  -3   41.42    3.49
  -6   3  -4    1.90    0.24
  -6   3  -4    1.54    0.19
   6   3   4    1.54    0.15
   6   3   4    1.85    0.22
   6   3   4    1.63    0.23
   6  -3   4    1.74    0.21
  -6  -3  -4    1.60    0.21
   6  -3   4    1.66    0.30
   6   3   5   63.96    5.06
  -6   3  -5   59.74    5.08
  -6   3  -5   65.16    5.05
   6   3   5   64.56    5.08
  -6  -3  -5   62.73    5.07
   6  -3   5   53.32    5.13
   6  -3   5   62.34    5.07
   6   3   6    1.53    0.21
   6   3   6    1.86    0.28
  -6   3  -6    1.77    0.21
  -6   3  -6    1.95    0.26
   6   3   6    1.95    0.36
  -6  -3  -6    1.58    0.23
   6  -3   6    1.59    0.36
   6  -3   6    1.84    0.25
   6   3   7   10.26    0.87
  -6   3  -7   10.55    0.91
   6   3   7    9.43    1.00
   6   3   7   10.93    0.90
   6  -3   7    9.73    0.90
   6  -3   7    9.13    1.00
  -6  -3  -7    9.36    0.87
   6   3   8    0.65    0.21
   6   3   8    0.58    0.34
   6  -3   8    0.73    0.20
  -6  -3  -8    0.66    0.18
   6  -3   8    0.62    0.34
   6   3   9    9.26    0.86
   6  -3   9    8.66    0.83
  -6  -3  -9    8.65    0.82
   6   3  10   -0.03    0.22
   6  -3  10    0.19    0.25
  -6   4  10    2.84    0.47
   6  -4 -10    2.88    0.41
  -6   4   9    0.22    0.27
  -6   4   9    0.44    0.36
   6  -4  -9    0.23    0.21
  -6   4   8   13.80    1.13
   6   4  -8   13.38    1.20
  -6   4   8   13.43    1.20
   6  -4  -8   11.82    1.16
  -6   4   7    0.42    0.21
  -6   4   7    0.10    0.11
   6   4  -7    0.17    0.16
  -6   4   7    0.21    0.18
   6  -4  -7    0.18    0.18
  -6   4   6   12.53    1.14
   6   4  -6   10.63    1.08
  -6   4   6   12.47    1.09
  -6   4   6   12.89    1.04
   6   4  -6   13.20    1.10
  -6  -4   6   12.49    1.08
  -6  -4   6   11.98    1.02
   6  -4  -6   12.69    1.08
  -6   4   5    0.14    0.08
  -6   4   5    0.07    0.12
  -6   4   5    0.33    0.18
   6   4  -5   -0.01    0.12
   6   4  -5    0.08    0.15
   6  -4  -5    0.09    0.13
  -6  -4   5    0.07    0.07
  -6  -4   5    0.12    0.13
  -6   4   4   66.25    5.73
  -6   4   4   74.64    5.70
   6   4  -4   81.76    5.73
   6   4  -4   70.16    5.72
   6   4  -4   58.20    5.75
   6   4  -4   75.06    5.77
  -6  -4   4   66.08    5.71
   6  -4  -4   69.48    5.72
  -6  -4   4   67.29    5.73
   6   4  -3    1.75    0.21
  -6   4   3    1.71    0.22
  -6   4   3    1.83    0.16
   6   4  -3    1.64    0.24
   6   4  -3    1.61    0.21
   6   4  -3    1.46    0.24
  -6  -4   3    1.80    0.20
  -6  -4   3    1.77    0.22
   6  -4  -3    1.74    0.22
  -6  -4   3    1.69    0.20
  -6   4   2   28.61    2.40
   6   4  -2   29.00    2.40
  -6  -4   2   28.57    2.40
   6  -4  -2   27.84    2.40
  -6  -4   2   30.38    2.41
  -6  -4   2   30.39    2.40
   6   4  -1    6.77    0.58
   6   4  -1    5.65    0.60
  -6   4   1    7.14    0.59
  -6  -4   1    7.42    0.57
  -6  -4   1    7.00    0.59
   6  -4  -1    6.49    0.57
  -6  -4   1    6.29    0.58
   6   4   0  129.96   10.46
  -6   4   0  123.99   10.46
  -6   4   0  144.74   10.45
   6   4   0  138.29   10.48
  -6  -4   0  129.65   10.46
   6  -4   0  126.87   10.45
   6  -4   0  116.47   10.49
  -6  -4   0  129.06   10.46
  -6  -4   0  115.33   10.46
  -6   4  -1    6.73    0.58
   6   4   1    6.59    0.58
   6   4   1    6.74    0.61
  -6   4  -1    6.60    0.56
  -6  -4  -1    6.51    0.58
   6  -4   1    8.29    0.64
  -6  -4  -1    6.77    0.60
   6   4   2   33.41    2.61
   6   4   2   31.85    2.59
  -6   4  -2   32.72    2.58
  -6  -4  -2   28.37    2.60
   6  -4   2   31.40    2.63
  -6   4  -3    1.63    0.26
  -6   4  -3    1.72    0.16
   6   4   3    1.48    0.24
  -6   4  -3    1.75    0.21
   6   4   3    1.94    0.23
   6   4   3    1.77    0.18
   6  -4   3    1.77    0.20
  -6  -4  -3    1.27    0.19
  -6   4  -4   65.37    5.91
  -6   4  -4   69.12    5.88
   6   4   4   70.66    5.89
   6   4   4   73.47    5.86
   6   4   4   72.74    5.91
  -6  -4  -4   69.58    5.89
   6  -4   4   82.20    5.89
  -6   4  -5    0.14    0.15
   6   4   5    0.21    0.14
   6   4   5    0.07    0.17
   6   4   5    0.15    0.05
  -6   4  -5    0.14    0.10
  -6  -4  -5    0.11    0.13
   6  -4   5    0.05    0.11
  -6   4  -6   12.66    1.07
   6   4   6   11.93    1.09
  -6   4  -6   13.26    1.12
   6   4   6   11.78    1.11
   6  -4   6   12.07    1.09
  -6  -4  -6   13.94    1.10
   6   4   7    0.10    0.25
   6   4   7   -0.12    0.17
   6   4   7    0.08    0.15
  -6  -4  -7    0.26    0.16
   6  -4   7    0.10    0.18
   6   4   8   13.15    1.16
   6   4   8   12.57    1.32
   6   4   8   13.70    1.19
  -6  -4  -8   12.90    1.16
   6  -4   8   13.73    1.18
   6   4   9    0.20    0.24
  -6  -4  -9    0.12    0.20
   6  -4   9    0.29    0.25
   6   4  10    3.18    0.44
   6  -4  10    3.60    0.44
  -6  -4 -10    2.83    0.41
  -6   5   9    2.55    0.58
  -6   5   9    3.11    0.45
   6  -5  -9    3.10    0.42
  -6   5   8    0.24    0.23
   6   5  -8   -0.20    0.22
   6  -5  -8    0.17    0.20
   6   5  -7   20.19    1.72
  -6   5   7   20.03    1.71
   6   5  -7   18.68    1.73
   6  -5  -7   20.34    1.71
  -6   5   6    0.09    0.15
   6   5  -6    0.37    0.19
  -6   5   6    0.32    0.20
   6   5  -6    0.27    0.19
  -6   5   6    0.09    0.10
   6  -5  -6    0.10    0.17
   6   5  -5    9.55    0.80
  -6   5   5    8.23    0.78
  -6   5   5    8.97    0.73
  -6   5   5    9.69    0.83
   6   5  -5    7.87    0.81
  -6  -5   5    7.61    0.76
  -6  -5   5    8.22    0.72
   6  -5  -5    8.65    0.78
   6   5  -4    0.07    0.15
   6   5  -4    0.20    0.14
  -6   5   4    0.09    0.06
  -6   5   4    0.01    0.12
  -6  -5   4    0.10    0.08
   6  -5  -4    0.11    0.12
  -6  -5   4    0.11    0.11
  -6   5   3   55.04    4.65
  -6   5   3   58.40    4.61
   6   5  -3   54.15    4.64
   6  -5  -3   58.42    4.64
  -6  -5   3   57.22    4.65
  -6  -5   3   56.22    4.63
   6   5  -2   -0.05    0.10
   6   5  -2   -0.01    0.10
  -6   5   2   -0.02    0.09
  -6   5   2   -0.02    0.03
  -6  -5   2   -0.03    0.08
   6  -5  -2    0.06    0.09
  -6  -5   2    0.02    0.10
   6   5  -1   40.57    3.25
   6   5  -1   37.78    3.23
  -6   5   1   36.65    3.23
  -6  -5   1   41.32    3.24
  -6  -5   1   36.40    3.23
   6  -5  -1   37.00    3.22
  -6  -5   1   45.62    3.22
   6   5   0    0.20    0.11
  -6   5   0    0.01    0.03
  -6   5   0    0.01    0.08
   6   5   0    0.06    0.09
   6  -5   0   -0.01    0.06
  -6  -5   0   -0.07    0.08
  -6  -5   0   -0.03    0.09
   6  -5   0    0.00    0.11
  -6  -5   0   -0.04    0.08
   6   5   1   38.87    3.31
   6   5   1   41.63    3.30
  -6   5  -1   41.02    3.28
  -6   5  -1   39.62    3.29
  -6  -5  -1   34.87    3.30
  -6  -5  -1   38.84    3.30
   6  -5   1   47.46    3.35
   6   5   2   -0.12    0.15
  -6   5  -2    0.04    0.06
  -6   5  -2   -0.03    0.09
   6   5   2    0.00    0.07
   6   5   2    0.08    0.12
  -6  -5  -2   -0.01    0.10
  -6   5  -3   52.03    4.82
   6   5   3   63.11    4.77
  -6   5  -3   58.28    4.76
  -6   5  -3   58.42    4.78
   6   5   3   63.42    4.79
  -6  -5  -3   53.65    4.78
  -6   5  -4    0.17    0.15
   6   5   4    0.14    0.08
   6   5   4    0.13    0.14
   6   5   4   -0.09    0.14
  -6   5  -4    0.09    0.11
  -6  -5  -4    0.09    0.13
  -6   5  -5    8.20    0.82
   6   5   5    9.26    0.77
   6   5   5    8.35    0.79
   6   5   5    8.00    0.80
  -6   5  -5    9.03    0.77
  -6  -5  -5    9.02    0.79
  -6   5  -6    0.05    0.20
   6   5   6    0.12    0.20
   6   5   6   -0.04    0.15
  -6   5  -6    0.21    0.12
  -6  -5  -6    0.17    0.15
   6   5   7   23.09    1.84
   6   5   7   22.32    1.85
  -6  -5  -7   19.36    1.82
   6   5   8   -0.17    0.22
   6   5   8    0.18    0.20
  -6  -5  -8    0.10    0.20
   6   5   9    2.68    0.40
  -6  -5  -9    2.56    0.38
  -6   6   8    2.84    0.41
   6  -6  -8    3.07    0.41
  -6   6   7    0.19    0.21
   6  -6  -7    0.15    0.20
   6   6  -6   20.64    1.83
   6   6  -6   21.20    1.82
  -6   6   6   21.45    1.81
   6  -6  -6   20.99    1.80
   6   6  -5    0.28    0.16
  -6   6   5    0.13    0.20
   6   6  -5    0.01    0.19
  -6   6   5    0.06    0.16
   6  -6  -5    0.20    0.18
  -6   6   4   11.84    1.05
  -6  -6   4   12.60    1.15
   6  -6  -4   11.65    1.05
  -6  -6   4   12.26    1.01
  -6   6   3    1.41    0.21
  -6   6   3    1.72    0.17
   6   6  -3    1.12    0.22
   6  -6  -3    1.57    0.21
  -6  -6   3    1.31    0.21
  -6  -6   3    1.43    0.18
  -6   6   2   40.28    3.50
  -6   6   2   47.79    3.55
   6   6  -2   38.09    3.55
  -6  -6   2   46.10    3.55
  -6  -6   2   39.49    3.53
   6  -6  -2   46.40    3.53
  -6   6   1    4.06    0.39
   6   6  -1    4.34    0.42
   6   6  -1    3.93    0.39
  -6   6   1    3.76    0.33
  -6  -6   1    3.96    0.37
  -6  -6   1    3.67    0.38
  -6  -6   1    3.88    0.40
   6  -6  -1    3.86    0.37
   6   6   0   23.49    1.94
   6   6   0   23.36    1.92
  -6   6   0   22.44    1.92
  -6  -6   0   22.40    1.92
   6  -6   0   24.15    1.90
  -6  -6   0   20.63    1.92
  -6  -6   0   24.74    1.93
  -6   6  -1    3.76    0.37
   6   6   1    4.09    0.42
   6   6   1    3.88    0.37
  -6  -6  -1    3.54    0.39
   6   6   2   46.84    3.56
   6   6   2   35.94    3.60
  -6   6  -2   50.38    3.56
   6   6   2   44.71    3.59
  -6   6  -2   40.22    3.57
  -6  -6  -2   41.07    3.58
   6   6   3    1.43    0.23
   6   6   3    1.78    0.21
   6   6   3    1.07    0.25
  -6  -6  -3    1.58    0.24
   6   6   4   11.41    1.13
   6   6   4   13.57    1.07
  -6   6  -4   11.05    1.15
   6   6   4   13.07    1.12
  -6  -6  -4   13.13    1.11
  -6   6  -5    0.23    0.20
   6   6   5    0.34    0.18
   6   6   5    0.17    0.19
  -6  -6  -5    0.05    0.16
   6   6   6   22.61    1.86
   6   6   6   22.09    1.85
  -6  -6  -6   20.29    1.84
   6   6   7    0.03    0.24
   6   6   7   -0.16    0.21
  -6  -6  -7    0.10    0.18
   6   6   8    3.01    0.42
   6   6   8    3.07    0.40
  -6  -6  -8    2.59    0.39
  -6   7   8    0.05    0.26
   6  -7  -8    0.12    0.24
  -6   7   7    2.07    0.33
   6  -7  -7    2.00    0.34
  -6   7   6    0.11    0.19
   6  -7  -6   -0.19    0.20
  -6   7   5   20.88    1.79
   6  -7  -5   21.04    1.79
   6   7  -4    0.23    0.16
  -6   7   4   -0.01    0.15
   6  -7  -4    0.13    0.15
  -6  -7   4    0.20    0.09
  -6   7   3    8.74    0.84
   6   7  -3    9.74    0.86
  -6  -7   3    9.47    0.81
   6  -7  -3    9.47    0.83
   6   7  -2    0.22    0.15
  -6   7   2    0.12    0.14
  -6  -7   2    0.08    0.11
   6  -7  -2    0.19    0.12
  -6  -7   2    0.12    0.15
  -6   7   1   24.79    2.15
   6   7  -1   28.54    2.17
   6  -7  -1   25.40    2.13
  -6  -7   1   24.54    2.15
  -6  -7   1   25.77    2.14
  -6  -7   1   25.65    2.14
   6   7   0    0.06    0.15
  -6   7   0   -0.03    0.11
  -6  -7   0    0.05    0.13
   6  -7   0   -0.02    0.07
  -6  -7   0    0.00    0.13
   6   7   1   24.81    2.28
   6   7   1   31.03    2.31
  -6   7  -1   27.14    2.28
  -6  -7  -1   27.38    2.29
  -6   7  -2    0.08    0.10
   6   7   2   -0.03    0.20
   6   7   2    0.32    0.17
   6   7   2    0.15    0.12
  -6  -7  -2    0.14    0.15
   6   7   3    9.48    0.88
   6   7   3    9.81    0.84
  -6  -7  -3    9.62    0.87
   6   7   4    0.26    0.19
   6   7   4   -0.05    0.18
  -6  -7  -4    0.04    0.16
   6   7   5   24.20    1.85
   6   7   5   21.46    1.84
  -6  -7  -5   18.75    1.82
   6   7   6   -0.05    0.21
   6   7   6   -0.21    0.22
  -6  -7  -6    0.13    0.20
   6   7   7    2.23    0.37
   6   7   7    2.17    0.36
  -6  -7  -7    2.15    0.36
   6   7   8    0.13    0.22
   6   7   8    0.26    0.26
  -6  -7  -8    0.21    0.24
  -6   8   7    0.03    0.24
   6  -8  -7   -0.03    0.23
  -6   8   6    2.98    0.42
   6  -8  -6    3.17    0.41
  -6   8   5    0.23    0.20
   6   8  -5    0.43    0.20
   6  -8  -5    0.19    0.20
  -6   8   4   12.74    1.17
   6   8  -4   12.41    1.17
   6  -8  -4   14.09    1.16
   6   8  -3    1.00    0.22
  -6   8   3    1.04    0.23
  -6  -8   3    0.59    0.14
   6  -8  -3    1.00    0.19
   6   8  -2   12.43    1.00
  -6   8   2    9.60    0.98
   6  -8  -2   10.19    0.95
  -6  -8   2   12.03    0.96
   6   8  -1    1.20    0.24
  -6   8   1    1.02    0.20
  -6  -8   1    1.38    0.20
   6  -8  -1    0.89    0.15
   6   8   0   15.62    1.29
  -6   8   0   13.54    1.25
  -6  -8   0   13.86    1.25
   6  -8   0   15.32    1.22
  -6   8  -1    1.03    0.19
   6   8   1    1.18    0.25
  -6  -8  -1    1.17    0.22
   6   8   2    7.80    0.91
   6   8   2   10.01    0.90
  -6  -8  -2   11.05    0.89
   6   8   3    0.81    0.23
   6   8   3    0.30    0.25
  -6  -8  -3    0.78    0.21
   6   8   4   12.99    1.09
   6   8   4   11.24    1.09
  -6  -8  -4   11.12    1.06
   6   8   5    0.06    0.23
   6   8   5    0.39    0.26
  -6  -8  -5    0.18    0.22
   6   8   6    3.54    0.46
   6   8   6    3.27    0.45
  -6  -8  -6    2.99    0.42
   6   8   7   -0.03    0.25
   6   8   7    0.24    0.27
  -6  -8  -7    0.09    0.24
  -6   9   5    2.61    0.39
   6  -9  -5    2.52    0.36
  -6   9   4    0.27    0.21
   6   9  -4    0.53    0.22
   6  -9  -4    0.14    0.19
   6   9  -3   11.45    0.95
  -6   9   3    9.19    0.93
   6  -9  -3    9.60    0.90
  -6   9   2    0.14    0.18
   6   9  -2    0.14    0.21
   6  -9  -2    0.12    0.14
  -6  -9   2    0.08    0.13
   6   9  -1    8.76    0.77
  -6   9   1    7.25    0.72
  -6  -9   1    6.84    0.70
   6  -9  -1    7.77    0.67
  -6   9   0   -0.07    0.15
   6   9   0    0.06    0.20
  -6  -9   0    0.04    0.16
   6   9   1    7.83    0.79
   6   9   1    8.88    0.79
  -6   9  -1    7.39    0.73
  -6  -9  -1    7.80    0.75
   6   9   2   -0.04    0.22
   6   9   2    0.15    0.22
  -6  -9  -2   -0.04    0.19
   6   9   3   10.17    0.85
   6   9   3    6.35    0.82
  -6  -9  -3    8.14    0.79
   6   9   4    0.12    0.25
   6   9   4    0.41    0.27
  -6  -9  -4    0.22    0.23
   6   9   5    2.96    0.44
   6   9   5    2.83    0.43
  -6  -9  -5    2.18    0.37
  -6  10   4    2.82    0.41
   6  10  -4    3.86    0.61
   6 -10  -4    2.79    0.37
  -6  10   3   -0.01    0.22
   6  10  -3    0.35    0.23
   6 -10  -3    0.22    0.18
   6  10  -2    5.29    0.59
  -6  10   2    4.35    0.54
   6 -10  -2    3.95    0.45
  -6  10   1    0.11    0.21
   6  10  -1    0.13    0.25
  -6 -10   1    0.18    0.16
   6  10   0    6.85    0.71
  -6  10   0    6.66    0.67
  -6 -10   0    6.21    0.65
   6  10   1    0.88    0.29
   6  10   1    0.16    0.25
  -6 -10  -1    0.37    0.20
   6  10   2    4.90    0.62
  -6 -10  -2    4.53    0.55
   6  10   3    0.13    0.27
   6  10   3   -0.14    0.26
  -6 -10  -3    0.22    0.23
   6  10   4    3.01    0.44
   6  10   4    2.80    0.44
  -6 -10  -4    2.36    0.38
   7   0 -10    2.26    0.32
  -7   0   9    0.03    0.16
   7   0  -9   -0.14    0.17
   7   0  -8    4.97    0.50
  -7   0   8    5.51    0.60
  -7   0   8    4.32    0.52
   7   0  -7    0.00    0.13
  -7   0   7    0.04    0.18
  -7   0   7   -0.22    0.15
  -7   0   7   -0.11    0.15
   7   0  -6    5.14    0.52
  -7   0   6    4.98    0.50
   7   0  -6    4.76    0.45
  -7   0   6    4.07    0.48
  -7   0   6    4.73    0.51
   7   0  -5   -0.12    0.13
  -7   0   5   -0.03    0.12
  -7   0   5   -0.02    0.12
   7   0  -5   -0.04    0.08
  -7   0   5   -0.15    0.13
   7   0  -4   47.90    4.04
  -7   0   4   47.08    4.05
  -7   0   4   54.88    4.07
   7   0  -4   47.39    4.08
   7   0  -3    0.05    0.12
  -7   0   3    0.04    0.11
  -7   0   3   -0.06    0.06
   7   0  -3   -0.05    0.07
  -7   0   3   -0.14    0.10
   7   0  -2   21.20    1.65
   7   0  -2   18.71    1.67
  -7   0   2   19.39    1.67
  -7   0   2   19.92    1.67
  -7   0   1   -0.02    0.09
   7   0  -1    0.02    0.09
  -7   0   1    0.17    0.10
   7   0  -1   -0.01    0.08
   7   0   0  198.66   14.66
   7   0   0  171.12   14.69
   7   0   0  191.69   14.67
  -7   0   0  177.42   14.67
   7   0   0  175.64   14.71
  -7   0   0  165.16   14.67
   7   0   1    0.02    0.05
   7   0   1   -0.02    0.07
  -7   0  -1   -0.10    0.06
  -7   0  -1   -0.01    0.05
  -7   0  -1    0.07    0.07
   7   0   1    0.06    0.09
  -7   0  -2   22.31    1.69
   7   0   2   18.03    1.73
   7   0   2   20.53    1.68
  -7   0  -2   21.46    1.69
   7   0   2   19.53    1.69
  -7   0  -3    0.05    0.06
   7   0   3   -0.02    0.12
  -7   0  -3    0.08    0.05
   7   0   3    0.00    0.03
   7   0   3    0.08    0.09
   7   0   4   49.26    3.82
   7   0   4   39.10    3.87
  -7   0  -4   50.15    3.80
   7   0   5   -0.03    0.11
  -7   0  -5    0.00    0.06
   7   0   5   -0.15    0.17
   7   0   6    4.98    0.63
   7   0   6    5.10    0.49
  -7   0  -6    4.51    0.42
   7   0   7   -0.02    0.24
   7   0   7   -0.09    0.14
   7   0   8    5.86    0.79
   7   0   8    5.78    0.60
   7   0   9   -0.18    0.31
   7   0   9   -0.05    0.21
   7   0  10    1.80    0.33
   7   1 -10    0.12    0.19
   7  -1 -10    0.10    0.19
  -7   1   9    1.55    0.32
   7   1  -9    2.30    0.30
   7  -1  -9    2.88    0.33
  -7   1   8    0.12    0.20
  -7   1   8    0.45    0.23
   7   1  -8    0.38    0.16
  -7  -1   8    0.47    0.21
   7  -1  -8    0.25    0.16
  -7  -1   8    0.63    0.15
  -7   1   7    6.58    0.72
  -7   1   7    5.61    0.66
   7   1  -7    6.49    0.63
  -7   1   7    7.96    0.70
   7  -1  -7    7.04    0.64
  -7  -1   7    7.19    0.67
  -7  -1   7    7.63    0.68
  -7  -1   7    6.64    0.63
   7   1  -6    0.84    0.22
   7   1  -6    1.10    0.17
  -7   1   6    1.19    0.26
  -7   1   6    1.27    0.25
  -7   1   6    0.46    0.19
  -7  -1   6    0.80    0.19
  -7  -1   6    1.22    0.19
  -7  -1   6    1.17    0.21
   7  -1  -6    0.80    0.23
   7  -1  -6    1.16    0.17
  -7   1   5    9.42    0.93
   7   1  -5   10.39    0.88
  -7   1   5    8.96    0.92
   7   1  -5    9.84    0.92
  -7  -1   5    8.39    0.89
   7  -1  -5   10.08    0.88
  -7  -1   5   11.36    0.91
   7  -1  -5   11.63    0.95
  -7  -1   5   11.93    0.90
  -7   1   4    1.38    0.23
   7   1  -4    1.50    0.21
  -7   1   4    1.53    0.21
   7   1  -4    0.99    0.16
  -7   1   4    1.67    0.23
   7  -1  -4    1.58    0.25
  -7  -1   4    1.56    0.18
   7  -1  -4    1.24    0.17
  -7  -1   4    1.47    0.20
   7   1  -3   37.02    3.08
  -7   1   3   38.49    3.11
  -7   1   3   38.80    3.11
   7   1  -3   34.98    3.09
   7  -1  -3   39.41    3.12
  -7  -1   3   34.40    3.09
   7  -1  -3   35.32    3.08
   7  -1  -3   41.63    3.07
  -7   1   2    0.49    0.13
   7   1  -2    0.78    0.14
  -7   1   2    0.81    0.16
   7   1  -2    0.65    0.13
  -7  -1   2    0.33    0.12
  -7  -1   2    0.57    0.13
   7  -1  -2    0.65    0.08
   7  -1  -2    0.60    0.10
   7   1  -1   48.78    3.90
  -7   1   1   45.89    3.90
  -7   1   1   45.52    3.89
   7   1  -1   46.59    3.89
   7  -1  -1   52.43    3.88
  -7  -1   1   44.85    3.89
   7   1   0   -0.07    0.07
  -7   1   0    0.02    0.06
  -7   1   0   -0.04    0.07
  -7   1   0    0.01    0.08
   7   1   0    0.02    0.07
   7   1   0    0.01    0.05
  -7  -1   0   -0.03    0.07
  -7  -1   0   -0.01    0.07
   7  -1   0   -0.04    0.05
   7  -1   0    0.07    0.07
   7  -1   0   -0.02    0.07
   7   1   1   41.33    3.98
  -7   1  -1   52.24    3.98
  -7   1  -1   46.13    3.96
   7   1   1   46.43    3.98
   7   1   1   50.32    3.99
   7  -1   1   53.14    3.99
   7  -1   1   52.32    3.98
   7  -1   1   53.62    3.97
  -7  -1  -1   45.60    3.97
  -7  -1  -1   44.67    3.98
   7   1   2    0.77    0.10
  -7   1  -2    0.52    0.11
   7   1   2    0.45    0.12
   7   1   2    0.64    0.10
  -7   1  -2    0.66    0.15
  -7   1  -2    0.58    0.11
   7   1   2    0.62    0.14
  -7  -1  -2    0.65    0.08
  -7  -1  -2    0.74    0.11
   7  -1   2    0.75    0.11
   7  -1   2    0.62    0.15
  -7   1  -3   36.78    3.07
   7   1   3   33.75    3.07
   7   1   3   34.15    3.09
  -7   1  -3   43.00    3.15
  -7   1  -3   36.39    3.08
   7   1   3   38.99    3.13
  -7  -1  -3   37.35    3.07
   7  -1   3   39.91    3.08
  -7  -1  -3   35.99    3.05
   7  -1   3   39.71    3.14
  -7   1  -4    1.04    0.16
   7   1   4    1.83    0.16
   7   1   4    1.70    0.21
   7   1   4    1.35    0.26
  -7   1  -4    1.60    0.15
  -7  -1  -4    1.52    0.18
   7  -1   4    1.44    0.27
   7  -1   4    1.22    0.18
  -7   1  -5   12.10    0.95
   7   1   5   10.07    0.95
   7   1   5   10.82    1.09
  -7   1  -5   12.75    0.96
   7   1   5   11.38    1.00
   7  -1   5   12.82    1.00
  -7  -1  -5   11.60    0.97
  -7  -1  -5   10.53    0.97
   7  -1   5   12.23    1.09
  -7   1  -6    1.06    0.13
  -7   1  -6    0.83    0.12
  -7   1  -6    1.19    0.14
   7   1   6    0.82    0.30
   7   1   6    0.97    0.20
   7  -1   6    1.01    0.29
   7  -1   6    1.36    0.21
  -7  -1  -6    0.97    0.15
   7   1   7    6.05    0.76
   7   1   7    6.70    0.63
  -7  -1  -7    6.35    0.59
   7  -1   7    7.41    0.80
   7  -1   7    6.41    0.62
   7   1   8    0.22    0.20
   7   1   8    0.39    0.29
   7  -1   8    0.55    0.30
   7  -1   8    0.31    0.19
   7   1   9    2.24    0.74
   7   1   9    2.82    0.38
   7  -1   9    2.44    0.75
   7  -1   9    2.62    0.37
   7   1  10    0.06    0.22
   7  -1  10    0.31    0.26
  -7   2  10    1.48    0.32
   7  -2 -10    1.92    0.32
  -7   2   9    0.05    0.46
   7   2  -9    0.10    0.16
  -7   2   9   -0.23    0.22
   7  -2  -9   -0.10    0.19
   7   2  -8    3.04    0.36
  -7   2   8    3.20    0.43
  -7   2   8    3.57    0.51
  -7  -2   8    2.68    0.40
   7  -2  -8    3.26    0.40
  -7   2   7   -0.13    0.17
  -7   2   7   -0.16    0.21
  -7   2   7   -0.13    0.18
   7   2  -7   -0.07    0.12
  -7  -2   7    0.05    0.10
  -7  -2   7   -0.06    0.15
  -7  -2   7    0.01    0.14
   7  -2  -7    0.02    0.14
   7   2  -6   13.66    1.27
  -7   2   6   13.87    1.31
  -7   2   6   16.52    1.35
  -7   2   6   15.21    1.32
  -7  -2   6   15.23    1.29
  -7  -2   6   16.66    1.29
   7  -2  -6   14.12    1.27
  -7  -2   6   14.57    1.26
   7   2  -5   -0.02    0.10
  -7   2   5   -0.10    0.14
  -7   2   5    0.15    0.14
   7   2  -5   -0.12    0.12
  -7  -2   5    0.08    0.10
   7  -2  -5   -0.06    0.11
  -7  -2   5   -0.07    0.11
  -7   2   4    7.23    0.72
   7   2  -4    8.76    0.72
   7   2  -4    8.54    0.72
  -7   2   4    7.98    0.76
   7   2  -4    7.00    0.71
  -7  -2   4    9.16    0.72
   7  -2  -4    8.28    0.71
  -7  -2   4    8.02    0.73
   7   2  -3    0.18    0.09
  -7   2   3    0.24    0.10
  -7   2   3    0.25    0.13
   7   2  -3    0.37    0.10
   7   2  -3    0.37    0.13
   7  -2  -3    0.24    0.08
   7  -2  -3    0.37    0.07
  -7  -2   3    0.39    0.11
  -7  -2   3    0.53    0.12
   7   2  -2   81.65    6.78
  -7   2   2   73.56    6.79
   7   2  -2   76.68    6.79
  -7   2   2   83.53    6.81
  -7  -2   2   94.90    6.80
  -7  -2   2   87.88    6.80
   7  -2  -2   87.60    6.77
   7  -2  -2   79.39    6.78
   7   2  -1    0.66    0.13
   7   2  -1    0.57    0.10
  -7   2   1    0.51    0.11
  -7   2   1    0.62    0.10
   7  -2  -1    0.74    0.10
  -7  -2   1    0.52    0.11
   7  -2  -1    0.69    0.06
  -7  -2   1    0.54    0.11
   7  -2  -1    0.48    0.06
  -7   2   0   20.61    1.68
   7   2   0   18.60    1.68
  -7   2   0   22.40    1.69
   7  -2   0   21.46    1.66
   7  -2   0   18.51    1.69
   7  -2   0   21.46    1.69
  -7  -2   0   19.97    1.68
  -7  -2   0   19.27    1.69
  -7   2  -1    0.62    0.08
   7   2   1    0.71    0.14
  -7   2  -1    0.68    0.13
  -7   2  -1    0.64    0.09
   7   2   1    0.59    0.09
   7   2   1    0.63    0.11
   7  -2   1    0.72    0.09
  -7  -2  -1    0.74    0.10
   7  -2   1    0.69    0.09
   7  -2   1    0.62    0.13
  -7  -2  -1    0.62    0.11
  -7   2  -2   90.27    6.89
  -7   2  -2   82.11    6.92
  -7   2  -2   80.36    6.95
   7   2   2   84.47    6.91
   7   2   2   81.78    6.89
   7  -2   2   82.78    6.90
  -7  -2  -2   86.27    6.91
  -7  -2  -2   87.97    6.89
   7   2   3    0.14    0.12
   7   2   3    0.23    0.08
   7   2   3    0.18    0.06
  -7   2  -3    0.35    0.16
  -7   2  -3    0.41    0.06
  -7   2  -3    0.31    0.10
   7  -2   3    0.51    0.16
  -7  -2  -3    0.21    0.08
   7  -2   3    0.28    0.09
  -7   2  -4    7.91    0.69
  -7   2  -4    8.47    0.73
   7   2   4    8.87    0.74
  -7   2  -4    8.23    0.69
   7   2   4    8.71    0.77
   7   2   4    8.67    0.71
  -7  -2  -4    7.81    0.70
  -7  -2  -4    7.15    0.70
   7  -2   4    8.26    0.71
   7  -2   4    8.28    0.79
   7   2   5   -0.08    0.15
  -7   2  -5    0.06    0.07
   7   2   5    0.06    0.17
  -7   2  -5   -0.01    0.12
   7   2   5   -0.07    0.08
   7  -2   5    0.01    0.20
  -7  -2  -5   -0.03    0.09
   7  -2   5   -0.15    0.10
   7   2   6   16.12    1.39
   7   2   6   14.99    1.31
   7   2   6   14.63    1.26
  -7   2  -6   15.02    1.25
   7  -2   6   16.10    1.29
   7  -2   6   15.99    1.40
  -7  -2  -6   13.49    1.27
   7   2   7    0.01    0.29
   7   2   7   -0.01    0.17
   7  -2   7    0.07    0.17
  -7  -2  -7   -0.01    0.11
   7  -2   7    0.16    0.24
   7   2   8    2.76    0.37
   7   2   8    2.95    0.52
   7  -2   8    2.90    0.37
  -7  -2  -8    2.94    0.35
   7  -2   8    3.07    0.49
   7   2   9    0.02    0.22
   7  -2   9    0.02    0.23
   7   2  10    2.43    0.38
   7  -2  10    2.02    0.35
  -7   3  10   -0.03    0.27
   7  -3 -10    0.01    0.22
  -7   3   9    3.69    0.70
  -7   3   9    3.61    0.49
   7   3  -9    3.45    0.45
   7  -3  -9    2.99    0.40
  -7   3   8    0.27    0.14
   7   3  -8    0.20    0.17
  -7   3   8    0.09    0.24
  -7   3   8    0.57    0.30
   7  -3  -8    0.30    0.19
  -7   3   7    3.60    0.44
  -7   3   7    3.30    0.33
  -7   3   7    2.94    0.41
  -7   3   7    3.43    0.48
   7   3  -7    3.12    0.37
  -7  -3   7    3.03    0.31
   7  -3  -7    3.27    0.40
  -7   3   6    0.36    0.17
   7   3  -6    0.43    0.15
  -7   3   6    0.45    0.11
  -7   3   6    0.62    0.19
   7  -3  -6    0.42    0.16
  -7  -3   6    0.55    0.12
  -7  -3   6    0.49    0.17
   7   3  -5   15.33    1.43
  -7   3   5   16.14    1.47
  -7   3   5   16.81    1.44
   7   3  -5   17.31    1.46
   7   3  -5   16.93    1.44
  -7   3   5   17.12    1.39
   7  -3  -5   16.15    1.42
  -7  -3   5   17.57    1.43
  -7  -3   5   17.91    1.41
   7   3  -4    0.61    0.13
  -7   3   4    0.49    0.14
   7   3  -4    0.48    0.17
  -7   3   4    0.65    0.18
   7   3  -4    0.53    0.15
   7  -3  -4    0.72    0.14
  -7  -3   4    0.69    0.12
   7  -3  -4    0.77    0.11
  -7  -3   4    0.62    0.15
  -7   3   3   14.81    1.39
   7   3  -3   18.67    1.41
  -7   3   3   16.58    1.42
   7   3  -3   18.09    1.38
   7   3  -3   15.29    1.39
  -7  -3   3   16.78    1.40
   7  -3  -3   15.15    1.36
  -7  -3   3   17.85    1.39
   7  -3  -3   16.14    1.38
   7   3  -2    0.37    0.10
  -7   3   2    0.18    0.09
   7   3  -2    0.28    0.12
   7   3  -2    0.27    0.07
   7  -3  -2    0.22    0.07
  -7  -3   2    0.23    0.10
  -7  -3   2    0.32    0.09
  -7   3   1   34.68    2.87
   7   3  -1   34.29    2.87
   7  -3  -1   34.41    2.87
  -7  -3   1   34.41    2.88
  -7  -3   1   37.16    2.88
  -7   3   0    0.02    0.06
   7   3   0    0.01    0.08
   7   3   0   -0.01    0.06
   7  -3   0   -0.06    0.06
   7  -3   0   -0.06    0.10
  -7  -3   0   -0.01    0.03
  -7  -3   0   -0.04    0.07
  -7  -3   0    0.05    0.08
   7   3   1   33.49    2.95
  -7   3  -1   33.92    2.92
   7   3   1   36.80    2.93
  -7   3  -1   33.98    2.93
  -7   3  -1   37.68    2.97
   7  -3   1   36.81    2.92
  -7  -3  -1   36.16    2.94
  -7  -3  -1   37.90    2.93
   7  -3   1   35.24    2.92
  -7   3  -2    0.19    0.12
  -7   3  -2    0.34    0.15
  -7   3  -2    0.37    0.06
   7   3   2    0.18    0.13
   7   3   2    0.34    0.07
   7   3   2    0.35    0.10
   7  -3   2    0.31    0.08
  -7  -3  -2    0.35    0.07
  -7  -3  -2    0.33    0.10
  -7  -3  -2    0.30    0.10
   7  -3   2    0.17    0.11
   7   3   3   12.97    1.28
   7   3   3   14.36    1.23
   7   3   3   14.25    1.26
  -7   3  -3   15.61    1.23
  -7   3  -3   15.58    1.29
  -7  -3  -3   14.89    1.26
   7  -3   3   17.23    1.26
   7   3   4    0.47    0.13
   7   3   4    0.45    0.17
  -7   3  -4    0.65    0.12
  -7   3  -4    0.60    0.07
  -7   3  -4    0.56    0.15
   7   3   4    0.64    0.08
   7  -3   4    0.66    0.14
  -7  -3  -4    0.72    0.14
  -7   3  -5   17.61    1.49
  -7   3  -5   18.42    1.46
   7   3   5   17.83    1.50
   7   3   5   18.79    1.48
   7  -3   5   17.46    1.48
  -7  -3  -5   14.54    1.47
   7  -3   5   18.31    1.56
   7   3   6    0.54    0.25
   7   3   6    0.29    0.17
  -7   3  -6    0.52    0.11
  -7   3  -6    0.56    0.17
   7   3   6    0.45    0.14
   7  -3   6    0.42    0.17
   7  -3   6    0.53    0.29
  -7  -3  -6    0.27    0.13
   7   3   7    2.75    0.36
   7   3   7    3.09    0.48
  -7   3  -7    3.81    0.41
   7   3   7    2.85    0.33
  -7  -3  -7    2.73    0.35
   7  -3   7    3.29    0.40
   7  -3   7    2.66    0.47
   7   3   8    0.34    0.36
   7   3   8    0.20    0.22
  -7  -3  -8    0.27    0.15
   7  -3   8    0.13    0.21
   7  -3   8    0.37    0.35
   7   3   9    3.28    0.44
   7  -3   9    3.76    0.45
  -7  -3  -9    3.46    0.44
   7   3  10   -0.16    0.27
   7  -3  10    0.15    0.22
  -7   4   9    0.23    0.27
   7  -4  -9    0.05    0.22
   7   4  -8    5.11    0.60
  -7   4   8    6.20    0.78
  -7   4   8    5.37    0.64
   7  -4  -8    6.11    0.61
  -7   4   7    0.02    0.19
  -7   4   7   -0.01    0.11
   7   4  -7    0.13    0.18
   7  -4  -7    0.00    0.18
  -7   4   6    4.55    0.49
   7   4  -6    3.79    0.45
  -7   4   6    3.07    0.41
   7   4  -6    3.67    0.41
  -7   4   6    3.62    0.35
  -7  -4   6    3.57    0.34
   7  -4  -6    3.65    0.42
   7   4  -5    0.06    0.13
   7   4  -5    0.24    0.24
  -7   4   5    0.09    0.07
   7   4  -5   -0.03    0.16
  -7   4   5   -0.09    0.16
  -7   4   5    0.23    0.14
  -7  -4   5    0.06    0.08
   7  -4  -5    0.11    0.14
  -7  -4   5    0.06    0.14
  -7  -4   5    0.11    0.09
   7   4  -4   23.82    2.03
   7   4  -4   24.70    2.02
   7   4  -4   26.86    1.99
  -7   4   4   23.27    2.02
   7   4  -4   22.00    1.98
  -7   4   4   23.74    1.95
  -7  -4   4   24.33    1.97
  -7  -4   4   25.51    2.00
  -7  -4   4   21.21    1.97
   7  -4  -4   23.10    1.98
  -7   4   3    0.44    0.13
   7   4  -3    0.43    0.16
   7   4  -3    0.69    0.13
   7   4  -3    0.60    0.15
   7   4  -3    0.57    0.13
  -7  -4   3    0.63    0.12
   7  -4  -3    0.63    0.13
  -7  -4   3    0.58    0.12
  -7  -4   3    0.60    0.15
   7   4  -2    5.98    0.68
   7   4  -2    6.80    0.65
  -7   4   2    8.35    0.66
  -7  -4   2    7.66    0.66
   7  -4  -2    7.25    0.64
  -7  -4   2    8.18    0.66
  -7  -4   2    8.04    0.65
   7   4  -1    1.41    0.17
   7   4  -1    0.79    0.17
  -7   4   1    1.14    0.16
  -7  -4   1    1.35    0.17
   7  -4  -1    1.45    0.16
  -7  -4   1    1.12    0.16
  -7  -4   1    1.54    0.18
   7   4   0   48.81    3.80
  -7   4   0   44.72    3.77
   7   4   0   42.97    3.77
  -7  -4   0   45.76    3.78
   7  -4   0   41.13    3.81
  -7  -4   0   47.93    3.78
  -7  -4   0   42.82    3.76
   7  -4   0   53.13    3.77
  -7  -4   0   46.69    3.78
  -7   4  -1    1.54    0.17
   7   4   1    1.90    0.23
   7   4   1    1.37    0.18
  -7   4  -1    1.41    0.14
  -7  -4  -1    1.40    0.19
   7  -4   1    1.57    0.23
  -7  -4  -1    1.44    0.17
   7   4   2    7.96    0.71
  -7   4  -2    8.56    0.67
   7   4   2    7.90    0.68
  -7  -4  -2    7.50    0.68
  -7  -4  -2    7.96    0.70
   7  -4   2    7.75    0.72
   7   4   3    0.20    0.18
   7   4   3    0.60    0.09
  -7   4  -3    0.70    0.09
   7   4   3    0.58    0.14
  -7   4  -3    0.24    0.14
  -7   4  -3    0.51    0.13
   7  -4   3    0.74    0.12
  -7  -4  -3    0.67    0.15
   7   4   4   23.48    1.90
  -7   4  -4   22.90    1.88
   7   4   4   22.02    1.86
  -7   4  -4   21.62    1.92
   7   4   4   21.02    1.91
  -7  -4  -4   21.82    1.89
   7  -4   4   25.47    1.89
   7   4   5   -0.05    0.12
   7   4   5   -0.08    0.17
   7   4   5    0.12    0.04
  -7   4  -5    0.13    0.16
  -7   4  -5    0.09    0.10
  -7  -4  -5    0.02    0.13
   7  -4   5    0.06    0.13
   7   4   6    3.86    0.42
   7   4   6    3.91    0.44
  -7   4  -6    3.83    0.37
  -7   4  -6    3.16    0.42
  -7  -4  -6    3.70    0.41
   7  -4   6    3.71    0.42
   7   4   7   -0.01    0.15
   7   4   7   -0.13    0.20
   7   4   7    0.11    0.25
  -7  -4  -7   -0.06    0.14
   7  -4   7   -0.03    0.18
   7   4   8    6.05    0.76
   7   4   8    4.83    0.56
   7   4   8    4.03    0.49
  -7  -4  -8    4.85    0.52
   7  -4   8    4.96    0.52
   7   4   9    0.06    0.22
  -7  -4  -9    0.10    0.20
   7  -4   9   -0.15    0.21
  -7   5   9    1.16    0.32
   7  -5  -9    1.22    0.31
  -7   5   8   -0.13    0.22
   7  -5  -8    0.25    0.22
  -7   5   7    6.53    0.71
   7   5  -7    6.50    0.73
   7   5  -7    7.48    0.71
   7  -5  -7    7.89    0.71
  -7   5   6   -0.02    0.16
   7   5  -6    0.01    0.17
   7   5  -6    0.34    0.21
   7  -5  -6    0.10    0.18
   7   5  -5    4.12    0.47
  -7   5   5    3.35    0.41
   7   5  -5    4.56    0.43
  -7   5   5    3.73    0.46
   7  -5  -5    3.67    0.41
  -7  -5   5    3.37    0.35
  -7   5   4    0.03    0.15
  -7   5   4    0.13    0.06
   7   5  -4    0.19    0.17
   7   5  -4    0.02    0.12
  -7   5   4    0.08    0.13
   7  -5  -4    0.15    0.13
  -7  -5   4    0.11    0.10
  -7  -5   4    0.05    0.12
   7   5  -3   15.86    1.42
  -7   5   3   17.95    1.41
   7   5  -3   17.34    1.44
  -7  -5   3   16.28    1.39
   7  -5  -3   15.45    1.39
  -7  -5   3   16.81    1.41
   7   5  -2    0.05    0.10
   7   5  -2   -0.25    0.12
  -7   5   2    0.04    0.10
  -7  -5   2    0.04    0.10
  -7  -5   2    0.00    0.10
   7  -5  -2    0.03    0.09
   7   5  -1    9.97    0.95
   7   5  -1   11.69    0.93
  -7   5   1   10.71    0.93
   7  -5  -1    9.86    0.91
  -7  -5   1   10.78    0.93
  -7  -5   1   11.92    0.91
  -7  -5   1   10.98    0.93
   7   5   0    0.10    0.12
   7   5   0    0.02    0.09
  -7   5   0    0.00    0.08
  -7  -5   0   -0.04    0.09
  -7  -5   0    0.04    0.08
   7  -5   0   -0.04    0.06
  -7  -5   0   -0.04    0.07
  -7   5  -1   11.23    0.91
   7   5   1   10.77    0.93
   7   5   1   10.39    0.96
  -7   5  -1   10.86    0.93
  -7  -5  -1   10.79    0.95
  -7  -5  -1   11.69    0.94
   7   5   2    0.13    0.11
   7   5   2    0.09    0.15
  -7   5  -2   -0.01    0.07
   7   5   2    0.03    0.08
  -7  -5  -2    0.03    0.11
   7   5   3   17.51    1.44
  -7   5  -3   18.42    1.43
  -7   5  -3   17.66    1.46
   7   5   3   15.56    1.46
  -7  -5  -3   17.13    1.46
   7   5   4   -0.10    0.15
   7   5   4    0.13    0.14
  -7   5  -4    0.14    0.11
  -7   5  -4    0.08    0.15
   7   5   4    0.13    0.08
  -7  -5  -4    0.07    0.14
   7   5   5    3.33    0.42
  -7   5  -5    2.49    0.40
   7   5   5    4.24    0.42
  -7   5  -5    3.35    0.36
  -7  -5  -5    3.62    0.40
  -7   5  -6    0.03    0.19
  -7   5  -6    0.16    0.13
   7   5   6    0.16    0.17
   7   5   6    0.08    0.21
  -7  -5  -6    0.22    0.17
   7   5   7    7.05    0.75
   7   5   7    7.62    0.72
  -7  -5  -7    7.09    0.70
   7   5   8    0.10    0.24
   7   5   8    0.07    0.20
  -7  -5  -8   -0.14    0.19
   7   5   9    0.91    0.30
  -7  -5  -9    1.02    0.27
  -7   6   8    1.10    0.30
   7  -6  -8    1.53    0.31
  -7   6   7    0.04    0.20
   7  -6  -7   -0.17    0.21
   7   6  -6    7.68    0.77
  -7   6   6    6.70    0.71
   7  -6  -6    7.75    0.72
  -7   6   5   -0.03    0.17
   7   6  -5    0.28    0.15
   7   6  -5   -0.14    0.19
   7  -6  -5    0.14    0.17
  -7  -6   5    0.09    0.09
   7   6  -4    2.33    0.38
  -7   6   4    3.72    0.40
   7  -6  -4    3.89    0.39
  -7  -6   4    3.42    0.34
   7   6  -3    0.05    0.15
  -7   6   3    0.30    0.15
  -7  -6   3    0.44    0.17
  -7  -6   3    0.51    0.12
   7  -6  -3    0.39    0.14
   7   6  -2   11.59    1.20
  -7   6   2   14.26    1.19
   7  -6  -2   15.07    1.17
  -7  -6   2   13.98    1.18
  -7  -6   2   14.01    1.19
   7   6  -1    1.07    0.20
   7   6  -1    1.10    0.18
  -7   6   1    1.05    0.18
  -7  -6   1    1.06    0.19
  -7  -6   1    1.21    0.15
  -7  -6   1    1.19    0.18
   7  -6  -1    0.95    0.14
  -7   6   0    5.10    0.47
   7   6   0    4.79    0.47
   7   6   0    5.03    0.51
  -7  -6   0    5.01    0.46
  -7  -6   0    5.28    0.48
  -7  -6   0    5.09    0.48
   7  -6   0    4.67    0.44
   7   6   1    1.19    0.17
  -7   6  -1    1.00    0.16
   7   6   1    0.99    0.21
  -7  -6  -1    1.06    0.19
   7   6   2   15.08    1.34
  -7   6  -2   15.21    1.28
   7   6   2   16.48    1.32
   7   6   2   15.79    1.28
  -7  -6  -2   13.70    1.30
   7   6   3    0.47    0.11
   7   6   3    0.47    0.18
   7   6   3   -0.04    0.18
  -7  -6  -3    0.38    0.16
   7   6   4    2.74    0.41
  -7   6  -4    2.84    0.42
   7   6   4    3.83    0.34
   7   6   4    3.47    0.42
  -7  -6  -4    3.57    0.41
   7   6   5    0.04    0.22
  -7   6  -5    0.49    0.33
   7   6   5    0.12    0.18
  -7  -6  -5    0.06    0.17
   7   6   6    6.91    0.74
   7   6   6    8.24    0.73
  -7  -6  -6    6.70    0.70
   7   6   7   -0.02    0.23
   7   6   7    0.12    0.21
  -7  -6  -7    0.08    0.20
   7   6   8    1.56    0.30
   7   6   8    1.35    0.34
  -7  -6  -8    1.47    0.31
  -7   7   7    1.11    0.29
   7  -7  -7    1.29    0.28
   7   7  -6   -0.17    0.21
  -7   7   6   -0.01    0.20
   7  -7  -6   -0.11    0.20
  -7   7   5    6.19    0.68
   7  -7  -5    7.63    0.69
   7   7  -4   -0.22    0.16
  -7   7   4    0.17    0.17
   7  -7  -4   -0.02    0.16
  -7  -7   4   -0.02    0.10
  -7   7   3    2.88    0.36
   7   7  -3    2.19    0.33
   7  -7  -3    2.96    0.34
  -7  -7   3    2.81    0.31
  -7   7   2    0.01    0.15
   7   7  -2    0.12    0.16
  -7  -7   2   -0.06    0.11
   7  -7  -2    0.07    0.11
  -7   7   1    6.94    0.64
   7   7  -1    8.10    0.68
  -7  -7   1    6.37    0.64
   7  -7  -1    6.35    0.60
  -7  -7   1    7.41    0.65
  -7   7   0   -0.09    0.11
   7   7   0    0.08    0.16
  -7  -7   0   -0.02    0.13
  -7  -7   0    0.00    0.13
   7  -7   0   -0.01    0.07
  -7  -7   0    0.04    0.13
   7   7   1    6.77    0.62
   7   7   1    7.01    0.66
  -7   7  -1    6.93    0.61
  -7  -7  -1    6.72    0.64
  -7  -7  -1    5.97    0.62
   7   7   2    0.04    0.15
   7   7   2    0.10    0.19
   7   7   2    0.00    0.12
  -7   7  -2    0.06    0.11
  -7  -7  -2    0.00    0.15
   7   7   3    4.26    0.45
   7   7   3    3.21    0.36
  -7  -7  -3    3.63    0.43
   7   7   4   -0.41    0.20
   7   7   4    0.13    0.19
  -7  -7  -4    0.00    0.17
   7   7   5    7.09    0.76
   7   7   5    7.69    0.74
  -7  -7  -5    6.67    0.70
   7   7   6   -0.21    0.23
   7   7   6    0.19    0.23
  -7  -7  -6   -0.04    0.19
   7   7   7    1.27    0.30
   7   7   7    1.13    0.29
  -7  -7  -7    1.41    0.30
  -7   8   6    1.19    0.30
   7  -8  -6    1.09    0.28
  -7   8   5    0.03    0.20
   7   8  -5   -0.15    0.19
   7  -8  -5    0.21    0.20
   7   8  -4    4.34    0.55
  -7   8   4    4.71    0.53
   7  -8  -4    4.77    0.51
   7   8  -3    0.58    0.20
  -7   8   3    0.26    0.19
   7  -8  -3    0.27    0.16
  -7  -8   3    0.23    0.13
   7   8  -2    3.41    0.41
  -7   8   2    2.98    0.38
   7  -8  -2    2.42    0.33
  -7  -8   2    3.08    0.35
   7   8  -1    0.49    0.21
  -7   8   1    0.40    0.17
  -7  -8   1    0.44    0.16
   7  -8  -1    0.39    0.12
  -7   8   0    5.40    0.57
   7   8   0    5.78    0.61
  -7  -8   0    6.23    0.58
   7   8   1    0.56    0.21
  -7   8  -1    0.42    0.16
  -7  -8  -1    0.36    0.18
   7   8   2    3.44    0.44
   7   8   2    3.46    0.43
  -7  -8  -2    2.45    0.35
   7   8   3    0.14    0.20
   7   8   3   -0.27    0.20
  -7  -8  -3    0.22    0.19
   7   8   4    5.44    0.57
   7   8   4    3.50    0.52
  -7  -8  -4    4.83    0.54
   7   8   5   -0.12    0.25
   7   8   5    0.26    0.24
  -7  -8  -5   -0.02    0.22
   7   8   6    1.58    0.35
   7   8   6    1.49    0.33
  -7  -8  -6    1.38    0.31
  -7   9   5    1.07    0.29
   7  -9  -5    1.03    0.26
   7   9  -4    0.13    0.22
  -7   9   4   -0.04    0.20
   7  -9  -4   -0.11    0.18
  -7   9   3    3.40    0.44
   7   9  -3    4.28    0.52
   7  -9  -3    3.58    0.43
   7   9  -2    0.28    0.23
  -7   9   2   -0.12    0.19
   7  -9  -2   -0.10    0.13
  -7  -9   2    0.05    0.15
   7   9  -1    2.63    0.36
  -7   9   1    2.13    0.32
  -7  -9   1    2.22    0.30
   7  -9  -1    2.42    0.28
   7   9   0    0.20    0.24
  -7   9   0    0.12    0.17
  -7  -9   0   -0.12    0.17
   7   9   1    2.65    0.37
   7   9   1    2.57    0.41
  -7   9  -1    2.60    0.35
  -7  -9  -1    2.44    0.33
   7   9   2    0.29    0.24
   7   9   2    0.30    0.24
  -7  -9  -2    0.02    0.19
   7   9   3    2.27    0.44
   7   9   3    3.62    0.45
  -7  -9  -3    3.01    0.39
   7   9   4   -0.26    0.22
   7   9   4    0.18    0.27
  -7  -9  -4    0.04    0.23
   7   9   5    1.43    0.34
   7   9   5    0.93    0.33
  -7  -9  -5    0.93    0.29
   7  10  -3    0.55    0.27
  -7  10   3    0.16    0.23
   7 -10  -3    0.34    0.17
  -7  10   2    1.89    0.33
   7  10  -2    2.22    0.38
   7 -10  -2    1.83    0.28
  -7  10   1    0.19    0.20
   7  10  -1    0.55    0.26
  -7 -10   1    0.10    0.18
  -7  10   0    2.00    0.31
   7  10   0    2.42    0.38
  -7 -10   0    1.95    0.31
   7  10   1    0.50    0.27
   7  10   1    0.35    0.25
  -7 -10  -1    0.10    0.21
   7  10   2    1.60    0.37
   7  10   2    2.26    0.38
  -7 -10  -2    1.73    0.31
   7  10   3    0.06    0.27
   7  10   3   -0.26    0.26
  -7 -10  -3   -0.17    0.23
   8   0 -10   10.10    0.93
  -8   0   9   -0.05    0.18
   8   0  -9   -0.06    0.16
  -8   0   8   15.41    1.59
   8   0  -8   21.41    1.58
   8   0  -7   -0.11    0.13
  -8   0   7   -0.05    0.15
  -8   0   7   -0.16    0.16
  -8   0   7   -0.05    0.16
   8   0  -6   22.76    1.85
  -8   0   6   19.88    1.88
  -8   0   6   23.04    1.88
  -8   0   6   22.51    1.88
   8   0  -5    0.04    0.10
  -8   0   5    0.04    0.14
  -8   0   5   -0.14    0.13
  -8   0   5   -0.02    0.11
   8   0  -5   -0.02    0.14
  -8   0   4  101.72    7.88
   8   0  -4   90.38    7.84
  -8   0   4   94.21    7.85
   8   0  -4   98.29    7.89
  -8   0   3    0.07    0.12
  -8   0   3   -0.01    0.05
   8   0  -3   -0.02    0.13
  -8   0   3   -0.02    0.10
   8   0  -3   -0.03    0.08
  -8   0   2    2.13    0.26
   8   0  -2    1.55    0.22
   8   0  -2    1.67    0.24
  -8   0   2    1.90    0.24
  -8   0   1    0.07    0.10
   8   0  -1   -0.02    0.09
  -8   0   1    0.10    0.10
   8   0  -1   -0.02    0.09
   8   0   0  113.65   10.10
   8   0   0  113.68   10.09
  -8   0   0  118.69   10.12
   8   0   0  125.60   10.09
  -8   0   0  138.62   10.12
   8   0   0  124.99   10.12
   8   0   0  132.59   10.11
   8   0   1   -0.16    0.07
  -8   0  -1    0.03    0.07
   8   0   1   -0.02    0.08
   8   0   1   -0.04    0.06
  -8   0  -1    0.01    0.08
  -8   0  -1    0.03    0.06
   8   0   2    1.58    0.25
   8   0   2    1.57    0.20
   8   0   2    1.71    0.18
  -8   0  -2    1.78    0.19
  -8   0  -2    1.97    0.20
   8   0   3   -0.08    0.04
   8   0   3   -0.06    0.14
   8   0   3   -0.04    0.10
  -8   0  -3    0.14    0.06
  -8   0  -3    0.03    0.07
   8   0   3   -0.01    0.04
  -8   0  -4  103.30    7.82
   8   0   4   88.24    7.90
   8   0   4   95.43    7.84
   8   0   5   -0.10    0.11
  -8   0  -5    0.03    0.07
   8   0   5   -0.19    0.19
   8   0   6   18.98    1.96
  -8   0  -6   22.65    1.84
  -8   0  -6   21.68    1.83
   8   0   6   24.90    1.88
   8   0   7   -0.14    0.16
   8   0   7    0.01    0.26
   8   0   8   23.56    1.92
   8   0   8   21.09    2.05
   8   0   9   -0.10    0.19
   8   0  10   10.21    0.98
   8   1 -10    0.03    0.20
   8  -1 -10    0.27    0.22
  -8   1   9   11.01    1.15
   8   1  -9   14.05    1.13
   8  -1  -9   12.87    1.13
  -8   1   8    1.44    0.29
   8   1  -8    1.60    0.25
  -8   1   8    1.56    0.35
   8  -1  -8    1.69    0.26
  -8  -1   8    1.98    0.25
   8   1  -7   31.65    2.63
  -8   1   7   27.30    2.66
  -8   1   7   31.37    2.70
   8  -1  -7   33.96    2.63
  -8  -1   7   29.58    2.63
  -8  -1   7   33.97    2.65
  -8  -1   7   33.49    2.67
  -8   1   6    4.84    0.51
  -8   1   6    4.56    0.50
   8   1  -6    4.37    0.43
  -8   1   6    3.10    0.46
  -8  -1   6    3.86    0.45
   8  -1  -6    4.55    0.44
  -8  -1   6    4.82    0.45
  -8   1   5   27.05    2.37
   8   1  -5   25.43    2.37
  -8   1   5   29.07    2.38
   8   1  -5   27.70    2.33
   8  -1  -5   27.03    2.33
  -8  -1   5   31.00    2.36
  -8  -1   5   29.62    2.33
  -8   1   4    4.94    0.62
   8   1  -4    5.97    0.61
  -8   1   4    7.14    0.62
   8   1  -4    6.53    0.58
   8  -1  -4    7.90    0.64
   8  -1  -4    6.36    0.57
  -8  -1   4    6.84    0.61
  -8   1   3   44.07    3.72
   8   1  -3   43.93    3.70
   8   1  -3   47.39    3.69
  -8   1   3   50.15    3.72
   8  -1  -3   44.45    3.68
  -8  -1   3   39.31    3.69
  -8   1   2    4.45    0.45
   8   1  -2    4.49    0.44
  -8   1   2    4.86    0.46
   8   1  -2    4.88    0.46
   8  -1  -2    5.00    0.42
  -8  -1   2    3.67    0.44
   8   1  -1   34.35    2.64
  -8   1   1   30.65    2.64
  -8   1   1   34.74    2.60
  -8   1   1   28.64    2.63
   8   1  -1   27.62    2.62
   8  -1  -1   33.81    2.62
   8   1   0   -0.06    0.06
  -8   1   0   -0.04    0.06
   8   1   0   -0.02    0.08
   8   1   0   -0.03    0.08
  -8   1   0   -0.08    0.09
  -8   1   0   -0.04    0.09
  -8  -1   0   -0.09    0.07
  -8  -1   0    0.00    0.08
   8  -1   0    0.02    0.07
   8  -1   0    0.03    0.08
   8  -1   0   -0.01    0.05
   8   1   1   33.64    2.49
   8   1   1   32.59    2.48
  -8   1  -1   25.19    2.48
   8   1   1   25.89    2.47
  -8   1  -1   32.27    2.51
   8   1   1   31.30    2.49
  -8   1  -1   29.95    2.48
  -8   1  -1   32.99    2.48
   8  -1   1   29.42    2.47
  -8  -1  -1   25.92    2.47
  -8  -1  -1   33.45    2.46
  -8  -1  -1   28.15    2.48
  -8   1  -2    5.09    0.43
  -8   1  -2    5.51    0.50
  -8   1  -2    4.70    0.44
   8   1   2    4.47    0.48
   8   1   2    4.78    0.43
  -8   1  -2    4.61    0.44
   8  -1   2    4.54    0.43
   8  -1   2    4.64    0.40
  -8  -1  -2    5.36    0.44
   8  -1   2    4.98    0.41
   8  -1   2    5.41    0.48
  -8  -1  -2    4.39    0.42
  -8   1  -3   56.29    4.18
   8   1   3   48.90    4.16
  -8   1  -3   47.09    4.11
  -8   1  -3   49.77    4.12
   8   1   3   51.80    4.10
   8   1   3   45.11    4.13
   8  -1   3   53.67    4.17
  -8  -1  -3   50.33    4.11
  -8  -1  -3   51.88    4.09
   8  -1   3   47.45    4.11
  -8   1  -4    7.22    0.63
  -8   1  -4    6.72    0.59
   8   1   4    6.68    0.65
   8   1   4    6.81    0.71
   8   1   4    7.90    0.60
  -8  -1  -4    6.52    0.61
   8  -1   4    8.27    0.72
   8  -1   4    6.65    0.63
  -8   1  -5   27.42    2.42
  -8   1  -5   31.74    2.41
   8   1   5   25.88    2.40
   8   1   5   31.09    2.46
   8   1   5   27.04    2.52
   8  -1   5   31.13    2.45
  -8  -1  -5   30.76    2.43
   8  -1   5   31.45    2.53
  -8  -1  -5   28.87    2.43
   8   1   6    4.64    0.49
   8   1   6    4.06    0.58
   8  -1   6    4.70    0.48
  -8  -1  -6    4.77    0.44
   8  -1   6    4.94    0.62
   8   1   7   26.94    2.87
   8   1   7   38.86    2.79
  -8  -1  -7   34.01    2.75
   8  -1   7   32.22    2.88
   8  -1   7   33.50    2.77
   8   1   8    1.70    0.44
   8   1   8    1.42    0.28
   8  -1   8    1.76    0.30
   8  -1   8    1.56    0.42
   8   1   9   12.62    1.16
   8  -1   9   13.06    1.17
   8   1  10    0.15    0.26
   8  -1  10    0.01    0.26
  -8   2  10    8.08    0.82
   8   2 -10    7.79    0.77
   8  -2 -10    7.73    0.78
  -8   2   9    0.17    0.24
   8   2  -9    0.11    0.17
   8  -2  -9    0.00    0.20
   8   2  -8   16.05    1.45
  -8   2   8   17.46    1.55
  -8   2   8   16.91    1.51
  -8  -2   8   16.70    1.42
   8  -2  -8   17.51    1.46
   8   2  -7    0.02    0.13
  -8   2   7    0.04    0.21
  -8   2   7    0.34    0.19
  -8   2   7    0.04    0.21
   8  -2  -7    0.10    0.15
  -8  -2   7    0.25    0.13
   8   2  -6   52.86    4.12
  -8   2   6   45.84    4.15
  -8   2   6   53.59    4.16
  -8  -2   6   50.41    4.14
   8  -2  -6   47.81    4.11
  -8  -2   6   49.46    4.11
   8   2  -5    0.06    0.12
   8   2  -5    0.16    0.13
  -8   2   5   -0.10    0.15
  -8   2   5    0.35    0.18
   8  -2  -5    0.04    0.11
  -8  -2   5   -0.07    0.14
  -8  -2   5    0.24    0.13
  -8   2   4   10.21    0.98
   8   2  -4   12.02    0.98
   8   2  -4   11.53    0.95
  -8   2   4   12.11    1.01
   8   2  -4   11.33    0.97
  -8  -2   4   10.98    0.98
   8  -2  -4    9.89    0.95
  -8  -2   4   11.55    0.97
  -8   2   3    0.59    0.14
   8   2  -3    0.75    0.14
   8   2  -3    0.78    0.12
  -8   2   3    0.97    0.20
   8   2  -3    0.63    0.17
   8  -2  -3    1.06    0.11
  -8  -2   3    0.76    0.15
   8  -2  -3    0.89    0.13
  -8  -2   3    0.89    0.17
   8   2  -2  111.74    9.79
   8   2  -2  128.25    9.78
   8   2  -2  115.56    9.82
  -8   2   2  128.51    9.80
  -8   2   2  112.49    9.82
   8  -2  -2  121.27    9.77
  -8  -2   2  119.06    9.80
  -8  -2   2  122.60    9.80
   8   2  -1    5.39    0.48
  -8   2   1    4.44    0.44
  -8   2   1    5.00    0.47
   8   2  -1    5.13    0.44
   8  -2  -1    4.50    0.44
  -8  -2   1    4.84    0.46
  -8  -2   1    5.25    0.46
   8   2   0    1.79    0.18
  -8   2   0    1.57    0.18
   8   2   0    0.92    0.18
  -8   2   0    1.80    0.18
   8  -2   0    1.60    0.14
  -8  -2   0    1.35    0.18
   8  -2   0    1.69    0.20
   8  -2   0    1.30    0.18
  -8  -2   0    1.21    0.17
  -8   2  -1    4.68    0.42
   8   2   1    5.22    0.48
  -8   2  -1    4.63    0.44
   8   2   1    4.95    0.44
  -8   2  -1    4.43    0.47
   8   2   1    4.48    0.45
  -8  -2  -1    4.96    0.46
   8  -2   1    5.10    0.43
  -8  -2  -1    5.08    0.44
   8  -2   1    5.87    0.44
   8  -2   1    5.47    0.47
  -8   2  -2  131.70    9.30
   8   2   2  121.53    9.29
   8   2   2   96.62    9.32
  -8   2  -2   97.80    9.34
   8   2   2  116.48    9.31
  -8   2  -2  100.49    9.31
  -8  -2  -2  117.74    9.29
   8  -2   2  129.51    9.30
  -8  -2  -2  113.04    9.31
  -8   2  -3    1.02    0.12
   8   2   3    0.80    0.11
   8   2   3    0.58    0.16
   8   2   3    0.91    0.18
   8   2   3    0.68    0.13
  -8   2  -3    0.94    0.15
   8  -2   3    1.01    0.14
  -8  -2  -3    1.03    0.14
   8  -2   3    0.94    0.21
  -8  -2  -3    0.86    0.10
   8   2   4   10.48    1.01
  -8   2  -4   11.10    0.93
   8   2   4   10.69    0.97
  -8   2  -4   11.11    0.94
   8   2   4   13.07    0.95
  -8   2  -4   10.61    0.96
  -8  -2  -4   10.57    0.95
   8  -2   4   11.85    0.95
  -8  -2  -4    9.68    0.94
   8  -2   4   12.08    1.03
   8   2   5    0.05    0.09
  -8   2  -5    0.02    0.07
  -8   2  -5    0.09    0.12
   8   2   5   -0.06    0.14
   8   2   5    0.02    0.17
  -8  -2  -5    0.00    0.09
   8  -2   5    0.03    0.21
   8  -2   5    0.02    0.13
  -8   2  -6   51.73    4.13
   8   2   6   47.55    4.23
   8   2   6   47.70    4.16
  -8   2  -6   53.00    4.16
   8   2   6   50.15    4.12
   8  -2   6   54.43    4.25
   8  -2   6   48.28    4.15
  -8  -2  -6   49.80    4.14
  -8   2  -7    0.17    0.14
   8   2   7   -0.01    0.25
   8   2   7    0.03    0.17
   8  -2   7   -0.06    0.17
  -8  -2  -7    0.30    0.14
   8  -2   7    0.13    0.24
   8   2   8   15.12    1.56
   8   2   8   17.07    1.44
   8  -2   8   16.33    1.43
  -8  -2  -8   15.34    1.39
   8  -2   8   18.40    1.57
   8   2   9    0.02    0.25
   8  -2   9    0.12    0.22
   8   2  10    8.70    0.86
   8  -2  10    8.05    0.83
  -8   3   9   15.09    1.42
   8   3  -9   15.46    1.35
   8  -3  -9   15.47    1.36
  -8   3   8    0.25    0.25
  -8   3   8    1.01    0.34
   8   3  -8    0.74    0.20
   8  -3  -8    0.70    0.22
   8   3  -7   14.98    1.25
  -8   3   7   12.67    1.29
  -8   3   7   16.20    1.34
  -8  -3   7   14.48    1.21
   8  -3  -7   13.77    1.25
   8   3  -6    2.22    0.31
  -8   3   6    2.65    0.35
  -8   3   6    2.36    0.33
  -8  -3   6    2.55    0.32
   8  -3  -6    2.25    0.29
  -8  -3   6    2.45    0.28
  -8   3   5   60.86    5.02
  -8   3   5   61.20    5.05
   8   3  -5   59.88    5.02
   8   3  -5   62.43    5.02
  -8  -3   5   59.84    5.00
   8  -3  -5   59.59    5.00
  -8  -3   5   62.84    5.02
  -8   3   4    2.58    0.31
   8   3  -4    2.31    0.29
   8   3  -4    2.24    0.29
  -8   3   4    2.94    0.36
   8   3  -4    1.95    0.30
   8  -3  -4    2.85    0.24
  -8  -3   4    2.66    0.28
   8  -3  -4    1.93    0.27
  -8  -3   4    2.61    0.32
  -8   3   3   18.93    1.55
   8   3  -3   19.22    1.54
   8   3  -3   17.24    1.54
  -8   3   3   17.55    1.57
   8   3  -3   17.57    1.58
  -8  -3   3   20.69    1.56
   8  -3  -3   16.68    1.53
  -8  -3   3   18.73    1.54
   8  -3  -3   18.67    1.51
  -8   3   2    0.74    0.14
   8   3  -2    0.70    0.13
   8   3  -2    0.94    0.19
  -8   3   2    0.80    0.16
  -8  -3   2    0.82    0.14
   8  -3  -2    0.82    0.12
  -8  -3   2    0.76    0.14
   8   3  -1   45.67    3.77
   8   3  -1   38.23    3.79
  -8   3   1   42.61    3.77
  -8  -3   1   52.60    3.79
   8  -3  -1   45.03    3.77
  -8  -3   1   52.26    3.79
   8   3   0   -0.06    0.07
  -8   3   0   -0.05    0.06
   8   3   0   -0.09    0.08
   8  -3   0    0.08    0.11
  -8  -3   0    0.04    0.08
   8  -3   0   -0.06    0.08
  -8  -3   0   -0.03    0.08
   8   3   1   47.76    4.01
  -8   3  -1   44.78    3.99
  -8   3  -1   50.52    4.04
  -8   3  -1   44.73    4.00
   8   3   1   47.53    4.03
  -8  -3  -1   54.58    4.03
   8  -3   1   52.26    4.00
   8  -3   1   52.88    3.99
  -8  -3  -1   48.83    4.01
   8  -3   1   51.80    4.04
   8  -3   1   43.78    3.99
   8   3   2    0.72    0.10
   8   3   2    0.89    0.15
  -8   3  -2    0.78    0.17
  -8   3  -2    0.75    0.17
  -8   3  -2    0.92    0.11
   8   3   2    0.76    0.17
  -8  -3  -2    0.80    0.14
   8  -3   2    1.00    0.12
  -8  -3  -2    0.72    0.14
  -8  -3  -2    0.76    0.11
   8  -3   2    0.83    0.17
   8   3   3   17.14    1.54
   8   3   3   20.41    1.57
  -8   3  -3   14.92    1.58
  -8   3  -3   18.83    1.54
  -8  -3  -3   19.41    1.57
   8  -3   3   21.33    1.56
  -8  -3  -3   19.05    1.57
  -8   3  -4    2.70    0.27
   8   3   4    2.36    0.24
  -8   3  -4    2.82    0.24
   8   3   4    2.68    0.30
  -8   3  -4    2.92    0.33
   8   3   4    2.30    0.32
  -8  -3  -4    2.51    0.29
   8  -3   4    3.13    0.30
   8   3   5   63.96    5.11
  -8   3  -5   60.04    5.05
   8   3   5   56.34    5.05
  -8   3  -5   59.74    5.02
   8   3   5   66.75    5.04
  -8  -3  -5   56.73    5.04
   8  -3   5   63.76    5.04
   8  -3   5   64.00    5.12
   8   3   6    2.57    0.30
  -8   3  -6    2.23    0.26
   8   3   6    2.24    0.32
   8   3   6    2.35    0.40
  -8   3  -6    2.04    0.29
   8  -3   6    2.70    0.32
  -8  -3  -6    2.40    0.31
   8  -3   6    2.08    0.39
   8   3   7   13.90    1.24
   8   3   7   12.15    1.19
  -8   3  -7   14.19    1.26
   8   3   7   15.33    1.37
   8  -3   7   17.28    1.36
   8  -3   7   14.26    1.23
  -8  -3  -7   13.32    1.21
   8   3   8    0.46    0.25
   8   3   8    0.75    0.40
  -8  -3  -8    0.58    0.19
   8  -3   8    0.88    0.26
   8  -3   8    0.53    0.36
   8   3   9   15.06    1.33
   8  -3   9   14.41    1.31
  -8  -3  -9   14.38    1.31
  -8   4   9    0.10    0.27
   8  -4  -9    0.37    0.23
  -8   4   8   21.81    1.78
  -8   4   8   17.09    1.68
   8   4  -8   19.63    1.67
   8  -4  -8   18.35    1.65
   8   4  -7   -0.11    0.16
  -8   4   7   -0.08    0.19
   8   4  -7    0.11    0.20
   8  -4  -7    0.32    0.19
   8   4  -6   13.54    1.16
   8   4  -6   13.95    1.21
  -8   4   6   13.93    1.39
  -8   4   6   12.23    1.17
   8  -4  -6   12.53    1.16
  -8  -4   6   13.35    1.13
  -8  -4   6   14.11    1.13
  -8   4   5    0.13    0.14
   8   4  -5    0.15    0.13
   8   4  -5    0.24    0.15
  -8   4   5    0.29    0.18
   8   4  -5    0.14    0.17
  -8  -4   5    0.08    0.10
  -8  -4   5    0.05    0.15
   8  -4  -5   -0.02    0.12
  -8  -4   5    0.13    0.11
   8   4  -4   78.47    5.59
   8   4  -4   68.10    5.63
   8   4  -4   74.00    5.62
  -8   4   4   66.83    5.62
  -8   4   4   65.03    5.59
  -8  -4   4   61.25    5.58
   8  -4  -4   65.73    5.58
  -8  -4   4   66.22    5.60
   8   4  -3    2.90    0.35
  -8   4   3    2.74    0.32
   8   4  -3    2.09    0.26
  -8   4   3    2.05    0.28
   8   4  -3    2.94    0.31
   8   4  -3    2.38    0.28
  -8  -4   3    2.99    0.29
  -8  -4   3    2.77    0.32
   8  -4  -3    2.38    0.28
   8   4  -2    9.96    0.90
   8   4  -2   10.50    0.94
  -8   4   2   10.38    0.91
  -8  -4   2   12.11    0.93
   8  -4  -2   10.38    0.90
  -8  -4   2   10.52    0.91
  -8   4   1    6.48    0.58
   8   4  -1    7.03    0.58
  -8  -4   1    6.18    0.59
  -8  -4   1    7.11    0.59
   8  -4  -1    5.80    0.57
  -8  -4   1    6.94    0.60
   8   4   0   87.24    7.92
  -8   4   0   87.18    7.90
   8   4   0   95.93    7.90
   8  -4   0   89.95    7.93
  -8  -4   0   99.52    7.91
  -8  -4   0   97.13    7.91
  -8  -4   0  100.87    7.88
   8  -4   0  102.51    7.90
  -8  -4   0  110.43    7.91
  -8   4  -1    6.54    0.56
   8   4   1    6.34    0.58
  -8   4  -1    6.43    0.58
   8   4   1    6.66    0.62
   8  -4   1    8.60    0.65
  -8  -4  -1    7.45    0.61
   8  -4   1    7.07    0.56
  -8  -4  -1    6.94    0.61
  -8  -4  -1    6.39    0.59
   8  -4   1    6.35    0.56
  -8   4  -2   10.31    0.92
   8   4   2   11.65    0.96
   8   4   2   10.08    0.92
   8   4   2    9.23    0.96
   8  -4   2   12.17    0.92
  -8  -4  -2   10.91    0.93
  -8  -4  -2   11.49    0.95
   8  -4   2   12.51    0.98
   8   4   3    2.58    0.25
   8   4   3    2.98    0.31
  -8   4  -3    1.87    0.31
  -8   4  -3    2.57    0.25
   8  -4   3    3.12    0.28
  -8  -4  -3    2.70    0.31
  -8   4  -4   53.54    5.16
   8   4   4   63.07    5.10
   8   4   4   66.49    5.15
  -8   4  -4   64.94    5.13
  -8  -4  -4   64.43    5.14
   8   4   5    0.08    0.14
  -8   4  -5   -0.01    0.10
  -8   4  -5    0.17    0.15
   8   4   5   -0.08    0.16
   8  -4   5    0.09    0.14
  -8  -4  -5    0.26    0.15
   8   4   6   13.55    1.17
   8   4   6   13.63    1.25
  -8   4  -6   13.18    1.15
   8   4   6   12.89    1.19
  -8   4  -6   13.05    1.20
  -8  -4  -6   12.85    1.17
   8  -4   6   14.88    1.18
   8   4   7    0.06    0.22
   8   4   7    0.27    0.16
   8   4   7    0.05    0.29
  -8  -4  -7    0.16    0.16
   8  -4   7    0.05    0.16
   8   4   8   19.36    1.76
   8  -4   8   22.12    1.75
  -8  -4  -8   19.21    1.73
   8   4   9    0.08    0.23
  -8  -4  -9    0.05    0.21
   8  -4   9    0.30    0.24
  -8   5   9    4.73    0.60
   8  -5  -9    4.68    0.61
  -8   5   8    0.13    0.24
   8  -5  -8    0.36    0.23
   8   5  -7   21.00    2.20
  -8   5   7   26.39    2.19
   8  -5  -7   29.45    2.19
  -8   5   6    0.03    0.18
   8   5  -6    0.18    0.22
   8   5  -6    0.02    0.27
  -8  -5   6    0.12    0.10
   8  -5  -6    0.14    0.18
   8   5  -5   12.38    1.01
   8   5  -5   11.55    0.94
  -8   5   5    9.76    0.94
   8  -5  -5    9.76    0.94
  -8  -5   5   10.36    0.91
  -8   5   4    0.04    0.17
   8   5  -4    0.12    0.11
  -8   5   4    0.07    0.14
   8   5  -4    0.25    0.19
  -8  -5   4    0.06    0.11
  -8  -5   4    0.06    0.13
   8  -5  -4    0.08    0.13
   8   5  -3   61.40    4.92
   8   5  -3   57.28    4.92
  -8   5   3   60.46    4.90
  -8  -5   3   63.50    4.89
   8  -5  -3   54.28    4.88
  -8  -5   3   60.89    4.91
   8   5  -2   -0.27    0.13
   8   5  -2    0.04    0.11
  -8   5   2   -0.02    0.11
  -8  -5   2    0.06    0.11
  -8  -5   2    0.01    0.12
   8  -5  -2   -0.01    0.09
  -8   5   1   28.45    2.32
   8   5  -1   27.41    2.32
  -8  -5   1   31.43    2.33
  -8  -5   1   27.07    2.32
   8  -5  -1   25.84    2.30
  -8   5   0    0.01    0.09
   8   5   0    0.12    0.13
   8   5   0    0.04    0.10
  -8  -5   0    0.01    0.10
   8  -5   0    0.01    0.07
  -8  -5   0   -0.03    0.11
  -8  -5   0    0.06    0.07
   8   5   1   31.07    2.53
  -8   5  -1   29.44    2.47
   8   5   1   30.02    2.50
  -8   5  -1   29.50    2.50
  -8  -5  -1   30.08    2.50
  -8  -5  -1   31.89    2.52
   8   5   2   -0.02    0.15
   8   5   2    0.16    0.13
   8   5   2    0.13    0.09
  -8   5  -2    0.00    0.07
  -8  -5  -2    0.04    0.12
  -8  -5  -2    0.01    0.09
   8   5   3   60.31    4.85
  -8   5  -3   62.05    4.82
  -8   5  -3   56.98    4.84
   8   5   3   60.85    4.82
  -8  -5  -3   54.35    4.85
   8   5   4    0.08    0.07
   8   5   4    0.15    0.15
  -8   5  -4    0.16    0.16
  -8   5  -4    0.08    0.11
   8   5   4    0.00    0.19
  -8  -5  -4    0.11    0.15
  -8   5  -5   10.40    0.87
   8   5   5    8.51    0.91
  -8   5  -5    9.41    0.92
   8   5   5   10.71    0.91
  -8  -5  -5   10.09    0.90
   8   5   6    0.36    0.22
   8   5   6    0.09    0.19
   8  -5   6    0.20    0.18
  -8  -5  -6    0.21    0.18
   8   5   7   27.88    2.64
   8   5   7   30.28    2.56
   8   5   7   30.76    2.59
   8  -5   7   31.60    2.56
  -8  -5  -7   31.32    2.56
   8   5   8    0.38    0.27
   8   5   8    0.41    0.20
  -8  -5  -8    0.17    0.22
   8   5   9    4.64    0.58
  -8  -5  -9    4.72    0.58
  -8   6   8    5.90    0.70
   8  -6  -8    6.05    0.68
   8   6  -7   -0.31    0.26
  -8   6   7    0.12    0.21
   8  -6  -7    0.17    0.22
   8   6  -6   26.92    2.31
  -8   6   6   26.03    2.27
   8  -6  -6   27.63    2.27
   8   6  -5    0.05    0.20
  -8   6   5    0.10    0.18
  -8  -6   5    0.20    0.11
   8  -6  -5    0.16    0.17
  -8   6   4   13.38    1.10
   8   6  -4   10.67    1.11
   8  -6  -4   13.07    1.09
  -8  -6   4   12.56    1.07
   8   6  -3    1.27    0.29
  -8   6   3    2.43    0.31
   8  -6  -3    2.16    0.28
  -8  -6   3    2.42    0.30
  -8  -6   3    2.31    0.28
  -8   6   2   49.52    4.13
  -8  -6   2   53.78    4.14
  -8  -6   2   48.79    4.12
   8  -6  -2   48.71    4.11
  -8   6   1    4.72    0.44
   8   6  -1    4.20    0.47
  -8  -6   1    4.37    0.44
  -8  -6   1    4.40    0.44
   8  -6  -1    4.22    0.41
   8   6   0   23.94    1.98
   8   6   0   22.10    1.95
  -8   6   0   23.06    1.95
  -8  -6   0   21.44    1.95
   8  -6   0   24.87    1.93
  -8  -6   0   24.50    1.96
  -8  -6   0   23.49    1.93
  -8   6  -1    4.47    0.43
   8   6   1    4.68    0.48
   8   6   1    4.35    0.43
  -8  -6  -1    4.62    0.44
   8   6   2   51.28    4.06
   8   6   2   44.09    4.03
   8   6   2   49.20    4.01
  -8   6  -2   50.07    4.00
  -8  -6  -2   49.50    4.03
   8   6   3    2.27    0.29
   8   6   3    1.47    0.30
   8   6   3    2.53    0.25
  -8  -6  -3    1.79    0.27
   8   6   4   13.30    1.15
  -8  -6  -4   12.44    1.13
   8   6   5    0.34    0.20
   8   6   5   -0.01    0.24
  -8  -6  -5    0.16    0.19
   8   6   6   29.39    2.36
   8   6   6   26.34    2.37
  -8  -6  -6   27.62    2.35
   8   6   7    0.06    0.21
   8   6   7   -0.13    0.21
  -8  -6  -7    0.02    0.20
   8   6   8    5.41    0.66
   8   6   8    5.83    0.63
  -8  -6  -8    5.14    0.63
  -8   7   7    3.71    0.47
   8  -7  -7    3.79    0.47
  -8   7   6    0.08    0.21
   8   7  -6    0.01    0.24
   8  -7  -6   -0.18    0.20
   8   7  -5   22.80    2.15
  -8   7   5   25.71    2.14
   8  -7  -5   26.70    2.13
  -8   7   4    0.04    0.16
   8   7  -4   -0.40    0.17
  -8  -7   4    0.05    0.12
   8  -7  -4    0.22    0.16
  -8   7   3   13.93    1.19
  -8  -7   3   13.58    1.16
   8  -7  -3   13.21    1.16
   8   7  -2    0.23    0.19
  -8   7   2   -0.04    0.15
  -8  -7   2    0.06    0.13
   8  -7  -2    0.20    0.12
  -8   7   1   35.17    2.73
   8   7  -1   30.29    2.74
   8  -7  -1   34.62    2.70
  -8  -7   1   33.14    2.73
  -8  -7   1   30.29    2.72
  -8   7   0    0.03    0.12
   8   7   0   -0.06    0.17
  -8  -7   0    0.01    0.15
   8  -7   0    0.08    0.08
  -8  -7   0    0.07    0.13
   8   7   1   33.73    2.84
  -8   7  -1   36.60    2.81
  -8  -7  -1   31.41    2.82
   8   7   2    0.30    0.19
   8   7   2    0.20    0.13
   8   7   2    0.46    0.24
  -8  -7  -2    0.15    0.17
   8   7   3   10.94    1.20
   8   7   3   15.20    1.19
  -8  -7  -3   13.20    1.17
   8   7   4    0.22    0.20
   8   7   4   -0.14    0.19
  -8  -7  -4    0.21    0.20
   8   7   5   25.90    2.40
   8   7   5   29.50    2.39
  -8  -7  -5   28.63    2.38
   8   7   6    0.04    0.24
   8   7   6   -0.22    0.22
  -8  -7  -6    0.06    0.21
   8   7   7    3.91    0.52
   8   7   7    3.75    0.48
  -8  -7  -7    3.61    0.47
  -8   8   6    4.38    0.58
   8  -8  -6    4.73    0.56
  -8   8   5    0.15    0.23
   8   8  -5   -0.31    0.22
   8  -8  -5    0.14    0.20
  -8   8   4   20.58    1.75
   8  -8  -4   19.85    1.72
  -8   8   3    0.74    0.21
   8   8  -3    0.87    0.25
  -8  -8   3    1.05    0.18
   8  -8  -3    0.63    0.17
  -8   8   2   16.70    1.41
   8   8  -2   14.50    1.42
   8  -8  -2   15.82    1.37
  -8  -8   2   17.67    1.39
  -8   8   1    1.60    0.25
   8   8  -1    1.77    0.29
  -8  -8   1    1.47    0.24
   8  -8  -1    1.38    0.19
  -8   8   0   22.01    1.89
   8   8   0   22.78    1.92
  -8  -8   0   22.40    1.89
   8   8   1    1.56    0.29
  -8   8  -1    1.62    0.24
  -8  -8  -1    1.53    0.27
   8   8   2   17.24    1.43
   8   8   2   15.62    1.45
  -8  -8  -2   15.65    1.41
   8   8   3    0.64    0.25
   8   8   3    0.53    0.26
  -8  -8  -3    0.85    0.24
   8   8   4   19.75    1.71
  -8  -8  -4   19.09    1.68
   8   8   5    0.40    0.27
   8   8   5   -0.14    0.23
  -8  -8  -5    0.26    0.23
   8   8   6    4.53    0.61
   8   8   6    6.27    0.68
  -8  -8  -6    5.22    0.63
   8   9  -5    3.74    0.53
  -8   9   5    4.87    0.57
   8  -9  -5    4.45    0.54
  -8   9   4    0.21    0.24
   8   9  -4    0.53    0.25
   8  -9  -4    0.17    0.19
   8   9  -3   13.50    1.30
  -8   9   3   13.49    1.28
   8  -9  -3   15.03    1.24
  -8  -9   3   15.05    1.24
  -8   9   2    0.21    0.20
   8   9  -2    0.26    0.23
   8  -9  -2   -0.01    0.13
  -8  -9   2    0.18    0.17
   8   9  -1   12.89    1.22
  -8   9   1   12.48    1.18
  -8  -9   1   14.39    1.17
   8   9   0   -0.12    0.23
  -8   9   0    0.18    0.18
  -8  -9   0    0.00    0.18
   8   9   1   13.56    1.24
   8   9   1   13.43    1.23
  -8  -9  -1   13.25    1.20
   8   9   2    0.49    0.27
   8   9   2    0.37    0.23
  -8  -9  -2    0.10    0.21
   8   9   3   10.75    1.24
   8   9   3   14.87    1.25
  -8  -9  -3   14.61    1.23
   8   9   4   -0.12    0.25
   8   9   4    0.34    0.27
  -8  -9  -4    0.30    0.25
   8   9   5    5.24    0.67
   8   9   5    4.90    0.62
  -8  -9  -5    4.52    0.61
  -8  10   2    8.95    0.85
   8  10  -2    9.61    0.90
  -8 -10   2    7.74    0.79
  -8  10   1    0.05    0.22
   8  10  -1    0.36    0.26
  -8 -10   1    0.22    0.19
   8  10   0   12.70    1.06
  -8  10   0   10.27    0.98
  -8 -10   0    9.61    0.98
   8  10   1    0.56    0.27
   8  10   1    0.62    0.29
  -8 -10  -1    0.44    0.24
   8  10   2    8.98    0.89
   8  10   2    7.37    0.83
  -8 -10  -2    8.11    0.83
   9   0 -10    0.35    0.22
   9   0  -9   -0.07    0.18
  -9   0   9   -0.37    0.18
  -9   0   8    0.16    0.21
   9   0  -8    0.58    0.19
   9   0  -7   -0.05    0.13
  -9   0   7   -0.24    0.17
  -9   0   6    1.45    0.24
   9   0  -6    1.10    0.19
  -9   0   6    1.38    0.21
  -9   0   6    0.85    0.21
  -9   0   5    0.05    0.15
  -9   0   5   -0.03    0.09
  -9   0   5   -0.38    0.12
   9   0  -5   -0.20    0.15
   9   0  -5   -0.07    0.10
  -9   0   4    5.13    0.54
  -9   0   4    5.44    0.54
  -9   0   4    5.83    0.48
   9   0  -4    4.85    0.50
   9   0  -4    5.70    0.56
  -9   0   3    0.14    0.12
   9   0  -3   -0.05    0.09
   9   0  -3    0.11    0.12
  -9   0   3    0.11    0.12
   9   0  -2    0.63    0.14
  -9   0   2    0.85    0.16
   9   0  -2    0.69    0.17
  -9   0   2    0.64    0.15
   9   0  -1   -0.04    0.09
   9   0  -1   -0.06    0.11
  -9   0   1    0.06    0.09
  -9   0   1    0.05    0.10
   9   0  -1   -0.06    0.05
  -9   0   0   26.38    2.43
  -9   0   0   32.76    2.43
   9   0   0   28.24    2.41
   9   0   0   27.30    2.42
   9   0   0   31.66    2.40
   9   0   1   -0.09    0.07
  -9   0  -1    0.02    0.09
   9   0   1    0.05    0.09
  -9   0  -1    0.12    0.09
   9   0   1   -0.04    0.08
  -9   0  -1    0.01    0.06
  -9   0  -2    0.76    0.11
   9   0   2    0.79    0.11
   9   0   2    0.88    0.18
   9   0   2    0.43    0.13
  -9   0  -2    0.41    0.12
  -9   0  -2    0.99    0.12
   9   0   3    0.00    0.15
  -9   0  -3   -0.03    0.07
   9   0   3    0.05    0.05
   9   0   3    0.05    0.05
  -9   0  -3    0.14    0.07
  -9   0  -3   -0.13    0.08
   9   0   3   -0.11    0.11
  -9   0  -4    5.29    0.48
   9   0   4    6.09    0.55
  -9   0  -4    6.15    0.48
  -9   0  -4    5.84    0.52
   9   0   4    5.27    0.62
  -9   0  -5    0.10    0.09
   9   0   5   -0.05    0.18
   9   0   5    0.06    0.15
   9   0   6    1.43    0.25
  -9   0  -6    1.32    0.19
  -9   0  -6    1.86    0.22
   9   0   6    1.30    0.35
   9   0   7    0.03    0.25
   9   0   7   -0.07    0.16
   9   0   8    0.75    0.35
   9   0   8    0.83    0.26
   9   0   9   -0.13    0.20
   9   0  10    0.66    0.30
   9   1 -10   -0.06    0.19
   9  -1 -10    0.19    0.22
   9   1  -9    0.78    0.21
  -9   1   9    0.45    0.25
   9  -1  -9    0.64    0.22
   9   1  -8    0.08    0.15
  -9   1   8   -0.02    0.20
  -9  -1   8    0.01    0.16
   9  -1  -8    0.08    0.17
  -9   1   7    1.12    0.25
  -9   1   7    1.68    0.28
   9   1  -7    1.04    0.20
   9  -1  -7    1.24    0.22
  -9  -1   7    1.00    0.22
   9   1  -6    0.31    0.14
  -9   1   6    0.44    0.20
  -9   1   6    0.34    0.17
  -9   1   6    0.44    0.20
  -9  -1   6    0.43    0.13
   9  -1  -6    0.43    0.14
  -9  -1   6    0.00    0.15
  -9  -1   6    0.10    0.16
  -9   1   5    1.49    0.25
  -9   1   5    1.71    0.29
  -9   1   5    2.28    0.28
   9   1  -5    1.66    0.22
  -9  -1   5    1.10    0.24
  -9  -1   5    1.55    0.25
   9  -1  -5    1.39    0.20
   9   1  -4    0.48    0.16
  -9   1   4    0.79    0.21
   9   1  -4    0.59    0.14
  -9   1   4    0.86    0.14
  -9   1   4    1.10    0.20
  -9  -1   4    0.50    0.18
   9  -1  -4    0.48    0.13
  -9  -1   4    0.73    0.18
   9   1  -3    6.17    0.54
  -9   1   3    5.18    0.56
   9   1  -3    5.85    0.56
  -9  -1   3    5.86    0.55
  -9  -1   3    4.73    0.53
   9  -1  -3    6.02    0.51
   9   1  -2    0.07    0.11
   9   1  -2    0.15    0.13
  -9   1   2    0.17    0.14
  -9   1   2    0.64    0.16
   9  -1  -2    0.22    0.10
  -9  -1   2    0.03    0.11
  -9  -1   2    0.18    0.12
  -9   1   1    5.48    0.50
  -9   1   1    4.18    0.49
   9   1  -1    4.64    0.49
  -9   1   1    5.64    0.44
   9  -1  -1    5.87    0.49
  -9  -1   1    4.23    0.48
   9   1   0    0.00    0.06
  -9   1   0    0.09    0.10
   9   1   0   -0.08    0.09
  -9   1   0   -0.10    0.10
   9   1   0   -0.11    0.09
  -9   1   0   -0.02    0.07
  -9  -1   0   -0.06    0.08
   9  -1   0    0.05    0.06
   9  -1   0    0.02    0.08
  -9  -1   0   -0.22    0.08
   9  -1   0    0.13    0.09
   9   1   1    5.00    0.48
  -9   1  -1    5.78    0.49
  -9   1  -1    6.01    0.50
   9   1   1    5.77    0.48
   9   1   1    6.08    0.48
  -9   1  -1    5.16    0.48
   9  -1   1    4.81    0.45
  -9  -1  -1    5.45    0.44
   9  -1   1    4.13    0.45
  -9  -1  -1    3.85    0.47
   9   1   2    0.29    0.13
   9   1   2    0.07    0.11
  -9   1  -2    0.42    0.10
  -9   1  -2    0.41    0.11
   9   1   2    0.44    0.10
  -9   1  -2    0.41    0.15
  -9   1  -2    0.34    0.10
   9  -1   2    0.44    0.14
   9  -1   2    0.34    0.10
  -9  -1  -2    0.31    0.08
   9  -1   2    0.35    0.06
  -9  -1  -2    0.50    0.12
   9  -1   2    0.34    0.06
  -9  -1  -2    0.37    0.07
  -9   1  -3    7.20    0.61
   9   1   3    5.47    0.66
  -9   1  -3    7.47    0.67
   9   1   3    6.79    0.60
  -9   1  -3    6.39    0.61
   9   1   3    5.66    0.63
  -9   1  -3    7.70    0.60
  -9  -1  -3    7.47    0.62
   9  -1   3    7.79    0.68
   9  -1   3    7.10    0.62
  -9  -1  -3    6.98    0.58
  -9   1  -4    0.65    0.14
   9   1   4    0.47    0.21
   9   1   4    0.70    0.11
  -9   1  -4    0.75    0.10
   9   1   4    0.74    0.19
  -9   1  -4    0.88    0.11
   9  -1   4    0.77    0.16
   9  -1   4    0.88    0.22
  -9  -1  -4    0.83    0.14
  -9   1  -5    1.85    0.18
   9   1   5    2.14    0.28
  -9   1  -5    1.93    0.21
  -9   1  -5    1.41    0.22
  -9   1  -5    1.79    0.18
   9   1   5    1.27    0.31
   9  -1   5    2.00    0.35
  -9  -1  -5    1.68    0.23
   9  -1   5    1.51    0.23
   9   1   6    0.13    0.24
   9   1   6    0.38    0.20
   9  -1   6    0.38    0.18
   9  -1   6    0.36    0.24
  -9  -1  -6    0.54    0.13
   9   1   7    0.85    0.34
   9   1   7    1.14    0.26
   9  -1   7    1.29    0.25
   9  -1   7    1.37    0.34
  -9  -1  -7    1.35    0.20
   9   1   8   -0.04    0.27
   9   1   8    0.05    0.20
   9  -1   8    0.04    0.21
   9  -1   8    0.32    0.33
   9   1   9    0.32    0.24
   9  -1   9    0.33    0.26
   9   1  10   -0.26    0.25
   9  -1  10   -0.01    0.27
  -9   2   9   -0.20    0.23
   9   2  -9    0.08    0.18
   9  -2  -9    0.08    0.21
   9   2  -8    0.77    0.21
  -9   2   8    0.78    0.27
  -9  -2   8    1.27    0.20
   9  -2  -8    1.00    0.24
  -9   2   7   -0.24    0.20
  -9   2   7   -0.05    0.20
   9   2  -7    0.09    0.15
  -9  -2   7    0.26    0.14
   9  -2  -7    0.09    0.16
  -9   2   6    2.06    0.31
  -9   2   6    2.13    0.32
  -9   2   6    1.01    0.28
  -9  -2   6    1.81    0.28
  -9  -2   6    2.68    0.30
   9  -2  -6    1.89    0.26
  -9   2   5    0.11    0.17
   9   2  -5   -0.10    0.13
  -9   2   5   -0.20    0.15
  -9  -2   5   -0.12    0.14
  -9  -2   5    0.07    0.13
   9  -2  -5   -0.05    0.11
   9   2  -4    0.64    0.17
  -9   2   4    1.11    0.21
   9   2  -4    0.73    0.16
  -9   2   4    0.67    0.19
  -9  -2   4    0.75    0.18
  -9  -2   4    0.62    0.16
   9  -2  -4    0.72    0.14
   9   2  -3    0.14    0.11
  -9   2   3    0.14    0.13
   9   2  -3   -0.02    0.14
  -9   2   3    0.05    0.12
   9  -2  -3    0.12    0.09
  -9  -2   3    0.04    0.13
  -9  -2   3    0.19    0.13
   9  -2  -3    0.12    0.06
   9   2  -2   11.00    0.92
   9   2  -2    9.59    0.94
  -9   2   2   11.46    0.93
  -9   2   2    9.36    0.95
   9   2  -2    9.93    0.88
  -9  -2   2   10.55    0.93
   9  -2  -2   12.41    0.88
  -9  -2   2   10.35    0.93
   9  -2  -2   10.87    0.91
   9   2  -1    0.40    0.11
   9   2  -1    0.42    0.14
  -9   2   1    0.26    0.11
  -9   2   1    0.30    0.10
  -9  -2   1    0.44    0.12
   9  -2  -1    0.32    0.06
   9  -2  -1    0.45    0.11
  -9  -2   1    0.21    0.10
  -9   2   0    0.87    0.14
   9   2   0    0.47    0.13
  -9   2   0    0.83    0.13
   9   2   0    0.84    0.13
  -9   2   0    1.04    0.15
   9  -2   0    1.12    0.15
   9  -2   0    0.77    0.10
  -9  -2   0    0.67    0.13
   9  -2   0    1.00    0.15
  -9  -2   0    0.67    0.13
  -9   2  -1    0.39    0.10
   9   2   1    0.36    0.11
   9   2   1    0.22    0.09
  -9   2  -1    0.37    0.13
   9   2   1    0.58    0.14
  -9  -2  -1    0.39    0.05
  -9  -2  -1    0.35    0.09
   9  -2   1    0.17    0.07
   9  -2   1    0.55    0.12
   9  -2   1    0.35    0.08
  -9  -2  -1    0.49    0.12
   9   2   2    9.05    0.90
   9   2   2    9.18    0.87
  -9   2  -2   10.55    0.88
  -9   2  -2    9.03    0.93
   9   2   2   10.13    0.89
   9   2   2   11.48    0.91
   9  -2   2   10.71    0.87
  -9  -2  -2   10.85    0.86
  -9  -2  -2   11.36    0.89
  -9   2  -3    0.02    0.11
   9   2   3    0.16    0.09
   9   2   3   -0.09    0.13
   9   2   3    0.07    0.14
   9   2   3    0.13    0.07
  -9   2  -3    0.14    0.09
   9  -2   3    0.18    0.16
   9  -2   3    0.07    0.09
  -9  -2  -3    0.10    0.10
  -9  -2  -3    0.11    0.05
  -9   2  -4    1.05    0.13
   9   2   4    1.01    0.23
  -9   2  -4    0.76    0.15
   9   2   4    0.53    0.18
   9   2   4    1.12    0.15
  -9   2  -4    0.82    0.13
  -9  -2  -4    0.81    0.15
   9  -2   4    0.59    0.15
  -9  -2  -4    0.87    0.16
   9  -2   4    0.92    0.24
  -9   2  -5    0.13    0.12
   9   2   5    0.08    0.09
   9   2   5   -0.24    0.17
   9   2   5    0.07    0.21
  -9   2  -5   -0.08    0.07
   9  -2   5    0.02    0.13
  -9  -2  -5   -0.02    0.11
   9  -2   5    0.03    0.19
   9   2   6    1.78    0.23
  -9   2  -6    2.07    0.28
   9   2   6    2.06    0.32
   9   2   6    2.04    0.39
   9  -2   6    2.65    0.41
   9  -2   6    2.20    0.29
  -9  -2  -6    2.19    0.28
  -9   2  -7   -0.10    0.14
   9   2   7    0.07    0.24
   9   2   7   -0.06    0.17
   9  -2   7   -0.17    0.18
   9  -2   7    0.17    0.25
  -9  -2  -7    0.00    0.14
   9   2   8    0.91    0.27
   9   2   8    0.66    0.33
   9  -2   8    0.95    0.37
   9  -2   8    0.91    0.25
  -9  -2  -8    0.94    0.24
   9   2   9    0.07    0.26
   9  -2   9    0.05    0.22
   9   3  -9    0.84    0.25
  -9   3   9    1.18    0.33
   9  -3  -9    0.86    0.26
   9   3  -8    0.03    0.18
  -9   3   8    0.03    0.25
   9  -3  -8   -0.04    0.19
   9   3  -7    0.57    0.20
  -9   3   7    0.37    0.25
  -9   3   7    0.21    0.23
  -9  -3   7    0.60    0.15
   9  -3  -7    0.31    0.18
   9   3  -6    0.07    0.17
  -9   3   6   -0.15    0.17
  -9   3   6    0.53    0.31
  -9  -3   6    0.24    0.13
   9  -3  -6    0.11    0.14
  -9   3   5    5.73    0.53
  -9   3   5    4.47    0.47
   9   3  -5    3.58    0.48
   9  -3  -5    3.81    0.42
  -9  -3   5    4.47    0.47
  -9  -3   5    4.21    0.43
   9   3  -4    0.04    0.16
   9   3  -4    0.23    0.11
  -9   3   4    0.23    0.14
  -9   3   4    0.23    0.15
  -9  -3   4    0.39    0.13
  -9  -3   4    0.04    0.13
   9  -3  -4    0.19    0.11
  -9   3   3    1.41    0.26
   9   3  -3    2.10    0.19
   9   3  -3    1.57    0.22
  -9   3   3    1.50    0.22
   9   3  -3    1.30    0.24
   9   3  -3    1.79    0.22
   9  -3  -3    1.61    0.22
  -9  -3   3    1.61    0.24
  -9  -3   3    2.40    0.25
   9  -3  -3    1.43    0.16
   9   3  -2    0.05    0.13
   9   3  -2    0.20    0.09
  -9   3   2    0.22    0.12
  -9   3   2    0.07    0.10
  -9  -3   2    0.14    0.11
   9  -3  -2    0.03    0.09
  -9  -3   2    0.16    0.11
  -9   3   1    7.01    0.62
  -9   3   1    6.99    0.63
   9   3  -1    6.17    0.61
   9   3  -1    7.56    0.65
  -9  -3   1    7.26    0.63
   9  -3  -1    6.40    0.61
  -9  -3   1    7.82    0.63
  -9   3   0    0.03    0.08
   9   3   0   -0.07    0.07
   9   3   0   -0.23    0.10
  -9   3   0   -0.04    0.07
  -9  -3   0    0.01    0.09
  -9  -3   0    0.00    0.10
   9  -3   0   -0.03    0.09
   9  -3   0    0.08    0.11
  -9   3  -1    7.05    0.65
  -9   3  -1    7.08    0.61
   9   3   1    8.13    0.66
   9   3   1    6.30    0.60
  -9   3  -1    6.10    0.58
   9   3   1    5.93    0.63
  -9  -3  -1    6.97    0.61
   9  -3   1    6.89    0.59
   9  -3   1    7.95    0.59
   9  -3   1    8.71    0.66
   9  -3   1    7.66    0.59
  -9  -3  -1    6.16    0.62
   9   3   2    0.07    0.07
   9   3   2    0.15    0.13
  -9   3  -2    0.13    0.07
   9   3   2    0.26    0.12
  -9  -3  -2    0.11    0.07
   9  -3   2    0.19    0.08
  -9  -3  -2    0.27    0.11
  -9   3  -3    1.76    0.18
  -9   3  -3    1.30    0.23
   9   3   3    1.21    0.24
   9   3   3    1.67    0.18
   9   3   3    1.38    0.20
  -9  -3  -3    1.63    0.21
  -9  -3  -3    1.41    0.20
  -9  -3  -3    1.70    0.17
   9  -3   3    1.81    0.21
   9   3   4    0.09    0.16
   9   3   4    0.24    0.12
   9   3   4    0.36    0.19
  -9   3  -4    0.30    0.08
  -9   3  -4    0.28    0.10
   9   3   4    0.20    0.06
  -9   3  -4    0.27    0.13
   9  -3   4    0.13    0.12
  -9  -3  -4    0.23    0.12
  -9   3  -5    3.95    0.40
   9   3   5    3.71    0.42
   9   3   5    3.46    0.46
   9   3   5    4.92    0.55
  -9   3  -5    4.15    0.44
  -9  -3  -5    4.42    0.44
   9  -3   5    5.18    0.45
   9  -3   5    4.57    0.56
   9   3   6    0.12    0.12
   9   3   6   -0.11    0.23
  -9   3  -6    0.03    0.17
   9   3   6    0.27    0.21
   9  -3   6    0.20    0.26
  -9  -3  -6    0.09    0.14
   9  -3   6    0.08    0.17
   9   3   7    0.28    0.28
   9   3   7    0.29    0.24
   9  -3   7    0.45    0.21
   9  -3   7    0.41    0.31
  -9  -3  -7    0.37    0.17
   9   3   8   -0.30    0.32
   9   3   8   -0.04    0.24
   9  -3   8   -0.27    0.28
   9  -3   8    0.08    0.23
  -9  -3  -8   -0.12    0.16
   9   3   9    0.77    0.27
   9  -3   9    0.86    0.28
  -9   4   9   -0.17    0.25
   9  -4  -9   -0.12    0.24
  -9   4   8    0.74    0.30
   9   4  -8    0.96    0.28
   9  -4  -8    1.17    0.27
  -9   4   7   -0.08    0.21
   9   4  -7    0.08    0.22
   9  -4  -7    0.02    0.18
  -9  -4   7    0.09    0.12
  -9   4   6    0.29    0.19
   9   4  -6    0.54    0.22
   9   4  -6    0.47    0.19
  -9  -4   6    0.57    0.15
   9  -4  -6    0.66    0.19
  -9  -4   6    0.55    0.14
   9   4  -5    0.08    0.17
   9   4  -5    0.04    0.12
  -9   4   5    0.12    0.17
  -9   4   5   -0.01    0.15
  -9  -4   5    0.05    0.12
   9  -4  -5   -0.03    0.12
   9   4  -4    3.77    0.46
  -9   4   4    3.14    0.40
  -9   4   4    3.29    0.44
   9   4  -4    3.61    0.40
   9   4  -4    3.92    0.37
  -9  -4   4    3.63    0.40
  -9  -4   4    4.14    0.39
   9  -4  -4    3.49    0.38
   9   4  -3    0.25    0.13
   9   4  -3    0.35    0.12
  -9   4   3    0.25    0.13
  -9   4   3    0.21    0.14
   9   4  -3    0.42    0.19
  -9  -4   3    0.17    0.12
  -9  -4   3    0.21    0.13
   9  -4  -3    0.11    0.10
  -9   4   2    0.75    0.15
   9   4  -2    0.74    0.14
   9   4  -2    0.75    0.20
  -9  -4   2    0.89    0.16
  -9  -4   2    0.90    0.16
   9  -4  -2    0.69    0.13
  -9   4   1    0.45    0.12
   9   4  -1    0.73    0.13
   9   4  -1    0.39    0.16
  -9  -4   1    0.51    0.14
  -9  -4   1    0.60    0.14
   9  -4  -1    0.62    0.11
  -9   4   0    5.65    0.50
   9   4   0    5.13    0.49
   9  -4   0    6.37    0.54
   9  -4   0    5.53    0.50
  -9  -4   0    5.05    0.51
  -9  -4   0    5.72    0.51
  -9   4  -1    0.66    0.08
   9   4   1    0.79    0.17
  -9   4  -1    0.73    0.12
   9   4   1    0.64    0.11
  -9  -4  -1    0.98    0.16
  -9  -4  -1    0.68    0.15
   9  -4   1    0.55    0.08
   9  -4   1    0.68    0.18
  -9  -4  -1    0.77    0.13
  -9   4  -2    0.77    0.12
   9   4   2    0.93    0.18
   9   4   2    0.81    0.18
   9   4   2    0.82    0.12
  -9  -4  -2    0.87    0.13
  -9  -4  -2    0.56    0.15
   9  -4   2    0.70    0.12
  -9  -4  -2    0.93    0.17
  -9   4  -3    0.25    0.08
   9   4   3    0.25    0.08
   9   4   3    0.02    0.17
   9   4   3    0.27    0.13
  -9   4  -3    0.14    0.14
  -9  -4  -3    0.18    0.13
   9  -4   3    0.40    0.11
  -9   4  -4    3.20    0.39
   9   4   4    1.94    0.38
   9   4   4    3.42    0.38
  -9   4  -4    3.38    0.34
   9   4   4    3.44    0.30
  -9  -4  -4    3.43    0.38
   9  -4   4    3.46    0.35
   9   4   5   -0.31    0.18
   9   4   5    0.00    0.15
  -9   4  -5   -0.02    0.15
  -9   4  -5   -0.01    0.11
  -9  -4  -5   -0.12    0.14
   9  -4   5    0.09    0.14
   9   4   6    0.58    0.26
  -9   4  -6    0.50    0.22
   9   4   6    0.36    0.21
   9   4   6    0.78    0.19
   9  -4   6    0.75    0.20
  -9  -4  -6    0.62    0.18
   9   4   7   -0.14    0.21
   9   4   7    0.09    0.25
   9   4   7    0.13    0.15
  -9  -4  -7   -0.03    0.17
   9  -4   7   -0.03    0.20
   9   4   8    1.11    0.32
   9  -4   8    0.99    0.27
  -9  -4  -8    1.09    0.25
   9   4   9   -0.01    0.26
  -9  -4  -9   -0.04    0.22
   9  -4   9    0.14    0.21
  -9   5   8    0.05    0.25
   9  -5  -8   -0.19    0.23
   9   5  -7    1.38    0.32
  -9   5   7    1.85    0.31
   9  -5  -7    1.55    0.28
  -9   5   6    0.03    0.18
   9   5  -6    0.12    0.22
  -9  -5   6   -0.08    0.12
   9  -5  -6   -0.03    0.17
   9   5  -5    0.38    0.23
  -9   5   5    0.40    0.17
  -9  -5   5    0.42    0.14
   9  -5  -5    0.32    0.16
  -9   5   4   -0.01    0.14
   9   5  -4    0.13    0.19
  -9   5   4   -0.07    0.20
   9  -5  -4   -0.04    0.13
  -9  -5   4   -0.07    0.11
  -9   5   3    3.93    0.44
  -9   5   3    3.39    0.42
   9   5  -3    4.17    0.48
   9   5  -3    4.42    0.44
   9  -5  -3    4.19    0.40
  -9  -5   3    4.46    0.42
  -9  -5   3    3.86    0.42
  -9  -5   3    3.83    0.42
   9   5  -2   -0.02    0.12
  -9   5   2   -0.01    0.12
   9   5  -2   -0.18    0.15
  -9  -5   2   -0.02    0.11
   9  -5  -2   -0.06    0.09
  -9  -5   2    0.04    0.13
  -9  -5   2    0.03    0.12
   9   5  -1    0.72    0.23
  -9   5   1    1.59    0.20
   9   5  -1    1.47    0.20
   9  -5  -1    1.59    0.20
  -9  -5   1    1.73    0.22
  -9  -5   1    1.68    0.22
   9   5   0    0.06    0.09
  -9   5   0    0.01    0.09
   9   5   0   -0.08    0.14
  -9  -5   0   -0.02    0.10
  -9  -5   0    0.02    0.05
   9  -5   0   -0.04    0.09
  -9  -5   0   -0.07    0.12
   9   5   1    1.86    0.26
  -9   5  -1    1.65    0.21
   9   5   1    1.34    0.19
  -9  -5  -1    1.96    0.25
  -9  -5  -1    1.63    0.21
   9   5   2    0.01    0.08
   9   5   2    0.02    0.17
  -9   5  -2    0.02    0.09
   9   5   2    0.13    0.15
  -9  -5  -2    0.12    0.14
  -9  -5  -2   -0.03    0.09
   9   5   3    4.28    0.50
   9   5   3    3.87    0.38
   9   5   3    4.93    0.46
  -9   5  -3    4.32    0.43
  -9  -5  -3    4.05    0.45
  -9   5  -4   -0.07    0.15
   9   5   4    0.06    0.16
   9   5   4   -0.32    0.16
  -9   5  -4    0.02    0.12
  -9  -5  -4   -0.07    0.14
  -9   5  -5    0.40    0.14
  -9   5  -5    0.28    0.18
   9   5   5    0.37    0.19
   9   5   5   -0.01    0.23
  -9  -5  -5    0.34    0.18
   9  -5   5    0.30    0.17
   9   5   6   -0.17    0.20
   9   5   6   -0.06    0.18
  -9  -5  -6    0.04    0.18
   9  -5   6    0.00    0.18
   9   5   7    1.72    0.29
   9   5   7    1.48    0.35
   9   5   7    1.36    0.40
  -9  -5  -7    2.14    0.32
   9  -5   7    1.54    0.30
   9   5   8    0.11    0.25
   9  -5   8    0.34    0.24
  -9  -5  -8    0.03    0.20
  -9   6   8    0.46    0.27
   9  -6  -8    0.37    0.27
   9   6  -7   -0.10    0.25
  -9   6   7   -0.23    0.21
   9  -6  -7    0.05    0.22
   9   6  -6    1.76    0.35
  -9   6   6    1.61    0.30
   9  -6  -6    1.75    0.29
  -9   6   5   -0.38    0.16
   9   6  -5   -0.10    0.21
   9  -6  -5   -0.04    0.17
  -9  -6   5    0.03    0.12
   9   6  -4    0.82    0.24
  -9   6   4    0.53    0.19
   9  -6  -4    0.64    0.17
  -9  -6   4    0.53    0.15
   9   6  -3   -0.11    0.17
  -9   6   3    0.01    0.15
  -9  -6   3    0.24    0.14
   9  -6  -3    0.12    0.12
  -9   6   2    2.35    0.30
   9  -6  -2    2.05    0.26
  -9  -6   2    2.04    0.28
  -9  -6   2    1.60    0.25
  -9   6   1    0.40    0.14
   9   6  -1    0.44    0.19
  -9  -6   1    0.41    0.16
   9  -6  -1    0.33    0.11
  -9  -6   1    0.34    0.14
   9   6   0    1.29    0.20
   9   6   0    1.67    0.26
  -9   6   0    1.50    0.21
  -9  -6   0    1.53    0.22
  -9  -6   0    1.28    0.22
   9  -6   0    1.70    0.20
   9   6   1    0.51    0.18
   9   6   1    0.44    0.13
  -9   6  -1    0.26    0.12
  -9  -6  -1    0.52    0.15
  -9  -6  -1    0.40    0.17
   9   6   2    2.43    0.32
  -9   6  -2    2.19    0.26
   9   6   2    2.10    0.26
   9   6   2    2.21    0.34
  -9  -6  -2    1.99    0.29
   9   6   3    0.16    0.16
   9   6   3    0.15    0.10
   9   6   3    0.34    0.23
  -9  -6  -3    0.23    0.17
   9   6   4    0.17    0.21
   9   6   4    0.65    0.21
  -9  -6  -4    0.52    0.20
   9   6   5   -0.31    0.20
   9   6   5    0.15    0.21
  -9  -6  -5   -0.03    0.19
   9   6   6    2.13    0.32
   9   6   6    0.78    0.31
  -9  -6  -6    1.44    0.28
   9   6   7    0.46    0.23
   9   6   7   -0.19    0.25
  -9  -6  -7    0.09    0.21
   9   6   8    0.62    0.25
   9   6   8    0.38    0.29
  -9  -6  -8    0.28    0.25
  -9   7   7    0.32    0.25
   9  -7  -7    0.36    0.26
  -9   7   6    0.20    0.22
   9   7  -6   -0.10    0.24
   9  -7  -6   -0.04    0.21
  -9   7   5    1.37    0.28
   9   7  -5    1.35    0.33
   9  -7  -5    1.90    0.28
  -9   7   4   -0.19    0.18
   9   7  -4   -0.32    0.18
   9  -7  -4    0.00    0.15
  -9  -7   4   -0.01    0.13
  -9   7   3    0.49    0.18
   9   7  -3   -0.27    0.19
  -9  -7   3    0.40    0.16
   9  -7  -3    0.37    0.15
   9   7  -2   -0.01    0.19
  -9   7   2   -0.05    0.15
  -9  -7   2    0.08    0.15
   9  -7  -2    0.06    0.12
  -9   7   1    1.25    0.22
   9   7  -1    1.35    0.26
  -9  -7   1    1.30    0.23
   9  -7  -1    1.30    0.18
  -9   7   0   -0.03    0.13
   9   7   0    0.16    0.19
  -9  -7   0   -0.01    0.13
  -9  -7   0   -0.05    0.15
   9  -7   0    0.09    0.09
   9   7   1    1.44    0.26
  -9   7  -1    1.30    0.20
  -9  -7  -1    1.20    0.24
   9   7   2   -0.04    0.13
   9   7   2    0.31    0.23
   9   7   2    0.13    0.19
  -9  -7  -2    0.09    0.17
   9   7   3    0.59    0.21
   9   7   3    0.14    0.22
  -9  -7  -3    0.63    0.22
   9   7   4    0.14    0.22
   9   7   4   -0.34    0.20
  -9  -7  -4    0.22    0.20
   9   7   5    1.89    0.33
   9   7   5    0.82    0.32
  -9  -7  -5    1.96    0.31
   9   7   6    0.14    0.26
   9   7   6   -0.32    0.22
  -9  -7  -6   -0.11    0.22
   9   7   7   -0.11    0.28
   9   7   7    0.49    0.28
  -9  -7  -7    0.49    0.26
  -9   8   6    0.10    0.25
   9   8  -6   -0.35    0.25
   9  -8  -6    0.25    0.25
   9   8  -5   -0.66    0.22
  -9   8   5   -0.04    0.21
   9  -8  -5    0.23    0.20
  -9   8   4    1.03    0.26
   9   8  -4    0.10    0.24
   9  -8  -4    0.98    0.21
  -9  -8   4    0.76    0.18
   9   8  -3   -0.16    0.20
  -9   8   3    0.06    0.20
  -9  -8   3    0.12    0.16
   9  -8  -3   -0.10    0.14
  -9   8   2    0.95    0.23
   9   8  -2    0.92    0.26
  -9  -8   2    1.06    0.21
   9  -8  -2    0.97    0.18
  -9   8   1    0.00    0.17
   9   8  -1    0.11    0.21
   9  -8  -1    0.11    0.11
  -9  -8   1    0.11    0.18
  -9   8   0    0.56    0.19
   9   8   0    0.73    0.25
  -9  -8   0    0.62    0.21
  -9   8  -1    0.11    0.15
   9   8   1    0.25    0.23
   9   8   1    0.23    0.22
  -9  -8  -1    0.06    0.19
   9   8   2    0.75    0.23
   9   8   2    1.15    0.28
  -9  -8  -2    1.10    0.25
   9   8   3    0.11    0.26
   9   8   3    0.52    0.24
  -9  -8  -3    0.10    0.21
   9   8   4    0.19    0.29
   9   8   4    1.15    0.30
  -9  -8  -4    1.15    0.27
   9   8   5    0.23    0.26
   9   8   5   -0.28    0.26
  -9  -8  -5   -0.22    0.23
   9   8   6   -0.37    0.23
   9   8   6    0.11    0.29
  -9  -8  -6    0.31    0.25
   9   9  -4   -0.04    0.23
  -9   9   4   -0.16    0.23
   9  -9  -4    0.07    0.18
   9   9  -3    0.79    0.28
  -9   9   3    0.82    0.25
  -9  -9   3    0.70    0.20
   9  -9  -3    0.96    0.20
  -9   9   2    0.18    0.20
   9   9  -2    0.35    0.25
   9  -9  -2   -0.04    0.14
  -9  -9   2    0.04    0.17
  -9   9   1    0.65    0.22
   9   9  -1    0.62    0.27
  -9  -9   1    0.45    0.21
   9   9   0    0.26    0.25
  -9   9   0   -0.10    0.18
  -9  -9   0   -0.03    0.19
   9   9   1    0.83    0.29
   9   9   1    0.84    0.30
  -9  -9  -1    0.43    0.23
   9   9   2    0.37    0.29
   9   9   2    0.35    0.24
  -9  -9  -2    0.00    0.21
   9   9   3    0.87    0.29
   9   9   3    0.73    0.28
  -9  -9  -3    0.71    0.27
   9   9   4   -0.25    0.26
   9   9   4    0.11    0.27
  -9  -9  -4   -0.07    0.24
  -9 -10   2    0.26    0.19
  -9  10   1    0.04    0.23
   9  10  -1    0.54    0.30
  -9 -10   1    0.26    0.21
   9  10   0    1.11    0.31
  -9 -10   0    0.73    0.25
   9  10   1    0.30    0.29
   9  10   1    0.60    0.29
  -9 -10  -1   -0.04    0.23
  -9 -10  -2    0.65    0.27
 -10   0   9   -0.48    0.20
  10   0  -9    0.03    0.19
 -10   0   8   13.65    1.27
  10   0  -8   14.66    1.24
  10   0  -7   -0.09    0.14
 -10   0   7    0.22    0.20
  10   0  -6   20.21    1.89
 -10   0   6   25.40    1.94
  10   0  -5    0.02    0.12
 -10   0   5    0.01    0.08
 -10   0   5    0.04    0.16
 -10   0   5    0.09    0.15
 -10   0   4   92.03    7.18
 -10   0   4   85.36    7.17
  10   0  -4   83.26    7.15
  10   0  -4   88.99    7.19
  10   0  -3    0.06    0.15
 -10   0   3   -0.01    0.12
 -10   0   3    0.00    0.11
  10   0  -3   -0.02    0.10
 -10   0   2   37.23    3.07
  10   0  -2   38.88    3.07
 -10   0   2   37.23    3.07
  10   0  -2   34.52    3.06
 -10   0   1    0.16    0.12
 -10   0   1    0.03    0.11
  10   0  -1   -0.08    0.11
  10   0  -1    0.05    0.06
  10   0  -1    0.04    0.12
 -10   0   0  187.30   16.72
  10   0   0  218.58   16.71
 -10   0   0  207.71   16.72
  10   0   0  206.76   16.72
  10   0   1   -0.13    0.08
 -10   0  -1    0.10    0.09
 -10   0  -1    0.04    0.10
  10   0   1   -0.04    0.09
  10   0   1    0.06    0.10
  10   0   2   34.02    2.73
 -10   0  -2   35.39    2.69
  10   0   2   30.34    2.69
 -10   0  -2   31.26    2.71
 -10   0  -3   -0.05    0.08
  10   0   3    0.05    0.16
  10   0   3   -0.06    0.10
 -10   0  -3    0.14    0.07
  10   0   3   -0.02    0.06
  10   0   4   87.37    6.57
  10   0   4   80.91    6.61
 -10   0  -4   80.65    6.52
 -10   0  -4   81.07    6.54
 -10   0  -4   70.54    6.54
 -10   0  -5    0.16    0.10
  10   0   5    0.13    0.16
  10   0   5   -0.06    0.21
  10   0   6   20.76    1.89
  10   0   6   20.71    1.80
 -10   0  -6   21.59    1.76
  10   0   7   -0.24    0.24
  10   0   7   -0.05    0.17
  10   0   8   16.13    1.41
  10   0   8   15.98    1.54
  10   0   9   -0.16    0.22
  10   1  -9    7.39    0.75
 -10   1   9    8.31    0.82
  10  -1  -9    8.18    0.77
 -10  -1   9    7.51    0.76
  10   1  -8    0.50    0.19
 -10   1   8    0.41    0.23
 -10  -1   8    0.16    0.19
  10  -1  -8    0.38    0.20
 -10   1   7   23.92    1.97
  10   1  -7   21.37    1.93
  10  -1  -7   23.53    1.93
 -10   1   6    1.02    0.23
 -10   1   6    1.66    0.28
  10   1  -6    1.34    0.22
 -10   1   6    1.41    0.29
 -10  -1   6    0.73    0.22
  10  -1  -6    1.37    0.22
 -10   1   5   39.10    3.23
  10   1  -5   41.21    3.19
 -10   1   5   38.44    3.19
 -10   1   5   38.15    3.22
 -10  -1   5   35.60    3.20
  10  -1  -5   38.56    3.18
 -10   1   4    2.54    0.30
 -10   1   4    2.06    0.22
  10   1  -4    1.60    0.27
  10   1  -4    1.39    0.23
 -10   1   4    2.08    0.30
 -10  -1   4    0.96    0.23
  10  -1  -4    1.53    0.21
 -10  -1   4    2.08    0.28
 -10   1   3   69.84    5.98
  10   1  -3   60.88    5.97
 -10   1   3   85.78    5.98
  10   1  -3   73.68    5.97
  10  -1  -3   70.99    5.94
 -10  -1   3   74.87    5.97
  10   1  -2    0.29    0.15
 -10   1   2    0.28    0.15
 -10   1   2    0.57    0.15
  10   1  -2    0.23    0.13
  10  -1  -2    0.68    0.14
 -10  -1   2    0.49    0.15
 -10  -1   2    0.33    0.13
 -10   1   1   61.43    4.94
 -10   1   1   63.73    4.90
  10   1  -1   60.57    4.93
 -10  -1   1   62.39    4.93
 -10  -1   1   54.25    4.92
  10  -1  -1   60.71    4.90
  10  -1  -1   55.85    4.92
 -10   1   0   -0.15    0.11
 -10   1   0   -0.04    0.08
  10   1   0   -0.09    0.07
  10   1   0   -0.07    0.10
 -10   1   0   -0.08    0.11
  10   1   0    0.03    0.11
 -10  -1   0   -0.01    0.09
 -10  -1   0   -0.07    0.10
  10  -1   0    0.08    0.09
  10  -1   0   -0.04    0.09
  10  -1   0    0.00    0.07
  10   1   1   55.78    4.64
 -10   1  -1   59.60    4.64
  10  -1   1   61.33    4.62
 -10  -1  -1   57.78    4.61
  10  -1   1   53.67    4.62
 -10  -1  -1   50.23    4.62
  10   1   2    0.72    0.13
 -10   1  -2    0.50    0.12
 -10   1  -2    0.71    0.14
  10   1   2    0.53    0.16
 -10   1  -2    0.77    0.17
  10   1   2    0.71    0.16
 -10   1  -2    0.83    0.14
  10  -1   2    0.52    0.09
  10  -1   2    0.64    0.16
 -10  -1  -2    0.67    0.10
  10  -1   2    0.73    0.09
  10  -1   2    0.74    0.13
 -10  -1  -2    0.38    0.10
 -10  -1  -2    0.45    0.13
  10   1   3   82.19    5.80
 -10   1  -3   74.57    5.81
 -10   1  -3   67.63    5.80
  10   1   3   62.71    5.85
 -10  -1  -3   67.66    5.81
 -10  -1  -3   67.32    5.78
  10  -1   3   68.12    5.81
  10  -1   3   77.13    5.85
  10   1   4    1.30    0.30
  10   1   4    1.74    0.21
  10   1   4    1.74    0.27
 -10   1  -4    1.74    0.22
 -10   1  -4    1.84    0.21
 -10   1  -4    2.08    0.24
  10  -1   4    1.98    0.31
  10  -1   4    2.16    0.25
 -10  -1  -4    2.02    0.25
 -10   1  -5   34.42    3.11
 -10   1  -5   34.57    3.10
 -10   1  -5   39.40    3.09
  10   1   5   37.97    3.14
 -10   1  -5   39.43    3.12
 -10  -1  -5   39.58    3.12
  10  -1   5   39.46    3.13
  10   1   6    1.07    0.24
 -10   1  -6    1.13    0.20
  10   1   6    0.94    0.29
  10  -1   6    1.43    0.25
 -10  -1  -6    1.44    0.20
  10  -1   6    1.12    0.31
 -10  -1  -6    1.29    0.19
  10   1   7   20.02    2.09
  10   1   7   22.69    2.02
  10  -1   7   27.11    2.13
  10  -1   7   25.05    2.01
  10   1   8    0.41    0.30
  10   1   8    0.57    0.26
  10  -1   8    0.28    0.24
  10  -1   8    0.35    0.30
  10   1   9    8.07    0.84
  10  -1   9    8.29    0.84
  10   2  -9    0.09    0.21
 -10   2   9    0.04    0.26
  10  -2  -9    0.14    0.22
 -10   2   8   12.75    1.11
  10   2  -8   11.58    1.04
 -10  -2   8   11.98    1.03
  10  -2  -8   10.43    1.04
  10   2  -7   -0.05    0.16
 -10   2   7    0.06    0.22
 -10  -2   7    0.22    0.15
  10  -2  -7   -0.05    0.16
  10   2  -6   36.12    3.03
 -10  -2   6   35.13    3.02
  10  -2  -6   37.72    3.02
 -10   2   5   -0.08    0.18
 -10   2   5   -0.03    0.18
  10   2  -5    0.05    0.15
 -10  -2   5   -0.07    0.14
  10  -2  -5    0.07    0.13
 -10  -2   5   -0.07    0.17
 -10   2   4   24.53    1.98
  10   2  -4   22.68    1.97
 -10  -2   4   23.35    1.97
  10  -2  -4   22.46    1.93
 -10   2   3    0.76    0.18
  10   2  -3    0.48    0.14
  10   2  -3    0.14    0.15
 -10   2   3    0.55    0.17
  10  -2  -3    0.46    0.08
  10  -2  -3    0.37    0.11
 -10  -2   3    0.30    0.15
 -10  -2   3    0.22    0.15
 -10   2   2  106.56    9.36
  10   2  -2  114.20    9.36
  10  -2  -2  116.34    9.35
  10  -2  -2  127.46    9.32
 -10  -2   2  107.26    9.36
 -10   2   1    0.58    0.11
 -10   2   1    0.50    0.16
  10   2  -1    0.61    0.16
  10   2  -1    0.71    0.09
 -10   2   1    0.59    0.15
  10   2  -1    0.60    0.13
  10  -2  -1    0.66    0.09
 -10  -2   1    0.68    0.15
  10  -2  -1    0.46    0.14
  10  -2  -1    0.60    0.13
 -10  -2   1    0.49    0.14
 -10   2   0   30.17    2.56
  10   2   0   32.28    2.56
  10   2   0   29.26    2.56
 -10   2   0   32.99    2.57
 -10   2   0   31.01    2.56
  10   2   0   36.20    2.55
  10  -2   0   29.31    2.53
 -10  -2   0   28.66    2.55
 -10  -2   0   27.94    2.56
 -10   2  -1    0.65    0.15
 -10   2  -1    0.68    0.14
  10   2   1    0.58    0.13
  10   2   1    0.75    0.14
 -10   2  -1    0.56    0.12
  10   2   1    0.38    0.14
  10   2   1    0.73    0.16
  10  -2   1    0.54    0.10
 -10  -2  -1    0.62    0.08
  10  -2   1    0.98    0.15
  10  -2   1    0.62    0.10
 -10  -2  -1    0.78    0.15
 -10  -2  -1    0.63    0.12
 -10   2  -2   97.95    9.55
  10   2   2  121.49    9.57
 -10   2  -2  117.31    9.55
 -10   2  -2  114.93    9.60
  10   2   2  111.42    9.56
  10   2   2  116.72    9.55
  10   2   2  123.37    9.55
  10  -2   2  118.29    9.54
 -10  -2  -2  130.40    9.54
 -10  -2  -2  117.12    9.55
 -10   2  -3    0.53    0.15
 -10   2  -3    0.45    0.12
  10   2   3    0.54    0.18
  10   2   3    0.50    0.12
  10   2   3    0.16    0.16
  10  -2   3    0.46    0.12
  10  -2   3    0.48    0.18
 -10  -2  -3    0.35    0.13
 -10  -2  -3    0.56    0.08
 -10   2  -4   25.92    2.23
  10   2   4   27.21    2.28
  10   2   4   25.56    2.21
 -10   2  -4   28.29    2.21
 -10  -2  -4   25.39    2.22
  10  -2   4   27.87    2.22
 -10   2  -5    0.03    0.14
  10   2   5   -0.10    0.20
  10   2   5    0.04    0.10
  10   2   5    0.08    0.19
 -10   2  -5    0.01    0.08
  10  -2   5   -0.02    0.21
 -10  -2  -5    0.05    0.13
 -10  -2  -5    0.04    0.12
  10  -2   5    0.01    0.14
  10   2   6   31.41    3.17
  10   2   6   36.46    3.11
 -10   2  -6   37.62    3.10
  10  -2   6   38.23    3.17
  10  -2   6   39.46    3.10
 -10  -2  -6   39.85    3.09
  10   2   7   -0.03    0.27
 -10   2  -7    0.10    0.18
  10   2   7   -0.30    0.21
  10  -2   7    0.13    0.20
 -10  -2  -7    0.02    0.15
  10  -2   7    0.09    0.25
  10   2   8   10.62    1.06
  10  -2   8   12.20    1.06
  10  -2   8   11.80    1.18
  10   2   9   -0.06    0.23
  10  -2   9   -0.06    0.25
  10   3  -9    7.79    0.81
 -10   3   9    8.87    0.88
  10  -3  -9    7.98    0.82
 -10   3   8    0.04    0.26
  10   3  -8    0.20    0.21
  10  -3  -8    0.14    0.21
 -10   3   7    9.15    1.04
  10   3  -7   10.65    1.02
  10  -3  -7   11.47    1.00
 -10  -3   7   12.35    0.98
  10   3  -6    0.40    0.21
 -10   3   6    0.28    0.23
  10  -3  -6    0.23    0.15
 -10  -3   6    0.86    0.18
  10   3  -5   35.33    3.53
 -10   3   5   49.02    3.56
 -10   3   5   38.85    3.53
  10  -3  -5   42.32    3.50
 -10  -3   5   43.80    3.56
 -10  -3   5   45.98    3.52
 -10   3   4    0.54    0.17
  10   3  -4    0.17    0.17
  10   3  -4    0.52    0.12
 -10   3   4    0.73    0.22
  10   3  -4    0.69    0.12
 -10  -3   4    0.89    0.18
  10  -3  -4    0.59    0.14
 -10  -3   4    0.49    0.17
  10   3  -3   37.22    3.28
  10   3  -3   36.63    3.27
 -10   3   3   40.63    3.29
  10   3  -3   45.75    3.25
 -10   3   3   35.21    3.31
  10  -3  -3   37.69    3.27
 -10  -3   3   43.90    3.30
 -10  -3   3   40.64    3.30
 -10   3   2    0.49    0.14
 -10   3   2    0.43    0.16
  10   3  -2    0.51    0.14
  10   3  -2    0.51    0.10
  10   3  -2    0.96    0.20
 -10  -3   2    0.55    0.16
  10  -3  -2    0.47    0.12
 -10  -3   2    0.67    0.16
  10   3  -1   83.38    6.24
 -10   3   1   78.50    6.23
  10   3  -1   77.06    6.21
  10  -3  -1   76.87    6.21
 -10  -3   1   78.25    6.22
 -10  -3   1   74.88    6.22
  10  -3  -1   62.33    6.22
  10   3   0   -0.20    0.10
  10   3   0    0.04    0.09
 -10   3   0    0.03    0.09
 -10   3   0    0.01    0.09
  10  -3   0   -0.05    0.09
 -10  -3   0   -0.08    0.09
  10  -3   0   -0.05    0.10
 -10  -3   0    0.04    0.12
  10  -3   0    0.00    0.03
  10   3   1   75.49    6.18
  10   3   1   75.25    6.20
 -10   3  -1   77.22    6.21
 -10   3  -1   70.60    6.18
  10  -3   1   78.36    6.16
  10  -3   1   74.19    6.16
 -10  -3  -1   75.54    6.20
 -10  -3  -1   77.92    6.18
  10  -3   1   75.60    6.16
  10   3   2    0.57    0.18
  10   3   2    0.42    0.14
  10   3   2    0.45    0.10
 -10   3  -2    0.50    0.11
 -10  -3  -2    0.49    0.10
 -10  -3  -2    0.66    0.15
  10  -3   2    0.54    0.11
  10   3   3   41.88    3.35
 -10   3  -3   39.82    3.32
  10   3   3   36.97    3.36
  10   3   3   37.31    3.32
 -10  -3  -3   45.65    3.32
 -10  -3  -3   42.65    3.35
  10  -3   3   41.01    3.33
 -10  -3  -3   38.33    3.34
  10   3   4    0.57    0.15
 -10   3  -4    0.48    0.16
  10   3   4    0.60    0.22
 -10   3  -4    0.61    0.13
  10   3   4    0.18    0.19
 -10  -3  -4    0.78    0.16
 -10  -3  -4    0.53    0.16
  10  -3   4    0.75    0.16
  10   3   5   40.58    3.81
  10   3   5   48.87    3.75
 -10   3  -5   45.33    3.77
 -10   3  -5   45.93    3.74
  10  -3   5   44.88    3.75
  10  -3   5   49.23    3.83
 -10  -3  -5   43.51    3.75
  10   3   6    0.37    0.25
  10   3   6    0.59    0.22
  10   3   6    0.65    0.15
 -10   3  -6    0.38    0.17
 -10  -3  -6    0.69    0.19
  10  -3   6    0.56    0.30
  10  -3   6    0.59    0.20
  10   3   7   11.07    1.08
  10   3   7   11.56    1.19
  10  -3   7   12.08    1.07
 -10  -3  -7   12.04    1.06
  10  -3   7   12.43    1.19
  10   3   8    0.03    0.24
  10  -3   8    0.28    0.24
 -10  -3  -8    0.36    0.19
  10   3   9    8.44    0.87
  10  -3   9    8.27    0.85
 -10   4   9    0.16    0.29
  10   4  -9    0.36    0.26
  10  -4  -9   -0.05    0.24
  10   4  -8   11.35    1.09
 -10   4   8   10.05    1.10
  10  -4  -8   12.13    1.05
 -10   4   7   -0.20    0.21
  10   4  -7   -0.11    0.22
  10  -4  -7   -0.08    0.19
 -10  -4   7    0.07    0.14
 -10  -4   7   -0.01    0.13
 -10   4   6   12.83    1.21
  10  -4  -6   13.51    1.18
 -10  -4   6   14.04    1.17
 -10   4   5    0.10    0.16
  10   4  -5    0.01    0.20
  10  -4  -5    0.01    0.13
 -10  -4   5    0.20    0.15
  10   4  -4   50.31    4.05
 -10   4   4   49.32    4.08
 -10   4   4   48.42    4.12
 -10  -4   4   48.44    4.09
 -10  -4   4   51.66    4.07
  10  -4  -4   48.04    4.06
 -10   4   3    0.48    0.16
 -10   4   3    0.59    0.17
  10   4  -3    0.53    0.20
  10   4  -3    0.69    0.14
 -10  -4   3    0.44    0.15
  10  -4  -3    0.53    0.14
 -10  -4   3    0.59    0.18
 -10   4   2   27.20    2.16
 -10   4   2   26.90    2.18
  10   4  -2   23.81    2.15
  10   4  -2   26.84    2.19
 -10  -4   2   26.06    2.17
 -10  -4   2   27.14    2.17
  10  -4  -2   23.69    2.14
  10   4  -1    1.55    0.27
 -10   4   1    1.81    0.24
  10   4  -1    1.84    0.23
  10  -4  -1    1.88    0.24
  10  -4  -1    1.65    0.26
 -10  -4   1    2.07    0.25
 -10  -4   1    2.60    0.29
 -10   4   0   77.66    6.79
  10   4   0   77.45    6.79
 -10  -4   0   88.43    6.80
  10  -4   0   90.52    6.83
 -10  -4   0   81.94    6.81
  10   4   1    1.28    0.23
 -10   4  -1    1.80    0.21
  10   4   1    1.97    0.22
 -10  -4  -1    1.94    0.25
 -10  -4  -1    1.81    0.23
  10  -4   1    1.63    0.17
 -10  -4  -1    2.03    0.25
  10   4   2   25.88    2.24
  10   4   2   28.56    2.26
  10   4   2   23.99    2.20
 -10   4  -2   24.18    2.20
 -10  -4  -2   27.72    2.24
 -10  -4  -2   26.24    2.23
  10  -4   2   28.90    2.20
 -10  -4  -2   28.72    2.21
  10   4   3    0.65    0.11
  10   4   3    0.59    0.16
  10   4   3    0.59    0.20
 -10   4  -3    0.66    0.11
 -10   4  -3    0.75    0.20
  10  -4   3    0.69    0.13
 -10  -4  -3    0.72    0.12
 -10  -4  -3    0.69    0.18
 -10   4  -4   52.85    4.39
  10   4   4   49.45    4.40
  10  -4   4   55.26    4.39
 -10  -4  -4   55.94    4.40
  10   4   5    0.08    0.15
 -10   4  -5    0.01    0.15
 -10   4  -5    0.12    0.12
  10   4   5   -0.35    0.18
  10   4   5   -0.02    0.22
 -10  -4  -5    0.29    0.17
  10  -4   5    0.00    0.14
  10   4   6   10.89    1.17
  10   4   6   13.62    1.25
  10   4   6   13.40    1.15
  10  -4   6   12.45    1.15
 -10  -4  -6   14.76    1.17
  10   4   7    0.01    0.29
  10   4   7    0.06    0.15
  10   4   7   -0.26    0.21
 -10  -4  -7    0.03    0.18
  10  -4   7    0.04    0.20
  10   4   8   10.61    1.09
  10  -4   8   12.04    1.07
 -10  -4  -8   11.51    1.05
  10   4   9   -0.10    0.24
 -10  -4  -9    0.20    0.21
  10  -4   9    0.05    0.27
  10   5  -8    0.52    0.26
 -10   5   8    0.30    0.27
  10  -5  -8    0.14    0.23
 -10   5   7   14.08    1.38
  10   5  -7   15.60    1.42
  10  -5  -7   16.47    1.36
  10   5  -6    0.03    0.23
 -10   5   6   -0.01    0.19
 -10  -5   6    0.04    0.14
  10  -5  -6    0.13    0.19
 -10   5   5    9.56    1.05
  10   5  -5   12.70    1.10
 -10  -5   5   12.54    1.03
  10  -5  -5   12.59    1.05
 -10   5   4    0.14    0.15
  10   5  -4    0.12    0.21
 -10  -5   4    0.10    0.14
  10  -5  -4   -0.08    0.13
 -10  -5   4    0.05    0.14
 -10   5   3   41.63    3.64
  10   5  -3   44.57    3.62
 -10   5   3   40.75    3.59
  10  -5  -3   41.99    3.58
 -10  -5   3   48.52    3.61
 -10  -5   3   43.30    3.59
 -10  -5   3   43.63    3.59
 -10   5   2   -0.04    0.12
  10   5  -2    0.03    0.17
  10  -5  -2   -0.02    0.10
 -10  -5   2    0.05    0.13
 -10  -5   2   -0.04    0.14
 -10  -5   2    0.10    0.14
 -10   5   1   37.34    3.30
  10   5  -1   35.85    3.29
 -10  -5   1   40.31    3.30
  10  -5  -1   39.76    3.28
 -10  -5   1   43.11    3.31
 -10  -5   1   43.67    3.31
  10   5   0   -0.20    0.14
  10   5   0    0.02    0.10
 -10   5   0   -0.02    0.10
 -10  -5   0    0.03    0.13
 -10  -5   0   -0.05    0.14
  10  -5   0   -0.05    0.09
 -10  -5   0   -0.04    0.12
  10   5   1   37.83    3.00
 -10   5  -1   37.63    3.00
  10   5   1   32.78    3.03
 -10  -5  -1   39.66    3.03
 -10  -5  -1   31.38    2.99
 -10  -5  -1   39.51    3.01
  10   5   2    0.17    0.16
  10   5   2    0.12    0.17
 -10   5  -2    0.02    0.09
  10   5   2    0.09    0.09
 -10  -5  -2   -0.11    0.14
 -10  -5  -2    0.01    0.11
  10   5   3   44.96    3.55
  10   5   3   40.53    3.48
  10   5   3   39.55    3.52
 -10  -5  -3   45.40    3.53
  10   5   4    0.30    0.17
 -10   5  -4    0.06    0.13
  10   5   4   -0.01    0.18
 -10   5  -4    0.14    0.17
 -10  -5  -4   -0.04    0.17
 -10   5  -5   12.21    1.16
  10   5   5   14.28    1.19
 -10  -5  -5   13.84    1.18
  10  -5   5   12.87    1.15
  10   5   6    0.05    0.26
  10   5   6   -0.23    0.20
  10   5   6    0.51    0.21
  10  -5   6    0.19    0.19
 -10  -5  -6    0.22    0.20
  10   5   7   13.16    1.38
  10   5   7   15.07    1.34
  10  -5   7   16.49    1.36
 -10  -5  -7   16.05    1.36
  10   5   8    0.04    0.27
 -10  -5  -8    0.13    0.24
  10  -5   8   -0.04    0.25
 -10   6   7    0.12    0.25
  10   6  -7   -0.02    0.26
  10  -6  -7   -0.05    0.21
 -10   6   6   13.22    1.34
  10   6  -6   17.58    1.41
  10  -6  -6   15.22    1.33
  10   6  -5    0.17    0.23
 -10   6   5    0.09    0.19
  10  -6  -5    0.08    0.17
 -10  -6   5    0.02    0.15
  10   6  -4   13.47    1.18
 -10   6   4   12.14    1.15
  10  -6  -4   11.83    1.12
 -10  -6   4   14.51    1.13
  10   6  -3    0.30    0.21
 -10   6   3    0.51    0.18
 -10  -6   3    0.40    0.16
  10  -6  -3    0.52    0.15
 -10   6   2   37.86    3.02
 -10  -6   2   34.93    3.06
 -10  -6   2   39.45    3.03
  10  -6  -2   33.37    3.00
 -10   6   1    1.29    0.20
  10  -6  -1    1.24    0.18
 -10  -6   1    1.36    0.23
 -10  -6   1    1.22    0.23
  10   6   0   17.60    1.84
 -10   6   0   23.64    1.82
 -10  -6   0   21.62    1.83
  10  -6   0   21.51    1.81
 -10  -6   0   24.08    1.84
  10   6   1    1.26    0.26
  10   6   1    1.35    0.19
 -10   6  -1    1.24    0.19
 -10  -6  -1    1.11    0.23
 -10  -6  -1    1.46    0.21
  10   6   2   35.76    3.11
  10   6   2   36.55    3.05
 -10   6  -2   37.24    3.06
  10   6   2   37.15    3.10
 -10  -6  -2   38.56    3.09
  10   6   3    0.82    0.22
  10   6   3    0.96    0.27
 -10  -6  -3    0.55    0.21
  10   6   4   12.34    1.08
  10   6   4    9.48    1.09
 -10  -6  -4   13.62    1.09
  10   6   5    0.29    0.22
  10   6   5   -0.34    0.22
 -10  -6  -5    0.07    0.20
  10   6   6   16.22    1.30
  10   6   6   11.73    1.31
 -10  -6  -6   14.89    1.29
  10   6   7    0.25    0.24
  10   6   7   -0.11    0.27
 -10  -6  -7    0.18    0.23
  10   7  -7    2.98    0.46
 -10   7   7    3.28    0.45
  10  -7  -7    3.12    0.42
 -10   7   6    0.01    0.22
  10   7  -6   -0.05    0.26
  10  -7  -6   -0.03    0.21
  10   7  -5   15.51    1.39
 -10   7   5   14.63    1.36
  10  -7  -5   15.96    1.34
 -10  -7   5   15.31    1.31
  10   7  -4   -0.27    0.21
 -10   7   4   -0.08    0.19
  10  -7  -4   -0.02    0.15
 -10  -7   4   -0.04    0.15
 -10   7   3   12.58    1.08
  10  -7  -3   12.00    1.05
 -10  -7   3   11.61    1.06
  10   7  -2   -0.67    0.20
 -10   7   2    0.07    0.16
 -10  -7   2   -0.10    0.16
  10  -7  -2   -0.02    0.12
 -10   7   1   23.49    2.00
 -10  -7   1   23.58    2.01
  10  -7  -1   24.20    1.97
  10   7   0    0.10    0.21
 -10   7   0   -0.05    0.14
 -10  -7   0    0.02    0.17
 -10  -7   0   -0.11    0.16
 -10   7  -1   23.42    1.98
  10   7   1   22.39    2.02
 -10  -7  -1   23.49    1.99
 -10  -7  -1   25.20    2.01
  10   7   2    0.33    0.22
  10   7   2    0.29    0.21
 -10  -7  -2    0.17    0.20
  10   7   3   12.05    1.11
  10   7   3   11.44    1.06
 -10  -7  -3   11.43    1.06
  10   7   4   -0.17    0.21
  10   7   4    0.13    0.22
 -10  -7  -4    0.07    0.22
  10   7   5   18.25    1.49
 -10  -7  -5   15.05    1.46
  10   7   6   -0.18    0.27
  10   7   6    0.02    0.25
 -10  -7  -6   -0.14    0.25
  10   7   7    2.68    0.49
  10   7   7    3.32    0.46
 -10  -7  -7    3.71    0.48
 -10   8   5    0.11    0.23
  10   8  -5   -0.66    0.24
  10  -8  -5   -0.16    0.20
 -10   8   4   10.36    1.02
  10  -8  -4   11.07    0.97
 -10  -8   4   11.09    0.97
 -10   8   3    0.27    0.21
  10   8  -3   -0.19    0.24
 -10  -8   3    0.22    0.18
  10  -8  -3    0.28    0.16
 -10   8   2   12.24    1.00
  10  -8  -2    9.82    0.94
 -10  -8   2   10.98    0.98
  10   8  -1    0.76    0.26
 -10   8   1    0.40    0.19
 -10  -8   1    0.49    0.21
  10  -8  -1    0.52    0.20
 -10   8   0   15.96    1.33
  10   8   0   13.72    1.36
 -10  -8   0   15.84    1.35
  10   8   1    0.62    0.25
  10   8   1    0.72    0.29
 -10  -8  -1    0.62    0.23
  10   8   2   11.77    1.08
  10   8   2   10.42    1.04
 -10  -8  -2   11.27    1.03
  10   8   3    0.61    0.28
  10   8   3    0.43    0.24
 -10  -8  -3    0.21    0.24
  10   8   4   11.91    1.09
  10   8   4    9.12    1.06
 -10  -8  -4   13.04    1.08
  10   8   5   -0.31    0.27
  10   8   5    0.20    0.28
 -10  -8  -5    0.06    0.25
 -10   9   4    0.08    0.25
  10   9  -4   -0.35    0.24
  10  -9  -4    0.00    0.19
 -10   9   3    8.18    0.80
  10   9  -3    5.59    0.79
  10  -9  -3    8.21    0.72
 -10  -9   3    8.38    0.74
 -10   9   2    0.13    0.21
  10   9  -2   -0.10    0.25
 -10  -9   2   -0.12    0.19
  10   9  -1    7.32    0.81
 -10   9   1    7.72    0.76
 -10  -9   1    7.52    0.75
 -10   9   0   -0.01    0.19
  10   9   0    0.02    0.25
 -10  -9   0    0.01    0.21
  10   9   1    9.81    0.94
  10   9   1    9.15    0.93
 -10  -9  -1    8.30    0.87
  10   9   2    0.41    0.30
  10   9   2    0.16    0.25
 -10  -9  -2   -0.23    0.24
  10   9   3    8.93    0.92
  10   9   3    9.27    0.93
 -10  -9  -3    8.30    0.88
  10   9   4    0.63    0.30
  10   9   4    0.20    0.28
 -10  -9  -4    0.09    0.25
  11   0  -9   -0.14    0.20
 -11   0   9   -0.46    0.22
 -11   0   8   12.17    1.10
  11   0  -8   11.56    1.07
  11   0  -7   -0.02    0.16
 -11   0   7   -0.15    0.20
 -11   0   6   25.98    2.07
  11   0  -6   22.65    2.03
 -11   0   5    0.08    0.16
  11   0  -5   -0.03    0.13
 -11   0   5   -0.03    0.17
 -11   0   4   96.60    8.19
 -11   0   4  110.88    8.20
  11   0  -4   92.22    8.16
 -11   0   3    0.00    0.14
 -11   0   3    0.03    0.15
  11   0  -3   -0.17    0.13
  11   0  -3   -0.18    0.11
 -11   0   2   78.96    6.68
 -11   0   2   83.96    6.69
  11   0  -1   -0.02    0.12
 -11   0   1   -0.01    0.12
  11   0  -1   -0.05    0.06
  11   0  -1    0.08    0.13
 -11   0   1   -0.10    0.12
 -11   0   0  311.31   24.47
  11   0   0  287.74   24.45
  11   0   0  279.58   24.46
 -11   0   0  323.59   24.54
 -11   0  -1    0.04    0.10
  11   0   1    0.19    0.11
 -11   0  -1   -0.04    0.11
  11   0   1   -0.01    0.10
  11   0   1   -0.17    0.09
 -11   0  -2   62.72    5.37
 -11   0  -2   76.34    5.40
  11   0   2   62.40    5.37
  11   0   2   61.52    5.39
 -11   0  -3   -0.16    0.11
 -11   0  -3   -0.05    0.08
 -11   0  -3    0.18    0.08
  11   0   3   -0.03    0.13
  11   0   3   -0.16    0.15
  11   0   3    0.04    0.06
  11   0   4  104.25    8.14
 -11   0  -4  101.96    8.05
  11   0   4   86.72    8.08
 -11   0  -4  102.01    8.07
  11   0   5   -0.03    0.16
  11   0   5   -0.08    0.22
 -11   0  -5   -0.01    0.10
 -11   0  -5    0.16    0.11
  11   0   6   25.32    2.07
  11   0   6   21.45    1.97
  11   0   7   -0.08    0.21
  11   0   7    0.11    0.25
  11   0   8   11.46    1.20
  11   0   8   12.10    1.10
  11   0   9   -0.06    0.26
 -11   1   9    8.41    0.76
  11   1  -9    7.08    0.70
  11  -1  -9    5.89    0.68
 -11  -1   9    6.09    0.67
 -11   1   8    0.24    0.24
  11   1  -8    0.49    0.21
 -11  -1   8   -0.13    0.21
  11  -1  -8    0.39    0.20
 -11   1   7   21.70    1.69
  11   1  -7   19.86    1.65
 -11  -1   7   16.52    1.66
  11  -1  -7   19.11    1.64
 -11   1   6    1.33    0.27
  11   1  -6    1.06    0.21
  11  -1  -6    0.94    0.20
 -11  -1   6    1.25    0.25
 -11   1   5   41.20    3.11
  11   1  -5   35.92    3.07
 -11   1   5   38.86    3.10
 -11  -1   5   36.61    3.09
  11  -1  -5   33.24    3.06
 -11   1   4    1.52    0.19
 -11   1   4    2.57    0.30
 -11   1   4    1.98    0.29
  11   1  -4    1.56    0.25
  11  -1  -4    1.38    0.21
 -11  -1   4    1.19    0.24
 -11  -1   4    1.95    0.28
 -11   1   3   91.20    7.32
  11   1  -3   86.54    7.32
  11   1  -3   88.33    7.32
  11  -1  -3   92.54    7.29
 -11  -1   3   86.67    7.31
 -11   1   2    1.02    0.19
  11   1  -2    0.79    0.19
  11   1  -2    0.95    0.12
  11   1  -2    1.05    0.22
 -11   1   2    1.12    0.22
 -11  -1   2    1.26    0.22
 -11  -1   2    1.08    0.20
  11  -1  -2    0.91    0.19
  11   1  -1  133.26   12.20
  11   1  -1  162.70   12.21
 -11   1   1  163.18   12.17
 -11   1   1  142.95   12.21
 -11   1   1  163.42   12.21
 -11  -1   1  127.45   12.19
  11  -1  -1  151.13   12.18
  11  -1  -1  164.02   12.18
 -11  -1   1  135.90   12.20
  11   1   0    0.10    0.12
  11   1   0   -0.03    0.07
  11   1   0    0.06    0.12
 -11   1   0    0.07    0.12
 -11   1   0   -0.04    0.09
 -11   1   0   -0.04    0.12
 -11  -1   0   -0.17    0.11
  11  -1   0   -0.08    0.09
 -11  -1   0    0.01    0.10
  11  -1   0    0.13    0.08
  11  -1   0    0.05    0.11
  11   1   1  155.53   11.81
 -11   1  -1  136.34   11.81
  11   1   1  141.65   11.81
  11  -1   1  145.10   11.79
  11   1   2    1.29    0.19
 -11   1  -2    1.06    0.17
 -11   1  -2    1.46    0.19
  11   1   2    1.07    0.20
 -11   1  -2    0.68    0.15
 -11   1  -2    1.19    0.21
  11   1   2    0.95    0.16
  11  -1   2    1.16    0.13
 -11  -1  -2    0.57    0.17
  11  -1   2    1.32    0.20
 -11  -1  -2    0.61    0.14
  11  -1   2    0.75    0.16
 -11  -1  -2    1.04    0.13
  11   1   3   98.48    7.22
 -11   1  -3   97.25    7.23
 -11   1  -3   86.31    7.22
  11  -1   3   88.01    7.23
 -11  -1  -3   78.04    7.20
 -11  -1  -3   82.16    7.23
 -11   1  -4    1.67    0.23
  11   1   4    2.19    0.22
 -11   1  -4    1.99    0.23
  11   1   4    1.48    0.27
  11   1   4    1.17    0.28
 -11   1  -4    1.70    0.23
  11  -1   4    2.34    0.33
 -11  -1  -4    2.04    0.26
 -11  -1  -4    1.96    0.17
  11  -1   4    1.81    0.26
 -11   1  -5   39.25    3.21
  11   1   5   32.84    3.22
 -11  -1  -5   41.45    3.21
  11  -1   5   40.92    3.29
  11  -1   5   39.55    3.22
 -11   1  -6    1.37    0.21
  11   1   6    1.04    0.27
  11   1   6    0.87    0.29
 -11  -1  -6    1.46    0.22
  11  -1   6    1.10    0.30
 -11  -1  -6    1.36    0.20
  11  -1   6    1.16    0.25
  11   1   7   18.06    1.67
  11   1   7   15.55    1.73
 -11   1  -7   20.55    1.64
  11  -1   7   21.13    1.74
  11  -1   7   20.34    1.65
  11   1   8    0.21    0.23
  11   1   8    0.15    0.29
  11  -1   8    0.40    0.33
  11  -1   8    0.11    0.21
  11   1   9    6.90    0.75
  11  -1   9    6.69    0.74
  11   2  -9    0.25    0.22
 -11   2   9    0.09    0.26
  11  -2  -9    0.07    0.23
 -11   2   8   12.50    1.08
  11   2  -8    9.80    1.01
  11  -2  -8   10.74    1.02
 -11  -2   8   11.87    1.01
 -11   2   7    0.13    0.23
  11   2  -7    0.01    0.19
  11  -2  -7   -0.02    0.18
 -11  -2   7    0.11    0.17
 -11   2   6   30.67    2.76
  11   2  -6   33.07    2.74
  11  -2  -6   33.77    2.72
 -11   2   5   -0.17    0.18
 -11   2   5    0.25    0.22
 -11   2   5   -0.04    0.16
  11   2  -5   -0.12    0.16
  11  -2  -5   -0.01    0.14
 -11  -2   5   -0.30    0.15
 -11   2   4   32.29    2.80
  11   2  -4   35.46    2.80
 -11  -2   4   30.49    2.79
  11  -2  -4   34.78    2.76
 -11   2   3    0.19    0.17
  11   2  -3    0.22    0.14
  11   2  -3    0.12    0.15
 -11   2   3    0.13    0.16
 -11  -2   3    0.07    0.16
  11  -2  -3    0.32    0.13
 -11  -2   3   -0.14    0.15
  11  -2  -3    0.36    0.07
 -11   2   2  153.32   13.76
  11   2  -2  163.63   13.74
 -11   2   2  160.90   13.75
 -11   2   2  173.26   13.71
  11   2  -2  188.11   13.76
  11  -2  -2  165.58   13.73
  11  -2  -2  173.39   13.70
  11   2  -1    1.00    0.11
 -11   2   1    1.15    0.15
  11   2  -1    0.96    0.19
  11   2  -1    0.84    0.16
 -11   2   1    1.19    0.21
 -11   2   1    0.69    0.19
  11  -2  -1    1.24    0.13
  11  -2  -1    0.79    0.16
  11  -2  -1    0.95    0.19
 -11  -2   1    0.68    0.19
 -11  -2   1    0.93    0.19
 -11   2   0   69.72    5.55
  11   2   0   64.39    5.53
 -11   2   0   69.97    5.54
 -11   2   0   77.04    5.55
  11   2   0   71.87    5.52
 -11  -2   0   59.57    5.52
  11  -2   0   59.88    5.50
  11   2   1    1.02    0.18
  11   2   1    1.14    0.18
 -11   2  -1    1.15    0.19
 -11   2  -1    0.93    0.19
  11   2   1    1.05    0.19
 -11   2  -1    1.17    0.18
 -11  -2  -1    0.96    0.18
  11  -2   1    1.44    0.19
 -11  -2  -1    1.04    0.16
  11  -2   1    1.19    0.15
  11  -2   1    1.27    0.15
  11   2   2  178.41   13.27
  11   2   2  173.46   13.30
  11   2   2  172.74   13.29
 -11   2  -2  173.16   13.28
 -11   2  -2  134.90   13.28
 -11   2  -2  149.79   13.31
 -11  -2  -2  169.63   13.26
 -11  -2  -2  161.57   13.28
 -11  -2  -2  156.54   13.25
  11  -2   2  157.42   13.26
  11   2   3    0.06    0.16
 -11   2  -3    0.28    0.12
  11   2   3    0.37    0.12
  11   2   3    0.09    0.16
 -11   2  -3    0.30    0.11
 -11   2  -3    0.11    0.12
 -11  -2  -3    0.24    0.08
  11  -2   3    0.13    0.12
 -11  -2  -3    0.29    0.13
  11   2   4   40.90    3.42
 -11   2  -4   43.85    3.41
  11   2   4   37.85    3.47
 -11   2  -4   42.98    3.42
 -11   2  -4   37.97    3.43
  11  -2   4   38.76    3.42
  11  -2   4   45.86    3.48
 -11  -2  -4   43.56    3.43
  11   2   5   -0.11    0.20
  11   2   5   -0.21    0.16
  11   2   5    0.03    0.10
 -11   2  -5    0.00    0.11
  11  -2   5   -0.07    0.15
  11  -2   5   -0.06    0.21
 -11  -2  -5    0.10    0.15
 -11  -2  -5   -0.04    0.13
 -11   2  -6   33.83    2.70
  11   2   6   27.59    2.77
  11   2   6   30.39    2.72
  11  -2   6   34.00    2.70
  11  -2   6   35.46    2.78
 -11  -2  -6   32.09    2.69
  11   2   7   -0.15    0.24
  11   2   7   -0.01    0.23
  11  -2   7   -0.04    0.17
 -11  -2  -7    0.11    0.17
  11  -2   7   -0.14    0.27
  11   2   8    8.77    0.89
  11  -2   8    9.59    0.89
  11   2   9    0.28    0.29
  11  -2   9    0.16    0.27
 -11   3   9    7.91    0.85
  11   3  -9    7.67    0.80
  11  -3  -9    7.54    0.80
 -11   3   8    0.38    0.28
  11   3  -8    0.33    0.23
  11  -3  -8    0.04    0.22
  11   3  -7   10.37    1.03
  11  -3  -7   11.14    1.00
 -11  -3   7   11.41    0.99
 -11   3   6    0.17    0.22
  11   3  -6    0.72    0.25
 -11  -3   6    0.64    0.18
  11  -3  -6    0.40    0.18
 -11   3   5   39.46    3.70
 -11  -3   5   44.91    3.68
  11  -3  -5   48.53    3.67
 -11   3   4    0.72    0.21
 -11   3   4    0.49    0.20
  11   3  -4    0.65    0.22
  11   3  -4    0.75    0.12
 -11  -3   4    0.53    0.20
  11  -3  -4    0.51    0.15
 -11  -3   4    0.79    0.19
 -11   3   3   38.85    3.92
  11   3  -3   54.68    3.94
 -11   3   3   49.21    3.91
  11   3  -3   46.38    3.86
 -11  -3   3   51.46    3.91
 -11  -3   3   46.74    3.91
  11  -3  -3   43.75    3.88
 -11   3   2    0.27    0.14
  11   3  -2    0.13    0.13
  11   3  -2    0.32    0.08
 -11   3   2    0.21    0.14
  11   3  -2    0.27    0.18
 -11  -3   2    0.27    0.15
 -11  -3   2    0.11    0.13
  11  -3  -2    0.32    0.12
 -11   3   1  110.66    8.58
 -11   3   1   92.14    8.59
  11   3  -1  118.80    8.60
  11   3  -1  107.92    8.58
 -11   3   1  105.17    8.57
 -11  -3   1  105.27    8.59
  11  -3  -1  103.00    8.58
 -11  -3   1   96.59    8.58
  11   3   0    0.00    0.10
 -11   3   0    0.01    0.10
  11   3   0   -0.13    0.13
 -11   3   0    0.06    0.10
 -11   3   0    0.08    0.11
  11  -3   0    0.03    0.04
 -11  -3   0   -0.08    0.11
  11  -3   0   -0.02    0.10
 -11  -3   0    0.05    0.13
  11  -3   0   -0.02    0.13
 -11   3  -1   93.27    8.39
 -11   3  -1   96.31    8.36
  11   3   1  110.25    8.39
  11   3   1   93.82    8.35
 -11  -3  -1  102.52    8.36
  11  -3   1  111.81    8.34
 -11  -3  -1   99.37    8.37
  11  -3   1  110.97    8.34
  11   3   2    0.38    0.11
  11   3   2    0.06    0.12
  11   3   2    0.57    0.18
 -11   3  -2    0.20    0.11
  11  -3   2    0.13    0.09
 -11  -3  -2    0.20    0.10
 -11  -3  -2    0.34    0.14
  11   3   3   51.58    4.28
  11   3   3   48.81    4.24
  11   3   3   51.84    4.28
  11   3   3   53.05    4.26
 -11   3  -3   46.56    4.24
 -11  -3  -3   54.31    4.26
  11  -3   3   52.50    4.24
 -11  -3  -3   54.89    4.23
  11   3   4    0.74    0.16
  11   3   4    0.49    0.21
 -11   3  -4    0.59    0.18
  11   3   4    0.75    0.23
  11  -3   4    0.63    0.16
 -11  -3  -4    0.82    0.18
 -11  -3  -4    0.91    0.19
  11   3   5   47.47    3.91
 -11   3  -5   39.42    3.85
  11   3   5   49.94    3.84
 -11  -3  -5   44.87    3.84
  11  -3   5   50.63    3.85
 -11   3  -6    0.26    0.19
  11   3   6    0.25    0.23
  11   3   6    0.11    0.26
  11   3   6    0.31    0.14
 -11  -3  -6    0.54    0.20
  11  -3   6    0.36    0.20
  11  -3   6    0.43    0.26
  11   3   7    8.94    1.01
  11   3   7    8.54    1.09
  11  -3   7   12.07    1.11
 -11  -3  -7   12.40    0.99
  11  -3   7   11.36    0.99
  11   3   8    0.01    0.24
  11  -3   8    0.13    0.24
 -11  -3  -8    0.49    0.21
  11   3   9    7.46    0.82
  11  -3   9    7.25    0.76
 -11   4   8    6.87    0.89
  11   4  -8    8.42    0.89
  11  -4  -8    9.53    0.83
  11   4  -7    0.06    0.22
 -11   4   7    0.03    0.24
  11  -4  -7    0.02    0.19
 -11  -4   7    0.33    0.16
  11   4  -6    9.52    1.13
 -11   4   6   11.97    1.13
  11  -4  -6   12.86    1.09
 -11  -4   6   14.14    1.09
 -11   4   5   -0.05    0.18
  11   4  -5   -0.05    0.20
  11  -4  -5   -0.01    0.15
 -11  -4   5    0.30    0.16
  11   4  -4   57.01    4.46
 -11   4   4   54.38    4.44
 -11  -4   4   51.27    4.43
  11  -4  -4   52.30    4.41
 -11   4   3    0.64    0.18
  11   4  -3    0.76    0.23
 -11   4   3    0.68    0.20
 -11  -4   3    0.98    0.19
 -11  -4   3    0.63    0.20
  11  -4  -3    0.68    0.16
 -11   4   2   40.49    3.23
  11   4  -2   43.74    3.24
 -11   4   2   33.72    3.20
 -11  -4   2   38.38    3.22
 -11  -4   2   39.06    3.22
  11  -4  -2   37.68    3.19
 -11   4   1    1.55    0.22
  11   4  -1    1.47    0.26
 -11   4   1    2.31    0.27
  11   4  -1    1.73    0.22
  11  -4  -1    1.64    0.22
 -11  -4   1    2.00    0.26
 -11  -4   1    1.63    0.23
  11   4   0   90.90    8.13
 -11   4   0   99.42    8.14
  11  -4   0  101.45    8.14
 -11  -4   0  100.79    8.14
 -11  -4   0  105.33    8.16
 -11   4  -1    1.87    0.23
  11   4   1    1.28    0.25
  11   4   1    2.44    0.29
  11   4   1    1.69    0.22
 -11  -4  -1    1.97    0.23
 -11  -4  -1    1.55    0.24
  11  -4   1    1.79    0.18
  11   4   2   35.42    3.42
  11   4   2   40.19    3.39
  11   4   2   45.54    3.45
 -11   4  -2   39.86    3.39
 -11  -4  -2   43.66    3.43
 -11  -4  -2   41.99    3.43
  11  -4   2   42.83    3.39
 -11  -4  -2   41.52    3.40
  11   4   3    0.76    0.18
  11   4   3    0.82    0.22
  11   4   3    0.78    0.13
 -11   4  -3    0.68    0.14
 -11  -4  -3    0.73    0.18
  11  -4   3    0.53    0.14
 -11  -4  -3    1.05    0.20
 -11  -4  -3    0.82    0.13
  11   4   4   41.95    4.23
  11   4   4   54.79    4.22
 -11   4  -4   54.55    4.21
  11  -4   4   53.77    4.20
 -11  -4  -4   49.78    4.22
  11   4   5   -0.31    0.20
 -11   4  -5    0.09    0.16
  11   4   5    0.09    0.17
  11   4   5   -0.16    0.21
 -11  -4  -5   -0.11    0.17
  11  -4   5    0.06    0.16
  11   4   6   12.12    1.21
  11   4   6   14.21    1.13
  11   4   6    9.70    1.16
 -11  -4  -6   13.60    1.15
  11  -4   6   13.55    1.14
  11   4   7    0.08    0.31
  11   4   7   -0.08    0.27
  11  -4   7    0.14    0.20
 -11  -4  -7    0.30    0.21
  11   4   8    9.35    0.98
 -11  -4  -8   10.32    0.94
  11  -4   8    9.98    0.96
 -11   5   8    0.03    0.28
  11   5  -8    0.24    0.28
  11  -5  -8    0.19    0.24
 -11   5   7   13.79    1.33
  11   5  -7   13.93    1.35
  11  -5  -7   15.81    1.30
  11   5  -6    0.21    0.26
 -11   5   6    0.05    0.20
 -11  -5   6    0.08    0.16
  11  -5  -6    0.00    0.18
 -11   5   5   11.11    1.08
  11   5  -5   12.28    1.13
 -11  -5   5   12.47    1.06
  11  -5  -5   11.90    1.06
 -11  -5   5   12.46    1.07
 -11   5   4    0.13    0.16
  11   5  -4    0.23    0.22
 -11  -5   4   -0.08    0.15
  11  -5  -4    0.12    0.14
 -11  -5   4    0.01    0.16
 -11   5   3   45.85    3.91
  11   5  -3   49.07    3.94
 -11  -5   3   49.17    3.92
  11  -5  -3   42.52    3.89
 -11  -5   3   50.47    3.92
  11   5  -2   -0.03    0.19
 -11   5   2   -0.03    0.13
 -11  -5   2   -0.22    0.13
  11  -5  -2   -0.06    0.11
 -11  -5   2    0.20    0.16
 -11  -5   2    0.02    0.15
 -11   5   1   36.82    3.15
 -11  -5   1   40.63    3.16
 -11  -5   1   38.75    3.16
 -11  -5   1   37.07    3.16
  11  -5  -1   37.12    3.14
 -11   5   0   -0.05    0.11
  11   5   0    0.14    0.12
 -11  -5   0    0.12    0.16
 -11  -5   0    0.01    0.16
  11  -5   0    0.06    0.10
 -11  -5   0    0.02    0.12
  11   5   1   43.64    3.30
  11   5   1   37.90    3.24
 -11   5  -1   34.11    3.24
 -11  -5  -1   42.26    3.26
 -11  -5  -1   41.35    3.27
 -11  -5  -1   38.26    3.27
  11   5   2    0.17    0.16
  11   5   2    0.00    0.09
 -11   5  -2    0.03    0.10
  11   5   2    0.17    0.21
 -11  -5  -2    0.02    0.11
 -11  -5  -2   -0.02    0.15
  11   5   3   42.51    3.79
  11   5   3   46.71    3.82
 -11  -5  -3   48.11    3.80
  11   5   4    0.09    0.17
  11   5   4    0.04    0.22
  11  -5   4   -0.03    0.14
 -11  -5  -4    0.11    0.18
  11   5   5   13.72    1.15
 -11  -5  -5   12.04    1.14
  11  -5   5   12.54    1.12
  11   5   6    0.07    0.25
  11   5   6    0.22    0.21
  11   5   6   -0.31    0.23
 -11  -5  -6    0.27    0.21
  11  -5   6    0.22    0.20
  11   5   7   12.85    1.22
  11   5   7   11.46    1.27
 -11  -5  -7   15.64    1.27
  11  -5   7   15.43    1.25
  11   5   8    0.19    0.26
  11  -5   8   -0.08    0.24
 -11  -5  -8    0.09    0.26
 -11   6   7   -0.13    0.22
  11   6  -7   -0.01    0.28
  11  -6  -7    0.03    0.23
  11   6  -6   16.31    1.39
 -11   6   6   13.83    1.33
  11  -6  -6   14.81    1.32
 -11  -6   6   15.02    1.31
 -11   6   5    0.08    0.19
  11   6  -5    0.10    0.23
  11  -6  -5   -0.01    0.18
 -11  -6   5   -0.11    0.16
  11   6  -4   16.36    1.34
 -11   6   4   13.96    1.30
 -11  -6   4   15.51    1.28
  11  -6  -4   13.58    1.27
 -11   6   3    0.37    0.17
  11   6  -3    0.45    0.24
 -11  -6   3    0.43    0.19
  11  -6  -3    0.43    0.15
  11   6  -2   25.51    2.43
 -11   6   2   30.03    2.41
  11  -6  -2   28.98    2.38
 -11  -6   2   29.95    2.41
 -11   6   1    1.23    0.21
 -11  -6   1    1.36    0.24
  11  -6  -1    1.27    0.19
 -11  -6   1    1.32    0.25
 -11   6   0   26.61    2.10
  11  -6   0   22.13    2.08
 -11  -6   0   26.55    2.12
 -11  -6   0   25.59    2.11
 -11   6  -1    1.26    0.20
  11   6   1    1.80    0.31
  11   6   1    0.83    0.25
  11   6   1    1.37    0.20
 -11  -6  -1    1.49    0.26
 -11  -6  -1    1.74    0.23
  11   6   2   30.32    2.69
  11   6   2   34.71    2.76
  11   6   2   29.06    2.73
 -11  -6  -2   35.93    2.74
 -11  -6  -2   33.42    2.70
  11   6   3    0.81    0.28
  11   6   3    0.63    0.21
 -11  -6  -3    0.51    0.22
  11   6   4   12.35    1.16
  11   6   4   11.40    1.17
 -11  -6  -4   14.85    1.17
  11   6   5   -0.06    0.24
  11   6   5    0.30    0.22
 -11  -6  -5    0.00    0.20
  11   6   6   14.91    1.37
 -11  -6  -6   15.81    1.38
  11   6   7   -0.48    0.27
  11   6   7   -0.13    0.22
 -11  -6  -7   -0.09    0.25
 -11   7   6   -0.11    0.21
  11   7  -6   -0.12    0.27
  11  -7  -6   -0.05    0.20
 -11   7   5   15.85    1.36
  11   7  -5   13.34    1.37
 -11  -7   5   16.30    1.31
  11  -7  -5   14.59    1.32
 -11   7   4   -0.14    0.19
  11   7  -4   -0.14    0.23
  11  -7  -4    0.09    0.17
 -11  -7   4    0.18    0.17
 -11   7   3    9.86    0.91
  11   7  -3    7.36    0.93
  11  -7  -3    9.67    0.87
 -11  -7   3   11.75    0.91
 -11   7   2    0.08    0.18
 -11  -7   2   -0.02    0.18
  11  -7  -2    0.06    0.13
 -11   7   1   19.86    1.68
 -11  -7   1   20.98    1.70
  11  -7  -1   18.62    1.65
  11   7   0   -0.11    0.21
 -11   7   0    0.02    0.15
 -11  -7   0    0.13    0.19
 -11   7  -1   22.75    1.79
  11   7   1   21.00    1.85
 -11  -7  -1   21.19    1.80
 -11  -7  -1   19.72    1.82
  11   7   2    0.24    0.25
  11   7   2    0.09    0.20
 -11  -7  -2    0.12    0.21
  11   7   3    9.33    1.00
  11   7   3   12.19    1.06
 -11  -7  -3   11.43    1.02
  11   7   4    0.18    0.22
  11   7   4    0.18    0.26
 -11  -7  -4    0.12    0.23
  11   7   5   16.78    1.51
 -11  -7  -5   16.77    1.50
  11   7   6   -0.61    0.26
  11   7   6    0.29    0.26
 -11  -7  -6    0.41    0.28
 -11   8   5   -0.03    0.24
  11   8  -5   -0.18    0.26
  11  -8  -5    0.00    0.20
 -11   8   4    8.61    0.90
  11   8  -4    6.89    0.92
  11  -8  -4   10.24    0.86
 -11  -8   4   10.45    0.86
  11   8  -3   -0.63    0.24
 -11   8   3    0.29    0.21
  11  -8  -3    0.28    0.17
 -11  -8   3    0.39    0.20
 -11   8   2   10.26    0.97
  11  -8  -2   10.50    0.92
 -11  -8   2   10.67    0.97
  11   8  -1    0.11    0.24
 -11   8   1    0.41    0.20
 -11  -8   1    0.32    0.22
 -11   8   0   11.90    0.98
  11   8   0    8.56    1.01
 -11  -8   0   11.55    1.01
  11   8   1    0.14    0.25
  11   8   1    0.54    0.29
 -11  -8  -1    0.26    0.24
  11   8   2    9.16    0.99
  11   8   2   11.53    1.02
 -11  -8  -2   10.87    1.00
  11   8   3    0.25    0.24
  11   8   3    0.54    0.27
 -11  -8  -3    0.20    0.26
  11   8   4    8.85    0.99
  11   8   4   10.73    1.00
 -11  -8  -4   10.16    0.98
  11   8   5    0.13    0.29
  11   8   5   -0.15    0.28
 -11  -8  -5    0.16    0.28
 -11   9   3    7.86    0.80
 -11  -9   3    7.84    0.76
  11  -9  -3    7.42    0.72
 -11   9   2    0.10    0.22
  11   9  -2   -0.39    0.24
 -11  -9   2   -0.16    0.21
 -11   9   1    8.57    0.73
  11   9  -1    4.99    0.75
 -11  -9   1    7.08    0.73
  11   9   0   -0.10    0.26
 -11  -9   0    0.12    0.23
  11   9   1    6.85    0.81
  11   9   1    6.64    0.78
 -11  -9  -1    7.95    0.77
  11   9   2    0.33    0.27
  11   9   2   -0.04    0.26
 -11  -9  -2    0.07    0.27
  11   9   3    7.54    0.90
  11   9   3    8.80    0.91
 -11  -9  -3    9.28    0.90
 -12   0   9   -0.33    0.25
  12   0  -9    0.04    0.21
  12   0  -8    0.41    0.21
 -12   0   8    0.40    0.25
  12   0  -7    0.04    0.17
 -12   0   7   -0.07    0.22
  12   0  -6    0.08    0.16
 -12   0   6    0.13    0.21
 -12   0   5    0.17    0.18
  12   0  -5   -0.10    0.15
 -12   0   4    3.71    0.40
 -12   0   4    3.42    0.42
  12   0  -4    3.00    0.39
 -12   0   3    0.23    0.14
 -12   0   3   -0.06    0.14
  12   0  -3   -0.08    0.15
  12   0  -2    3.15    0.30
  12   0  -2    2.25    0.35
  12   0  -2    4.05    0.40
 -12   0   2    3.84    0.39
 -12   0   1    0.12    0.12
 -12   0   1   -0.01    0.13
  12   0  -1   -0.05    0.07
  12   0  -1    0.05    0.14
  12   0   0   11.13    1.02
 -12   0   0   12.81    1.03
 -12   0   0   12.26    1.04
  12   0   0   11.48    1.01
  12   0   1   -0.16    0.10
  12   0   1    0.04    0.10
  12   0   1    0.11    0.11
 -12   0  -1   -0.02    0.12
 -12   0  -1    0.06    0.10
 -12   0  -2    2.83    0.33
 -12   0  -2    3.64    0.38
  12   0   2    3.56    0.38
  12   0   2    3.82    0.39
 -12   0  -3   -0.17    0.12
  12   0   3   -0.26    0.13
 -12   0  -3   -0.04    0.09
  12   0   3    0.07    0.07
  12   0   3   -0.07    0.16
 -12   0  -3    0.21    0.09
  12   0   4    2.45    0.38
  12   0   4    2.91    0.44
 -12   0  -4    4.12    0.32
 -12   0  -4    3.30    0.35
 -12   0  -5    0.04    0.13
 -12   0  -5    0.14    0.11
  12   0   5   -0.23    0.17
  12   0   5    0.05    0.18
  12   0   6    0.19    0.22
 -12   0  -6    0.19    0.13
  12   0   6    0.16    0.20
  12   0   7   -0.10    0.22
  12   0   7   -0.03    0.26
  12   0   8    0.48    0.26
  12   0   9    0.15    0.28
  12   1  -9   -0.09    0.22
 -12   1   9   -0.05    0.27
  12  -1  -9    0.14    0.23
 -12  -1   9   -0.30    0.20
  12   1  -8   -0.02    0.19
 -12   1   8    0.01    0.24
 -12  -1   8   -0.12    0.21
  12  -1  -8    0.06    0.20
  12   1  -7    0.12    0.19
 -12   1   7    0.50    0.24
 -12  -1   7    0.02    0.21
  12  -1  -7    0.24    0.19
  12   1  -6   -0.10    0.16
 -12   1   6   -0.14    0.18
 -12  -1   6   -0.32    0.19
  12  -1  -6   -0.21    0.14
 -12   1   5    0.64    0.21
  12   1  -5    0.56    0.19
 -12  -1   5    0.61    0.22
  12  -1  -5    0.52    0.16
 -12   1   4    0.24    0.18
 -12   1   4    0.10    0.17
  12   1  -4   -0.20    0.15
  12  -1  -4   -0.04    0.13
 -12  -1   4   -0.04    0.17
 -12  -1   4    0.06    0.17
  12   1  -3    2.07    0.37
 -12   1   3    2.89    0.38
 -12   1   3    4.21    0.41
 -12  -1   3    3.61    0.41
 -12  -1   3    2.93    0.36
  12  -1  -3    3.29    0.37
 -12   1   2   -0.03    0.15
  12   1  -2   -0.05    0.14
  12   1  -2   -0.03    0.13
  12   1  -2    0.04    0.05
 -12   1   2    0.07    0.15
 -12  -1   2   -0.01    0.15
 -12  -1   2    0.15    0.14
  12  -1  -2   -0.13    0.14
  12   1  -1    7.17    0.73
 -12   1   1    8.08    0.74
 -12   1   1    8.94    0.68
 -12   1   1    7.48    0.74
  12   1  -1    9.06    0.74
  12  -1  -1    6.62    0.72
  12  -1  -1    7.73    0.69
 -12  -1   1    7.71    0.73
 -12  -1   1    7.48    0.74
  12  -1  -1    8.82    0.69
 -12   1   0   -0.02    0.12
  12   1   0    0.07    0.07
 -12   1   0   -0.02    0.12
  12   1   0    0.01    0.11
  12   1   0    0.04    0.13
 -12   1   0    0.02    0.09
  12   1   0    0.08    0.13
  12  -1   0    0.04    0.09
 -12  -1   0   -0.08    0.13
 -12  -1   0    0.04    0.11
  12  -1   0    0.00    0.09
  12  -1   0   -0.06    0.11
 -12   1  -1    9.26    0.70
 -12   1  -1    8.61    0.70
 -12   1  -1    7.57    0.69
  12   1   1    6.02    0.69
  12   1   1    8.76    0.70
  12   1   1    7.88    0.69
 -12  -1  -1    7.53    0.68
  12  -1   1    7.55    0.67
  12  -1   1    6.14    0.67
  12   1   2   -0.20    0.09
 -12   1  -2   -0.15    0.12
 -12   1  -2    0.05    0.11
 -12   1  -2   -0.07    0.11
  12   1   2   -0.01    0.13
  12   1   2   -0.05    0.13
 -12   1  -2   -0.03    0.10
  12  -1   2   -0.08    0.07
 -12  -1  -2    0.02    0.07
 -12  -1  -2   -0.37    0.12
  12  -1   2    0.08    0.13
 -12  -1  -2   -0.05    0.08
  12  -1   2   -0.15    0.10
  12   1   3    2.70    0.35
 -12   1  -3    3.56    0.33
  12   1   3    3.17    0.32
  12   1   3    2.35    0.38
 -12   1  -3    3.85    0.36
 -12   1  -3    2.69    0.32
  12  -1   3    2.33    0.34
 -12  -1  -3    3.16    0.30
  12  -1   3    3.58    0.39
  12   1   4   -0.04    0.18
  12   1   4   -0.42    0.16
 -12   1  -4    0.12    0.10
 -12   1  -4    0.05    0.12
  12   1   4    0.06    0.09
 -12   1  -4    0.03    0.13
 -12  -1  -4   -0.05    0.10
  12  -1   4    0.07    0.18
  12  -1   4   -0.10    0.14
 -12  -1  -4    0.11    0.12
 -12   1  -5    0.68    0.17
  12   1   5    0.35    0.22
  12   1   5    0.86    0.26
 -12  -1  -5    1.00    0.18
  12  -1   5    0.61    0.20
  12  -1   5    0.80    0.24
  12   1   6   -0.27    0.17
 -12   1  -6   -0.12    0.14
  12   1   6   -0.13    0.22
 -12  -1  -6    0.06    0.14
  12  -1   6   -0.17    0.19
 -12  -1  -6    0.01    0.15
  12  -1   6    0.17    0.25
  12   1   7    0.20    0.26
  12   1   7    0.02    0.23
  12  -1   7   -0.02    0.21
  12  -1   7    0.16    0.27
  12   1   8   -0.12    0.22
  12  -1   8   -0.22    0.23
  12   1   9    0.11    0.27
  12  -1   9    0.12    0.26
 -12   2   9   -0.10    0.26
  12   2  -9    0.04    0.23
  12  -2  -9    0.01    0.22
  12   2  -8    0.20    0.23
 -12   2   8    0.48    0.26
 -12  -2   8    0.14    0.20
  12  -2  -8   -0.06    0.20
 -12   2   7    0.06    0.22
  12   2  -7   -0.11    0.20
  12  -2  -7   -0.13    0.19
 -12  -2   7   -0.11    0.18
  12   2  -6    0.80    0.24
 -12   2   6    1.03    0.26
  12  -2  -6    0.72    0.20
 -12   2   5    0.02    0.21
  12   2  -5   -0.10    0.20
 -12  -2   5   -0.28    0.17
  12  -2  -5   -0.08    0.13
 -12   2   4    1.20    0.22
 -12   2   4    0.52    0.22
  12   2  -4    0.13    0.19
  12  -2  -4    0.56    0.15
 -12  -2   4    0.13    0.19
 -12  -2   4    0.12    0.18
  12   2  -3   -0.02    0.16
 -12   2   3    0.20    0.15
 -12   2   3   -0.20    0.16
 -12  -2   3   -0.44    0.14
  12  -2  -3   -0.08    0.12
 -12  -2   3   -0.11    0.16
 -12   2   2    4.24    0.53
  12   2  -2    6.85    0.55
 -12   2   2    5.19    0.52
 -12   2   2    4.85    0.45
  12   2  -2    4.70    0.51
  12  -2  -2    5.23    0.51
  12   2  -1   -0.19    0.12
 -12   2   1    0.13    0.14
  12   2  -1   -0.13    0.13
 -12   2   1   -0.03    0.09
 -12   2   1   -0.14    0.13
 -12  -2   1   -0.33    0.12
  12  -2  -1    0.13    0.07
  12  -2  -1    0.00    0.12
  12  -2  -1    0.11    0.11
 -12  -2   1   -0.44    0.13
 -12   2   0    3.48    0.33
 -12   2   0    2.89    0.35
  12   2   0    2.68    0.33
  12   2   0    3.02    0.29
  12   2   0    3.81    0.36
 -12   2   0    3.51    0.36
 -12  -2   0    1.91    0.32
 -12  -2   0    2.24    0.31
  12  -2   0    2.48    0.27
 -12   2  -1    0.07    0.12
  12   2   1   -0.07    0.11
  12   2   1   -0.15    0.13
 -12   2  -1   -0.21    0.12
  12   2   1    0.02    0.10
 -12   2  -1   -0.07    0.11
  12   2   1    0.06    0.14
  12  -2   1   -0.06    0.09
 -12  -2  -1   -0.06    0.12
  12  -2   1   -0.15    0.08
 -12  -2  -1   -0.19    0.09
  12   2   2    6.31    0.52
  12   2   2    4.65    0.50
 -12   2  -2    5.50    0.50
 -12   2  -2    5.14    0.48
 -12  -2  -2    5.12    0.50
 -12  -2  -2    3.87    0.45
 -12  -2  -2    5.40    0.43
  12  -2   2    4.40    0.45
  12  -2   2    4.77    0.42
 -12   2  -3    0.00    0.12
 -12   2  -3   -0.13    0.11
  12   2   3   -0.03    0.15
  12   2   3    0.15    0.17
 -12   2  -3   -0.06    0.10
  12   2   3    0.02    0.11
  12  -2   3   -0.09    0.11
 -12  -2  -3   -0.03    0.07
 -12  -2  -3   -0.05    0.07
 -12  -2  -3    0.12    0.13
  12   2   4    0.75    0.22
 -12   2  -4    0.77    0.14
 -12   2  -4    0.75    0.18
 -12   2  -4    0.80    0.16
  12   2   4    0.70    0.15
  12   2   4    0.61    0.22
 -12  -2  -4    0.96    0.19
  12  -2   4    0.68    0.18
  12  -2   4    1.08    0.23
  12   2   5   -0.15    0.20
  12   2   5   -0.05    0.10
 -12   2  -5   -0.08    0.13
  12   2   5    0.05    0.21
  12  -2   5   -0.11    0.22
 -12  -2  -5    0.18    0.15
 -12  -2  -5    0.06    0.16
  12  -2   5   -0.06    0.16
  12   2   6    0.17    0.25
 -12   2  -6    0.52    0.17
  12   2   6    0.67    0.26
  12  -2   6    1.21    0.31
 -12  -2  -6    1.07    0.21
  12  -2   6    0.77    0.22
  12   2   7   -0.32    0.22
  12   2   7    0.03    0.25
  12  -2   7   -0.06    0.21
  12  -2   7   -0.15    0.22
 -12  -2  -7   -0.07    0.18
  12   2   8   -0.02    0.23
  12  -2   8    0.06    0.24
  12   2   9    0.16    0.28
  12  -2   9   -0.06    0.27
  12   3  -8    0.14    0.24
 -12   3   8   -0.17    0.26
 -12  -3   8    0.12    0.18
  12  -3  -8    0.05    0.24
  12   3  -7    0.50    0.26
 -12   3   7   -0.05    0.24
  12  -3  -7    0.12    0.21
 -12  -3   7    0.28    0.19
  12   3  -6   -0.05    0.21
 -12   3   6   -0.27    0.21
  12  -3  -6    0.11    0.17
 -12  -3   6   -0.06    0.17
  12   3  -5    0.27    0.21
 -12   3   5    0.42    0.22
 -12  -3   5    0.46    0.19
  12  -3  -5    0.58    0.18
 -12   3   4    0.03    0.18
  12   3  -4    0.08    0.18
  12  -3  -4   -0.01    0.13
 -12  -3   4    0.07    0.16
 -12   3   3    1.80    0.28
  12   3  -3    1.50    0.28
 -12   3   3    1.99    0.30
 -12  -3   3    1.55    0.27
  12  -3  -3    2.15    0.27
 -12  -3   3    1.60    0.26
 -12   3   2   -0.02    0.14
  12   3  -2   -0.02    0.12
 -12   3   2   -0.10    0.14
  12   3  -2    0.04    0.16
 -12  -3   2   -0.13    0.13
 -12  -3   2   -0.03    0.16
  12  -3  -2   -0.01    0.13
 -12   3   1    2.76    0.37
  12   3  -1    3.30    0.38
 -12   3   1    3.45    0.32
  12   3  -1    3.03    0.34
 -12   3   1    3.09    0.36
 -12  -3   1    2.68    0.37
  12  -3  -1    2.77    0.34
  12  -3  -1    2.77    0.35
 -12  -3   1    2.89    0.35
 -12   3   0    0.06    0.12
  12   3   0    0.03    0.15
  12   3   0    0.04    0.11
 -12   3   0    0.00    0.11
 -12   3   0    0.12    0.13
  12  -3   0   -0.11    0.05
  12  -3   0    0.00    0.11
 -12  -3   0    0.04    0.14
 -12  -3   0   -0.17    0.11
  12  -3   0   -0.04    0.12
  12   3   1    2.95    0.35
  12   3   1    2.86    0.34
 -12   3  -1    2.94    0.35
  12   3   1    4.42    0.41
 -12   3  -1    3.13    0.35
 -12  -3  -1    3.06    0.34
  12  -3   1    3.55    0.31
  12  -3   1    3.94    0.37
  12  -3   1    3.04    0.30
 -12  -3  -1    3.47    0.39
 -12   3  -2    0.10    0.11
  12   3   2    0.25    0.17
  12   3   2   -0.10    0.13
  12   3   2   -0.17    0.13
  12   3   2    0.03    0.10
 -12  -3  -2   -0.04    0.13
  12  -3   2   -0.12    0.09
 -12  -3  -2   -0.02    0.05
 -12  -3  -2   -0.10    0.09
  12   3   3    2.39    0.25
 -12   3  -3    2.30    0.28
  12   3   3    2.19    0.32
  12   3   3    1.86    0.29
  12   3   3    1.68    0.26
 -12   3  -3    1.48    0.26
  12  -3   3    2.01    0.26
 -12  -3  -3    2.76    0.32
 -12  -3  -3    2.19    0.24
  12   3   4    0.10    0.14
  12   3   4   -0.15    0.19
 -12   3  -4    0.00    0.13
  12   3   4   -0.07    0.18
 -12  -3  -4    0.27    0.16
 -12  -3  -4   -0.10    0.16
  12  -3   4   -0.25    0.13
  12   3   5    0.22    0.23
 -12   3  -5    0.56    0.20
  12   3   5    0.69    0.17
  12   3   5    0.80    0.27
 -12  -3  -5    0.60    0.19
  12  -3   5    0.55    0.19
  12   3   6   -0.10    0.20
  12   3   6    0.07    0.13
  12   3   6    0.06    0.22
 -12  -3  -6    0.01    0.18
  12  -3   6   -0.10    0.19
  12   3   7   -0.14    0.24
  12   3   7    0.31    0.29
  12  -3   7    0.24    0.23
 -12  -3  -7    0.43    0.22
  12  -3   7    0.36    0.29
  12   3   8    0.10    0.27
  12  -3   8   -0.12    0.24
  12   4  -8    0.68    0.27
 -12   4   8    0.30    0.29
  12  -4  -8    0.36    0.25
  12   4  -7    0.09    0.22
 -12   4   7   -0.12    0.25
  12  -4  -7    0.07    0.20
 -12  -4   7    0.22    0.18
  12   4  -6    0.10    0.24
 -12   4   6    0.05    0.22
  12  -4  -6    0.46    0.20
 -12  -4   6    0.25    0.19
  12   4  -5    0.24    0.23
 -12   4   5    0.04    0.19
 -12  -4   5    0.19    0.17
  12  -4  -5   -0.19    0.15
 -12   4   4    1.02    0.24
  12   4  -4    1.10    0.26
  12  -4  -4    1.14    0.21
 -12  -4   4    1.29    0.24
  12   4  -3    0.13    0.19
 -12   4   3    0.01    0.16
  12  -4  -3    0.00    0.13
 -12  -4   3    0.10    0.15
 -12  -4   3   -0.01    0.16
 -12   4   2    0.86    0.19
 -12   4   2    0.90    0.20
  12   4  -2    0.98    0.23
 -12  -4   2    0.77    0.19
 -12  -4   2    0.75    0.18
  12  -4  -2    0.83    0.17
  12   4  -1   -0.12    0.15
 -12   4   1   -0.10    0.14
  12   4  -1   -0.19    0.11
 -12   4   1   -0.05    0.12
 -12  -4   1   -0.01    0.12
  12  -4  -1   -0.10    0.12
 -12  -4   1    0.17    0.15
  12   4   0    2.57    0.38
 -12   4   0    3.07    0.36
  12   4   0    2.84    0.35
 -12   4   0    3.36    0.37
  12  -4   0    4.33    0.37
 -12  -4   0    3.49    0.37
 -12  -4   0    3.98    0.41
  12   4   1   -0.45    0.13
 -12   4  -1    0.00    0.11
  12   4   1   -0.05    0.10
  12   4   1    0.19    0.16
  12  -4   1   -0.03    0.06
 -12  -4  -1    0.16    0.15
 -12  -4  -1   -0.09    0.11
  12   4   2    0.41    0.19
 -12   4  -2    0.88    0.16
  12   4   2    1.19    0.24
  12   4   2    0.77    0.14
 -12  -4  -2    0.60    0.19
  12  -4   2    0.79    0.12
 -12  -4  -2    0.83    0.15
 -12  -4  -2    0.57    0.19
  12   4   3   -0.01    0.15
  12   4   3    0.25    0.21
 -12  -4  -3   -0.05    0.17
  12  -4   3    0.04    0.11
 -12  -4  -3    0.22    0.16
 -12   4  -4    0.71    0.23
  12   4   4    1.23    0.27
  12   4   4    1.20    0.23
  12   4   4    1.55    0.30
 -12   4  -4    1.31    0.21
  12  -4   4    1.15    0.20
 -12  -4  -4    1.26    0.25
  12   4   5    0.05    0.17
  12   4   5   -0.15    0.21
 -12   4  -5    0.31    0.17
  12   4   5    0.08    0.20
  12  -4   5   -0.06    0.16
 -12  -4  -5   -0.07    0.19
  12   4   6    0.13    0.27
  12   4   6    0.35    0.17
  12   4   6   -0.11    0.22
 -12  -4  -6    0.17    0.21
  12  -4   6    0.05    0.19
  12   4   7   -0.25    0.23
  12   4   7    0.06    0.28
  12  -4   7   -0.03    0.22
 -12  -4  -7   -0.03    0.22
  12   4   8    0.09    0.28
  12  -4   8    0.48    0.25
 -12  -4  -8    0.28    0.24
  12   5  -7    0.11    0.29
 -12   5   7    0.07    0.26
  12  -5  -7    0.49    0.25
 -12   5   6    0.04    0.22
  12   5  -6   -0.01    0.24
  12  -5  -6    0.08    0.20
 -12  -5   6    0.02    0.17
 -12  -5   6    0.05    0.18
 -12   5   5    0.15    0.21
  12   5  -5    0.51    0.27
 -12  -5   5    0.45    0.20
 -12  -5   5    0.59    0.19
  12  -5  -5    0.37    0.20
  12   5  -4   -0.10    0.20
 -12   5   4    0.17    0.18
 -12  -5   4    0.06    0.17
 -12  -5   4    0.08    0.18
  12  -5  -4   -0.07    0.15
 -12   5   3    0.71    0.21
  12   5  -3    1.02    0.26
  12  -5  -3    0.63    0.17
 -12  -5   3    0.57    0.22
 -12  -5   3    0.86    0.20
 -12   5   2   -0.04    0.14
  12   5  -2    0.05    0.19
 -12  -5   2    0.11    0.17
  12  -5  -2   -0.19    0.12
 -12  -5   2   -0.08    0.14
 -12  -5   2    0.05    0.17
  12   5  -1    0.49    0.23
 -12   5   1    0.70    0.17
  12  -5  -1    0.71    0.17
 -12  -5   1    0.92    0.21
 -12  -5   1    0.74    0.21
 -12  -5   1    0.57    0.17
  12   5   0   -0.05    0.11
  12   5   0   -0.29    0.17
 -12   5   0   -0.05    0.12
 -12  -5   0    0.04    0.13
  12  -5   0   -0.04    0.11
 -12  -5   0    0.07    0.18
 -12  -5   0    0.10    0.17
 -12   5  -1    0.89    0.16
  12   5   1   -0.03    0.19
  12   5   1    0.69    0.14
  12   5   1    0.89    0.24
 -12  -5  -1    0.78    0.21
 -12  -5  -1    0.71    0.20
 -12  -5  -1    0.87    0.17
  12   5   2    0.28    0.22
  12   5   2   -0.18    0.16
  12   5   2    0.06    0.10
 -12   5  -2   -0.03    0.11
 -12  -5  -2   -0.10    0.12
 -12  -5  -2   -0.08    0.17
  12   5   3    0.72    0.21
  12   5   3    1.06    0.27
 -12  -5  -3    0.64    0.22
  12   5   4    0.08    0.19
  12   5   4    0.20    0.23
 -12  -5  -4    0.05    0.20
  12   5   5    0.57    0.21
  12   5   5    0.38    0.26
  12   5   5    0.40    0.25
  12  -5   5    0.37    0.18
 -12  -5  -5    0.32    0.22
  12   5   6   -0.12    0.25
  12   5   6   -0.21    0.26
  12   5   6    0.11    0.20
  12  -5   6    0.02    0.19
 -12  -5  -6   -0.11    0.22
  12   5   7   -0.12    0.27
  12   5   7    0.46    0.19
  12  -5   7    0.33    0.23
 -12  -5  -7    0.43    0.24
  12   6  -7    0.11    0.30
 -12   6   7    0.14    0.26
  12  -6  -7    0.16    0.25
 -12   6   6    0.31    0.25
  12   6  -6    0.52    0.30
 -12  -6   6    0.09    0.19
  12  -6  -6    0.33    0.23
  12   6  -5   -0.07    0.24
 -12   6   5   -0.03    0.21
  12  -6  -5   -0.05    0.19
 -12  -6   5    0.11    0.18
  12   6  -4    0.06    0.25
 -12   6   4    0.11    0.18
 -12  -6   4    0.28    0.19
  12  -6  -4    0.28    0.17
 -12   6   3   -0.07    0.18
  12   6  -3   -0.11    0.21
  12  -6  -3   -0.02    0.14
 -12  -6   3   -0.04    0.18
  12   6  -2    0.71    0.27
 -12   6   2    0.78    0.20
  12  -6  -2    1.02    0.18
 -12  -6   2    0.80    0.23
  12   6  -1   -0.29    0.20
 -12   6   1   -0.10    0.14
  12  -6  -1    0.00    0.13
 -12  -6   1    0.01    0.18
 -12   6   0    0.09    0.13
  12   6   0   -0.46    0.17
 -12  -6   0    0.17    0.19
 -12  -6   0    0.15    0.15
  12   6   1    0.13    0.20
 -12   6  -1   -0.02    0.12
  12   6   1   -0.30    0.17
 -12  -6  -1    0.07    0.20
 -12  -6  -1    0.01    0.14
  12   6   2    1.18    0.29
  12   6   2    0.81    0.25
 -12  -6  -2    0.84    0.24
  12   6   3    0.18    0.19
  12   6   3    0.23    0.25
 -12  -6  -3   -0.12    0.19
  12   6   4    0.44    0.22
  12   6   4    0.56    0.27
 -12  -6  -4    0.39    0.24
  12   6   5    0.16    0.22
  12   6   5    0.05    0.27
 -12  -6  -5   -0.18    0.23
  12   6   6   -0.40    0.27
  12   6   6    0.56    0.25
 -12  -6  -6    0.26    0.26
  12   6   7   -0.42    0.25
  12   6   7    0.16    0.23
 -12  -6  -7   -0.02    0.26
  12   7  -6   -0.24    0.29
 -12   7   6   -0.21    0.23
  12  -7  -6   -0.05    0.23
 -12   7   5    0.14    0.22
  12   7  -5    0.33    0.28
  12  -7  -5    0.47    0.22
 -12  -7   5    0.24    0.19
 -12   7   4    0.02    0.21
  12   7  -4    0.07    0.26
  12  -7  -4   -0.12    0.17
 -12  -7   4    0.14    0.20
 -12   7   3    0.21    0.20
  12   7  -3   -0.08    0.23
 -12  -7   3    0.21    0.20
  12  -7  -3    0.10    0.15
 -12   7   2   -0.11    0.17
  12   7  -2   -0.42    0.22
  12  -7  -2   -0.05    0.14
 -12  -7   2    0.10    0.20
  12   7  -1   -0.62    0.21
 -12   7   1    0.26    0.18
 -12  -7   1    0.20    0.21
  12  -7  -1    0.37    0.14
  12   7   0   -0.60    0.19
 -12   7   0   -0.06    0.15
 -12  -7   0    0.00    0.19
  12   7   1   -0.19    0.21
  12   7   1    0.49    0.23
 -12  -7  -1    0.35    0.22
 -12  -7  -1    0.13    0.23
  12   7   2   -0.11    0.25
  12   7   2    0.13    0.21
 -12  -7  -2   -0.03    0.21
  12   7   3    0.65    0.27
  12   7   3    0.39    0.23
 -12  -7  -3    0.58    0.25
  12   7   4    0.21    0.27
  12   7   4    0.33    0.24
 -12  -7  -4    0.25    0.25
  12   7   5    0.41    0.31
  12   7   5    0.65    0.27
 -12  -7  -5    0.67    0.29
  12   7   6    0.57    0.27
  12   7   6   -0.12    0.29
 -12  -7  -6   -0.18    0.27
 -12   8   4    0.47    0.25
  12   8  -4    0.10    0.28
 -12  -8   4    0.37    0.21
  12  -8  -4    0.12    0.18
 -12   8   3   -0.10    0.22
  12   8  -3   -0.36    0.25
  12  -8  -3    0.03    0.16
 -12  -8   3   -0.05    0.20
 -12   8   2    0.12    0.21
  12  -8  -2    0.18    0.15
 -12  -8   2    0.04    0.22
 -12   8   1   -0.09    0.19
  12   8  -1   -0.78    0.22
 -12  -8   1   -0.17    0.21
 -12   8   0    0.24    0.19
  12   8   0   -0.07    0.25
 -12  -8   0    0.63    0.26
  12   8   1    0.15    0.27
  12   8   1   -0.20    0.22
 -12  -8  -1   -0.17    0.22
  12   8   2    0.39    0.29
  12   8   2    0.26    0.25
 -12  -8  -2   -0.11    0.23
  12   8   3    0.27    0.25
  12   8   3    0.22    0.30
 -12  -8  -3    0.08    0.25
  12   8   4    0.54    0.28
  12   8   4    0.89    0.31
 -12  -8  -4    0.48    0.28
 -12   9   2   -0.09    0.22
 -12  -9   2   -0.07    0.23
 -12   9   1    0.17    0.23
  12   9  -1   -0.41    0.25
 -12  -9   1    0.16    0.25
  12   9   0   -0.32    0.28
 -12  -9   0    0.26    0.26
  12   9   1    0.14    0.26
  12   9   1    0.38    0.32
 -12  -9  -1    0.33    0.28
  12   9   2    0.41    0.32
  12   9   2    0.00    0.28
 -12  -9  -2    0.10    0.27
 -13   0   8   10.96    0.97
  13   0  -8    8.94    0.93
 -13   0   7   -0.03    0.23
  13   0  -7   -0.05    0.19
  13   0  -6    9.23    0.95
 -13   0   6   12.27    1.00
 -13   0   5    0.09    0.18
  13   0  -5   -0.10    0.16
 -13   0   4   38.01    2.88
  13   0  -4   30.67    2.86
  13   0  -3   -0.13    0.16
 -13   0   3    0.19    0.15
 -13   0   3    0.10    0.16
 -13   0   2    7.03    0.62
  13   0  -2    5.97    0.55
  13   0  -2    5.20    0.61
 -13   0   2    6.58    0.62
  13   0  -2    7.11    0.62
 -13   0   1    0.20    0.14
  13   0  -1   -0.02    0.14
 -13   0   1   -0.09    0.13
  13   0  -1   -0.09    0.07
  13   0   0   49.15    4.03
 -13   0   0   46.58    4.04
 -13   0   0   46.73    4.06
  13   0   0   53.76    4.05
  13   0   1   -0.15    0.11
 -13   0  -1    0.14    0.11
  13   0   1    0.06    0.12
 -13   0  -1   -0.09    0.14
 -13   0  -2    7.07    0.66
  13   0   2    5.71    0.64
  13   0   2    7.21    0.65
 -13   0  -2    7.83    0.63
 -13   0  -3   -0.08    0.13
  13   0   3   -0.09    0.15
 -13   0  -3    0.06    0.11
 -13   0  -3    0.29    0.10
  13   0   3    0.01    0.14
  13   0   3    0.00    0.08
 -13   0  -4   28.22    1.97
 -13   0  -4   20.98    1.97
  13   0   4   21.25    1.99
 -13   0  -5   -0.07    0.14
 -13   0  -5    0.01    0.12
  13   0   5   -0.21    0.17
  13   0   5   -0.04    0.21
 -13   0  -6   10.90    0.90
  13   0   6   11.49    1.02
  13   0   6    8.23    0.94
  13   0   7   -0.08    0.24
 -13   0  -7   -0.21    0.15
  13   0   7   -0.28    0.22
  13   0   8    6.92    0.75
  13   1  -8    0.33    0.23
 -13   1   8    0.18    0.25
 -13  -1   8   -0.23    0.24
  13  -1  -8    0.23    0.21
  13   1  -7   11.22    1.08
 -13   1   7   12.43    1.10
  13  -1  -7   11.92    1.07
 -13  -1   7   11.67    1.09
 -13   1   6    0.75    0.24
  13   1  -6    0.36    0.21
  13  -1  -6    0.55    0.20
 -13  -1   6    0.39    0.22
 -13   1   5   14.20    1.22
  13   1  -5   12.59    1.21
 -13  -1   5   15.39    1.23
  13  -1  -5   12.53    1.18
 -13   1   4    1.00    0.23
  13   1  -4    0.44    0.22
 -13  -1   4    0.69    0.22
  13  -1  -4    0.50    0.18
 -13   1   3   25.86    1.97
 -13   1   3   26.29    1.98
  13  -1  -3   18.96    1.95
 -13  -1   3   22.17    1.96
 -13  -1   3   22.93    1.97
  13   1  -2    0.37    0.16
 -13   1   2    0.35    0.16
  13   1  -2    0.39    0.18
  13   1  -2    0.49    0.07
 -13   1   2    0.59    0.18
  13  -1  -2    0.12    0.16
 -13  -1   2    0.31    0.17
 -13  -1   2    0.62    0.17
  13  -1  -2    0.36    0.11
 -13   1   1   24.96    2.02
  13   1  -1   23.57    2.01
 -13   1   1   28.42    2.03
  13   1  -1   22.03    2.01
  13  -1  -1   23.76    1.98
 -13  -1   1   21.53    2.01
 -13  -1   1   22.22    2.02
  13  -1  -1   24.26    1.98
  13  -1  -1   24.61    2.01
  13   1   0    0.09    0.13
  13   1   0    0.02    0.13
  13   1   0   -0.01    0.14
 -13   1   0    0.08    0.13
 -13   1   0   -0.06    0.13
 -13  -1   0    0.21    0.12
  13  -1   0   -0.04    0.12
  13  -1   0   -0.12    0.09
 -13  -1   0   -0.06    0.15
  13  -1   0    0.15    0.10
 -13   1  -1   23.30    1.94
  13   1   1   22.06    1.93
 -13   1  -1   23.91    1.93
  13   1   1   26.12    1.93
  13   1   1   23.65    1.92
  13  -1   1   20.93    1.91
  13  -1   1   21.85    1.91
 -13  -1  -1   22.23    1.92
  13   1   2    0.76    0.18
 -13   1  -2    0.50    0.14
  13   1   2    0.40    0.16
  13   1   2    0.13    0.13
 -13   1  -2    0.34    0.15
 -13  -1  -2    0.33    0.09
 -13  -1  -2    0.59    0.12
  13  -1   2    0.04    0.09
 -13  -1  -2    0.07    0.15
  13  -1   2    0.19    0.13
  13   1   3   22.67    1.81
  13   1   3   19.55    1.77
  13   1   3   20.75    1.82
 -13  -1  -3   22.28    1.77
  13   1   4    0.54    0.21
 -13   1  -4    0.49    0.15
 -13   1  -4    0.73    0.18
  13   1   4    0.70    0.12
  13   1   4    0.50    0.22
  13  -1   4    0.58    0.19
 -13  -1  -4    0.75    0.14
  13  -1   4    0.80    0.23
 -13  -1  -4    0.63    0.18
  13   1   5   12.55    1.28
 -13   1  -5   13.65    1.20
 -13  -1  -5   15.87    1.19
  13  -1   5   14.82    1.27
 -13  -1  -5   14.48    1.21
  13  -1   5   11.83    1.22
  13   1   6    0.22    0.23
  13   1   6    0.31    0.27
 -13   1  -6    0.42    0.18
 -13  -1  -6    0.74    0.18
  13  -1   6    0.32    0.22
 -13  -1  -6    0.54    0.20
  13  -1   6    0.41    0.23
  13   1   7   11.65    1.12
  13   1   7    8.87    1.01
  13  -1   7   10.84    1.00
  13  -1   7   11.95    1.08
  13   1   8    0.10    0.27
  13  -1   8    0.04    0.24
 -13   2   8    7.77    0.81
  13   2  -8    7.33    0.78
  13  -2  -8    7.09    0.76
 -13   2   7    0.16    0.24
  13   2  -7    0.07    0.23
  13  -2  -7    0.16    0.19
 -13  -2   7   -0.45    0.19
  13   2  -6   15.67    1.37
 -13   2   6   15.97    1.37
  13  -2  -6   15.78    1.32
 -13  -2   6   13.13    1.34
  13   2  -5   -0.16    0.20
 -13   2   5    0.02    0.19
 -13  -2   5   -0.25    0.19
  13  -2  -5    0.07    0.15
 -13   2   4    8.38    0.81
  13   2  -4    6.82    0.78
  13  -2  -4    8.39    0.75
 -13  -2   4    9.00    0.80
 -13   2   3    0.39    0.18
  13   2  -3    0.16    0.18
 -13   2   3   -0.15    0.18
  13  -2  -3    0.15    0.15
 -13  -2   3   -0.04    0.17
 -13  -2   3    0.12    0.17
 -13   2   2   40.26    2.74
 -13   2   2   30.56    2.73
  13  -2  -2   33.06    2.71
 -13  -2   2   32.56    2.72
  13  -2  -2   29.82    2.69
 -13  -2   2   29.27    2.71
  13   2  -1    0.37    0.17
 -13   2   1    0.69    0.19
 -13   2   1    0.25    0.17
  13   2  -1    0.39    0.16
 -13   2   1    0.41    0.12
  13  -2  -1    0.27    0.15
  13  -2  -1    0.61    0.10
 -13  -2   1    0.38    0.16
  13  -2  -1    0.34    0.13
 -13  -2   1    0.27    0.17
  13   2   0    6.58    0.51
 -13   2   0    4.50    0.56
 -13   2   0    5.27    0.54
 -13   2   0    4.93    0.56
  13   2   0    5.57    0.56
  13   2   0    6.41    0.57
  13   2   0    7.01    0.56
 -13  -2   0    4.07    0.53
  13  -2   0    5.28    0.50
  13  -2   0    6.95    0.55
  13  -2   0    6.14    0.53
 -13   2  -1    0.40    0.16
  13   2   1    0.33    0.16
  13   2   1    0.30    0.12
 -13   2  -1    0.39    0.14
 -13   2  -1    0.31    0.15
  13   2   1    0.55    0.17
  13   2   1    0.42    0.14
 -13  -2  -1    0.10    0.12
 -13  -2  -1   -0.10    0.13
  13  -2   1    0.42    0.12
  13  -2   1    0.06    0.10
  13   2   2   29.20    2.51
 -13   2  -2   34.43    2.51
 -13  -2  -2   31.99    2.46
  13  -2   2   27.39    2.45
 -13  -2  -2   28.06    2.47
  13  -2   2   31.17    2.48
 -13  -2  -2   27.65    2.50
 -13   2  -3    0.12    0.12
  13   2   3    0.23    0.16
  13   2   3    0.36    0.19
  13   2   3    0.07    0.12
 -13   2  -3    0.05    0.12
 -13   2  -3    0.08    0.12
 -13  -2  -3    0.02    0.09
 -13  -2  -3    0.23    0.14
  13  -2   3   -0.04    0.12
 -13  -2  -3    0.09    0.08
  13   2   4    6.70    0.84
  13   2   4    9.27    0.84
 -13   2  -4    9.02    0.80
  13   2   4    8.67    0.78
 -13  -2  -4    9.82    0.76
  13  -2   4    8.17    0.79
 -13  -2  -4    9.66    0.81
 -13   2  -5   -0.03    0.14
  13   2   5    0.05    0.21
  13   2   5    0.06    0.11
  13   2   5   -0.10    0.20
  13  -2   5    0.01    0.16
  13  -2   5   -0.09    0.18
 -13  -2  -5    0.15    0.15
  13   2   6   12.60    1.44
 -13   2  -6   15.67    1.37
 -13  -2  -6   18.22    1.38
 -13  -2  -6   17.10    1.38
  13  -2   6   14.84    1.37
  13   2   7   -0.34    0.23
  13   2   7   -0.02    0.28
  13  -2   7   -0.09    0.23
  13  -2   7   -0.38    0.21
  13   2   8    4.87    0.65
  13  -2   8    6.02    0.65
  13   3  -8    0.34    0.27
 -13   3   8    0.12    0.26
 -13  -3   8    0.40    0.21
  13  -3  -8    0.01    0.23
  13   3  -7    5.74    0.72
 -13   3   7    7.40    0.75
 -13  -3   7    6.15    0.65
  13  -3  -7    5.97    0.65
 -13   3   6   -0.13    0.22
  13   3  -6   -0.13    0.20
 -13  -3   6    0.05    0.20
  13  -3  -6    0.43    0.20
 -13   3   5   15.67    1.44
  13   3  -5   17.43    1.45
 -13  -3   5   14.39    1.41
  13  -3  -5   16.88    1.39
  13   3  -4    0.55    0.23
 -13   3   4    0.05    0.21
 -13  -3   4    0.02    0.19
  13  -3  -4    0.26    0.16
  13   3  -3   14.85    1.18
 -13   3   3   12.05    1.16
  13  -3  -3   12.33    1.12
 -13   3   2    0.23    0.16
  13   3  -2    0.18    0.18
 -13   3   2   -0.02    0.15
 -13  -3   2   -0.14    0.15
  13  -3  -2    0.05    0.14
  13  -3  -2    0.19    0.12
 -13  -3   2   -0.16    0.12
  13   3  -1   21.40    1.64
  13   3  -1   20.51    1.65
 -13   3   1   19.30    1.67
 -13   3   1   21.06    1.67
 -13  -3   1   15.72    1.66
  13  -3  -1   15.86    1.64
  13  -3  -1   22.55    1.66
  13   3   0   -0.04    0.09
 -13   3   0    0.05    0.12
  13   3   0   -0.06    0.16
 -13   3   0    0.04    0.12
  13   3   0    0.10    0.12
 -13   3   0    0.05    0.14
  13  -3   0   -0.05    0.12
 -13  -3   0   -0.17    0.12
 -13  -3   0    0.03    0.16
  13  -3   0   -0.05    0.12
  13   3   1   22.67    1.71
 -13   3  -1   22.23    1.72
  13   3   1   17.11    1.72
  13   3   1   18.27    1.70
 -13   3  -1   19.79    1.71
 -13  -3  -1   17.75    1.72
  13  -3   1   23.74    1.68
 -13  -3  -1   18.54    1.70
  13  -3   1   21.03    1.67
  13   3   2    0.33    0.19
  13   3   2    0.12    0.15
 -13   3  -2    0.11    0.14
 -13   3  -2    0.01    0.12
  13   3   2   -0.29    0.14
  13   3   2    0.11    0.12
  13  -3   2   -0.06    0.09
 -13  -3  -2    0.16    0.16
 -13  -3  -2    0.08    0.11
  13   3   3   13.49    1.12
  13   3   3   13.02    1.13
 -13   3  -3   11.18    1.09
 -13   3  -3   12.92    1.08
 -13  -3  -3   12.82    1.11
  13  -3   3   12.03    1.07
  13   3   4    0.37    0.16
  13   3   4    0.27    0.20
 -13   3  -4    0.31    0.19
  13   3   4    0.49    0.21
 -13   3  -4    0.29    0.14
 -13  -3  -4    0.27    0.20
  13  -3   4    0.17    0.15
 -13  -3  -4    0.31    0.17
  13   3   5   17.04    1.58
  13   3   5   16.38    1.50
 -13   3  -5   17.12    1.53
  13   3   5   16.08    1.53
 -13  -3  -5   20.35    1.53
 -13  -3  -5   19.73    1.54
  13  -3   5   16.72    1.51
  13   3   6    0.22    0.23
  13   3   6    0.03    0.21
  13  -3   6    0.00    0.19
 -13  -3  -6    0.26    0.21
  13   3   7    4.00    0.63
  13   3   7    6.01    0.75
 -13  -3  -7    7.37    0.65
  13  -3   7    6.09    0.64
  13   3   8   -0.16    0.24
  13  -3   8    0.21    0.26
  13   4  -7    0.13    0.26
 -13   4   7   -0.02    0.24
 -13  -4   7    0.13    0.19
  13  -4  -7   -0.21    0.20
  13   4  -6    6.18    0.75
 -13   4   6    6.20    0.75
  13  -4  -6    6.92    0.69
 -13  -4   6    7.89    0.70
 -13   4   5   -0.11    0.21
  13   4  -5   -0.03    0.23
 -13  -4   5    0.15    0.19
  13  -4  -5   -0.07    0.17
 -13   4   4   21.00    1.85
 -13  -4   4   21.24    1.84
  13  -4  -4   21.98    1.81
  13   4  -3    0.23    0.20
 -13   4   3    0.26    0.19
  13  -4  -3    0.16    0.15
 -13  -4   3    0.38    0.19
 -13   4   2    8.96    0.84
  13  -4  -2    9.20    0.83
 -13  -4   2    9.50    0.86
 -13  -4   2    9.13    0.85
 -13   4   1    0.50    0.17
  13   4  -1    0.79    0.23
 -13   4   1    0.71    0.18
 -13  -4   1    0.73    0.19
  13  -4  -1    0.46    0.16
 -13  -4   1    0.90    0.21
  13   4   0   32.76    2.55
 -13   4   0   28.18    2.52
  13   4   0   30.61    2.51
 -13   4   0   29.98    2.53
 -13  -4   0   28.93    2.52
 -13  -4   0   29.50    2.54
  13  -4   0   31.75    2.50
 -13   4  -1    0.53    0.16
  13   4   1    0.88    0.21
 -13   4  -1    0.62    0.15
  13   4   1    0.55    0.14
  13   4   1    0.15    0.19
 -13  -4  -1    0.88    0.20
 -13  -4  -1    0.49    0.16
  13   4   2   10.54    0.89
  13   4   2   10.73    0.95
 -13   4  -2    9.90    0.90
 -13  -4  -2    9.89    0.89
 -13  -4  -2   10.11    0.93
  13   4   3    0.42    0.21
  13   4   3   -0.02    0.17
  13   4   3    0.33    0.19
 -13  -4  -3    0.34    0.19
 -13  -4  -3    0.27    0.21
  13  -4   3    0.22    0.12
  13   4   4   19.24    1.80
  13   4   4   24.77    1.85
  13   4   4   20.39    1.84
 -13  -4  -4   22.79    1.82
  13  -4   4   19.55    1.77
  13   4   5    0.07    0.23
  13   4   5    0.12    0.17
  13   4   5    0.30    0.22
 -13  -4  -5   -0.10    0.19
  13  -4   5   -0.16    0.17
  13   4   6    5.56    0.72
  13   4   6    6.00    0.65
  13   4   6    7.06    0.79
  13  -4   6    7.18    0.68
 -13  -4  -6    8.11    0.73
  13   4   7   -0.65    0.26
  13  -4   7   -0.12    0.21
 -13  -4  -7    0.00    0.24
  13   5  -7   10.96    1.04
 -13   5   7    8.49    1.01
  13  -5  -7   10.61    0.97
 -13  -5   7   10.15    1.06
  13   5  -6    0.43    0.27
 -13   5   6   -0.07    0.23
  13  -5  -6   -0.05    0.20
 -13  -5   6    0.10    0.20
 -13  -5   6    0.14    0.19
 -13   5   5    6.64    0.75
  13   5  -5    8.25    0.80
 -13  -5   5    8.14    0.74
 -13  -5   5    8.29    0.73
  13  -5  -5    5.74    0.69
  13   5  -4    0.07    0.23
 -13   5   4   -0.06    0.19
 -13  -5   4    0.25    0.19
  13  -5  -4   -0.11    0.15
 -13   5   3   20.10    1.78
  13   5  -3   24.65    1.82
 -13  -5   3   19.09    1.78
  13  -5  -3   20.01    1.75
 -13   5   2   -0.06    0.16
  13   5  -2   -0.05    0.21
  13  -5  -2   -0.03    0.14
 -13  -5   2   -0.07    0.17
 -13   5   1   13.60    1.18
  13   5  -1   13.33    1.22
  13  -5  -1   12.49    1.16
 -13  -5   1   13.39    1.20
 -13  -5   1   14.02    1.19
 -13  -5   1   14.12    1.21
  13   5   0   -0.08    0.18
 -13   5   0   -0.14    0.12
 -13  -5   0   -0.11    0.18
 -13  -5   0    0.06    0.17
 -13  -5   0   -0.25    0.15
  13  -5   0    0.03    0.11
  13   5   1   15.04    1.30
 -13   5  -1   13.47    1.26
  13   5   1   15.07    1.26
 -13  -5  -1   15.33    1.30
 -13  -5  -1   15.40    1.28
 -13  -5  -1   14.48    1.31
  13   5   2    0.00    0.19
  13   5   2   -0.34    0.18
 -13   5  -2    0.05    0.21
 -13  -5  -2   -0.14    0.18
 -13  -5  -2    0.32    0.20
  13   5   3   21.90    1.79
 -13  -5  -3   19.46    1.77
  13   5   4    0.02    0.20
  13   5   4    0.43    0.25
  13   5   4   -0.04    0.21
 -13  -5  -4    0.06    0.21
  13   5   5    7.46    0.72
  13   5   5    5.15    0.67
  13   5   5    7.12    0.75
 -13  -5  -5    7.64    0.73
  13   5   6    0.09    0.20
  13   5   6    0.02    0.26
  13   5   6   -0.03    0.23
 -13  -5  -6    0.07    0.23
  13   5   7    5.31    0.67
 -13   6   6    9.14    0.97
  13   6  -6   10.94    1.01
 -13  -6   6   10.94    0.93
  13  -6  -6    8.82    0.93
 -13   6   5   -0.15    0.22
  13   6  -5    0.04    0.26
  13  -6  -5    0.01    0.19
 -13  -6   5    0.05    0.20
  13   6  -4    8.84    0.80
 -13   6   4    6.90    0.73
 -13  -6   4    8.27    0.74
  13  -6  -4    6.10    0.69
  13   6  -3    0.23    0.25
 -13   6   3    0.18    0.19
 -13  -6   3    0.06    0.20
  13  -6  -3    0.15    0.16
 -13   6   2   17.08    1.45
  13   6  -2   14.78    1.48
 -13  -6   2   18.21    1.47
  13  -6  -2   16.40    1.42
 -13   6   1    0.49    0.19
  13   6  -1    0.19    0.23
 -13  -6   1    0.57    0.23
  13  -6  -1    0.56    0.16
 -13   6   0   11.83    1.04
 -13  -6   0   11.56    1.06
 -13  -6   0   12.04    1.08
  13   6   1    0.39    0.25
 -13   6  -1    0.48    0.17
 -13  -6  -1    0.79    0.25
 -13  -6  -1    0.24    0.18
  13   6   2   19.22    1.72
 -13  -6  -2   20.09    1.72
  13   6   3   -0.08    0.19
  13   6   3    0.49    0.24
 -13  -6  -3    0.31    0.23
  13   6   4    6.44    0.80
  13   6   4    8.71    0.84
 -13  -6  -4    9.24    0.83
  13   6   5   -0.21    0.21
  13   6   5    0.06    0.26
 -13  -6  -5    0.14    0.27
  13   6   6    8.12    0.93
  13   6   6    8.54    0.89
 -13  -6  -6   10.53    0.94
 -13   7   5    9.82    0.99
  13   7  -5   11.25    1.03
  13  -7  -5    9.21    0.94
 -13  -7   5   10.85    0.96
  13   7  -4    0.01    0.27
 -13   7   4   -0.03    0.21
  13  -7  -4    0.23    0.19
 -13  -7   4   -0.13    0.21
  13   7  -3    6.92    0.81
 -13   7   3    7.98    0.76
  13  -7  -3    6.80    0.69
 -13  -7   3    7.83    0.76
 -13   7   2    0.07    0.21
  13   7  -2    0.06    0.27
  13  -7  -2    0.06    0.15
 -13  -7   2    0.18    0.23
 -13   7   1   12.99    1.21
 -13  -7   1   14.36    1.24
  13   7   0   -0.68    0.21
 -13   7   0    0.04    0.16
 -13  -7   0    0.14    0.23
  13   7   1   12.40    1.17
 -13  -7  -1   12.67    1.17
  13   7   2   -0.35    0.22
  13   7   2    0.15    0.27
 -13  -7  -2    0.30    0.24
  13   7   3    8.05    0.78
  13   7   3    5.31    0.72
 -13  -7  -3    7.60    0.76
  13   7   4    0.30    0.29
  13   7   4    0.01    0.23
 -13  -7  -4   -0.05    0.26
  13   7   5   10.47    0.98
  13   7   5    8.08    0.95
 -13  -7  -5   10.71    0.99
  13   8  -3   -0.15    0.28
 -13   8   3    0.06    0.24
  13  -8  -3    0.04    0.17
 -13  -8   3   -0.10    0.23
 -13   8   2    7.50    0.81
 -13  -8   2    8.89    0.83
  13   8  -1   -0.49    0.26
 -13   8   1    0.25    0.20
 -13  -8   1    0.26    0.26
 -13   8   0   10.41    0.98
 -13  -8   0   10.93    1.03
  13   8   1   -0.35    0.24
  13   8   1    0.05    0.25
 -13  -8  -1    0.08    0.26
  13   8   2    8.72    0.90
 -13  -8  -2    8.23    0.88
  13   8   3    0.30    0.31
  13   8   3    0.12    0.25
 -13  -8  -3    0.08    0.27
 -14   0   8    1.97    0.36
  14   0  -8    1.83    0.34
 -14   0   7    0.09    0.24
  14   0  -7   -0.05    0.21
  14   0  -6    3.14    0.42
 -14   0   6    4.10    0.51
 -14   0   5    0.18    0.21
  14   0  -5   -0.01    0.18
  14   0  -4    4.49    0.53
 -14   0   3    0.20    0.17
  14   0  -3   -0.08    0.15
 -14   0   3    0.24    0.18
  14   0  -2    0.69    0.20
 -14   0   2    0.71    0.19
 -14   0   2    0.58    0.20
  14   0  -1    0.07    0.12
 -14   0   1    0.21    0.14
  14   0  -1    0.11    0.15
 -14   0   1   -0.03    0.15
 -14   0   0    7.98    0.77
  14   0   0    8.68    0.78
 -14   0   0    9.00    0.80
  14   0   0    8.82    0.76
  14   0   1   -0.03    0.13
 -14   0  -1    0.24    0.12
  14   0   1    0.17    0.13
 -14   0  -1    0.01    0.15
  14   0   2    0.52    0.15
 -14   0  -2    0.51    0.18
  14   0   2    0.36    0.14
  14   0   2    0.82    0.18
 -14   0  -2    0.75    0.14
 -14   0  -3    0.34    0.11
  14   0   3    0.21    0.15
 -14   0  -3    0.09    0.10
  14   0   3   -0.09    0.08
 -14   0  -3   -0.11    0.15
  14   0   3    0.02    0.16
 -14   0  -4    3.64    0.47
 -14   0  -4    4.72    0.45
  14   0   4    4.95    0.52
  14   0   4    4.73    0.50
  14   0   5   -0.28    0.18
 -14   0  -5   -0.06    0.12
  14   0   5   -0.15    0.21
 -14   0  -6    3.03    0.35
  14   0   6    2.08    0.38
  14   0   6    4.17    0.53
  14   0   7   -0.02    0.28
  14   0   7   -0.48    0.22
  14   0   8    1.04    0.29
 -14   1   8    0.05    0.26
  14   1  -8   -0.06    0.24
 -14  -1   8   -0.33    0.24
  14  -1  -8   -0.07    0.22
 -14   1   7    3.29    0.42
  14   1  -7    2.60    0.40
  14  -1  -7    3.19    0.40
 -14  -1   7    2.51    0.40
 -14   1   6    0.19    0.21
  14   1  -6    0.10    0.22
  14  -1  -6    0.13    0.19
 -14  -1   6    0.15    0.24
 -14   1   5    2.73    0.37
  14   1  -5    2.12    0.37
  14  -1  -5    2.47    0.35
 -14  -1   5    3.70    0.45
 -14   1   4    0.30    0.19
  14   1  -4   -0.10    0.15
 -14  -1   4    0.23    0.20
  14  -1  -4    0.13    0.17
 -14   1   3    3.47    0.42
  14   1  -3    3.09    0.42
 -14  -1   3    3.73    0.44
  14  -1  -3    2.54    0.39
 -14  -1   3    3.78    0.42
  14   1  -2    0.10    0.17
 -14   1   2    0.08    0.16
 -14   1   2    0.27    0.17
  14  -1  -2    0.22    0.10
  14  -1  -2    0.06    0.14
 -14  -1   2   -0.02    0.16
 -14  -1   2    0.35    0.16
 -14   1   1    1.39    0.24
  14   1  -1    0.92    0.20
 -14   1   1    1.21    0.22
  14   1  -1    1.09    0.23
 -14  -1   1    1.13    0.24
  14  -1  -1    1.29    0.17
  14  -1  -1    1.23    0.17
 -14  -1   1    1.39    0.22
  14  -1  -1    1.05    0.21
 -14   1   0    0.01    0.14
  14   1   0   -0.08    0.12
  14   1   0   -0.09    0.14
  14   1   0    0.05    0.15
 -14   1   0   -0.05    0.13
  14  -1   0    0.15    0.10
  14  -1   0    0.00    0.13
 -14  -1   0    0.28    0.13
 -14  -1   0    0.07    0.17
  14   1   1    1.33    0.21
  14   1   1    1.29    0.18
 -14   1  -1    1.17    0.20
  14   1   1    1.34    0.22
 -14   1  -1    1.09    0.21
  14  -1   1    1.21    0.19
  14  -1   1    1.45    0.19
 -14  -1  -1    0.67    0.21
 -14  -1  -1    0.96    0.18
  14   1   2    0.22    0.15
 -14   1  -2    0.28    0.16
  14   1   2    0.20    0.16
  14   1   2   -0.11    0.13
 -14   1  -2    0.23    0.13
  14  -1   2   -0.10    0.09
 -14  -1  -2   -0.09    0.17
  14  -1   2    0.38    0.13
 -14  -1  -2    0.30    0.11
  14   1   3    2.80    0.35
 -14   1  -3    2.40    0.30
  14   1   3    3.74    0.36
  14   1   3    2.06    0.28
 -14  -1  -3    2.99    0.28
  14  -1   3    3.55    0.38
 -14  -1  -3    1.46    0.30
  14  -1   3    2.41    0.31
  14   1   4    0.25    0.21
 -14   1  -4    0.13    0.18
  14   1   4    0.44    0.20
 -14   1  -4    0.34    0.14
  14   1   4    0.30    0.10
 -14  -1  -4   -0.22    0.15
  14  -1   4    0.42    0.20
 -14  -1  -4    0.20    0.11
  14  -1   4   -0.13    0.16
  14   1   5    2.56    0.37
  14   1   5    2.85    0.42
 -14   1  -5    2.65    0.32
  14  -1   5    3.17    0.44
 -14  -1  -5    2.61    0.32
 -14  -1  -5    2.49    0.33
  14  -1   5    1.89    0.33
 -14   1  -6    0.03    0.15
  14   1   6    0.05    0.25
  14   1   6    0.01    0.22
  14  -1   6    0.12    0.25
  14  -1   6   -0.07    0.20
  14   1   7    3.24    0.47
  14   1   7    1.64    0.38
  14  -1   7    3.03    0.44
  14  -1   7    2.12    0.38
  14   1   8   -0.08    0.23
  14  -1   8   -0.33    0.24
 -14   2   8    2.13    0.36
  14   2  -8    2.23    0.38
  14  -2  -8    1.80    0.33
 -14  -2   8    0.94    0.30
  14   2  -7   -0.09    0.25
 -14   2   7    0.11    0.23
  14  -2  -7   -0.11    0.20
 -14  -2   7   -0.36    0.21
 -14   2   6    4.17    0.51
  14   2  -6    3.03    0.47
 -14  -2   6    3.31    0.45
  14  -2  -6    3.26    0.44
 -14   2   5    0.19    0.21
  14   2  -5   -0.19    0.18
 -14  -2   5   -0.20    0.20
  14  -2  -5   -0.02    0.17
 -14   2   4    1.69    0.31
  14   2  -4    1.97    0.33
  14  -2  -4    1.94    0.29
 -14  -2   4    1.98    0.33
 -14   2   3   -0.08    0.19
  14   2  -3    0.12    0.18
 -14  -2   3   -0.20    0.18
  14  -2  -3    0.01    0.16
 -14   2   2    4.94    0.56
 -14   2   2    5.70    0.55
  14   2  -2    6.31    0.56
  14  -2  -2    4.33    0.47
 -14  -2   2    4.94    0.55
 -14  -2   2    5.20    0.54
 -14   2   1    0.36    0.17
  14   2  -1    0.08    0.15
  14   2  -1    0.14    0.16
 -14   2   1    0.03    0.16
 -14  -2   1    0.08    0.13
  14  -2  -1    0.33    0.09
 -14  -2   1    0.02    0.19
  14  -2  -1   -0.04    0.12
  14  -2  -1    0.17    0.15
 -14   2   0    0.86    0.19
  14   2   0    0.46    0.16
  14   2   0    0.37    0.17
 -14   2   0    0.72    0.19
  14   2   0    0.63    0.20
  14  -2   0    0.55    0.15
 -14  -2   0    0.34    0.19
 -14  -2   0    0.78    0.17
  14  -2   0    0.66    0.12
  14  -2   0    0.51    0.14
  14   2   1    0.29    0.16
  14   2   1    0.13    0.15
 -14   2  -1    0.28    0.14
 -14   2  -1    0.17    0.15
  14   2   1   -0.12    0.15
  14   2   1    0.13    0.12
  14  -2   1    0.09    0.10
  14  -2   1    0.15    0.11
 -14  -2  -1    0.07    0.12
 -14  -2  -1   -0.21    0.14
  14   2   2    4.46    0.40
  14   2   2    3.27    0.40
  14  -2   2    3.33    0.30
 -14  -2  -2    2.52    0.34
 -14  -2  -2    2.27    0.37
  14  -2   2    3.81    0.35
  14   2   3   -0.28    0.12
 -14   2  -3   -0.07    0.13
 -14   2  -3    0.22    0.13
  14   2   3    0.15    0.18
  14   2   3   -0.10    0.15
 -14  -2  -3   -0.29    0.14
  14  -2   3   -0.04    0.12
  14   2   4    1.36    0.30
 -14   2  -4    1.63    0.24
  14   2   4    1.76    0.23
  14   2   4    2.67    0.33
  14  -2   4    1.50    0.25
 -14  -2  -4    1.53    0.27
  14   2   5    0.17    0.19
 -14   2  -5    0.19    0.16
  14   2   5    0.04    0.21
  14  -2   5   -0.13    0.21
 -14  -2  -5    0.19    0.18
  14  -2   5   -0.07    0.16
  14   2   6    2.79    0.45
  14   2   6    2.78    0.47
 -14  -2  -6    3.45    0.41
  14  -2   6    2.67    0.39
 -14  -2  -6    3.98    0.44
  14  -2   6    3.23    0.47
  14   2   7    0.30    0.28
  14   2   7   -0.40    0.24
  14  -2   7    0.04    0.40
  14  -2   7   -0.35    0.21
  14   2   8    0.97    0.33
  14  -2   8    1.48    0.34
 -14   3   7    1.77    0.34
  14   3  -7    1.17    0.32
 -14  -3   7    1.13    0.28
  14  -3  -7    1.26    0.27
  14   3  -6   -0.02    0.23
 -14   3   6    0.00    0.24
  14  -3  -6    0.14    0.20
 -14  -3   6   -0.61    0.20
 -14   3   5    3.42    0.54
  14   3  -5    4.73    0.57
  14  -3  -5    5.09    0.50
 -14   3   4   -0.18    0.20
  14   3  -4    0.11    0.21
  14  -3  -4    0.10    0.16
 -14  -3   4   -0.55    0.18
  14   3  -3    2.14    0.30
 -14   3   3    1.16    0.28
  14  -3  -3    1.64    0.26
  14   3  -2    0.18    0.19
 -14   3   2    0.08    0.18
 -14  -3   2   -0.19    0.13
  14  -3  -2   -0.03    0.16
 -14  -3   2   -0.47    0.16
 -14   3   1    2.91    0.40
 -14   3   1    3.15    0.41
  14   3  -1    3.63    0.44
  14  -3  -1    3.79    0.40
  14   3   0    0.03    0.14
 -14   3   0    0.08    0.16
  14   3   0   -0.15    0.17
 -14   3   0    0.02    0.13
  14   3   0    0.04    0.13
 -14  -3   0   -0.28    0.12
 -14  -3   0   -0.33    0.15
  14  -3   0   -0.01    0.12
 -14   3  -1    2.31    0.35
  14   3   1    3.35    0.37
 -14   3  -1    2.69    0.35
  14   3   1    2.82    0.36
  14   3   1    3.46    0.35
  14   3   1    2.91    0.34
  14  -3   1    3.62    0.30
 -14  -3  -1    2.01    0.35
 -14  -3  -1    2.49    0.32
  14   3   2    0.08    0.15
 -14   3  -2    0.18    0.14
 -14   3  -2    0.21    0.15
  14   3   2    0.27    0.19
  14   3   2    0.08    0.12
  14   3   2   -0.32    0.15
 -14  -3  -2   -0.17    0.11
 -14  -3  -2    0.03    0.16
  14  -3   2   -0.17    0.10
 -14   3  -3    1.82    0.25
  14   3   3    2.44    0.33
 -14   3  -3    2.22    0.28
  14   3   3    1.75    0.30
 -14  -3  -3    1.79    0.29
  14  -3   3    1.39    0.23
  14   3   4    0.34    0.21
 -14   3  -4    0.15    0.15
  14   3   4   -0.19    0.15
  14   3   4   -0.04    0.20
 -14  -3  -4    0.14    0.18
  14  -3   4   -0.07    0.14
 -14  -3  -4   -0.12    0.20
 -14   3  -5    3.27    0.44
  14   3   5    3.66    0.52
  14   3   5    3.06    0.42
  14   3   5    4.53    0.52
  14  -3   5    3.58    0.45
 -14  -3  -5    4.83    0.51
 -14  -3  -5    4.90    0.49
  14   3   6    0.12    0.25
  14   3   6    0.05    0.24
 -14  -3  -6    0.21    0.20
  14  -3   6   -0.10    0.19
  14   3   7    0.96    0.31
 -14  -3  -7    2.25    0.34
  14  -3   7    0.86    0.30
  14   4  -7   -0.13    0.26
 -14   4   7   -0.13    0.26
  14  -4  -7   -0.06    0.23
 -14  -4   7   -0.01    0.22
 -14   4   6    1.42    0.36
  14   4  -6    2.79    0.41
  14  -4  -6    1.79    0.31
 -14  -4   6    1.82    0.31
 -14   4   5   -0.18    0.23
  14   4  -5    0.10    0.23
 -14  -4   5    0.21    0.20
  14  -4  -5    0.03    0.18
  14   4  -4    5.19    0.55
 -14   4   4    3.76    0.51
 -14  -4   4    2.83    0.43
  14  -4  -4    4.43    0.46
  14   4  -3   -0.10    0.20
 -14   4   3   -0.20    0.18
  14  -4  -3    0.01    0.15
 -14  -4   3    0.14    0.19
  14   4  -2    2.12    0.31
 -14   4   2    2.09    0.31
  14  -4  -2    1.72    0.27
 -14  -4   2    1.64    0.30
  14   4  -1    0.27    0.21
 -14   4   1    0.32    0.17
  14  -4  -1    0.09    0.15
 -14  -4   1    0.36    0.19
 -14  -4   1    0.27    0.17
 -14   4   0    5.14    0.51
  14   4   0    4.88    0.51
  14   4   0    5.50    0.56
 -14   4   0    4.31    0.49
  14  -4   0    6.11    0.47
 -14  -4   0    3.77    0.48
 -14  -4   0    3.69    0.51
  14   4   1    0.35    0.19
  14   4   1   -0.03    0.19
  14   4   1    0.27    0.16
  14   4   1    0.39    0.14
 -14   4  -1    0.33    0.15
 -14   4  -1    0.08    0.14
 -14  -4  -1    0.05    0.14
 -14  -4  -1    0.37    0.20
  14   4   2    1.88    0.29
  14   4   2    2.11    0.32
 -14   4  -2    2.08    0.28
 -14   4  -2    2.21    0.29
 -14  -4  -2    2.37    0.33
  14   4   3    0.15    0.23
 -14   4  -3    0.01    0.15
  14   4   3    0.04    0.18
  14   4   3   -0.48    0.16
 -14  -4  -3    0.33    0.20
 -14  -4  -3   -0.13    0.20
  14   4   4    5.56    0.59
  14   4   4    4.28    0.56
 -14  -4  -4    4.08    0.54
 -14  -4  -4    5.11    0.54
  14   4   5   -0.08    0.16
  14   4   5   -0.10    0.24
  14   4   5    0.36    0.23
 -14  -4  -5    0.02    0.22
  14   4   6    2.09    0.38
  14   4   6    1.56    0.40
 -14  -4  -6    2.25    0.35
  14  -4   6    1.65    0.31
  14   4   7   -0.09    0.28
  14  -4   7    0.03    0.23
 -14  -4  -7    0.26    0.26
 -14   5   6   -0.31    0.24
  14   5  -6   -0.18    0.28
 -14  -5   6    0.01    0.22
 -14  -5   6    0.00    0.21
  14  -5  -6    0.01    0.21
  14   5  -5    1.92    0.36
 -14   5   5    0.96    0.30
  14  -5  -5    1.27    0.26
 -14  -5   5    1.20    0.27
  14   5  -4   -0.13    0.22
 -14   5   4    0.03    0.22
 -14  -5   4    0.22    0.21
  14  -5  -4    0.07    0.17
  14   5  -3    5.22    0.57
 -14   5   3    4.04    0.53
 -14  -5   3    5.22    0.56
  14  -5  -3    4.40    0.50
 -14   5   2   -0.08    0.18
  14   5  -2    0.15    0.23
  14  -5  -2    0.06    0.16
 -14  -5   2    0.27    0.21
  14   5  -1    2.58    0.38
 -14   5   1    3.39    0.38
 -14  -5   1    2.10    0.34
  14  -5  -1    2.36    0.31
 -14   5   0    0.05    0.16
  14   5   0   -0.26    0.19
  14  -5   0    0.13    0.12
 -14  -5   0   -0.24    0.20
 -14  -5   0    0.13    0.19
 -14  -5   0   -0.12    0.16
  14   5   1    2.89    0.38
  14   5   1    2.11    0.37
 -14   5  -1    2.96    0.36
  14   5   1    2.79    0.38
 -14  -5  -1    2.96    0.40
 -14  -5  -1    2.51    0.33
 -14  -5  -1    2.53    0.36
  14   5   2   -0.54    0.19
  14   5   2    0.00    0.19
 -14  -5  -2    0.21    0.21
 -14  -5  -2   -0.22    0.20
  14   5   3    4.69    0.56
  14   5   3    5.90    0.59
 -14  -5  -3    5.27    0.60
  14   5   4   -0.07    0.22
  14   5   4    0.14    0.26
  14   5   4   -0.20    0.19
 -14  -5  -4   -0.23    0.23
  14   5   5    1.97    0.37
  14   5   5    1.01    0.28
  14   5   5    1.43    0.33
 -14  -5  -5    1.28    0.32
  14   5   6   -0.03    0.20
  14   5   6    0.08    0.28
 -14  -5  -6    0.34    0.26
  14   6  -6    2.88    0.44
  14  -6  -6    2.10    0.36
 -14  -6   6    2.65    0.37
 -14   6   5    0.14    0.24
  14   6  -5   -0.22    0.27
  14  -6  -5    0.10    0.20
 -14  -6   5    0.01    0.22
 -14   6   4    1.91    0.34
  14   6  -4    1.69    0.37
  14  -6  -4    2.41    0.31
 -14  -6   4    2.14    0.34
 -14   6   3   -0.03    0.19
  14   6  -3    0.07    0.25
 -14  -6   3    0.33    0.23
  14  -6  -3    0.13    0.17
 -14  -6   3   -0.07    0.22
  14   6  -2    3.29    0.47
 -14   6   2    3.62    0.46
  14  -6  -2    3.72    0.44
 -14  -6   2    4.59    0.52
 -14  -6   2    3.54    0.47
 -14   6   1   -0.01    0.17
  14   6  -1   -0.27    0.22
 -14  -6   1    0.06    0.22
  14  -6  -1    0.17    0.14
  14   6   0    2.38    0.43
 -14   6   0    3.60    0.41
 -14  -6   0    3.76    0.45
  14   6   1   -0.36    0.21
 -14   6  -1    0.17    0.15
  14   6   1    0.34    0.25
 -14  -6  -1    0.22    0.23
  14   6   2    4.34    0.50
 -14  -6  -2    3.50    0.48
  14   6   3    0.25    0.24
  14   6   3   -0.36    0.19
 -14  -6  -3    0.01    0.25
  14   6   4    1.04    0.32
  14   6   4    2.20    0.36
 -14  -6  -4    2.38    0.37
  14   6   5    0.39    0.30
  14   6   5   -0.16    0.25
  14   6   5   -0.07    0.23
 -14  -6  -5    0.10    0.26
  14   6   6    1.76    0.40
 -14  -6  -6    2.32    0.41
  14   7  -4   -0.09    0.28
 -14   7   4   -0.22    0.22
 -14  -7   4    0.01    0.24
  14  -7  -4    0.16    0.19
 -14   7   3    1.46    0.30
  14   7  -3    1.64    0.38
 -14  -7   3    1.92    0.34
  14  -7  -3    1.82    0.27
  14   7  -2   -0.39    0.26
 -14   7   2   -0.13    0.20
 -14  -7   2    0.12    0.25
  14  -7  -2    0.07    0.17
 -14   7   1    3.47    0.45
  14   7  -1    2.47    0.45
 -14  -7   1    3.92    0.47
  14   7   0   -0.57    0.24
 -14   7   0    0.03    0.19
 -14  -7   0    0.05    0.26
  14   7   1    3.56    0.47
 -14  -7  -1    3.40    0.48
  14   7   2   -0.68    0.21
  14   7   2    0.20    0.27
 -14  -7  -2    0.16    0.27
  14   7   3    1.94    0.37
 -14  -7  -3    2.12    0.38
  14   7   4    0.17    0.30
  14   7   4   -0.04    0.24
 -14  -7  -4   -0.08    0.27
 -14   8   2    2.71    0.39
  14   8  -2    1.43    0.40
 -14  -8   2    2.87    0.41
  14   8  -1   -0.30    0.27
 -14   8   1   -0.07    0.22
 -14  -8   1    0.01    0.26
  14   8   0    0.25    0.31
 -14  -8   0    1.87    0.35
  14   8   1    0.26    0.30
  14   8   1   -0.68    0.25
 -14  -8  -1    0.11    0.28
  14   8   2    2.53    0.43
 -14  -8  -2    2.74    0.45
  15   0  -8    3.38    0.47
 -15   0   7    0.07    0.25
  15   0  -7    0.01    0.23
 -15   0   6    5.72    0.60
  15   0  -6    4.04    0.57
 -15   0   5    0.13    0.23
  15   0  -5    0.04    0.20
  15   0  -4    7.34    0.74
 -15   0   3    0.08    0.19
  15   0  -3    0.11    0.17
 -15   0   2    5.47    0.56
  15   0  -2    4.45    0.53
 -15   0   2    5.28    0.54
  15   0  -1   -0.15    0.12
  15   0  -1    0.06    0.16
 -15   0   1    0.21    0.18
 -15   0   1    0.16    0.15
  15   0   0   17.17    1.39
 -15   0   0   15.52    1.40
  15   0   0   16.41    1.40
 -15   0   0   16.14    1.42
  15   0   1   -0.04    0.14
 -15   0  -1    0.23    0.14
  15   0   1    0.22    0.14
 -15   0  -1    0.13    0.17
 -15   0  -2    4.70    0.52
  15   0   2    4.85    0.48
 -15   0  -2    5.37    0.47
  15   0   2    3.74    0.47
  15   0   2    5.53    0.50
  15   0   3    0.21    0.17
  15   0   3   -0.11    0.15
 -15   0  -3   -0.06    0.17
  15   0   3   -0.25    0.09
  15   0   4    9.91    0.89
  15   0   4    9.85    0.91
 -15   0  -4    9.09    0.88
  15   0   5    0.05    0.21
  15   0   5   -0.01    0.19
  15   0   6    2.90    0.44
  15   0   6    4.58    0.55
  15   0   7   -0.02    0.30
  15   0   7   -0.27    0.23
  15   0   8    2.17    0.39
  15   1  -7    3.78    0.52
 -15   1   7    4.57    0.56
 -15  -1   7    4.40    0.52
  15  -1  -7    3.70    0.49
  15   1  -6   -0.06    0.23
 -15   1   6    0.33    0.25
 -15  -1   6   -0.15    0.23
  15  -1  -6    0.20    0.22
 -15   1   5    5.92    0.65
 -15  -1   5    6.70    0.68
  15  -1  -5    5.72    0.64
 -15   1   4    0.13    0.19
  15   1  -4   -0.04    0.18
 -15  -1   4    0.29    0.22
  15  -1  -4   -0.03    0.19
 -15   1   3    7.24    0.76
  15   1  -3    7.92    0.77
 -15  -1   3    8.41    0.78
 -15   1   2    0.01    0.17
  15   1  -2    0.09    0.18
 -15   1   2    0.10    0.17
  15  -1  -2    0.00    0.10
  15  -1  -2    0.13    0.16
 -15  -1   2    0.06    0.19
 -15  -1   2    0.06    0.14
 -15   1   1    5.39    0.58
  15   1  -1    5.24    0.57
 -15   1   1    6.48    0.58
  15   1  -1    5.24    0.54
 -15  -1   1    5.82    0.60
 -15  -1   1    6.09    0.57
  15  -1  -1    5.68    0.57
  15  -1  -1    5.96    0.52
  15   1   0   -0.08    0.15
 -15   1   0    0.02    0.14
 -15   1   0    0.07    0.15
  15   1   0    0.04    0.13
 -15  -1   0    0.14    0.18
  15  -1   0    0.20    0.12
  15  -1   0    0.02    0.14
 -15  -1   0    0.07    0.13
  15   1   1    5.61    0.58
 -15   1  -1    5.96    0.57
  15   1   1    6.23    0.58
 -15   1  -1    6.12    0.59
 -15  -1  -1    4.84    0.60
 -15  -1  -1    6.31    0.57
  15  -1   1    5.92    0.56
  15  -1   1    6.17    0.56
  15   1   2   -0.25    0.14
  15   1   2   -0.01    0.13
  15   1   2    0.24    0.17
 -15   1  -2   -0.02    0.12
 -15   1  -2    0.03    0.16
  15  -1   2    0.15    0.14
 -15  -1  -2    0.13    0.11
 -15  -1  -2   -0.06    0.18
  15  -1   2   -0.26    0.10
  15   1   3    4.68    0.56
  15   1   3    6.78    0.63
  15   1   3    8.21    0.64
 -15  -1  -3    5.21    0.60
  15  -1   3    6.68    0.60
  15   1   4    0.07    0.18
  15   1   4    0.40    0.20
 -15   1  -4   -0.13    0.16
 -15   1  -4    0.19    0.13
  15  -1   4   -0.04    0.19
  15  -1   4    0.06    0.17
 -15   1  -5    5.25    0.52
  15   1   5    6.02    0.63
  15   1   5    5.69    0.58
 -15  -1  -5    3.84    0.54
  15  -1   5    5.92    0.60
  15  -1   5    4.11    0.54
  15   1   6    0.20    0.24
  15   1   6    0.25    0.26
 -15   1  -6   -0.26    0.16
  15  -1   6    0.09    0.23
  15  -1   6   -0.02    0.21
  15   1   7    4.20    0.59
  15   1   7    3.29    0.47
  15  -1   7    2.58    0.43
  15   2  -7   -0.01    0.24
 -15   2   7    0.01    0.25
 -15  -2   7   -0.28    0.23
  15  -2  -7    0.14    0.22
 -15   2   6    6.30    0.70
  15  -2  -6    6.27    0.67
 -15  -2   6    6.53    0.71
 -15   2   5    0.26    0.22
  15   2  -5   -0.03    0.21
  15  -2  -5   -0.05    0.18
 -15  -2   5   -0.01    0.23
 -15   2   4    4.85    0.57
  15   2  -4    5.25    0.58
 -15  -2   4    5.05    0.58
  15  -2  -4    4.56    0.55
  15   2  -3   -0.15    0.18
 -15   2   3    0.04    0.20
  15  -2  -3   -0.08    0.18
 -15  -2   3   -0.10    0.20
  15   2  -2   11.78    1.04
 -15   2   2   10.37    1.04
 -15  -2   2   11.42    1.05
 -15  -2   2   12.10    1.04
  15   2  -1    0.11    0.18
 -15   2   1    0.04    0.14
 -15   2   1    0.02    0.17
  15  -2  -1    0.04    0.15
 -15  -2   1    0.15    0.15
  15  -2  -1    0.03    0.17
 -15  -2   1   -0.07    0.19
 -15   2   0    4.40    0.49
  15   2   0    4.65    0.49
  15   2   0    4.96    0.50
  15   2   0    4.32    0.51
 -15   2   0    4.04    0.50
  15  -2   0    5.82    0.47
 -15  -2   0    4.55    0.48
  15  -2   0    4.75    0.47
 -15  -2   0    4.65    0.53
  15   2   1   -0.11    0.14
  15   2   1   -0.19    0.16
  15   2   1    0.13    0.17
 -15   2  -1   -0.03    0.16
 -15   2  -1    0.13    0.13
  15  -2   1    0.05    0.11
  15  -2   1   -0.06    0.11
 -15  -2  -1    0.12    0.12
 -15  -2  -1   -0.36    0.16
  15   2   2    9.74    1.00
 -15   2  -2   11.24    0.99
  15   2   2   10.73    1.00
 -15   2  -2   11.94    1.00
  15   2   2   13.34    1.01
  15  -2   2   10.62    0.97
  15   2   3   -0.29    0.14
  15   2   3    0.19    0.17
  15   2   3    0.24    0.20
 -15   2  -3   -0.01    0.16
  15  -2   3    0.05    0.13
 -15   2  -4    3.72    0.38
  15   2   4    3.71    0.44
  15   2   4    2.47    0.34
  15  -2   4    3.21    0.39
 -15  -2  -4    3.21    0.40
 -15   2  -5    0.26    0.16
  15   2   5    0.09    0.22
  15   2   5    0.16    0.23
  15  -2   5   -0.01    0.16
 -15  -2  -5    0.04    0.18
  15   2   6    5.88    0.73
  15   2   6    5.70    0.67
 -15  -2  -6    6.12    0.68
 -15  -2  -6    6.23    0.65
  15  -2   6    7.16    0.73
  15   2   7   -0.01    0.27
  15  -2   7   -0.21    0.22
  15   3  -7    1.76    0.36
 -15   3   7    2.41    0.38
  15  -3  -7    2.59    0.35
 -15  -3   7    1.08    0.32
 -15   3   6   -0.09    0.25
  15   3  -6    0.16    0.26
  15  -3  -6    0.03    0.20
 -15  -3   6   -0.73    0.22
  15   3  -5    5.84    0.63
 -15   3   5    5.12    0.61
 -15  -3   5    3.73    0.54
  15  -3  -5    5.24    0.55
 -15   3   4    0.04    0.22
  15   3  -4   -0.10    0.22
 -15  -3   4   -0.15    0.22
  15  -3  -4   -0.03    0.18
 -15   3   3    3.88    0.52
 -15  -3   3    4.15    0.51
  15   3  -2    0.08    0.20
 -15   3   2   -0.03    0.18
  15  -3  -2   -0.20    0.14
 -15  -3   2   -0.40    0.19
 -15   3   1    4.51    0.51
 -15  -3   1    4.08    0.52
 -15  -3   1    4.44    0.48
  15   3   0    0.07    0.20
  15   3   0   -0.14    0.19
 -15   3   0    0.27    0.15
 -15   3   0   -0.18    0.16
  15   3   0    0.08    0.15
 -15  -3   0   -0.51    0.17
 -15  -3   0   -0.20    0.13
  15  -3   0    0.11    0.13
  15   3   1    7.79    0.71
 -15   3  -1    6.49    0.70
  15   3   1    6.89    0.68
 -15   3  -1    6.15    0.69
  15   3   1    7.49    0.72
  15  -3   1    8.40    0.65
  15   3   2   -0.02    0.18
 -15   3  -2    0.11    0.15
  15   3   2   -0.33    0.17
 -15   3  -2   -0.04    0.15
 -15  -3  -2   -0.24    0.18
  15   3   3    3.04    0.46
  15   3   3    5.00    0.50
 -15  -3  -3    4.48    0.50
  15   3   4   -0.02    0.19
  15   3   4    0.27    0.24
  15  -3   4   -0.03    0.15
 -15  -3  -4    0.01    0.19
  15   3   5    4.69    0.65
  15   3   5    7.05    0.67
 -15  -3  -5    5.88    0.66
 -15  -3  -5    6.16    0.62
  15   3   6    0.18    0.25
  15   3   6    0.31    0.24
 -15  -3  -6    0.20    0.22
  15  -3   6   -0.16    0.19
  15   3   7    2.63    0.41
  15  -3   7    1.51    0.36
 -15  -3  -7    3.05    0.41
 -15   4   6    1.82    0.40
  15   4  -6    2.96    0.44
  15  -4  -6    2.69    0.36
 -15  -4   6    1.89    0.35
 -15   4   5   -0.02    0.24
  15   4  -5    0.02    0.26
 -15  -4   5   -0.02    0.22
  15  -4  -5    0.11    0.20
  15   4  -4    8.18    0.77
 -15   4   4    6.02    0.76
  15  -4  -4    7.37    0.70
  15   4  -3    0.10    0.21
 -15   4   3   -0.14    0.21
  15  -4  -3   -0.06    0.17
 -15  -4   3   -0.27    0.19
 -15   4   2    3.66    0.45
  15  -4  -2    3.33    0.41
 -15  -4   2    2.36    0.39
  15   4  -1   -0.19    0.21
 -15   4   1    0.04    0.18
  15  -4  -1    0.09    0.15
 -15  -4   1   -0.11    0.17
 -15  -4   1   -0.26    0.17
  15   4   0   10.77    0.82
 -15   4   0    9.16    0.83
  15   4   0    9.87    0.86
 -15  -4   0    7.39    0.79
 -15  -4   0    6.97    0.83
 -15   4  -1    0.21    0.17
  15   4   1    0.01    0.20
  15   4   1   -0.15    0.20
 -15  -4  -1   -0.07    0.15
 -15  -4  -1    0.04    0.20
 -15   4  -2    4.53    0.48
  15   4   2    6.17    0.56
 -15   4  -2    4.45    0.50
  15   4   2    3.47    0.50
 -15  -4  -2    4.61    0.54
  15   4   3    0.00    0.23
  15   4   3   -0.43    0.18
  15   4   3    0.15    0.23
 -15  -4  -3    0.06    0.21
 -15  -4  -3   -0.18    0.22
  15   4   4    7.26    0.80
  15   4   4    8.41    0.78
 -15  -4  -4    7.81    0.79
 -15  -4  -4    7.46    0.79
  15   4   5   -0.47    0.21
  15   4   5   -0.31    0.17
  15   4   5    0.24    0.23
 -15  -4  -5   -0.14    0.22
  15   4   6    3.21    0.45
  15   4   6    2.12    0.44
 -15  -4  -6    3.22    0.43
 -15   5   6   -0.17    0.26
  15   5  -6    0.09    0.29
 -15  -5   6   -0.07    0.23
 -15  -5   6   -0.12    0.22
  15  -5  -6    0.04    0.23
  15   5  -5    3.49    0.47
 -15   5   5    2.51    0.43
  15  -5  -5    3.08    0.38
 -15  -5   5    2.87    0.41
  15   5  -4    0.08    0.25
 -15   5   4   -0.10    0.21
  15  -5  -4   -0.20    0.18
 -15  -5   4    0.15    0.23
  15   5  -3    7.13    0.66
 -15   5   3    5.38    0.63
 -15  -5   3    4.84    0.62
  15  -5  -3    5.14    0.58
  15   5  -2    0.04    0.24
 -15   5   2   -0.07    0.19
  15  -5  -2   -0.05    0.17
 -15  -5   2   -0.09    0.20
  15   5  -1    6.16    0.68
 -15   5   1    6.62    0.63
  15  -5  -1    6.00    0.59
 -15  -5   1    5.20    0.64
  15   5   0   -0.40    0.21
 -15   5   0   -0.07    0.16
 -15  -5   0   -0.44    0.15
 -15  -5   0    0.17    0.21
 -15  -5   0   -0.13    0.23
 -15   5  -1    6.21    0.61
  15   5   1    5.18    0.67
  15   5   1    6.44    0.63
 -15  -5  -1    5.60    0.68
 -15  -5  -1    6.52    0.66
  15   5   2    0.15    0.24
  15   5   2   -0.52    0.20
 -15  -5  -2    0.22    0.22
 -15  -5  -2   -0.04    0.23
  15   5   3    6.58    0.66
 -15  -5  -3    5.69    0.69
  15   5   4    0.44    0.24
 -15  -5  -4    0.03    0.25
  15   5   5    3.51    0.48
  15   5   5    2.39    0.45
 -15  -5  -5    3.06    0.44
  15   5   6    0.03    0.26
  15   5   6   -0.23    0.23
 -15  -5  -6    0.40    0.28
 -15   6   5   -0.07    0.25
  15   6  -5   -0.23    0.27
  15  -6  -5    0.04    0.21
 -15  -6   5    0.16    0.24
  15   6  -4    2.54    0.42
 -15   6   4    2.63    0.42
 -15  -6   4    2.96    0.42
 -15  -6   4    3.28    0.42
  15  -6  -4    2.83    0.37
  15   6  -3    0.09    0.27
 -15   6   3    0.06    0.21
 -15  -6   3    0.22    0.24
  15  -6  -3    0.13    0.19
 -15  -6   3   -0.21    0.25
  15   6  -2    6.60    0.75
 -15   6   2    6.76    0.69
 -15  -6   2    6.10    0.74
 -15  -6   2    7.43    0.74
  15  -6  -2    6.03    0.65
  15   6  -1   -0.18    0.23
 -15   6   1   -0.01    0.20
 -15  -6   1    0.01    0.25
 -15  -6   1    0.16    0.25
 -15   6   0    4.89    0.54
  15   6   0    4.36    0.57
 -15  -6   0    5.23    0.61
  15   6   1    0.00    0.24
  15   6   1   -0.44    0.22
 -15  -6  -1   -0.02    0.25
  15   6   2    7.00    0.72
 -15  -6  -2    7.00    0.76
  15   6   3   -0.60    0.20
  15   6   3    0.26    0.28
 -15  -6  -3   -0.27    0.26
  15   6   4    3.69    0.50
 -15  -6  -4    3.29    0.49
  15   6   5    0.37    0.28
 -15  -6  -5    0.34    0.28
 -15   7   3    2.65    0.41
  15   7  -3    2.80    0.46
 -15  -7   3    2.49    0.41
  15  -7  -3    2.81    0.36
 -15   7   2    0.03    0.22
  15   7  -2   -0.27    0.28
 -15  -7   2    0.25    0.28
 -15   7   1    4.67    0.54
  15   7  -1    3.53    0.54
 -15  -7   1    4.83    0.61
  15   7   0   -0.24    0.25
 -15   7   0    0.19    0.19
  15   7   0    0.14    0.26
 -15  -7   0    0.12    0.28
  15   7   1    3.14    0.52
  15   7   1    5.02    0.59
 -15  -7  -1    4.68    0.56
  15   7   2   -0.50    0.25
  15   7   2    0.26    0.28
 -15  -7  -2    0.08    0.28
  15   7   3    2.96    0.43
 -15  -7  -3    2.32    0.42
  15   8   0    3.31    0.47
  15   8   0    2.10    0.47
 -15  -8   0    3.87    0.50
  16   0  -7    0.14    0.26
 -16   0   7   -0.09    0.24
 -16   0   6   13.55    1.13
  16   0  -6   10.24    1.11
  16   0  -5   -0.11    0.23
 -16   0   5    0.18    0.24
  16   0  -4   20.84    1.81
 -16   0   3    0.03    0.21
  16   0  -3   -0.14    0.18
 -16   0   2   43.93    3.32
  16   0  -2   35.52    3.29
 -16   0   1   -0.19    0.19
 -16   0   1    0.10    0.16
  16   0  -1   -0.07    0.16
  16   0  -1   -0.01    0.13
  16   0   0   90.66    7.31
 -16   0   0   90.74    7.33
 -16   0   0   86.05    7.31
  16   0   0   89.23    7.30
  16   0   1   -0.12    0.16
  16   0   1    0.14    0.16
 -16   0  -1   -0.13    0.18
 -16   0  -1    0.13    0.14
  16   0   2   44.18    3.63
 -16   0  -2   48.17    3.65
  16   0   2   39.59    3.61
  16   0   3    0.24    0.18
 -16   0  -3   -0.09    0.19
  16   0   3   -0.16    0.16
  16   0   4   34.90    2.87
  16   0   4   35.79    2.86
 -16   0  -4   31.69    2.85
  16   0   5   -0.17    0.21
  16   0   5    0.18    0.21
  16   0   6   10.90    1.08
  16   0   6   11.89    1.06
  16   0   7    0.21    0.25
 -16   1   7   10.62    0.92
  16   1  -7    6.66    0.90
  16  -1  -7    9.05    0.90
 -16  -1   7    9.35    0.90
 -16   1   6    0.03    0.24
  16   1  -6   -0.03    0.23
  16  -1  -6    0.26    0.25
 -16  -1   6    0.23    0.25
 -16   1   5   19.86    1.57
  16  -1  -5   15.60    1.56
 -16   1   4    0.17    0.20
  16   1  -4    0.09    0.21
  16  -1  -4   -0.07    0.21
 -16  -1   4    0.20    0.23
 -16   1   3   40.24    3.40
  16   1  -3   41.10    3.40
 -16   1   2    0.00    0.18
  16   1  -2    0.26    0.19
 -16  -1   2    0.03    0.21
  16  -1  -2    0.34    0.20
  16   1  -1   65.58    5.24
  16   1  -1   54.30    5.22
 -16   1   1   64.40    5.25
 -16  -1   1   66.69    5.25
 -16  -1   1   69.65    5.27
  16  -1  -1   62.13    5.24
  16  -1  -1   63.28    5.21
  16   1   0   -0.02    0.18
 -16   1   0    0.19    0.18
 -16   1   0    0.05    0.15
  16   1   0   -0.12    0.14
  16  -1   0    0.06    0.13
 -16  -1   0    0.02    0.16
  16  -1   0    0.03    0.14
 -16  -1   0   -0.23    0.19
  16   1   1   61.97    5.24
  16   1   1   67.85    5.25
 -16   1  -1   58.28    5.25
 -16   1  -1   61.16    5.24
  16  -1   1   70.28    5.24
 -16  -1  -1   61.36    5.26
  16  -1   1   66.74    5.23
 -16  -1  -1   62.07    5.24
 -16   1  -2    0.07    0.18
  16   1   2    0.14    0.18
  16   1   2    0.10    0.17
 -16   1  -2    0.19    0.14
  16  -1   2    0.44    0.16
  16  -1   2   -0.03    0.12
 -16  -1  -2   -0.17    0.18
  16   1   3   36.75    3.35
  16   1   3   44.69    3.39
 -16   1  -3   47.15    3.39
 -16  -1  -3   38.81    3.38
  16  -1   3   36.42    3.36
  16   1   4    0.25    0.21
 -16   1  -4    0.11    0.21
  16   1   4    0.06    0.22
  16  -1   4    0.41    0.18
 -16  -1  -4   -0.33    0.18
  16  -1   4    0.04    0.20
  16   1   5   20.40    1.60
  16   1   5   17.49    1.60
  16  -1   5   19.65    1.61
  16  -1   5   15.27    1.56
  16   1   6    0.23    0.24
  16   1   6    0.02    0.26
  16  -1   6    0.73    0.24
  16  -1   6    0.03    0.24
  16   1   7    7.93    0.81
  16  -1   7    7.94    0.81
  16   2  -7    0.12    0.24
 -16   2   7    0.09    0.25
  16  -2  -7    0.08    0.25
 -16  -2   7   -0.08    0.25
  16   2  -6    9.13    1.09
 -16   2   6   11.48    1.09
 -16  -2   6   13.99    1.12
  16  -2  -6   11.84    1.09
  16   2  -5   -0.14    0.21
 -16   2   5    0.07    0.22
 -16  -2   5   -0.01    0.25
  16  -2  -5   -0.07    0.22
 -16   2   4   22.05    1.81
  16   2  -4   20.65    1.81
  16  -2  -4   18.30    1.79
 -16  -2   4   22.22    1.82
 -16   2   3    0.25    0.19
  16   2  -3    0.07    0.21
 -16  -2   3   -0.11    0.22
  16  -2  -3   -0.20    0.17
 -16   2   2   51.48    4.58
  16   2  -2   57.12    4.58
 -16  -2   2   57.31    4.59
  16   2  -1    0.10    0.20
 -16   2   1    0.46    0.20
 -16  -2   1    0.33    0.17
  16  -2  -1    0.28    0.17
 -16  -2   1   -0.05    0.21
 -16   2   0   39.57    3.34
  16   2   0   37.10    3.34
 -16   2   0   43.13    3.35
  16   2   0   39.66    3.33
 -16  -2   0   35.00    3.35
  16  -2   0   46.36    3.32
 -16  -2   0   39.66    3.33
  16   2   1    0.22    0.18
 -16   2  -1    0.13    0.16
 -16   2  -1    0.15    0.16
  16   2   1   -0.05    0.18
  16  -2   1    0.11    0.13
 -16  -2  -1   -0.14    0.20
 -16  -2  -1    0.40    0.15
 -16   2  -2   52.88    4.36
 -16   2  -2   52.58    4.37
  16   2   2   56.90    4.37
  16   2   2   52.46    4.37
  16  -2   2   49.07    4.39
  16   2   3    0.22    0.22
  16   2   3   -0.16    0.15
 -16   2  -3    0.11    0.18
 -16  -2  -3   -0.54    0.17
  16  -2   3    0.23    0.14
  16   2   4   16.94    1.45
  16   2   4   14.36    1.35
  16  -2   4   16.59    1.37
  16   2   5    0.06    0.24
  16   2   5    0.17    0.24
  16  -2   5    0.24    0.19
 -16  -2  -5   -0.27    0.19
  16   2   6   12.65    1.16
  16   2   6   14.89    1.13
 -16  -2  -6   10.72    1.07
 -16  -2  -6   11.79    1.09
  16  -2   6    9.29    1.06
  16   2   7    0.10    0.24
  16  -2   7    0.08    0.22
 -16   3   6    0.07    0.24
  16   3  -6    0.01    0.25
 -16  -3   6   -0.61    0.24
  16  -3  -6    0.07    0.23
  16   3  -5   18.68    1.53
 -16   3   5   16.45    1.52
 -16  -3   5   15.57    1.51
  16  -3  -5   17.23    1.50
 -16   3   4    0.13    0.24
  16   3  -4    0.30    0.24
  16  -3  -4   -0.02    0.20
 -16  -3   4   -0.16    0.24
 -16   3   3   21.21    1.86
  16   3  -3   22.83    1.85
 -16  -3   3   20.88    1.85
  16  -3  -3   20.38    1.83
 -16   3   2    0.12    0.21
  16   3  -2    0.16    0.22
  16  -3  -2    0.06    0.17
 -16  -3   2   -0.44    0.22
  16   3  -1   42.97    3.17
 -16   3   1   35.93    3.17
 -16  -3   1   33.03    3.16
  16  -3  -1   38.88    3.13
 -16   3   0    0.00    0.19
  16   3   0   -0.05    0.21
  16   3   0   -0.18    0.18
 -16  -3   0   -0.04    0.15
  16  -3   0   -0.09    0.13
 -16  -3   0   -0.28    0.21
  16   3   1   40.03    3.16
  16   3   1   41.60    3.15
 -16   3  -1   35.48    3.15
 -16   3  -1   33.76    3.15
  16   3   2    0.11    0.20
 -16   3  -2   -0.05    0.16
 -16   3  -2    0.31    0.15
  16   3   2   -0.17    0.19
  16   3   3   18.93    1.45
 -16  -3  -3   14.02    1.46
  16   3   4    0.45    0.23
  16   3   4   -0.42    0.17
 -16  -3  -4   -0.03    0.20
  16   3   5   13.02    1.61
  16   3   5   19.89    1.48
 -16  -3  -5   14.55    1.44
 -16  -3  -5   17.61    1.48
  16   3   6    0.21    0.27
  16   3   6    0.35    0.27
 -16  -3  -6    0.30    0.25
  16   4  -6    6.53    0.73
 -16   4   6    6.33    0.74
 -16  -4   6    4.42    0.64
  16  -4  -6    7.48    0.69
 -16   4   5   -0.29    0.24
  16   4  -5    0.01    0.26
  16  -4  -5   -0.07    0.22
 -16  -4   5   -0.76    0.22
  16   4  -4   17.10    1.54
  16  -4  -4   17.36    1.51
 -16   4   3    0.35    0.25
  16   4  -3    0.18    0.23
 -16  -4   3   -0.65    0.20
  16  -4  -3    0.24    0.20
 -16   4   2   17.65    1.42
  16  -4  -2   14.04    1.36
  16   4  -1   -0.04    0.23
 -16   4   1    0.28    0.22
  16  -4  -1    0.32    0.16
 -16  -4   1   -0.58    0.20
  16   4   0   36.67    2.85
 -16   4   0   30.53    2.85
  16   4   0   34.31    2.83
  16   4   1   -0.10    0.22
 -16   4  -1    0.35    0.19
  16   4   1    0.27    0.22
 -16  -4  -1   -0.21    0.22
  16   4   2   18.89    1.74
  16   4   2   21.44    1.75
  16   4   3   -0.02    0.24
  16   4   3   -0.35    0.20
 -16  -4  -3    0.03    0.22
 -16  -4  -3   -0.27    0.24
  16   4   4   12.84    1.38
 -16  -4  -4   17.06    1.42
 -16  -4  -4   18.29    1.45
  16   4   5   -0.31    0.18
  16   4   5    0.25    0.25
 -16  -4  -5    0.21    0.25
  16   4   6    8.77    0.91
 -16  -4  -6    8.75    0.91
  16   5  -5    8.84    0.80
 -16   5   5    5.51    0.78
  16  -5  -5    7.69    0.73
 -16  -5   5    5.84    0.75
 -16   5   4    0.09    0.27
  16   5  -4    0.25    0.28
 -16  -5   4   -0.16    0.23
  16  -5  -4    0.12    0.21
 -16   5   3   15.54    1.35
 -16  -5   3   12.69    1.33
  16  -5  -3   15.61    1.30
 -16   5   2   -0.02    0.22
  16   5  -2   -0.04    0.25
  16  -5  -2    0.08    0.16
 -16  -5   2    0.05    0.23
 -16   5   1   16.29    1.50
 -16  -5   1   14.93    1.51
  16  -5  -1   19.29    1.46
  16   5   0    0.23    0.23
 -16   5   0    0.10    0.19
  16   5   0   -0.10    0.24
 -16  -5   0   -0.11    0.20
  16   5   1   21.36    1.61
 -16   5  -1   17.85    1.59
  16   5   1   18.19    1.62
 -16  -5  -1   15.71    1.62
 -16  -5  -1   18.24    1.62
  16   5   2   -0.24    0.23
  16   5   2   -0.01    0.22
 -16  -5  -2   -0.08    0.23
 -16  -5  -2   -0.23    0.23
  16   5   3   14.08    1.50
  16   5   3   20.60    1.53
 -16  -5  -3   17.44    1.54
  16   5   4    0.26    0.28
  16   5   4   -0.42    0.22
 -16  -5  -4    0.11    0.24
  16   5   5    5.28    0.73
  16   5   5    8.10    0.77
 -16  -5  -5    8.83    0.82
 -16   6   4    7.37    0.79
  16   6  -4    8.24    0.81
 -16  -6   4    5.74    0.77
 -16  -6   4    6.74    0.78
  16  -6  -4    7.33    0.73
  16   6  -3    0.03    0.27
 -16   6   3   -0.06    0.25
 -16  -6   3   -0.27    0.26
  16  -6  -3    0.19    0.20
 -16  -6   3    0.20    0.26
 -16   6   2   13.20    1.20
  16   6  -2   13.16    1.23
 -16  -6   2   13.12    1.23
 -16  -6   2   12.29    1.21
  16   6  -1   -0.31    0.26
 -16   6   1    0.10    0.21
 -16  -6   1    0.55    0.27
 -16  -6   1    0.14    0.27
  16   6   0   10.54    1.09
 -16   6   0   12.27    1.08
  16   6   0   13.44    1.14
 -16  -6   0   11.97    1.12
 -16  -6   0   10.90    1.13
  16   6   1    0.08    0.27
  16   6   1    0.32    0.26
 -16  -6  -1   -0.12    0.24
  16   6   2   15.19    1.18
  16   6   2    9.35    1.14
 -16  -6  -2   13.09    1.18
  16   6   3    0.06    0.25
  16   6   3   -0.17    0.23
 -16  -6  -3    0.34    0.28
  16   6   4    8.71    0.87
 -16  -6  -4    8.20    0.92
 -16   7   2    0.19    0.25
  16   7  -2   -0.04    0.28
 -16  -7   2    0.00    0.28
 -16   7   1   11.25    1.01
  16   7  -1    8.97    1.03
 -16  -7   1   10.90    1.06
 -16   7   0   -0.36    0.34
  16   7   0   -0.35    0.28
  16   7   0    0.01    0.22
 -16  -7   0    0.35    0.29
  16   7   1    9.99    0.92
  16   7   1    7.10    0.92
 -16  -7  -1   10.12    0.96
  16   7   2   -0.15    0.26
  16   7   2   -0.56    0.25
 -16  -7  -2    0.11    0.30
  17   0  -6    0.55    0.30
 -17   0   6    0.85    0.28
  17   0  -5   -0.16    0.20
 -17   0   5    0.01    0.24
 -17   0   4    0.72    0.26
  17   0  -4    0.37    0.24
 -17   0   3    0.29    0.23
  17   0  -3    0.08    0.21
  17   0  -2    0.96    0.23
  17   0  -2    0.63    0.17
 -17   0   2    0.88    0.25
 -17   0   1    0.11    0.20
  17   0  -1    0.02    0.13
  17   0  -1   -0.05    0.17
 -17   0   0    2.91    0.37
 -17   0   0    2.47    0.36
  17   0   0    2.92    0.35
  17   0   0    3.13    0.39
  17   0   1   -0.01    0.16
  17   0   1   -0.01    0.15
 -17   0  -1   -0.06    0.19
 -17   0  -1    0.01    0.15
 -17   0  -2    1.12    0.27
  17   0   2    1.16    0.23
  17   0   2    0.95    0.20
 -17   0  -3   -0.16    0.20
  17   0   3    0.33    0.19
  17   0   4    0.90    0.24
 -17   0  -4    0.54    0.23
  17   0   5    0.25    0.22
  17   0   6    1.02    0.27
  17   1  -6    0.02    0.24
 -17   1   6    0.06    0.25
 -17  -1   6   -0.01    0.25
  17  -1  -6    0.11    0.26
  17   1  -5    0.31    0.24
 -17   1   5    0.37    0.24
 -17  -1   5    0.17    0.26
  17  -1  -5    0.07    0.24
  17   1  -4    0.01    0.23
 -17   1   4    0.05    0.21
 -17  -1   4   -0.12    0.23
  17  -1  -4   -0.06    0.19
  17   1  -3    0.79    0.25
 -17   1   3    1.20    0.28
 -17  -1   3    1.04    0.28
  17  -1  -3    0.51    0.23
  17   1  -2   -0.06    0.18
 -17   1   2    0.05    0.20
  17  -1  -2    0.15    0.19
 -17  -1   2    0.02    0.20
  17   1  -1    1.26    0.25
 -17   1   1    1.24    0.26
  17   1  -1    0.96    0.21
 -17  -1   1    1.06    0.26
  17  -1  -1    1.39    0.23
 -17   1   0    0.16    0.15
 -17   1   0   -0.09    0.17
  17   1   0   -0.11    0.16
  17   1   0   -0.07    0.17
 -17  -1   0   -0.15    0.21
 -17  -1   0    0.05    0.15
  17  -1   0    0.06    0.16
  17   1   1    1.46    0.24
 -17   1  -1    1.39    0.23
 -17   1  -1    1.25    0.26
  17   1   1    1.08    0.24
 -17  -1  -1    1.43    0.29
  17  -1   1    1.23    0.21
  17  -1   1    1.20    0.21
 -17  -1  -1    1.61    0.30
  17   1   2   -0.01    0.17
 -17   1  -2   -0.13    0.18
  17   1   2    0.14    0.19
  17  -1   2    0.23    0.15
 -17  -1  -2   -0.12    0.20
  17   1   3    0.73    0.20
 -17   1  -3    1.08    0.25
  17   1   3    1.54    0.27
 -17  -1  -3    0.74    0.25
  17  -1   3    1.41    0.23
  17   1   4    0.16    0.22
 -17  -1  -4   -0.28    0.19
  17  -1   4    0.16    0.18
  17   1   5    0.22    0.24
 -17  -1  -5   -0.04    0.22
  17  -1   5    0.39    0.21
  17   1   6    0.35    0.24
  17  -1   6    0.27    0.23
  17  -1   6   -0.25    0.26
  17   2  -6    0.20    0.28
 -17   2   6    0.36    0.25
 -17  -2   6    0.24    0.27
  17  -2  -6    0.42    0.27
  17   2  -5    0.21    0.26
 -17   2   5    0.07    0.23
  17  -2  -5   -0.10    0.23
 -17  -2   5   -0.19    0.25
  17   2  -4    0.40    0.24
 -17   2   4    0.65    0.23
  17  -2  -4    0.39    0.24
 -17  -2   4    1.01    0.30
  17   2  -3   -0.06    0.20
 -17   2   3    0.18    0.21
 -17  -2   3   -0.15    0.23
  17  -2  -3   -0.04    0.19
  17   2  -2    0.93    0.25
 -17   2   2    1.04    0.25
  17  -2  -2    1.11    0.24
 -17  -2   2    1.03    0.28
  17   2  -1    0.14    0.20
 -17   2   1   -0.06    0.18
  17   2  -1    0.09    0.16
  17  -2  -1    0.05    0.16
 -17  -2   1    0.00    0.22
  17   2   0    1.04    0.22
 -17   2   0    0.97    0.23
  17   2   0    1.11    0.26
 -17  -2   0    1.00    0.27
 -17  -2   0    1.05    0.22
  17  -2   0    1.08    0.20
 -17   2  -1    0.13    0.15
  17   2   1   -0.15    0.19
 -17   2  -1   -0.03    0.17
  17   2   1    0.01    0.18
  17  -2   1   -0.01    0.13
 -17  -2  -1   -0.12    0.21
  17   2   2    1.18    0.25
 -17   2  -2    1.05    0.24
  17   2   2    0.66    0.23
 -17  -2  -2    0.61    0.26
  17   2   3   -0.46    0.16
  17   2   3    0.05    0.21
 -17   2  -3   -0.07    0.19
 -17  -2  -3   -0.16    0.20
  17   2   4    1.20    0.27
 -17  -2  -4   -0.11    0.23
  17   2   5    0.26    0.24
 -17  -2  -5   -0.62    0.19
  17   2   6    0.73    0.29
  17  -2   6    0.13    0.24
  17   3  -6    0.17    0.28
 -17   3   6    0.10    0.25
  17  -3  -6    0.07    0.25
 -17  -3   6   -0.54    0.26
 -17   3   5    0.38    0.26
  17   3  -5    0.50    0.27
 -17  -3   5   -0.01    0.27
  17  -3  -5    0.27    0.25
  17   3  -4    0.02    0.23
 -17   3   4   -0.06    0.23
 -17  -3   4   -0.31    0.25
  17  -3  -4    0.03    0.22
 -17   3   3    0.41    0.25
  17   3  -3    0.36    0.23
  17  -3  -3   -0.02    0.18
 -17  -3   3    0.16    0.27
 -17   3   2    0.08    0.20
  17   3  -2    0.19    0.21
  17  -3  -2    0.05    0.19
 -17  -3   2   -0.33    0.24
  17   3  -1    0.95    0.26
 -17   3   1    0.70    0.25
  17  -3  -1    0.96    0.21
 -17  -3   1    0.24    0.26
  17   3   0    0.19    0.24
 -17   3   0   -0.01    0.18
  17   3   0    0.11    0.19
 -17  -3   0    0.22    0.17
  17  -3   0   -0.08    0.14
 -17  -3   0   -0.19    0.21
  17   3   1    1.20    0.25
 -17   3  -1    0.79    0.23
  17   3   1    0.71    0.25
 -17  -3  -1    0.39    0.26
  17   3   2   -0.02    0.21
  17   3   2    0.10    0.21
 -17   3  -2   -0.07    0.17
 -17  -3  -2   -0.42    0.20
  17   3   3    0.22    0.22
  17   3   3    0.41    0.22
 -17  -3  -3   -0.54    0.22
  17   3   4    0.31    0.24
 -17  -3  -4   -0.41    0.20
  17   3   5    0.32    0.25
 -17  -3  -5   -0.18    0.25
 -17  -3  -5    0.42    0.24
  17   3   6    0.35    0.27
 -17  -3  -6    0.07    0.24
 -17   4   5   -0.15    0.25
  17   4  -5   -0.05    0.27
 -17  -4   5   -0.31    0.25
  17  -4  -5    0.16    0.24
 -17   4   4   -0.09    0.24
  17   4  -4    0.61    0.28
  17  -4  -4    0.50    0.24
 -17  -4   4   -0.03    0.26
 -17   4   3   -0.13    0.23
  17   4  -3   -0.05    0.23
 -17  -4   3   -0.29    0.23
  17  -4  -3   -0.18    0.18
 -17   4   2    0.47    0.25
  17   4  -2    0.92    0.26
 -17  -4   2   -0.23    0.23
  17  -4  -2    0.59    0.20
  17   4  -1   -0.35    0.22
 -17   4   1   -0.01    0.20
  17  -4  -1    0.09    0.16
 -17  -4   1   -0.39    0.22
 -17   4   0    0.28    0.21
  17   4   0    0.48    0.24
  17   4   0    0.50    0.21
 -17  -4   0   -0.44    0.22
  17   4   1   -0.01    0.18
 -17   4  -1    0.06    0.19
  17   4   1   -0.10    0.23
 -17  -4  -1   -0.70    0.21
  17   4   2    0.94    0.24
  17   4   2    0.69    0.27
 -17  -4  -2   -0.02    0.24
  17   4   3   -0.45    0.21
  17   4   3    0.27    0.24
 -17  -4  -3   -0.25    0.22
  17   4   4    0.53    0.30
  17   4   4    0.04    0.22
 -17  -4  -4    0.38    0.25
 -17  -4  -4    0.08    0.28
  17   4   5   -0.13    0.28
 -17  -4  -5    0.20    0.26
 -17   5   4   -0.18    0.25
  17   5  -4    0.02    0.27
  17  -5  -4    0.00    0.22
 -17  -5   4   -0.54    0.24
  17   5  -3    0.44    0.28
 -17   5   3    0.22    0.27
  17  -5  -3    0.56    0.21
 -17  -5   3   -0.44    0.25
 -17   5   2    0.21    0.24
  17   5  -2   -0.20    0.25
  17  -5  -2    0.06    0.18
 -17  -5   2   -0.51    0.22
 -17   5   1    0.26    0.25
  17   5  -1    0.52    0.29
 -17  -5   1   -0.39    0.23
  17   5   0   -0.04    0.25
  17   5   0   -0.12    0.21
 -17   5   0    0.21    0.22
 -17  -5   0   -0.36    0.22
  17   5   1    0.15    0.27
 -17   5  -1    0.54    0.23
  17   5   1    0.61    0.25
 -17  -5  -1   -0.33    0.23
 -17  -5  -1   -0.33    0.26
  17   5   2    0.07    0.22
  17   5   2   -0.23    0.25
 -17  -5  -2   -0.27    0.26
 -17  -5  -2   -0.09    0.23
  17   5   3    0.80    0.29
  17   5   3    0.12    0.25
 -17  -5  -3    0.50    0.27
 -17  -5  -3    0.46    0.29
  17   5   4   -0.10    0.27
  17   5   4   -0.46    0.24
 -17  -5  -4    0.39    0.26
  17   6  -3   -0.13    0.30
 -17   6   3    0.17    0.27
 -17  -6   3   -0.39    0.27
  17  -6  -3    0.26    0.19
 -17  -6   3    0.13    0.26
 -17   6   2    0.49    0.27
  17   6  -2    0.01    0.30
 -17  -6   2   -0.06    0.30
 -17  -6   2    0.22    0.28
  17   6  -1   -0.15    0.26
 -17   6   1    0.14    0.23
 -17  -6   1    0.05    0.28
 -17  -6   1   -0.28    0.26
  17   6   0    0.61    0.27
 -17   6   0    0.40    0.22
  17   6   0    0.40    0.29
 -17  -6   0    0.12    0.29
 -17  -6   0    0.58    0.31
  17   6   1   -0.09    0.28
  17   6   1   -0.06    0.25
 -17  -6  -1   -0.23    0.25
  17   6   2   -0.01    0.27
  17   6   2    0.45    0.28
 -17  -6  -2    0.68    0.30
  17   6   3    0.13    0.26
  17   6   3   -0.22    0.24
 -17  -6  -3    0.16    0.30
 -18   0   6    2.76    0.39
  18   0  -6    1.55    0.36
  18   0  -5    0.01    0.25
 -18   0   5    0.00    0.24
 -18   0   4    8.44    0.81
  18   0  -4    7.18    0.79
 -18   0   3    0.04    0.22
  18   0  -3    0.06    0.20
  18   0  -2    6.67    0.68
 -18   0   2    6.80    0.72
 -18   0   1    0.06    0.21
  18   0  -1    0.19    0.19
  18   0   0   15.46    1.35
 -18   0   0   16.47    1.40
  18   0   0   15.52    1.37
  18   0   1   -0.04    0.17
  18   0   1    0.03    0.17
 -18   0  -1   -0.05    0.21
 -18   0  -2    7.03    0.74
  18   0   2    6.71    0.67
  18   0   2    8.02    0.70
  18   0   3   -0.04    0.18
 -18   0  -3   -0.06    0.22
  18   0   4    9.24    0.82
 -18   0  -4    7.65    0.80
  18   0   5    0.15    0.24
  18   0   6    3.30    0.44
 -18   1   5    4.39    0.56
  18   1  -5    3.58    0.49
 -18  -1   5    3.71    0.49
  18   1  -4    0.05    0.22
 -18   1   4    0.36    0.24
  18  -1  -4    0.10    0.22
 -18  -1   4   -0.13    0.23
  18   1  -3    8.73    0.82
 -18   1   3    8.12    0.81
  18  -1  -3    7.63    0.81
 -18  -1   3    7.76    0.82
  18   1  -2    0.02    0.15
 -18   1   2    0.10    0.21
  18   1  -2    0.06    0.20
  18  -1  -2    0.12    0.20
 -18  -1   2    0.04    0.23
  18   1  -1   11.13    0.97
 -18   1   1   10.02    0.99
  18   1  -1    9.99    0.95
  18  -1  -1   10.91    0.96
 -18  -1   1   11.37    1.01
  18   1   0   -0.03    0.15
  18   1   0   -0.06    0.18
 -18   1   0    0.13    0.21
 -18  -1   0   -0.15    0.21
  18  -1   0   -0.11    0.16
  18   1   1   11.70    1.03
 -18   1  -1   11.51    1.06
  18   1   1   11.63    1.04
  18  -1   1   11.04    1.01
 -18  -1  -1   11.93    1.08
  18   1   2    0.01    0.20
  18   1   2   -0.15    0.18
 -18   1  -2   -0.18    0.20
 -18  -1  -2   -0.07    0.21
  18   1   3    8.60    0.81
 -18   1  -3    9.15    0.83
 -18  -1  -3    7.31    0.83
  18   1   4    0.04    0.22
 -18  -1  -4   -0.17    0.21
  18  -1   4    0.17    0.20
  18   1   5    5.52    0.60
  18  -1   5    4.50    0.56
 -18   2   5    0.05    0.24
  18   2  -5    0.11    0.25
  18  -2  -5   -0.07    0.24
 -18  -2   5   -0.10    0.26
  18   2  -4    4.37    0.58
 -18   2   4    4.10    0.56
 -18  -2   4    4.93    0.61
  18   2  -3    0.12    0.21
 -18   2   3    0.09    0.21
  18  -2  -3   -0.02    0.20
 -18  -2   3    0.24    0.26
 -18   2   2   10.22    1.00
  18   2  -2   11.90    1.00
 -18  -2   2   10.95    1.02
  18  -2  -2    9.87    0.98
 -18   2   1    0.06    0.19
  18   2  -1   -0.11    0.20
  18   2  -1    0.05    0.18
  18  -2  -1    0.10    0.16
 -18  -2   1   -0.04    0.22
  18   2   0    7.06    0.68
  18   2   0    6.74    0.64
 -18   2   0    6.44    0.67
  18  -2   0    6.83    0.63
 -18  -2   0    5.39    0.69
 -18   2  -1    0.01    0.19
  18   2   1   -0.20    0.18
  18   2   1   -0.11    0.19
 -18  -2  -1   -0.26    0.21
 -18   2  -2   10.50    1.00
  18   2   2   11.60    1.00
  18   2   2   10.80    1.00
 -18  -2  -2   10.77    1.04
  18   2   3   -0.23    0.18
  18   2   3    0.23    0.23
 -18  -2  -3   -0.14    0.23
  18   2   4    4.97    0.52
 -18  -2  -4    3.06    0.48
  18   2   5    0.48    0.27
 -18  -2  -5   -0.64    0.21
 -18   3   5    4.89    0.59
  18   3  -5    3.91    0.52
 -18  -3   5    4.18    0.55
  18  -3  -5    3.85    0.53
 -18   3   4    0.24    0.24
  18   3  -4    0.08    0.23
  18  -3  -4    0.04    0.22
 -18  -3   4   -0.18    0.27
 -18   3   3    5.38    0.62
  18   3  -3    6.10    0.63
 -18  -3   3    5.16    0.65
  18  -3  -3    4.61    0.59
  18   3  -2   -0.19    0.22
 -18   3   2    0.06    0.21
  18  -3  -2    0.10    0.18
 -18  -3   2   -0.10    0.26
  18   3  -1    7.38    0.78
 -18   3   1    7.82    0.77
  18   3  -1    7.68    0.73
  18  -3  -1    7.40    0.71
 -18  -3   1    7.84    0.81
 -18   3   0   -0.20    0.19
  18   3   0   -0.28    0.21
  18   3   0    0.18    0.19
 -18  -3   0   -0.42    0.22
  18  -3   0    0.05    0.14
  18   3   1    8.48    0.78
  18   3   1    7.77    0.74
 -18   3  -1    7.87    0.74
 -18  -3  -1    5.79    0.78
 -18   3  -2   -0.03    0.19
  18   3   2   -0.09    0.21
  18   3   2    0.24    0.22
 -18  -3  -2   -0.20    0.24
  18   3   3    4.87    0.54
  18   3   3    6.43    0.59
 -18  -3  -3    3.06    0.53
  18   3   4   -0.53    0.31
  18   3   4    0.44    0.26
 -18  -3  -4   -0.72    0.21
 -18  -3  -5    2.10    0.39
 -18  -3  -5    1.91    0.41
  18   4  -4    5.75    0.60
 -18   4   4    3.76    0.52
  18  -4  -4    3.91    0.50
 -18  -4   4    3.19    0.51
  18   4  -3    0.09    0.25
 -18   4   3   -0.08    0.24
  18  -4  -3    0.24    0.20
 -18  -4   3   -0.26    0.26
  18   4  -2    5.13    0.57
 -18   4   2    3.84    0.53
 -18  -4   2    3.07    0.51
  18  -4  -2    4.70    0.50
 -18   4   1   -0.02    0.23
  18   4  -1    0.14    0.26
  18   4  -1   -0.07    0.20
 -18  -4   1   -0.30    0.24
  18  -4  -1    0.07    0.16
  18   4   0    7.85    0.68
 -18   4   0    6.69    0.72
  18   4   0    7.62    0.74
 -18  -4   0    4.76    0.73
  18   4   1    0.14    0.25
  18   4   1    0.21    0.23
 -18   4  -1    0.02    0.21
 -18  -4  -1   -0.78    0.24
  18   4   2    4.95    0.55
  18   4   2    4.53    0.59
  18   4   3   -0.34    0.23
  18   4   3    0.18    0.25
 -18  -4  -3   -0.72    0.23
  18   4   4    4.23    0.50
 -18  -4  -4    2.42    0.47
 -18  -4  -4    3.04    0.47
 -18   5   3    2.26    0.39
 -18  -5   3    1.56    0.41
  18  -5  -3    2.96    0.37
 -18   5   2    0.02    0.24
  18   5  -2   -0.06    0.28
  18  -5  -2   -0.17    0.19
 -18  -5   2   -0.70    0.25
  18   5  -1    3.84    0.49
  18   5  -1    4.10    0.50
 -18   5   1    3.27    0.49
  18   5   0   -0.16    0.20
 -18   5   0    0.18    0.21
  18   5   0   -0.23    0.25
  18   5   1    3.78    0.47
  18   5   1    3.34    0.42
 -18  -5  -1    2.07    0.44
  18   5   2    0.12    0.24
  18   5   2   -0.15    0.25
 -18  -5  -2   -0.54    0.24
 -18  -5  -2   -0.67    0.26
  18   5   3    5.17    0.55
  18   5   3    3.81    0.47
 -18  -5  -3    2.83    0.49
 -18  -5  -3    2.66    0.49
 -18  -6   1   -0.75    0.27
 -18   6   0    2.83    0.41
  18   6   0    3.08    0.40
  18   6   0    2.93    0.44
 -18  -6   0    1.54    0.40
 -18  -6   0    1.29    0.40
 -18  -6  -1   -0.44    0.27
  19   0  -5    0.08    0.25
 -19   0   5    0.15    0.26
 -19   0   4    2.26    0.37
  19   0  -4    1.42    0.33
  19   0  -3    0.23    0.23
 -19   0   3    0.04    0.23
  19   0  -2    0.34    0.21
 -19   0   2    0.36    0.25
  19   0  -1    0.07    0.18
 -19   0   1   -0.03    0.23
 -19   0   0    2.04    0.34
  19   0   0    1.64    0.28
  19   0   1   -0.11    0.17
 -19   0  -1   -0.03    0.21
 -19   0  -2    0.45    0.25
  19   0   3    0.20    0.20
 -19   0  -3   -0.35    0.22
  19   0   4    2.24    0.34
 -19   0  -4    2.32    0.43
  19   0   5    0.29    0.24
  19   1  -5    1.69    0.36
 -19   1   5    1.72    0.36
 -19  -1   5    2.15    0.38
  19  -1  -5    2.01    0.38
 -19   1   4    0.20    0.24
  19   1  -4    0.24    0.24
 -19  -1   4    0.01    0.25
  19  -1  -4    0.32    0.25
  19   1  -3    1.29    0.29
 -19   1   3    1.49    0.32
 -19  -1   3    1.26    0.32
  19  -1  -3    1.62    0.30
 -19   1   2    0.07    0.23
  19   1  -2    0.05    0.20
  19  -1  -2    0.23    0.19
 -19  -1   2   -0.11    0.23
  19   1  -1    0.34    0.21
  19   1  -1    0.53    0.28
 -19   1   1    0.94    0.26
 -19  -1   1    0.52    0.26
  19  -1  -1    0.63    0.21
  19   1   0    0.03    0.20
  19   1   0   -0.01    0.18
 -19   1   0    0.06    0.21
  19  -1   0    0.03    0.17
 -19  -1   0   -0.15    0.23
  19   1   1    0.85    0.22
 -19   1  -1    0.67    0.25
  19   1   1    0.33    0.21
  19  -1   1    0.65    0.19
 -19  -1  -1    0.57    0.27
  19   1   2   -0.08    0.18
  19   1   2    0.42    0.22
 -19   1  -2   -0.18    0.21
 -19  -1  -2   -0.12    0.22
 -19   1  -3    1.41    0.30
  19   1   3    1.74    0.30
 -19  -1  -3    1.36    0.33
  19   1   4    0.43    0.24
 -19  -1  -4   -0.14    0.23
  19   1   5    2.38    0.37
 -19   2   4    1.62    0.33
  19   2  -4    1.64    0.33
  19  -2  -4    1.19    0.31
 -19  -2   4    2.08    0.37
 -19   2   3   -0.16    0.21
  19   2  -3    0.03    0.23
  19  -2  -3    0.00    0.22
 -19  -2   3    0.05    0.25
  19   2  -2    1.47    0.25
  19   2  -2    1.63    0.30
 -19   2   2    1.10    0.29
 -19  -2   2    1.02    0.30
  19  -2  -2    1.39    0.27
  19   2  -1   -0.04    0.21
  19   2  -1    0.12    0.17
 -19   2   1   -0.06    0.20
  19  -2  -1   -0.04    0.17
 -19  -2   1    0.04    0.23
  19   2   0    0.64    0.24
  19   2   0    0.66    0.21
 -19   2   0    0.61    0.24
 -19  -2   0    0.28    0.24
  19  -2   0    0.41    0.18
  19   2   1   -0.19    0.21
  19   2   1    0.08    0.20
 -19   2  -1   -0.03    0.20
 -19  -2  -1   -0.37    0.24
  19   2   2    1.48    0.28
  19   2   2    1.81    0.30
 -19   2  -2    1.41    0.29
 -19  -2  -2    1.28    0.32
  19   2   3   -0.17    0.18
  19   2   3    0.31    0.22
 -19  -2  -3   -0.15    0.25
  19   2   4    1.73    0.32
 -19  -2  -4    0.86    0.32
 -19   3   4    0.04    0.23
  19   3  -4    0.08    0.26
  19  -3  -4    0.13    0.23
 -19  -3   4   -0.39    0.28
  19   3  -3    1.34    0.31
 -19   3   3    1.32    0.31
  19  -3  -3    1.13    0.29
 -19  -3   3    1.04    0.33
 -19   3   2    0.09    0.22
  19   3  -2    0.18    0.24
 -19  -3   2   -0.17    0.27
  19  -3  -2    0.03    0.20
 -19   3   1    1.32    0.29
  19   3  -1    1.59    0.28
  19   3  -1    1.48    0.31
  19  -3  -1    1.53    0.24
 -19  -3   1    1.32    0.34
  19   3   0    0.26    0.20
 -19   3   0   -0.13    0.19
  19   3   0   -0.05    0.22
 -19  -3   0   -0.26    0.24
  19   3   1    1.62    0.28
  19   3   1    1.54    0.31
 -19   3  -1    1.18    0.28
 -19  -3  -1    1.32    0.33
  19   3   2    0.14    0.22
  19   3   2   -0.13    0.22
 -19  -3  -2   -0.46    0.25
  19   3   3    1.17    0.28
  19   3   3    1.69    0.33
 -19  -3  -3    0.74    0.32
  19   3   4   -0.10    0.25
 -19  -3  -4   -0.78    0.23
  19   4  -3    0.12    0.26
 -19   4   3    0.06    0.26
 -19  -4   3    0.11    0.29
  19  -4  -3    0.07    0.21
 -19   4   2    1.25    0.32
  19   4  -2    1.50    0.32
 -19  -4   2    0.76    0.33
  19  -4  -2    1.44    0.26
  19   4  -1   -0.05    0.26
 -19   4   1   -0.11    0.23
  19   4  -1    0.15    0.21
 -19  -4   1   -0.15    0.26
 -19   4   0    1.59    0.32
  19   4   0    2.02    0.36
  19   4   0    2.01    0.31
 -19  -4   0    1.17    0.35
  19   4   1   -0.24    0.24
 -19   4  -1   -0.22    0.21
  19   4   1    0.10    0.22
 -19  -4  -1   -0.15    0.30
  19   4   2    1.83    0.30
  19   4   2    0.81    0.29
 -19  -4  -2    0.35    0.32
  19   4   3   -0.20    0.23
  19   4   3    0.09    0.23
 -19  -4  -3   -0.63    0.25
 -19  -4  -3   -0.32    0.28
  19   5  -1    1.80    0.31
 -19   5   1    1.28    0.33
  19   5  -1    1.82    0.34
 -19  -5   1    0.27    0.32
  19   5   0   -0.04    0.21
 -19   5   0    0.28    0.24
  19   5   0   -0.19    0.27
 -19  -5   0   -0.71    0.26
  19   5   1    1.79    0.35
  19   5   1    1.67    0.32
 -19  -5  -1    0.25    0.32
 -19  -5  -1    0.32    0.33
  20   0  -3    0.01    0.21
 -20   0   3    0.02    0.25
 -20   0   2    0.06    0.24
  20   0  -2    0.21    0.21
 -20   0   1   -0.01    0.24
  20   0  -1   -0.04    0.19
 -20   0   0    1.09    0.28
  20   0   0    0.78    0.23
  20   0   1    0.05    0.18
 -20   0  -1   -0.07    0.23
 -20   0  -2    0.07    0.24
 -20   0  -3    0.11    0.23
 -20   1   3    0.34    0.26
  20   1  -3    0.62    0.26
  20  -1  -3    0.61    0.25
 -20  -1   3    0.28    0.27
  20   1  -2   -0.04    0.21
 -20   1   2    0.02    0.25
 -20  -1   2    0.10    0.25
  20  -1  -2    0.15    0.20
 -20   1   1    0.33    0.25
  20   1  -1    0.49    0.23
  20  -1  -1    0.50    0.20
 -20  -1   1    0.40    0.27
  20   1   0    0.22    0.22
 -20   1   0   -0.03    0.23
  20  -1   0    0.11    0.18
 -20  -1   0   -0.15    0.24
 -20   1  -1    0.65    0.26
  20   1   1    0.40    0.23
 -20  -1  -1    0.32    0.26
  20   1   2    0.01    0.20
  20   1   2    0.34    0.22
 -20   1  -2   -0.16    0.23
 -20  -1  -2    0.09    0.23
 -20   1  -3    0.52    0.28
  20   1   3    0.63    0.25
 -20  -1  -3    0.28    0.28
  20   2  -3   -0.07    0.24
 -20   2   3    0.10    0.24
 -20  -2   3   -0.19    0.26
  20  -2  -3    0.05    0.22
  20   2  -2    0.62    0.26
 -20   2   2    0.75    0.27
  20  -2  -2    0.50    0.21
 -20  -2   2    0.59    0.28
  20   2  -1    0.08    0.18
  20   2  -1   -0.15    0.21
 -20   2   1    0.09    0.23
 -20  -2   1   -0.09    0.23
  20  -2  -1    0.06    0.17
  20   2   0    0.11    0.22
  20   2   0    0.14    0.18
 -20   2   0    0.18    0.22
 -20  -2   0    0.04    0.25
  20  -2   0    0.08    0.20
  20   2   1    0.32    0.20
 -20   2  -1   -0.11    0.23
  20   2   1    0.03    0.22
 -20  -2  -1   -0.05    0.26
  20   2   2    0.54    0.24
 -20   2  -2    0.55    0.26
  20   2   2    1.00    0.28
 -20  -2  -2    0.60    0.30
  20   2   3    0.26    0.24
 -20  -2  -3   -0.18    0.26
  20   3  -2    0.06    0.20
 -20   3   2    0.31    0.23
  20   3  -2    0.00    0.25
 -20  -3   2   -0.28    0.29
  20  -3  -2   -0.04    0.18
  20   3  -1    0.38    0.27
  20   3  -1    0.58    0.22
 -20   3   1    0.43    0.24
 -20  -3   1    0.28    0.30
  20  -3  -1    0.32    0.18
 -20   3   0   -0.01    0.21
  20   3   0   -0.12    0.23
  20   3   0    0.19    0.22
 -20  -3   0   -0.07    0.28
  20   3   1    0.33    0.26
  20   3   1    0.81    0.25
 -20   3  -1    0.50    0.24
 -20  -3  -1    0.18    0.29
  20   3   2   -0.29    0.24
  20   3   2    0.19    0.23
 -20  -3  -2   -0.41    0.28
  21   0  -2    8.69    0.86
 -21   0   2    9.25    0.92
 -21   0   1    0.17    0.25
  21   0  -1   -0.11    0.21
 -21   0   0   13.34    1.28
  21   0   0   14.29    1.23
 -21   0  -1   -0.07    0.25
 -21   0  -2    9.36    0.94
 -21   1   1    8.82    0.90
  21   1  -1    8.17    0.86
 -21  -1   1    9.56    0.92
  21  -1  -1    9.12    0.84
 -21   1   0   -0.16    0.23
  21   1   0   -0.20    0.21
  21  -1   0   -0.15    0.19
 -21  -1   0    0.04    0.28
 -21   1  -1    9.55    0.93
  21   1   1    8.97    0.88
 -21  -1  -1    9.48    0.94
  21   2   0    8.60    0.87
 -21   2   0    8.66    0.89
 -21  -2   0    9.57    0.94
   0   0   0    0.00    0.00
;
_shelx_hkl_checksum              56777
_olex2_submission_special_instructions 'No special instructions were received'
loop_
_space_group_symop_operation_xyz
'x, y, z'
'x, -y, z+1/2'
loop_
_atom_site_label
_atom_site_type_symbol
_atom_site_fract_x
_atom_site_fract_y
_atom_site_fract_z
_atom_site_U_iso_or_equiv
_atom_site_adp_type
_atom_site_occupancy
_atom_site_site_symmetry_order
_atom_site_calc_flag
_atom_site_refinement_flags_posn
_atom_site_refinement_flags_adp
_atom_site_refinement_flags_occupancy
_atom_site_disorder_assembly
_atom_site_disorder_group
Pb1 Pb 1.41962(3) 0.24995(11) 0.96558(5) 0.0352(3) Uani 1 1 d . . . . .
Pb2 Pb 1.03983(3) 0.24996(11) 0.96556(5) 0.0359(3) Uani 1 1 d . . . . .
Br3 Br 1.0415(4) 0.4746(7) 0.6901(8) 0.090(2) Uani 1 1 d . . . . .
Br4 Br 1.4196(4) 0.4747(8) 0.6895(8) 0.090(2) Uani 1 1 d . . . . .
Br5 Br 1.4195(4) -0.0284(7) 0.7438(7) 0.0830(19) Uani 1 1 d . . . . .
Br6 Br 1.0418(4) -0.0287(7) 0.7435(7) 0.0833(19) Uani 1 1 d . . . . .
Br7 Br 1.2297(5) 0.2507(5) 0.9655(13) 0.0768(7) Uani 1 1 d . . . . .
Br10 Br 0.8568(4) 0.2500(6) 0.9665(11) 0.144(4) Uani 1 1 d . . . . .
Br11 Br 1.5988(3) 0.2504(6) 0.9660(11) 0.160(5) Uani 1 1 d . . . . .
N1 N 0.887(4) 0.208(6) 0.535(7) 0.311(12) Uiso 1 1 d D . . . .
H1C H 0.9217 0.1378 0.4934 0.373 Uiso 1 1 calc GR . . . .
H1A H 0.8476 0.1577 0.5910 0.373 Uiso 1 1 calc GR . . . .
H1B H 0.9145 0.2740 0.5986 0.373 Uiso 1 1 calc GR . . . .
N3 N 0.576(4) 0.232(6) 0.514(8) 0.311(12) Uiso 1 1 d D . . . .
H3B H 0.5642 0.2728 0.6088 0.373 Uiso 1 1 calc R . . . .
H3A H 0.5286 0.1934 0.4726 0.373 Uiso 1 1 calc R . . . .
C2 C 0.612(4) 0.357(5) 0.407(8) 0.311(12) Uiso 1 1 d D . . . .
H2B H 0.5974 0.3278 0.2986 0.373 Uiso 1 1 calc R . . . .
H2A H 0.5832 0.4553 0.4300 0.373 Uiso 1 1 calc R . . . .
C3 C 0.704(4) 0.391(5) 0.409(7) 0.311(12) Uiso 1 1 d D . . . .
H3C H 0.7181 0.4550 0.3166 0.373 Uiso 1 1 calc R . . . .
H3D H 0.7171 0.4533 0.5029 0.373 Uiso 1 1 calc R . . . .
C4 C 0.755(4) 0.245(5) 0.409(7) 0.311(12) Uiso 1 1 d D . . . .
H4 H 0.7433 0.1816 0.3136 0.373 Uiso 1 1 calc R . . . .
C5 C 0.727(4) 0.157(6) 0.556(7) 0.311(12) Uiso 1 1 d D . . . .
H5A H 0.7631 0.0659 0.5754 0.373 Uiso 1 1 calc R . . . .
H5B H 0.7300 0.2262 0.6482 0.373 Uiso 1 1 calc R . . . .
C6 C 0.639(4) 0.102(5) 0.530(7) 0.311(12) Uiso 1 1 d D . . . .
H6A H 0.6370 0.0381 0.4343 0.373 Uiso 1 1 calc R . . . .
H6B H 0.6224 0.0349 0.6180 0.373 Uiso 1 1 calc R . . . .
C7 C 0.846(4) 0.300(7) 0.406(9) 0.311(12) Uiso 1 1 d D . . . .
H7B H 0.8723 0.2770 0.3047 0.373 Uiso 1 1 calc R . . . .
H7A H 0.8503 0.4133 0.4266 0.373 Uiso 1 1 calc R . . . .
N2 N 1.233(4) 0.190(6) 0.539(6) 0.174(8) Uiso 1 1 d D . . . .
C8 C 1.228(4) 0.318(6) 0.417(8) 0.174(8) Uiso 1 1 d D . . . .
loop_
_atom_site_aniso_label
_atom_site_aniso_U_11
_atom_site_aniso_U_22
_atom_site_aniso_U_33
_atom_site_aniso_U_23
_atom_site_aniso_U_13
_atom_site_aniso_U_12
Pb1 0.0379(6) 0.0288(4) 0.0391(5) -0.0004(4) -0.0003(5) -0.0003(4)
Pb2 0.0421(7) 0.0376(5) 0.0279(4) 0.0005(4) 0.0001(4) 0.0002(4)
Br3 0.110(4) 0.079(4) 0.081(5) 0.051(4) -0.001(3) -0.006(4)
Br4 0.109(4) 0.083(4) 0.077(5) 0.050(3) 0.010(3) 0.004(4)
Br5 0.109(4) 0.070(4) 0.070(4) -0.039(3) -0.012(3) 0.009(3)
Br6 0.111(4) 0.067(3) 0.072(4) -0.041(3) 0.002(3) -0.007(3)
Br7 0.0340(9) 0.098(2) 0.0984(19) 0.0003(8) -0.0004(10) 0.0000(7)
Br10 0.041(3) 0.196(9) 0.196(10) -0.026(4) 0.001(4) 0.001(3)
Br11 0.032(2) 0.228(10) 0.218(11) 0.027(5) -0.005(4) -0.003(3)
loop_
_atom_type_symbol
_atom_type_description
_atom_type_scat_dispersion_real
_atom_type_scat_dispersion_imag
_atom_type_scat_source
C C 0.0033 0.0016 'International Tables Vol C Tables 4.2.6.8 and 6.1.1.4'
H H 0.0000 0.0000 'International Tables Vol C Tables 4.2.6.8 and 6.1.1.4'
N N 0.0061 0.0033 'International Tables Vol C Tables 4.2.6.8 and 6.1.1.4'
Br Br -0.2901 2.4595 'International Tables Vol C Tables 4.2.6.8 and 6.1.1.4'
Pb Pb -3.3944 10.1111 'International Tables Vol C Tables 4.2.6.8 and 6.1.1.4'
loop_
_geom_angle_atom_site_label_1
_geom_angle_atom_site_label_2
_geom_angle_atom_site_label_3
_geom_angle
_geom_angle_site_symmetry_1
_geom_angle_site_symmetry_3
_geom_angle_publ_flag
Br4 Pb1 Br4 89.96(3) 2_565 . ?
Br4 Pb1 Br5 90.6(2) . . ?
Br4 Pb1 Br5 89.4(2) 2_565 2 ?
Br4 Pb1 Br5 179.4(2) 2_565 . ?
Br4 Pb1 Br7 89.9(2) . . ?
Br4 Pb1 Br7 89.9(2) 2_565 . ?
Br5 Pb1 Br4 179.4(2) 2 . ?
Br5 Pb1 Br5 90.00(3) 2 . ?
Br5 Pb1 Br7 90.1(2) 2 . ?
Br5 Pb1 Br7 90.08(19) . . ?
Br11 Pb1 Br4 90.0(2) . . ?
Br11 Pb1 Br4 89.9(2) . 2_565 ?
Br11 Pb1 Br5 90.03(19) . 2 ?
Br11 Pb1 Br5 90.1(2) . . ?
Br11 Pb1 Br7 179.8(2) . . ?
Br3 Pb2 Br3 89.97(3) 2_565 . ?
Br3 Pb2 Br6 90.7(2) . . ?
Br3 Pb2 Br6 178.7(2) 2_565 . ?
Br3 Pb2 Br7 89.4(2) . . ?
Br3 Pb2 Br7 89.41(19) 2_565 . ?
Br6 Pb2 Br3 89.3(2) 2 2_565 ?
Br6 Pb2 Br3 178.7(2) 2 . ?
Br6 Pb2 Br6 90.01(3) 2 . ?
Br6 Pb2 Br7 89.48(19) . . ?
Br6 Pb2 Br7 89.5(2) 2 . ?
Br10 Pb2 Br3 90.65(19) . . ?
Br10 Pb2 Br3 90.41(18) . 2_565 ?
Br10 Pb2 Br6 90.5(2) . 2 ?
Br10 Pb2 Br6 90.70(17) . . ?
Br10 Pb2 Br7 179.8(3) . . ?
Pb2 Br3 Pb2 168.4(3) 2_564 . ?
Pb1 Br4 Pb1 168.3(3) 2_564 . ?
Pb1 Br5 Pb1 167.1(2) 2_554 . ?
Pb2 Br6 Pb2 167.0(2) 2_554 . ?
Pb1 Br7 Pb2 179.7(2) . . ?
H1C N1 H1A 106.3 . . ?
H1C N1 H1B 106.4 . . ?
H1A N1 H1B 106.6 . . ?
C7 N1 H1C 112.8 . . ?
C7 N1 H1A 112.5 . . ?
C7 N1 H1B 111.8 . . ?
H3B N3 H3A 108.5 . . ?
C2 N3 H3B 109.9 . . ?
C2 N3 H3A 110.2 . . ?
C6 N3 H3B 110.4 . . ?
C6 N3 H3A 110.1 . . ?
C6 N3 C2 108(3) . . ?
N3 C2 H2B 107.1 . . ?
N3 C2 H2A 107.5 . . ?
H2B C2 H2A 106.8 . . ?
C3 C2 N3 121(3) . . ?
C3 C2 H2B 106.8 . . ?
C3 C2 H2A 107.3 . . ?
C2 C3 H3C 109.4 . . ?
C2 C3 H3D 108.8 . . ?
H3C C3 H3D 107.9 . . ?
C4 C3 C2 112(3) . . ?
C4 C3 H3C 109.1 . . ?
C4 C3 H3D 109.1 . . ?
C3 C4 H4 109.9 . . ?
C3 C4 C5 104(3) . . ?
C3 C4 C7 106(3) . . ?
C5 C4 H4 110.0 . . ?
C5 C4 C7 116(5) . . ?
C7 C4 H4 110.3 . . ?
C4 C5 H5A 110.2 . . ?
C4 C5 H5B 110.1 . . ?
H5A C5 H5B 108.4 . . ?
C6 C5 C4 108(3) . . ?
C6 C5 H5A 110.0 . . ?
C6 C5 H5B 110.2 . . ?
N3 C6 C5 115(3) . . ?
N3 C6 H6A 108.6 . . ?
N3 C6 H6B 108.1 . . ?
C5 C6 H6A 108.5 . . ?
C5 C6 H6B 108.4 . . ?
H6A C6 H6B 107.5 . . ?
N1 C7 C4 104(3) . . ?
N1 C7 H7B 110.8 . . ?
N1 C7 H7A 111.2 . . ?
C4 C7 H7B 110.6 . . ?
C4 C7 H7A 111.1 . . ?
H7B C7 H7A 108.9 . . ?
loop_
_geom_bond_atom_site_label_1
_geom_bond_atom_site_label_2
_geom_bond_distance
_geom_bond_site_symmetry_2
_geom_bond_publ_flag
Pb1 Br4 2.987(6) 2_565 ?
Pb1 Br4 2.997(6) . ?
Pb1 Br5 2.993(6) 2 ?
Pb1 Br5 2.996(6) . ?
Pb1 Br7 3.041(9) . ?
Pb1 Br11 2.869(5) . ?
Pb2 Br3 2.992(6) . ?
Pb2 Br3 2.991(6) 2_565 ?
Pb2 Br6 3.000(6) . ?
Pb2 Br6 2.990(6) 2 ?
Pb2 Br7 3.041(9) . ?
Pb2 Br10 2.931(5) . ?
Br3 Pb2 2.991(6) 2_564 ?
Br4 Pb1 2.987(6) 2_564 ?
Br5 Pb1 2.993(6) 2_554 ?
Br6 Pb2 2.990(6) 2_554 ?
N1 H1C 0.9190 . ?
N1 H1A 0.9197 . ?
N1 H1B 0.9176 . ?
N1 C7 1.48(3) . ?
N3 H3B 0.8900 . ?
N3 H3A 0.8900 . ?
N3 C2 1.504(19) . ?
N3 C6 1.487(19) . ?
C2 H2B 0.9700 . ?
C2 H2A 0.9700 . ?
C2 C3 1.502(19) . ?
C3 H3C 0.9700 . ?
C3 H3D 0.9700 . ?
C3 C4 1.484(16) . ?
C4 H4 0.9800 . ?
C4 C5 1.518(19) . ?
C4 C7 1.53(2) . ?
C5 H5A 0.9700 . ?
C5 H5B 0.9700 . ?
C5 C6 1.508(19) . ?
C6 H6A 0.9700 . ?
C6 H6B 0.9700 . ?
C7 H7B 0.9700 . ?
C7 H7A 0.9700 . ?
N2 C8 1.49(2) . ?
loop_
_geom_torsion_atom_site_label_1
_geom_torsion_atom_site_label_2
_geom_torsion_atom_site_label_3
_geom_torsion_atom_site_label_4
_geom_torsion
_geom_torsion_site_symmetry_1
_geom_torsion_site_symmetry_2
_geom_torsion_site_symmetry_3
_geom_torsion_site_symmetry_4
_geom_torsion_publ_flag
N3 C2 C3 C4 45(7) . . . . ?
C2 N3 C6 C5 44(7) . . . . ?
C2 C3 C4 C5 -58(6) . . . . ?
C2 C3 C4 C7 178(6) . . . . ?
C3 C4 C5 C6 68(5) . . . . ?
C3 C4 C7 N1 131(5) . . . . ?
C4 C5 C6 N3 -65(6) . . . . ?
C5 C4 C7 N1 16(7) . . . . ?
C6 N3 C2 C3 -34(7) . . . . ?
C7 C4 C5 C6 -176(5) . . . . ?
