#------------------------------------------------------------------------------
#$Date: 2020-12-31 02:04:13 +0200 (Thu, 31 Dec 2020) $
#$Revision: 260270 $
#$URL: file:///home/coder/svn-repositories/cod/cif/4/13/54/4135453.cif $
#------------------------------------------------------------------------------
#
# This file is available in the Crystallography Open Database (COD),
# http://www.crystallography.net/
#
# All data on this site have been placed in the public domain by the
# contributors.
#
data_4135453
loop_
_publ_author_name
'Bhowal, Rohit'
'Balaraman, Anina Anju'
'Ghosh, Manasi'
'Dutta, Soma'
'Dey, Krishna Kishor'
'Chopra, Deepak'
_publ_section_title
;
 Probing Atomistic Behavior To Unravel Dielectric Phenomena in Charge
 Transfer Cocrystals
;
_journal_name_full               'Journal of the American Chemical Society'
_journal_paper_doi               10.1021/jacs.0c11459
_journal_year                    2020
_chemical_formula_moiety         'C16 H20 N2, C10 H2 N4'
_chemical_formula_sum            'C26 H22 N6'
_chemical_formula_weight         418.49
_space_group_crystal_system      triclinic
_space_group_IT_number           2
_space_group_name_Hall           '-P 1'
_space_group_name_H-M_alt        'P -1'
_atom_sites_solution_hydrogens   difmap
_audit_creation_date             2020-10-21
_audit_creation_method
;
Olex2 1.3
(compiled 2020.02.04 svn.rd84adfe8 for OlexSys, GUI svn.r6032)
;
_cell_angle_alpha                107.040(6)
_cell_angle_beta                 91.240(6)
_cell_angle_gamma                97.381(6)
_cell_formula_units_Z            1
_cell_length_a                   7.1434(6)
_cell_length_b                   8.2482(7)
_cell_length_c                   10.0068(9)
_cell_measurement_reflns_used    1883
_cell_measurement_temperature    298.15
_cell_measurement_theta_max      21.23
_cell_measurement_theta_min      2.61
_cell_volume                     557.95(9)
_computing_cell_refinement       'SAINT v8.37A (Bruker, 2015)'
_computing_data_reduction        'SAINT v8.37A (Bruker, 2015)'
_computing_molecular_graphics    'Olex2 1.3 (Dolomanov et al., 2009)'
_computing_publication_material  'Olex2 1.3 (Dolomanov et al., 2009)'
_computing_structure_refinement  'XL  (Sheldrick, 2008)'
_computing_structure_solution    'SHELXT 2014/5 (Sheldrick, 2014)'
_diffrn_ambient_temperature      298.15
_diffrn_measured_fraction_theta_full 0.991
_diffrn_measured_fraction_theta_max 0.973
_diffrn_measurement_device_type  'Bruker APEX-II CCD'
_diffrn_measurement_method       '\f and \w scans'
_diffrn_radiation_type           MoK\a
_diffrn_radiation_wavelength     0.71073
_diffrn_reflns_av_R_equivalents  0.0417
_diffrn_reflns_av_unetI/netI     0.0661
_diffrn_reflns_Laue_measured_fraction_full 0.991
_diffrn_reflns_Laue_measured_fraction_max 0.973
_diffrn_reflns_limit_h_max       9
_diffrn_reflns_limit_h_min       -9
_diffrn_reflns_limit_k_max       9
_diffrn_reflns_limit_k_min       -11
_diffrn_reflns_limit_l_max       13
_diffrn_reflns_limit_l_min       -13
_diffrn_reflns_number            9900
_diffrn_reflns_point_group_measured_fraction_full 0.991
_diffrn_reflns_point_group_measured_fraction_max 0.973
_diffrn_reflns_theta_full        25.242
_diffrn_reflns_theta_max         29.575
_diffrn_reflns_theta_min         2.133
_diffrn_source_current           30.0
_diffrn_source_power             1.5
_diffrn_source_voltage           50.0
_diffrn_standards_number         0
_exptl_absorpt_coefficient_mu    0.077
_exptl_absorpt_correction_T_max  0.7460
_exptl_absorpt_correction_T_min  0.7115
_exptl_absorpt_correction_type   multi-scan
_exptl_absorpt_process_details
;
SADABS-2014/5 (Bruker,2014/5) was used for absorption correction.
wR2(int) was 0.0892 before and 0.0496 after correction.
The Ratio of minimum to maximum transmission is 0.9538.
The \l/2 correction factor is 0.00150.
;
_exptl_crystal_colour            'clear dark orange'
_exptl_crystal_colour_lustre     clear
_exptl_crystal_colour_modifier   dark
_exptl_crystal_colour_primary    orange
_exptl_crystal_density_diffrn    1.245
_exptl_crystal_description       needle
_exptl_crystal_F_000             220
_exptl_crystal_size_max          0.41
_exptl_crystal_size_mid          0.12
_exptl_crystal_size_min          0.03
_refine_diff_density_max         0.153
_refine_diff_density_min         -0.163
_refine_diff_density_rms         0.034
_refine_ls_extinction_method     none
_refine_ls_goodness_of_fit_ref   0.956
_refine_ls_hydrogen_treatment    refall
_refine_ls_matrix_type           full
_refine_ls_number_parameters     189
_refine_ls_number_reflns         3040
_refine_ls_number_restraints     0
_refine_ls_restrained_S_all      0.956
_refine_ls_R_factor_all          0.1325
_refine_ls_R_factor_gt           0.0526
_refine_ls_shift/su_max          0.000
_refine_ls_shift/su_mean         0.000
_refine_ls_structure_factor_coef Fsqd
_refine_ls_weighting_details
'w=1/[\s^2^(Fo^2^)+(0.0744P)^2^] where P=(Fo^2^+2Fc^2^)/3'
_refine_ls_weighting_scheme      calc
_refine_ls_wR_factor_gt          0.1228
_refine_ls_wR_factor_ref         0.1614
_reflns_Friedel_coverage         0.000
_reflns_number_gt                1347
_reflns_number_total             3040
_reflns_threshold_expression     'I > 2\s(I)'
_cod_data_source_file            CC6_300K.cif
_cod_data_source_block           cc6_300k
_cod_database_code               4135453
_shelx_shelxl_version_number     2018/3
_shelx_space_group_comment
;
The symmetry employed for this shelxl refinement is uniquely defined
by the following loop, which should always be used as a source of
symmetry information in preference to the above space-group names.
They are only intended as comments.
;
_shelx_estimated_absorpt_t_max   0.998
_shelx_estimated_absorpt_t_min   0.969
_olex2_refinement_description
;
;
_shelx_res_file
;
TITL TRI2_a.res in P-1
    cc6_300k.res
    created by SHELXL-2018/3 at 11:27:14 on 21-Oct-2020
CELL 0.71073 7.1434 8.2482 10.0068 107.04 91.24 97.381
ZERR 1 0.0006 0.0007 0.0009 0.006 0.006 0.006
LATT 1
SFAC C H N
UNIT 26 22 6

L.S. 10
PLAN  5
SIZE 0.41 0.12 0.03
TEMP 25
CONF
BOND $H
LIST 6
MORE -1
fmap 2
acta
MERG 2
OMIT 0 -1 1
OMIT -4 6 5
REM <olex2.extras>
REM <HklSrc "%.\\CC6_300K.hkl">
REM </olex2.extras>

WGHT    0.074400
FVAR       2.15982
N2    3    0.616350    0.504472    0.161725    11.00000    0.10132    0.04592 =
         0.10094    0.00479   -0.01431    0.00407
N3    3    0.725333    0.203403    0.387599    11.00000    0.10402    0.06553 =
         0.05868    0.00661   -0.01399    0.00728
C10   1    0.537358    0.176712    0.056968    11.00000    0.05803    0.03836 =
         0.05142    0.00495   -0.00004    0.00636
C9    1    0.583157    0.069281    0.134084    11.00000    0.05729    0.04343 =
         0.04755    0.00531   -0.00152    0.00595
C12   1    0.579347    0.359668    0.116341    11.00000    0.07126    0.04329 =
         0.06507    0.00737   -0.00631    0.00599
C11   1    0.453186    0.107055   -0.076964    11.00000    0.06482    0.04348 =
         0.05602    0.01041   -0.00262    0.00720
C4    1    0.037788    0.062077    0.067887    11.00000    0.05293    0.03957 =
         0.05270    0.00530   -0.00301    0.00586
N1    3    0.256009    0.413461    0.454172    11.00000    0.11149    0.05937 =
         0.06763   -0.00570   -0.02484    0.00512
C6    1    0.171857    0.121866    0.307131    11.00000    0.05838    0.05190 =
         0.05590    0.01029   -0.00454    0.00660
C5    1    0.098736    0.009522    0.179956    11.00000    0.06044    0.03908 =
         0.05864    0.00837   -0.00286    0.00563
C3    1    0.054465    0.238989    0.091673    11.00000    0.06932    0.03806 =
         0.06174    0.00697   -0.00947    0.00666
C13   1    0.665250    0.143445    0.274892    11.00000    0.07186    0.04794 =
         0.05788    0.00957   -0.00417    0.00574
C2    1    0.124865    0.356845    0.217521    11.00000    0.06951    0.03788 =
         0.06370    0.00323   -0.00798    0.00406
C1    1    0.184731    0.298762    0.326959    11.00000    0.06110    0.04816 =
         0.05589    0.00015   -0.00760    0.00311
C8    1    0.232086    0.058858    0.425575    11.00000    0.09230    0.07146 =
         0.06779    0.02136   -0.01241    0.00264
C7    1    0.133998    0.545682    0.236750    11.00000    0.11023    0.03805 =
         0.09111    0.00375   -0.01816    0.00579
H11   2    0.423406    0.179171   -0.128436    11.00000    0.06196
H5    2    0.089662   -0.112754    0.174457    11.00000    0.05996
H8A   2    0.204615   -0.064793    0.399804    11.00000    0.11481
H7A   2    0.092478    0.574757    0.151061    11.00000    0.15144
H7B   2    0.266870    0.610831    0.268421    11.00000    0.12706
H3    2    0.012490    0.279153    0.014137    11.00000    0.07753
H8B   2    0.158099    0.104778    0.515319    11.00000    0.11460
H8C   2    0.365597    0.095531    0.456684    11.00000    0.11018
H7C   2    0.060930    0.603066    0.316191    11.00000    0.12732
H1A   2    0.293948    0.374491    0.528277    11.00000    0.14557
H1B   2    0.246433    0.528395    0.462325    11.00000    0.11073
HKLF 4




REM  TRI2_a.res in P-1
REM wR2 = 0.161352, GooF = S = 0.95630, Restrained GooF = 0.95630 for all data
REM R1 = 0.052600 for 1347 Fo > 4sig(Fo) and 0.132536 for all 3040 data
REM 189 parameters refined using 0 restraints

END

WGHT      0.0744      0.0000

REM Highest difference peak  0.153,  deepest hole -0.163,  1-sigma level  0.034
Q1    1   0.0108  0.5564  0.1942  11.00000  0.05    0.15
Q2    1   0.2135  0.6354  0.3640  11.00000  0.05    0.13
Q3    1   0.3057  0.5063  0.4536  11.00000  0.05    0.12
Q4    1   0.6227  0.3751  0.3240  11.00000  0.05    0.12
Q5    1   0.1524  0.5170  0.2479  11.00000  0.05    0.11
;
_shelx_res_checksum              46122
_shelx_hkl_file
;
  -1   0   0   16.70    2.40
  -1   0   0   24.30    3.30
  -1   0   0   19.90    2.80
  -1   0   0   20.60    2.90
  -1   0   0   20.10    2.80
  -1   0   0   24.00    2.70
   1   0   0   20.30    2.80
   1   0   0   31.10    3.90
   1   0   0   32.30    3.40
   1   0   0   20.80    2.90
   1   0   0   24.50    3.40
  -2   0   0   17.50    4.00
  -2   0   0   21.10    4.10
  -2   0   0   20.40    3.80
  -2   0   0   14.00    3.50
  -2   0   0   23.20    3.80
  -2   0   0   21.40    4.40
   2   0   0   19.10    4.20
   2   0   0   27.20    5.10
   2   0   0   19.90    3.80
   2   0   0   15.80    3.80
   2   0   0   20.90    4.00
   2   0   0   14.70    3.70
  -3   0   0  416.76   19.90
  -3   0   0  416.46   21.00
  -3   0   0  395.66   19.10
  -3   0   0  371.66   18.60
  -3   0   0  392.96   18.50
   3   0   0  392.66   20.60
   3   0   0  403.56   20.70
   3   0   0  400.36   21.00
   3   0   0  402.66   18.90
   3   0   0  442.86   21.40
  -4   0   0   54.19    8.80
  -4   0   0   51.29    8.90
  -4   0   0   79.09   10.00
  -4   0   0   67.19    9.50
  -4   0   0   68.39    9.20
  -4   0   0   62.09    9.30
   4   0   0   59.89   10.00
   4   0   0   48.50    9.10
   4   0   0   71.09    9.60
   4   0   0   52.49    9.40
   4   0   0   54.09    9.20
  -5   0   0   23.80    7.10
  -5   0   0   29.70    6.90
  -5   0   0   33.10    7.70
  -5   0   0   37.10    8.00
   5   0   0   28.10    8.40
   5   0   0   17.50    5.30
   5   0   0   34.80    9.60
  -6   0   0   42.70    9.20
  -6   0   0   36.50    9.00
  -6   0   0   54.89   10.90
  -6   0   0   36.50    9.80
   6   0   0   48.40   11.60
   6   0   0   53.49   11.90
  -7   0   0   24.00    8.20
  -7   0   0    1.10    5.40
  -7   0   0    7.60    6.50
  -8   0   0   11.60    7.30
  -8   0   0    9.00    8.40
  -8   0   0   13.10    8.30
  -9   0   0   -6.60    6.40
  -9   0   0   14.80    8.30
  -9   1   0    1.70    6.90
  -9   1   0    6.40    9.20
  -9   1   0    1.60    6.60
  -8   1   0    0.30    4.60
  -8   1   0    9.90    7.00
  -8   1   0    7.20    7.90
  -7   1   0    7.40    5.70
  -7   1   0    3.80    5.40
  -7   1   0    4.60    5.30
   6  -1   0   38.90    9.50
   6  -1   0   53.79   12.00
   6  -1   0   48.70   11.10
  -6   1   0   46.90   10.60
  -6   1   0   98.09   13.50
  -6   1   0   69.89   12.10
   5  -1   0    8.10    5.00
   5  -1   0    1.10    4.30
   5  -1   0    5.80    4.80
  -5   1   0    8.70    4.40
  -5   1   0    7.90    4.60
  -5   1   0   10.00    4.40
  -5   1   0    6.20    4.10
  -5   1   0    9.30    4.20
   4  -1   0   88.39   11.30
   4  -1   0   94.09   11.20
   4  -1   0   83.29   10.90
   4  -1   0   87.49   11.00
  -4   1   0   85.09   11.80
  -4   1   0   89.69   11.40
  -4   1   0   60.39    8.70
  -4   1   0   99.39   11.10
   3  -1   0    3.90    2.30
   3  -1   0    2.30    2.90
   3  -1   0    4.20    2.80
   3  -1   0    2.20    2.10
  -3   1   0    8.10    3.10
  -3   1   0    1.80    2.60
  -3   1   0    1.80    2.20
  -3   1   0    5.80    2.60
  -3   1   0    3.70    2.20
  -3   1   0    1.10    2.10
   2  -1   0 9999.00  289.77
   2  -1   0 9780.72  286.87
  -2   1   0 9573.74  286.57
  -2   1   0 9654.33  286.77
  -2   1   0 9605.74  287.87
   1  -1   0  368.66   12.50
   1  -1   0  373.46   14.20
  -1   1   0  360.56   14.10
  -1   1   0  379.06   12.60
  -1   1   0  390.76   13.90
   0  -1   0 1465.95   50.99
   0  -1   0 1714.63   50.39
   0  -1   0 1738.63   52.29
   0   1   0 1660.03   52.09
   0   1   0 1700.93   50.39
  -1  -1   0  286.07   11.60
  -1  -1   0  286.97   14.00
   1   1   0  262.57    9.20
   1   1   0  293.57   13.80
   1   1   0  288.57   14.20
   1   1   0  272.27   13.70
   1   1   0  287.57    9.30
  -2  -1   0 1576.64   51.39
  -2  -1   0 1625.54   56.29
   2   1   0 1560.54   55.89
   2   1   0 1524.95   54.99
   2   1   0 1525.55   55.49
  -3  -1   0    6.10    3.70
  -3  -1   0   10.30    4.00
  -3  -1   0    5.20    2.90
  -3  -1   0    4.50    2.70
   3   1   0    4.50    3.00
   3   1   0    4.70    3.50
   3   1   0    3.50    2.80
   3   1   0    0.90    2.70
  -4  -1   0  207.88   19.90
  -4  -1   0  198.98   13.90
  -4  -1   0  198.08   13.60
  -4  -1   0  217.18   15.00
   4   1   0  188.48   16.40
   4   1   0  211.98   12.90
   4   1   0  217.08   17.20
   4   1   0  201.48   16.90
  -5  -1   0   -0.20    3.10
  -5  -1   0   -3.00    2.80
  -5  -1   0   -0.70    3.50
  -5  -1   0    3.20    3.00
   5   1   0    4.50    5.50
   5   1   0   -6.20    3.30
  -6  -1   0   75.59   12.50
  -6  -1   0   68.79   12.80
  -6  -1   0   56.29   12.90
   6   1   0   70.29   14.40
  -7  -1   0   20.80    8.10
  -7  -1   0   17.20    9.20
  -7  -1   0   22.70    8.10
  -8  -1   0    5.60    6.70
  -8  -1   0   10.20    7.80
  -8  -1   0   10.80    8.50
  -9  -1   0    4.80    7.10
  -9  -1   0   12.00    8.30
  -9   2   0    3.60    5.90
  -9   2   0   13.10    8.30
  -8   2   0   34.40   10.50
  -8   2   0   43.30   12.10
  -8   2   0   22.10    9.50
   7  -2   0   23.20    9.60
  -7   2   0   31.70    8.90
  -7   2   0   15.40    6.40
  -7   2   0    9.30    5.90
   6  -2   0    4.40    4.90
  -6   2   0    0.50    3.60
  -6   2   0   -2.60    4.00
  -6   2   0    1.50    3.80
   5  -2   0   93.79   12.80
   5  -2   0   85.09   11.30
   5  -2   0   71.09   10.00
   5  -2   0   67.39   11.90
   5  -2   0  102.79   14.40
  -5   2   0   86.19   11.90
  -5   2   0   70.29   10.90
  -5   2   0  100.19   12.20
  -5   2   0  105.99   14.90
  -5   2   0   83.79   10.80
   4  -2   0  672.23   30.20
   4  -2   0  720.73   34.70
   4  -2   0  701.83   29.00
   4  -2   0  698.33   29.50
  -4   2   0  654.63   31.10
  -4   2   0  679.93   30.60
  -4   2   0  698.53   33.50
  -4   2   0  694.73   29.90
  -4   2   0  706.83   29.80
   3  -2   0  393.96   16.60
   3  -2   0  390.66   22.00
  -3   2   0  376.86   16.60
  -3   2   0  353.26   18.60
  -3   2   0  376.16   19.40
  -3   2   0  390.46   18.20
  -3   2   0  380.06   18.10
   2  -2   0  448.46   16.00
   2  -2   0  446.16   19.20
   2  -2   0  435.76   21.80
  -2   2   0  437.56   19.00
  -2   2   0  440.86   15.90
   1  -2   0  308.57   11.90
   1  -2   0  272.67   15.20
   1  -2   0  305.37   11.70
   1  -2   0  321.67   15.10
   1  -2   0  306.57   12.90
  -1   2   0  303.37   11.90
  -1   2   0  286.47   11.70
  -1   2   0  314.27   14.80
  -1   2   0  296.87   11.10
   0  -2   0 1655.63   56.49
   0  -2   0 1692.23   51.39
   0  -2   0 1673.83   54.59
   0  -2   0 1464.75   53.69
   0  -2   0 1633.24   52.49
   0   2   0 1665.63   52.69
   0   2   0 1702.93   56.09
   0   2   0 1724.63   54.39
  -1  -2   0  436.96   16.50
  -1  -2   0  542.35   23.10
  -1  -2   0  470.35   16.30
   1   2   0  478.85   17.10
   1   2   0  521.55   23.10
   1   2   0  460.55   17.90
   1   2   0  429.16   22.30
  -2  -2   0  239.08   13.30
  -2  -2   0  254.87   16.20
  -2  -2   0  246.68   14.00
  -2  -2   0  220.98   16.30
   2   2   0  259.47   10.20
   2   2   0  271.27   17.90
   2   2   0  305.17   18.40
   2   2   0  286.77   17.60
   2   2   0  264.67   10.70
  -3  -2   0  195.98   12.50
  -3  -2   0  158.08   12.20
  -3  -2   0  203.58   15.60
   3   2   0  194.78   16.30
   3   2   0  148.89   17.40
  -4  -2   0    6.40    3.70
  -4  -2   0   10.30    4.40
  -4  -2   0    9.40    5.50
   4   2   0   -0.50    3.60
   4   2   0    6.40    4.90
  -5  -2   0    8.90    4.80
  -5  -2   0   11.40    6.30
  -5  -2   0    4.50    3.90
   5   2   0    4.30    5.70
   5   2   0    7.40    7.20
  -6  -2   0  172.78   20.30
  -6  -2   0  155.78   18.40
  -6  -2   0  129.89   19.70
   6   2   0  131.09   21.80
  -7  -2   0   -2.00    5.70
  -7  -2   0    3.20    5.70
  -7  -2   0    7.50    5.90
   7   2   0    1.40    8.50
  -8  -2   0    1.80    6.10
  -8  -2   0    8.00    7.80
  -8  -2   0    0.10    5.20
  -9  -2   0   -0.60    8.00
  -9  -2   0    0.10    8.70
  -9   3   0   23.70   11.10
  -9   3   0    9.70    7.00
   8  -3   0    9.10    7.60
  -8   3   0   -4.40    5.00
  -8   3   0    2.20    5.10
  -8   3   0   -1.40    5.30
   7  -3   0    1.10    6.50
  -7   3   0   12.60    7.50
  -7   3   0   -1.00    4.70
  -7   3   0    9.80    6.20
   6  -3   0  158.28   21.20
  -6   3   0  162.78   19.20
  -6   3   0  156.28   17.80
  -6   3   0  132.69   17.80
   5  -3   0  102.99   16.40
   5  -3   0  112.99   13.80
  -5   3   0  119.19   15.20
  -5   3   0  119.99   15.10
  -5   3   0  136.79   15.10
   4  -3   0   22.60    4.20
   4  -3   0   25.60    4.80
   4  -3   0   29.50    8.50
  -4   3   0   25.80    4.40
  -4   3   0   30.10    6.50
  -4   3   0   13.90    5.00
  -4   3   0   23.40    6.00
  -4   3   0   19.90    5.50
   3  -3   0 1345.77   42.60
   3  -3   0 1291.87   53.39
   3  -3   0 1326.47   41.70
   3  -3   0 1335.77   42.60
  -3   3   0 1211.68   49.00
  -3   3   0 1304.57   48.90
  -3   3   0 1398.56   42.60
  -3   3   0 1278.27   48.00
   2  -3   0   67.89    9.90
   2  -3   0   79.09    5.50
   2  -3   0   68.19    4.70
   2  -3   0   74.09    7.20
  -2   3   0   70.79    4.70
  -2   3   0   80.89    9.50
   1  -3   0 3962.50  130.59
   1  -3   0 4306.47  132.89
   1  -3   0 4313.07  131.79
  -1   3   0 4375.96  130.99
  -1   3   0 4436.66  129.19
  -1   3   0 4482.45  136.29
  -1   3   0 4299.47  130.79
   0  -3   0  409.36   18.60
   0  -3   0  425.46   17.80
   0  -3   0  390.56   19.40
   0  -3   0  379.36   19.10
   0  -3   0  392.86   16.10
   0   3   0  423.66   21.50
   0   3   0  351.66   18.60
   0   3   0  379.46   17.60
  -1  -3   0  458.95   17.30
  -1  -3   0  435.76   22.40
  -1  -3   0  456.15   20.50
  -1  -3   0  441.06   17.90
  -1  -3   0  403.96   20.30
  -1  -3   0  457.15   23.70
   1   3   0  464.45   23.80
   1   3   0  461.95   18.20
   1   3   0  467.45   24.70
   1   3   0  444.26   19.60
  -2  -3   0    0.40    3.10
  -2  -3   0   -1.90    2.70
  -2  -3   0    0.90    2.20
  -2  -3   0    0.50    2.20
  -2  -3   0   -1.00    1.80
   2   3   0   -3.40    3.30
   2   3   0   -2.20    2.40
   2   3   0   -0.80    1.20
   2   3   0   -0.20    4.00
   2   3   0   -2.40    1.40
  -3  -3   0  108.19   15.80
  -3  -3   0  156.68   15.40
  -3  -3   0  160.58    9.70
  -3  -3   0  152.68   14.00
   3   3   0  120.39   17.90
   3   3   0  142.49    9.00
   3   3   0  141.69    8.40
   3   3   0  113.79   16.00
  -4  -3   0   13.50    5.20
  -4  -3   0   11.10    5.10
  -4  -3   0   15.20    5.80
   4   3   0   19.10    8.10
   4   3   0   11.50    6.80
  -5  -3   0   10.10    5.50
  -5  -3   0   28.90    8.20
  -5  -3   0    7.50    6.50
   5   3   0   16.60    8.90
  -6  -3   0    7.00    5.80
  -6  -3   0    3.00    5.20
  -6  -3   0   11.10    8.10
   6   3   0   12.90    9.40
  -7  -3   0    2.60    7.50
  -7  -3   0   -7.60    4.80
  -7  -3   0   -3.70    4.60
   7   3   0    3.80   10.50
  -8  -3   0    0.70    8.80
  -8  -3   0    6.90    7.90
  -8  -3   0   -2.50    6.90
  -9  -3   0    3.20    7.90
  -9  -3   0   10.50   10.70
  -9  -3   0    6.40   16.50
  -9   4   0    0.70    7.00
   8  -4   0   -2.20    7.10
  -8   4   0    2.80    7.30
  -8   4   0    5.40    6.40
   7  -4   0    1.40    6.40
  -7   4   0    1.70    5.20
  -7   4   0    1.40    5.80
   6  -4   0   63.39   15.10
  -6   4   0   45.60   10.70
  -6   4   0   39.20    9.80
   5  -4   0    6.40    6.40
  -5   4   0    1.30    3.80
  -5   4   0   -3.50    2.10
   4  -4   0    1.80    3.70
  -4   4   0    0.60    2.30
  -4   4   0   -0.70    2.60
  -4   4   0   -2.70    2.10
   3  -4   0  189.98   20.90
   3  -4   0  194.08   10.70
   3  -4   0  219.78    9.30
   3  -4   0  170.98   11.70
  -3   4   0  187.28    8.60
  -3   4   0  182.58   14.20
   2  -4   0  920.51   42.80
   2  -4   0  968.90   37.90
   2  -4   0  935.21   36.20
   2  -4   0  990.80   33.50
   2  -4   0  925.91   33.70
  -2   4   0  923.91   39.60
  -2   4   0  920.31   30.70
  -2   4   0  916.51   31.40
  -2   4   0  982.90   33.20
   1  -4   0 3341.87  107.69
   1  -4   0 3747.32  108.09
   1  -4   0 3329.07  113.29
   1  -4   0 3301.07  108.79
  -1   4   0 3448.16  106.89
  -1   4   0 3224.88  103.49
  -1   4   0 3266.67  107.09
  -1   4   0 3372.36  112.99
   0  -4   0  300.37   18.80
   0  -4   0  309.37   17.40
   0  -4   0  306.97   14.50
   0  -4   0  335.57   16.70
   0  -4   0  317.37   18.60
   0  -4   0  302.67   17.90
   0   4   0  298.57   16.70
   0   4   0  314.57   20.50
   0   4   0  278.77   17.60
  -1  -4   0   37.80    5.30
  -1  -4   0   41.60    7.40
  -1  -4   0   22.70    5.70
  -1  -4   0   35.40    8.20
  -1  -4   0   36.10    8.20
  -1  -4   0   34.60    4.80
   1   4   0   21.80    5.10
   1   4   0   22.30    6.90
   1   4   0   34.00    8.60
   1   4   0   29.10    7.60
  -2  -4   0  312.27   16.70
  -2  -4   0  291.67   11.80
  -2  -4   0  308.97   21.40
  -2  -4   0  287.07   18.40
  -2  -4   0  294.07   17.70
  -2  -4   0  308.77   11.90
   2   4   0  334.37   23.70
   2   4   0  304.97   17.00
   2   4   0  340.97   24.00
   2   4   0  289.17   15.40
  -3  -4   0  139.89   16.00
  -3  -4   0  143.29   14.80
  -3  -4   0   87.09   14.60
   3   4   0  133.89   18.40
   3   4   0   94.89   16.30
  -4  -4   0    3.20    4.20
  -4  -4   0    1.50    4.50
  -4  -4   0    3.50    3.80
   4   4   0    2.30    6.50
  -5  -4   0    8.70    5.40
  -5  -4   0    0.00    4.60
  -5  -4   0   -0.60    6.50
   5   4   0    6.50    7.20
  -6  -4   0    4.50    5.50
  -6  -4   0    1.60    6.40
  -6  -4   0    4.10    4.90
   6   4   0   -3.70    7.70
  -7  -4   0   95.19   19.70
  -7  -4   0   61.99   14.10
  -7  -4   0  122.59   18.60
  -8  -4   0    7.50    9.00
  -8  -4   0   -5.20    7.00
  -8  -4   0   15.30    8.80
   9  -5   0    2.70   10.00
  -9   5   0    5.80    8.50
   8  -5   0    1.20    8.30
  -8   5   0    5.50    6.30
   7  -5   0    4.60    9.30
  -7   5   0   21.70    8.80
  -7   5   0   10.60    7.20
   6  -5   0   -3.30    4.90
  -6   5   0   -0.20    3.50
  -6   5   0    7.20    4.90
   5  -5   0    1.50    4.70
  -5   5   0   -2.70    2.70
  -5   5   0    4.50    4.20
   4  -5   0  479.15   32.50
  -4   5   0  463.95   26.90
  -4   5   0  426.46   26.70
   3  -5   0   38.20   10.10
  -3   5   0   52.39   10.40
   2  -5   0  303.97   16.40
   2  -5   0  341.37   20.10
   2  -5   0  375.76   25.00
  -2   5   0  340.97   16.20
  -2   5   0  292.17   15.80
  -2   5   0  345.17   22.20
   1  -5   0  147.89   12.10
   1  -5   0  142.59   13.70
   1  -5   0  147.59   15.10
   1  -5   0  181.18   19.30
   1  -5   0  178.08   17.30
  -1   5   0  167.48   12.30
  -1   5   0  145.89   12.10
  -1   5   0  181.58   19.90
  -1   5   0  156.28    9.90
   0  -5   0   25.50    5.50
   0  -5   0   32.00    7.40
   0  -5   0   21.20    6.90
   0  -5   0   37.40    6.20
   0  -5   0   33.20    7.90
   0  -5   0   30.80    7.50
   0   5   0   25.60    6.30
   0   5   0   28.20    7.00
   0   5   0   16.90    6.60
   0   5   0   21.70    4.50
  -1  -5   0   17.20    5.70
  -1  -5   0    2.20    4.20
  -1  -5   0    4.90    3.60
   1   5   0   16.40    8.10
   1   5   0    5.50    3.50
   1   5   0   14.10    6.10
  -2  -5   0   60.79    9.90
  -2  -5   0   66.29    6.10
  -2  -5   0   52.69   11.50
  -2  -5   0   56.29   10.00
   2   5   0   56.89   13.60
   2   5   0   53.29    8.80
   2   5   0   54.99   11.50
  -3  -5   0   10.60    5.50
  -3  -5   0    8.50    4.70
  -3  -5   0    3.20    5.50
   3   5   0    3.10    6.50
  -4  -5   0   15.20    8.50
  -4  -5   0   18.50    7.50
  -4  -5   0    7.10    5.40
   4   5   0    3.70    7.10
  -5  -5   0  548.45   33.50
  -5  -5   0  483.15   36.10
  -5  -5   0  515.85   31.10
   5   5   0  486.45   39.30
  -6  -5   0   84.99   19.80
  -6  -5   0   83.99   16.50
  -6  -5   0  123.49   18.90
  -7  -5   0   18.60   10.10
  -7  -5   0   -0.40    7.30
  -7  -5   0    5.10   10.00
  -8  -5   0    6.20    8.40
  -8  -5   0    0.40    9.40
   8  -6   0    0.20    8.20
  -8   6   0   -5.20    6.00
   7  -6   0   10.40    9.20
  -7   6   0   13.00    8.30
   6  -6   0    0.00    6.50
  -6   6   0   10.00    7.10
   5  -6   0   86.79   18.80
  -5   6   0   62.99   13.20
   4  -6   0   24.80    9.60
  -4   6   0   40.20    9.70
   3  -6   0    4.40    3.90
   3  -6   0    3.20    5.10
  -3   6   0    5.40    5.90
   2  -6   0  220.58   17.20
   2  -6   0  175.88   21.70
  -2   6   0  237.58   24.50
   1  -6   0  170.08   18.20
   1  -6   0  157.08   17.30
   1  -6   0  137.29   19.10
  -1   6   0  213.58   24.30
  -1   6   0  166.78   25.10
   0  -6   0   -2.80    3.70
   0  -6   0    3.10    3.90
   0  -6   0   -2.00    3.00
   0  -6   0    0.40    3.90
   0   6   0    0.90    2.60
   0   6   0    4.50    5.00
   0   6   0    4.90    6.60
  -1  -6   0   60.69   12.00
  -1  -6   0   57.19   12.40
  -1  -6   0   70.39   12.10
   1   6   0   44.30   10.20
   1   6   0   61.19   14.50
  -2  -6   0  124.79   16.70
  -2  -6   0  137.39   16.60
  -2  -6   0  139.59   20.00
   2   6   0  146.89   21.40
   2   6   0  164.98   25.00
  -3  -6   0   25.60    8.20
  -3  -6   0   37.00    9.70
  -3  -6   0   37.10   12.40
   3   6   0   29.70   12.20
  -4  -6   0  577.24   39.50
  -4  -6   0  611.04   33.90
  -4  -6   0  571.24   35.20
   4   6   0  597.34   44.20
  -5  -6   0   -4.90    4.50
  -5  -6   0   -2.30    5.50
  -5  -6   0   -2.60    7.20
  -6  -6   0    6.20    7.70
  -6  -6   0   13.50    8.80
  -6  -6   0   -0.60    9.10
  -7  -6   0   -7.60    7.60
  -7  -6   0   -3.10    7.80
  -7  -6   0    7.60    7.60
   8  -7   0   -4.30    9.20
   7  -7   0   28.90   15.20
   6  -7   0  155.08   27.50
  -6   7   0  115.29   19.30
   5  -7   0   60.89   16.80
   5  -7   0   89.49   16.10
  -5   7   0   95.49   16.70
   4  -7   0   12.40    6.40
   4  -7   0    0.20    5.70
  -4   7   0    1.80    4.40
   3  -7   0   94.99   18.20
   3  -7   0  140.49   18.40
   2  -7   0   95.09   18.40
   2  -7   0   69.39   13.00
  -2   7   0  102.09   17.20
   1  -7   0   -3.30    4.10
   1  -7   0    2.20    3.60
  -1   7   0    1.20    5.20
   0  -7   0   89.19   16.20
   0  -7   0   77.79   14.40
   0  -7   0   98.29   15.20
   0   7   0   82.89   17.60
  -1  -7   0  181.28   21.80
  -1  -7   0  128.69   19.30
   1   7   0  143.29   20.50
   1   7   0  156.48   23.70
  -2  -7   0   81.99   14.00
  -2  -7   0   63.59   13.80
  -2  -7   0   57.59   15.30
   2   7   0   55.59   16.20
  -3  -7   0    0.90    5.00
  -3  -7   0   -2.10    6.80
  -3  -7   0   -0.60    4.50
  -4  -7   0   12.70    9.00
  -4  -7   0   -4.10    4.80
  -4  -7   0    5.40    6.10
  -5  -7   0    3.70    6.80
  -5  -7   0  -10.80    6.60
  -5  -7   0   -5.20    5.80
  -6  -7   0    2.50    7.60
  -6  -7   0   -2.90    7.60
  -6  -7   0   35.20   15.50
   7  -8   0    8.60    9.90
   7  -8   0    5.10    7.30
   6  -8   0   -2.20    6.10
   6  -8   0   -1.10    6.20
   5  -8   0    4.30    7.60
   5  -8   0    4.00    6.80
  -5   8   0   15.60    8.90
   4  -8   0  132.79   18.90
   4  -8   0  109.29   22.70
  -4   8   0   75.89   14.80
   3  -8   0    1.30    6.90
   3  -8   0   18.20    8.50
   2  -8   0    6.00    6.30
   2  -8   0   27.10    9.20
  -2   8   0   17.30   10.10
   1  -8   0    9.50    7.60
   1  -8   0   10.80    6.80
  -1   8   0    7.40    8.90
   0  -8   0    5.50    6.00
   0  -8   0    3.50    6.00
   0   8   0    3.20    8.80
  -1  -8   0   17.70    9.70
  -1  -8   0    3.00    5.40
  -2  -8   0   -0.40    4.80
  -2  -8   0    2.40    6.20
  -2  -8   0   -2.70    6.40
  -3  -8   0   11.40    8.50
  -3  -8   0   17.10    8.20
  -3  -8   0   12.20    7.80
  -4  -8   0   22.10   13.30
  -4  -8   0   19.30    9.40
  -4  -8   0   29.60   10.30
  -5  -8   0    2.30    7.50
  -5  -8   0   -3.20    6.50
  -5  -8   0    6.70   10.30
   6  -9   0    2.00    7.90
   6  -9   0   -0.20    6.20
   5  -9   0    2.70   10.50
   5  -9   0    2.10    7.60
   4  -9   0   -8.50    6.80
   4  -9   0   -2.60    6.20
  -4   9   0   -2.80    6.90
   3  -9   0   -0.10    7.00
   3  -9   0    1.80    6.00
   2  -9   0   -1.10    8.50
   2  -9   0   -2.50    4.80
   1  -9   0   40.40   16.10
   1  -9   0   40.00   11.90
   0  -9   0   -8.40    4.20
  -1  -9   0   43.60   14.00
  -1  -9   0   55.89   14.30
  -2  -9   0   39.70   14.00
  -2  -9   0   15.90    8.20
  -2  -9   0   13.60    7.90
  -3  -9   0   31.40   10.80
  -3  -9   0   90.19   21.30
  -3  -9   0   51.09   13.50
  -4  -9   0   18.90   11.10
  -4  -9   0   -2.60   10.70
  -4  -9   0    1.90    7.70
   5 -10   0    4.20    8.20
   5 -10   0   11.90   13.10
   4 -10   0    6.80   13.20
   4 -10   0    8.90    7.90
   3 -10   0    4.00    7.40
   3 -10   0   -7.80    8.40
   2 -10   0   11.80   10.80
   2 -10   0   16.70    8.40
   1 -10   0   -2.20    6.40
   0 -10   0    3.40    7.20
  -1 -10   0   31.60   12.30
  -2 -10   0   10.20   10.40
  -2 -10   0   -5.30    7.70
  -2 -10   0    0.50    7.80
   0 -11   1    4.20    9.00
   1 -11   1   -4.00    6.90
   3 -11   1   12.80   10.00
   3 -11   1   28.60   14.20
  -3 -10   1   22.40   11.40
  -3 -10   1   25.20   14.60
  -2 -10   1   -9.40    7.30
  -2 -10   1    6.30    8.40
  -2 -10   1    3.80    7.30
  -1 -10   1    4.00    7.60
   0 -10   1   14.50    8.90
   1 -10   1    5.50    7.30
   2 -10   1   17.00   10.20
   2 -10   1   22.90   11.80
   3 -10   1   28.50   14.90
   3 -10   1   11.50    8.80
   4 -10   1   20.60   14.90
   4 -10   1    4.40    7.70
   5 -10   1    5.00   11.90
   5 -10   1   -4.10    6.60
  -4  -9   1   10.90    8.80
  -4  -9   1   12.60    9.60
  -4  -9   1   16.70   12.50
  -3  -9   1   14.50    9.00
  -3  -9   1    5.90    8.20
  -3  -9   1   17.30   11.50
  -2  -9   1    7.30    8.30
  -2  -9   1    4.50    6.40
  -2  -9   1    0.50    5.40
  -1  -9   1   25.00   10.50
  -1  -9   1   29.10   11.30
   0  -9   1    2.60    5.90
  -1   9  -1    8.50   10.80
   1  -9   1    3.20    7.90
   1  -9   1   -2.00    5.20
   2  -9   1    6.10    6.20
   2  -9   1    3.20    8.30
  -3   9  -1   27.70   10.50
   3  -9   1    1.70    7.80
   3  -9   1   40.00   11.20
  -4   9  -1    4.30    7.90
   4  -9   1    2.50    8.30
   4  -9   1    4.80    7.00
  -5   9  -1   -9.30    6.50
   5  -9   1   -0.60    6.30
   5  -9   1   14.60   10.40
   6  -9   1    1.60    9.50
   6  -9   1    1.50    7.00
  -5  -8   1   -7.90    4.80
  -5  -8   1   11.20   10.70
  -5  -8   1    5.40    9.60
  -4  -8   1    2.90    5.70
  -4  -8   1   -5.40    7.10
  -4  -8   1   -4.30    5.70
  -3  -8   1    8.50    9.30
  -3  -8   1   -1.80    4.20
  -3  -8   1   -6.40    4.70
  -2  -8   1   -0.50    4.90
  -2  -8   1    0.10    6.30
   1   8  -1   15.40    9.90
  -1  -8   1    3.90    4.60
  -1  -8   1    4.10    6.60
   0   8  -1   50.89   14.60
   0  -8   1   54.89   11.90
   0  -8   1   72.89   16.80
  -1   8  -1   14.10   10.20
   1  -8   1   38.10   12.50
   1  -8   1    5.20    5.50
   2  -8   1  140.19   19.80
   2  -8   1  166.88   26.20
  -3   8  -1    1.70    4.20
   3  -8   1   14.70    9.50
   3  -8   1    0.40    5.90
  -4   8  -1   -0.70    4.80
   4  -8   1   -2.30    4.40
   4  -8   1   -1.10    7.70
  -5   8  -1   39.60   11.40
   5  -8   1   27.40    9.80
   5  -8   1   43.60   14.40
  -6   8  -1   15.80   11.60
   6  -8   1    4.20    8.40
   6  -8   1    0.90    7.10
   7  -8   1   14.40   11.10
  -6  -7   1   -0.30    9.10
  -6  -7   1    7.50    7.20
  -6  -7   1   -1.40    6.80
  -5  -7   1   -0.60    8.70
  -5  -7   1    5.90    5.70
  -5  -7   1   -0.10    6.20
  -4  -7   1   37.60   13.00
  -4  -7   1   11.00    7.00
  -4  -7   1   15.70    7.90
   3   7  -1   34.90   16.90
  -3  -7   1   33.90    9.80
  -3  -7   1   41.50   11.20
  -3  -7   1   30.70   11.40
   2   7  -1   38.30   14.10
  -2  -7   1   69.99   13.40
  -2  -7   1   56.89   13.70
   1   7  -1    9.90    9.10
   1   7  -1    6.40    7.30
  -1  -7   1   12.00    6.60
  -1  -7   1   11.10    6.00
  -1  -7   1    2.70    6.30
   0   7  -1  171.78   24.20
   0  -7   1  149.19   20.90
   0  -7   1  126.49   16.60
   0  -7   1  135.79   18.80
  -1   7  -1  118.89   20.00
   1  -7   1  112.49   18.30
   1  -7   1   94.49   14.10
  -2   7  -1    5.50    6.60
   2  -7   1    0.90    3.80
   2  -7   1    0.30    4.40
  -3   7  -1  200.58   20.80
   3  -7   1  185.58   26.10
   3  -7   1  170.68   19.80
  -4   7  -1  403.06   27.40
   4  -7   1  340.27   36.50
   4  -7   1  414.86   27.10
  -5   7  -1  170.38   21.40
   5  -7   1  174.38   26.90
  -6   7  -1    0.10    5.20
   6  -7   1    4.10    7.70
   7  -7   1   10.10    9.30
   8  -7   1   10.00   10.90
  -7  -6   1    7.00    7.90
  -7  -6   1    9.10    7.90
  -7  -6   1   11.70   11.50
  -6  -6   1  140.49   25.70
  -6  -6   1  150.48   23.00
  -6  -6   1  190.98   24.10
  -5  -6   1   -2.30    5.40
  -5  -6   1   21.30    9.80
  -5  -6   1    6.00    6.10
   4   6  -1  134.19   25.20
  -4  -6   1  107.89   20.10
  -4  -6   1  146.99   18.30
  -4  -6   1   86.89   15.00
   3   6  -1    5.20    7.40
  -3  -6   1   -2.70    3.50
  -3  -6   1    1.50    4.30
  -3  -6   1    0.90    5.80
   2   6  -1    5.20    5.50
   2   6  -1    8.60    6.80
   2   6  -1   -0.90    3.20
  -2  -6   1   -0.80    3.40
  -2  -6   1    3.10    4.80
   1   6  -1  188.88   21.10
   1   6  -1  182.68   25.90
   1   6  -1  191.48   23.70
  -1  -6   1  243.18   24.50
  -1  -6   1  197.58   21.50
  -1  -6   1  207.18   20.40
   0   6  -1  479.05   30.30
   0   6  -1  414.26   21.20
   0  -6   1  399.86   24.80
   0  -6   1  432.36   28.10
   0  -6   1  448.16   23.20
   0  -6   1  491.05   27.00
  -1   6  -1   -1.20    4.50
   1  -6   1   -1.10    3.40
   1  -6   1   -1.40    2.50
   1  -6   1    6.50    4.10
   1  -6   1    2.70    4.80
  -2   6  -1   10.40    6.30
   2  -6   1   15.90    7.90
   2  -6   1   33.70    8.20
  -3   6  -1  149.69   17.30
  -3   6  -1  152.08   17.10
   3  -6   1  168.18   18.70
   3  -6   1  165.98   22.50
  -4   6  -1   82.09   13.30
   4  -6   1   89.39   17.40
  -5   6  -1   58.69   11.90
   5  -6   1   50.59   14.10
  -6   6  -1    3.10    5.70
   6  -6   1   -2.50    6.60
  -7   6  -1   53.89   12.90
  -7   6  -1   87.19   16.80
   7  -6   1   45.10   16.50
  -8   6  -1   32.00   11.00
   8  -6   1   40.50   15.40
  -9   6  -1    9.10    8.10
   9  -6   1   37.00   16.90
  -8  -5   1    5.50    9.60
  -8  -5   1    9.20    9.10
  -8  -5   1    9.90   10.80
  -7  -5   1  150.08   22.30
  -7  -5   1  143.59   22.50
  -7  -5   1   95.99   21.90
  -6  -5   1   11.40    8.10
  -6  -5   1   31.00   10.60
  -6  -5   1   33.20   10.50
   5   5  -1   -0.20    8.20
  -5  -5   1   -0.90    4.50
  -5  -5   1    4.80    7.50
  -5  -5   1   -0.30    3.80
   4   5  -1   51.39   14.40
  -4  -5   1   57.89   11.30
  -4  -5   1   75.09   13.10
  -4  -5   1   57.19   14.30
   3   5  -1    2.90    5.70
   3   5  -1    3.80    6.10
  -3  -5   1    0.50    2.90
  -3  -5   1   -6.00    2.40
  -3  -5   1    5.80    5.80
   2   5  -1   14.00    6.60
   2   5  -1    3.80    5.30
   2   5  -1    7.00    3.60
  -2  -5   1    7.80    1.90
  -2  -5   1    1.60    4.10
  -2  -5   1    2.70    3.60
  -2  -5   1   11.40    4.90
   1   5  -1  134.39   16.40
   1   5  -1   70.79   13.30
   1   5  -1   95.69   10.90
  -1  -5   1  104.99    8.00
  -1  -5   1  125.09   14.40
  -1  -5   1  113.69   10.10
  -1  -5   1  160.68   18.20
  -1  -5   1   93.09   13.20
   0   5  -1  611.34   27.60
   0   5  -1  550.74   28.80
   0   5  -1  543.75   31.40
   0   5  -1  625.64   29.80
   0   5  -1  609.44   25.00
   0  -5   1  575.54   28.20
   0  -5   1  606.24   26.40
   0  -5   1  626.74   24.90
   0  -5   1  591.94   28.90
   0  -5   1  574.84   31.10
  -1   5  -1  136.79   16.50
  -1   5  -1  122.99   12.00
  -1   5  -1  122.49   10.00
  -1   5  -1  142.29   10.50
  -1   5  -1  107.49   10.30
   1  -5   1  137.69   15.20
   1  -5   1  119.89   11.70
   1  -5   1  169.58   16.70
   1  -5   1  124.39   16.70
  -2   5  -1  663.13   26.60
  -2   5  -1  662.33   32.00
  -2   5  -1  649.93   24.50
  -2   5  -1  680.13   24.70
   2  -5   1  659.53   27.00
   2  -5   1  665.43   36.40
   2  -5   1  671.93   30.80
  -3   5  -1   18.30    5.90
  -3   5  -1   16.20    6.00
   3  -5   1    5.90    2.80
   3  -5   1   14.40    6.80
  -4   5  -1   27.00    7.20
   4  -5   1   22.50    8.60
  -5   5  -1   33.70    8.50
  -5   5  -1   34.40    8.80
   5  -5   1   34.40   11.50
  -6   5  -1    4.70    5.70
  -6   5  -1   -0.70    3.60
   6  -5   1   -6.80    4.60
  -7   5  -1   15.30    8.00
  -7   5  -1   20.20    8.90
   7  -5   1   25.10   11.20
  -8   5  -1    1.10    6.30
   8  -5   1   -8.90    6.50
  -9   5  -1   -8.70    5.60
  -8  -4   1    5.80    8.90
  -8  -4   1   12.70    9.90
  -8  -4   1   -3.50    6.10
  -7  -4   1    1.40    6.10
  -7  -4   1   15.20    9.70
  -7  -4   1   16.60    8.30
   6   4  -1   -3.50    8.50
  -6  -4   1    3.90    6.20
  -6  -4   1    6.90    5.80
  -6  -4   1    2.50    5.20
   5   4  -1   55.39   15.60
  -5  -4   1   31.40   10.80
  -5  -4   1   26.10    7.80
  -5  -4   1   62.69   11.90
   4   4  -1   86.69   17.20
  -4  -4   1  100.59   13.10
  -4  -4   1  114.19   17.60
  -4  -4   1   88.39   12.80
   3   4  -1   -0.40    4.20
   3   4  -1    2.50    5.20
  -3  -4   1   -0.20    2.70
  -3  -4   1   -0.60    4.40
  -3  -4   1    0.10    2.40
  -3  -4   1    0.00    2.30
   2   4  -1  144.59   10.30
   2   4  -1  175.68   20.60
   2   4  -1  134.29    9.10
   2   4  -1  134.59   17.00
  -2  -4   1  129.39   13.50
  -2  -4   1  141.69   11.50
  -2  -4   1  122.29   15.40
   1   4  -1 1997.50   74.79
   1   4  -1 2051.59   68.99
   1   4  -1 2101.19   77.79
   1   4  -1 2062.59   74.49
  -1  -4   1 2114.89   65.29
  -1  -4   1 1981.00   73.49
  -1  -4   1 2047.00   65.99
  -1  -4   1 2102.59   71.09
  -1  -4   1 2063.09   72.99
   0   4  -1 1322.57   45.90
   0   4  -1 1153.28   44.50
   0   4  -1 1147.59   40.50
   0   4  -1 1138.39   42.70
   0   4  -1 1148.99   47.60
   0  -4   1 1179.68   40.40
   0  -4   1 1149.78   46.80
   0  -4   1 1084.49   43.40
   0  -4   1 1175.18   47.80
   0  -4   1 1209.38   42.00
  -1   4  -1 1242.48   42.30
  -1   4  -1 1248.88   41.30
  -1   4  -1 1195.38   43.40
  -1   4  -1 1242.88   47.30
  -1   4  -1 1209.58   42.40
   1  -4   1 1177.08   44.80
   1  -4   1 1165.28   43.50
  -2   4  -1   76.89    5.90
  -2   4  -1   66.79    5.10
  -2   4  -1   74.39    4.00
  -2   4  -1   93.69   10.70
   2  -4   1   86.09   12.80
   2  -4   1   66.99    7.90
   2  -4   1   75.69    7.70
  -3   4  -1   23.60    6.10
  -3   4  -1   53.69    9.30
  -3   4  -1   38.60    6.60
   3  -4   1   28.70    5.20
   3  -4   1   33.10    4.90
   3  -4   1   19.60    7.30
  -4   4  -1  286.57   16.00
  -4   4  -1  269.97   18.70
  -4   4  -1  240.48   18.00
   4  -4   1  284.17   22.40
  -5   4  -1   10.80    6.00
  -5   4  -1   15.50    6.10
   5  -4   1   28.60    9.60
  -6   4  -1    3.90    4.50
  -6   4  -1   10.40    5.50
  -6   4  -1    2.70    4.10
   6  -4   1    7.60    6.50
  -7   4  -1    1.40    6.20
  -7   4  -1    9.00    5.70
  -7   4  -1    2.40    5.80
   7  -4   1    3.20    6.40
  -8   4  -1    0.70    7.00
  -8   4  -1    6.60    7.60
  -8   4  -1   14.70    9.20
   8  -4   1    2.20    7.30
  -9   4  -1   -0.10    8.00
  -9   4  -1    1.80    7.80
  -9  -3   1    3.90    8.80
  -9  -3   1    4.00    7.10
  -8  -3   1   -0.40    7.50
  -8  -3   1   10.30    8.10
  -8  -3   1    2.80    6.80
   7   3  -1    3.00    9.10
  -7  -3   1   10.30    5.80
  -7  -3   1   11.10    7.40
  -7  -3   1   10.20    7.20
   6   3  -1    9.30    9.90
  -6  -3   1   14.40    7.10
  -6  -3   1   12.80    8.10
  -6  -3   1   11.00    6.40
   5   3  -1    8.60    6.60
  -5  -3   1   10.10    5.60
  -5  -3   1   20.00    6.70
  -5  -3   1   20.10    8.30
   4   3  -1    1.70    1.30
   4   3  -1    0.30    4.90
   4   3  -1    3.00    5.30
  -4  -3   1    5.20    4.40
  -4  -3   1    1.30    2.50
  -4  -3   1   -2.00    3.90
   3   3  -1   46.60    4.90
   3   3  -1   39.10    4.30
   3   3  -1   74.39   13.70
   3   3  -1   39.30    9.40
  -3  -3   1   34.00    6.70
  -3  -3   1   39.20    7.80
  -3  -3   1   51.89    7.50
  -3  -3   1   46.50    9.40
   2   3  -1  283.67   12.90
   2   3  -1  261.37   11.80
   2   3  -1  243.48   18.20
   2   3  -1  287.77   20.40
   2   3  -1  263.87   18.30
  -2  -3   1  277.77   15.60
  -2  -3   1  261.47   14.70
  -2  -3   1  270.97   17.70
  -2  -3   1  281.17   15.20
   1   3  -1 6455.65  193.18
   1   3  -1 6189.78  189.88
   1   3  -1 6087.49  190.18
   1   3  -1 6097.19  183.78
  -1  -3   1 5823.62  181.38
  -1  -3   1 6237.28  181.08
  -1  -3   1 6190.88  187.58
  -1  -3   1 6094.39  186.08
  -1  -3   1 6004.60  188.88
   0   3  -1   10.00    2.80
   0   3  -1    1.50    1.90
   0   3  -1   11.90    3.40
   0   3  -1   12.40    2.80
   0   3  -1   10.70    4.20
   0  -3   1   10.30    3.80
   0  -3   1   11.10    4.00
   0  -3   1    9.30    2.70
  -1   3  -1 4547.65  137.39
  -1   3  -1 4625.64  138.99
  -1   3  -1 4760.22  141.79
  -1   3  -1 4691.33  136.79
  -1   3  -1 4461.05  137.09
   1  -3   1 4206.98  143.99
   1  -3   1 4804.52  145.79
   1  -3   1 4557.04  137.69
   1  -3   1 4600.54  139.49
  -2   3  -1    0.20    2.00
  -2   3  -1    1.70    2.20
  -2   3  -1    0.30    2.00
   2  -3   1    0.20    1.30
   2  -3   1   -0.30    2.20
   2  -3   1    0.20    1.90
   2  -3   1    3.90    1.60
  -3   3  -1  482.85   23.70
  -3   3  -1  487.35   20.20
  -3   3  -1  513.85   24.30
   3  -3   1  462.15   26.50
   3  -3   1  477.65   18.80
   3  -3   1  501.15   20.90
   3  -3   1  451.45   17.90
  -4   3  -1  477.25   24.90
  -4   3  -1  446.86   20.20
  -4   3  -1  470.55   24.90
  -4   3  -1  447.46   23.10
   4  -3   1  473.85   18.90
   4  -3   1  437.46   20.70
   4  -3   1  420.06   26.60
   4  -3   1  454.45   18.40
  -5   3  -1    0.80    3.00
  -5   3  -1   -2.30    2.80
  -5   3  -1   -1.10    2.60
  -5   3  -1    3.70    4.00
   5  -3   1    0.60    3.80
  -6   3  -1    1.60    5.10
  -6   3  -1    7.60    5.20
  -6   3  -1   17.50    6.70
   6  -3   1    8.20    6.90
  -7   3  -1  122.49   18.10
  -7   3  -1  136.09   18.80
  -7   3  -1   94.59   15.00
   7  -3   1  119.39   20.20
  -8   3  -1    3.20    6.30
  -8   3  -1   14.20    8.50
  -8   3  -1    0.10    5.80
  -9   3  -1    1.80    8.30
  -9   3  -1    6.00    7.10
  -9  -2   1   -0.20    7.40
  -9  -2   1   -7.00    7.60
  -8  -2   1    6.20    7.80
  -8  -2   1   26.70   10.30
   7   2  -1    7.10    8.80
  -7  -2   1    2.50    6.20
  -7  -2   1   13.50    7.50
  -7  -2   1    5.60    5.70
   6   2  -1    9.40    7.60
  -6  -2   1   -2.90    5.00
  -6  -2   1    4.70    4.50
  -6  -2   1   16.10    7.00
   5   2  -1    2.10    5.30
   5   2  -1   -1.30    4.30
  -5  -2   1    4.40    4.10
  -5  -2   1   -1.10    2.80
  -5  -2   1    2.60    3.70
   4   2  -1   25.20    7.70
   4   2  -1   18.90    7.60
  -4  -2   1   25.50    6.00
  -4  -2   1   22.80    7.20
  -4  -2   1   31.90    7.10
   3   2  -1  142.59   16.20
   3   2  -1  153.18   17.10
  -3  -2   1  173.98   11.50
  -3  -2   1  169.68   12.00
  -3  -2   1  168.28   10.90
  -3  -2   1  152.68   15.90
   2   2  -1  365.86   20.90
   2   2  -1  333.17   19.60
   2   2  -1  345.07   20.40
  -2  -2   1  373.06   16.80
  -2  -2   1  353.76   16.40
  -2  -2   1  361.56   19.50
  -2  -2   1  357.36   20.10
   1   2  -1   33.40    6.70
   1   2  -1   50.49    4.50
   1   2  -1   37.00    3.50
   1   2  -1   29.50    5.60
  -1  -2   1   41.80    5.80
  -1  -2   1   32.40    5.50
  -1  -2   1   40.70    2.50
  -1  -2   1   39.40    2.50
   0   2  -1 1483.95   49.99
   0   2  -1 1634.24   49.80
   0   2  -1 1559.24   47.80
   0   2  -1 1462.05   51.59
   0   2  -1 1547.85   48.70
   0  -2   1 1550.24   51.69
   0  -2   1 1484.05   48.40
   0  -2   1 1542.75   50.09
   0  -2   1 1530.65   51.99
  -1   2  -1    7.10    1.30
  -1   2  -1    5.00    2.10
  -1   2  -1    1.80    1.90
  -1   2  -1    6.70    2.00
  -1   2  -1    5.60    2.30
  -1   2  -1    4.30    1.20
   1  -2   1    8.00    1.30
   1  -2   1    8.00    2.10
   1  -2   1    0.20    2.20
   1  -2   1    7.40    2.50
   1  -2   1    2.50    2.00
  -2   2  -1 2130.29   67.09
  -2   2  -1 2230.58   70.49
  -2   2  -1 2125.19   71.09
   2  -2   1 2201.78   66.29
   2  -2   1 2166.38   65.19
   2  -2   1 2166.58   67.29
   2  -2   1 2190.58   65.19
   2  -2   1 2290.17   66.59
   2  -2   1 2195.58   74.29
  -3   2  -1  697.13   25.90
  -3   2  -1  668.63   29.50
  -3   2  -1  728.53   30.00
  -3   2  -1  722.53   28.90
   3  -2   1  718.63   26.40
   3  -2   1  714.93   26.10
   3  -2   1  730.43   26.60
   3  -2   1  742.73   26.30
   3  -2   1  699.93   32.00
  -4   2  -1  231.58   12.80
  -4   2  -1  227.58   15.40
  -4   2  -1  238.88   16.00
  -4   2  -1  206.68   15.10
  -4   2  -1  253.47   15.20
   4  -2   1  229.78   14.70
   4  -2   1  219.78   13.50
   4  -2   1  215.38   16.80
   4  -2   1  230.88   13.70
   4  -2   1  225.58   13.90
  -5   2  -1  115.99   14.40
  -5   2  -1  117.49   14.10
  -5   2  -1   80.59   12.00
  -5   2  -1   91.09   12.80
   5  -2   1   84.39   11.50
   5  -2   1   95.69   11.90
   5  -2   1   89.69   11.10
   5  -2   1  113.89   15.60
  -6   2  -1  199.38   21.20
  -6   2  -1  153.08   18.20
  -6   2  -1  137.29   15.80
   6  -2   1  233.88   24.30
  -7   2  -1   14.40    6.30
  -7   2  -1   19.90    8.60
  -7   2  -1   23.20    7.80
  -8   2  -1   -3.40    5.10
  -8   2  -1   -1.30    5.00
  -8   2  -1    7.70    7.50
  -9   2  -1    2.50    8.00
  -9   2  -1  -10.30    4.90
  -9  -1   1    8.50    7.70
  -9  -1   1   -1.50    7.30
  -8  -1   1   20.30    9.50
  -8  -1   1   21.90    9.70
   7   1  -1   -2.90    6.60
  -7  -1   1    4.50    5.70
  -7  -1   1    1.90    4.70
  -7  -1   1    1.50    5.20
   6   1  -1   19.70    8.00
   6   1  -1   21.30   10.80
  -6  -1   1   21.50    6.60
  -6  -1   1   12.70    6.10
  -6  -1   1   19.80    7.80
  -6  -1   1   32.70    8.10
   5   1  -1    1.20    3.40
   5   1  -1   10.10    6.30
   5   1  -1   -2.60    4.10
  -5  -1   1    3.20    4.20
  -5  -1   1    0.80    3.20
  -5  -1   1    1.80    4.50
  -5  -1   1   -2.50    2.00
  -5  -1   1    1.30    3.20
   4   1  -1  177.88   20.00
   4   1  -1  138.59   16.40
  -4  -1   1  173.08   12.70
  -4  -1   1  142.89   11.00
  -4  -1   1  146.19   16.00
  -4  -1   1  171.88   18.00
  -4  -1   1  142.39   16.50
  -4  -1   1  174.98   12.30
   3   1  -1   24.60    6.20
   3   1  -1   11.80    4.40
   3   1  -1   16.80    5.40
   3   1  -1   17.40    6.10
  -3  -1   1   16.20    3.80
  -3  -1   1   15.70    3.50
  -3  -1   1   10.70    4.50
  -3  -1   1    8.90    4.40
  -3  -1   1   17.50    4.70
  -3  -1   1   11.50    4.90
   2   1  -1   22.30    5.70
   2   1  -1   21.80    5.40
   2   1  -1   26.10    5.40
  -2  -1   1   23.50    3.70
  -2  -1   1   13.50    4.30
  -2  -1   1   30.50    4.80
  -2  -1   1   29.30    3.80
  -2  -1   1   23.70    5.40
   1   1  -1  229.58   11.90
   1   1  -1  240.78   12.80
   1   1  -1  209.28   11.30
   1   1  -1  225.18    7.90
   1   1  -1  225.98   12.80
  -1  -1   1  219.28   11.50
  -1  -1   1  215.78    7.90
  -1  -1   1  224.78   12.50
  -1  -1   1  190.98   11.20
  -1  -1   1  225.88    9.50
   0   1  -1   -1.80    0.30
  -1   1  -1   60.99    3.10
  -1   1  -1   51.29    3.60
  -1   1  -1   62.79    4.70
  -1   1  -1   62.69    4.70
  -1   1  -1   60.19    3.00
   1  -1   1   64.19    3.70
   1  -1   1   53.09    3.60
   1  -1   1   60.99    3.80
  -2   1  -1  428.56   17.90
  -2   1  -1  418.66   17.30
  -2   1  -1  420.46   18.60
  -2   1  -1  440.76   15.50
   2  -1   1  462.55   16.20
   2  -1   1  417.46   17.40
   2  -1   1  411.16   15.50
   2  -1   1  425.86   19.10
  -3   1  -1   28.40    4.90
  -3   1  -1   34.30    6.20
  -3   1  -1   23.40    5.00
  -3   1  -1   31.80    5.60
  -3   1  -1   30.10    4.70
   3  -1   1   37.30    6.20
   3  -1   1   41.30    5.50
   3  -1   1   29.90    5.20
   3  -1   1   36.90    5.50
   3  -1   1   31.60    5.70
  -4   1  -1  812.82   36.30
  -4   1  -1  841.42   35.40
  -4   1  -1  853.91   35.40
  -4   1  -1  876.51   36.90
   4  -1   1  854.61   35.10
   4  -1   1  898.71   36.80
   4  -1   1  888.11   37.30
   4  -1   1  887.21   36.70
  -5   1  -1   -0.10    2.30
  -5   1  -1   -1.30    3.50
  -5   1  -1   -0.90    3.10
  -5   1  -1    1.60    3.00
  -5   1  -1   -0.40    3.00
   5  -1   1    2.70    3.50
   5  -1   1   -2.60    2.60
   5  -1   1   -1.90    3.10
  -6   1  -1   39.90   10.20
  -6   1  -1   38.50    8.80
  -6   1  -1   34.70    9.00
   6  -1   1   27.10    7.10
   6  -1   1   44.20   10.90
  -7   1  -1   10.40    6.60
  -7   1  -1   12.20    7.00
  -7   1  -1   21.40    7.70
  -8   1  -1   14.80    8.10
  -8   1  -1   14.70    8.10
  -8   1  -1   11.50    7.80
  -9   1  -1   -2.60    6.00
  -9   1  -1    0.70    7.60
  -9   0   1    9.70    8.00
  -9   0   1    0.30    7.60
  -8   0   1    1.60    6.00
  -8   0   1    5.00    6.40
  -7   0   1   10.90    6.80
  -7   0   1    5.60    4.80
  -7   0   1    7.00    5.40
   6   0  -1    5.10    5.70
   6   0  -1    5.70    6.70
   6   0  -1   -1.10    4.30
  -6   0   1    9.60    5.90
  -6   0   1   12.40    5.00
  -6   0   1   19.30    8.10
  -6   0   1   11.40    5.10
   5   0  -1   27.90    7.40
   5   0  -1   35.10    9.00
   5   0  -1   24.20    8.10
  -5   0   1   27.90    6.60
  -5   0   1   36.60    9.50
  -5   0   1   30.00    8.50
  -5   0   1   41.20    8.50
  -5   0   1   49.90   10.10
  -5   0   1   44.80    8.50
   4   0  -1   88.39   12.40
   4   0  -1   89.99   11.10
   4   0  -1  107.09   14.90
   4   0  -1   90.29   12.00
  -4   0   1  103.09   11.50
  -4   0   1  107.39   14.60
  -4   0   1   98.09   10.20
  -4   0   1  109.29   11.50
  -4   0   1  106.59   13.30
  -4   0   1   94.69   12.90
   3   0  -1    2.20    2.30
   3   0  -1    8.10    4.20
   3   0  -1    2.20    3.00
  -3   0   1    3.20    2.90
  -3   0   1    1.40    2.40
  -3   0   1    1.90    1.70
  -3   0   1    1.80    2.00
  -3   0   1   -1.50    1.70
  -3   0   1   -0.40    2.50
   1   0  -1  187.48   10.00
   1   0  -1  179.78    9.50
  -1   0   1  195.88   10.00
  -1   0   1  183.08    9.60
  -1   0   1  159.98   10.10
   0   0  -1 2193.18   65.29
   0   0  -1 2127.89   66.99
   0   0  -1 2224.08   67.39
   0   0   1 2235.78   67.09
   0   0   1 2235.08   65.29
   0   0   1 2227.38   65.69
   0   0   1 2203.98   67.39
  -1   0  -1 4317.77  124.09
  -1   0  -1 4182.68  123.49
  -1   0  -1 4235.28  125.59
   1   0   1 4064.59  123.59
   1   0   1 4160.28  121.29
   1   0   1 3947.00  121.59
   1   0   1 4089.79  125.19
  -2   0  -1  193.68   10.90
  -2   0  -1  204.98   12.10
  -2   0  -1  174.98   10.30
   2   0   1  192.28   11.00
   2   0   1  180.08    9.60
   2   0   1  203.68   12.30
   2   0   1  186.48   10.10
  -3   0  -1   73.19    9.30
  -3   0  -1   45.60    6.80
  -3   0  -1   72.79    9.50
  -3   0  -1   90.49    9.80
   3   0   1   69.19    8.10
   3   0   1   61.09    8.60
   3   0   1   69.39    7.50
   3   0   1   69.49    8.80
   3   0   1   66.39    8.90
  -4   0  -1  394.86   21.40
  -4   0  -1  386.76   20.90
  -4   0  -1  400.36   21.80
  -4   0  -1  391.06   21.60
   4   0   1  401.76   23.70
   4   0   1  361.86   23.00
   4   0   1  406.26   21.30
   4   0   1  421.96   22.50
   4   0   1  379.96   19.40
  -5   0  -1  113.69   13.80
  -5   0  -1  105.09   13.80
  -5   0  -1  108.89   13.70
  -5   0  -1   80.89   12.20
   5   0   1   74.89   12.40
   5   0   1  112.79   12.70
   5   0   1   93.69   14.80
  -6   0  -1   50.19   11.60
  -6   0  -1   68.19   13.10
  -6   0  -1   46.30   10.30
  -6   0  -1   27.60    7.80
   6   0   1   41.40   11.40
  -7   0  -1    8.30    6.00
  -7   0  -1    0.20    5.30
  -8   0  -1    6.10    6.30
  -8   0  -1   11.30    6.80
  -9   0  -1    1.40    6.40
  -9   0  -1    0.10    6.90
  -9   1   1    1.10    7.20
  -9   1   1    3.40    7.70
  -8   1   1    6.70    7.30
  -8   1   1   -2.60    3.80
  -8   1   1    3.70    5.90
   7  -1  -1   -3.00    4.60
  -7   1   1    4.90    6.00
  -7   1   1   -1.40    4.40
  -7   1   1    3.40    4.90
   6  -1  -1   27.40    8.90
   6  -1  -1    8.80    5.40
   6  -1  -1   15.10    7.10
  -6   1   1   13.80    6.90
  -6   1   1   13.80    5.90
  -6   1   1    7.00    4.80
  -6   1   1   31.20    9.70
  -6   1   1   16.30    6.60
   5  -1  -1    3.60    5.00
   5  -1  -1    9.60    5.60
   5  -1  -1    9.20    5.80
  -5   1   1    1.50    3.60
  -5   1   1    2.80    3.80
  -5   1   1    6.00    4.70
  -5   1   1    7.40    5.40
  -5   1   1    4.60    4.10
  -5   1   1    6.10    4.00
   4  -1  -1 1914.41   66.09
   4  -1  -1 1894.21   69.89
   4  -1  -1 1906.71   67.79
   4  -1  -1 1865.61   69.19
  -4   1   1 1944.31   64.79
  -4   1   1 1916.91   68.19
  -4   1   1 1846.92   67.69
  -4   1   1 1837.02   66.39
  -4   1   1 1921.71   65.99
  -4   1   1 1870.41   72.39
   3  -1  -1  199.08   12.80
   3  -1  -1  200.78   14.10
   3  -1  -1  211.08   14.40
  -3   1   1  200.28   12.50
  -3   1   1  230.78   12.00
  -3   1   1  219.88   13.90
  -3   1   1  205.48   12.30
  -3   1   1  218.68   13.00
  -3   1   1  194.28   14.90
   2  -1  -1 3922.21  120.29
   2  -1  -1 3919.61  122.89
   2  -1  -1 3897.31  125.39
  -2   1   1 3931.21  120.19
  -2   1   1 3961.00  121.89
  -2   1   1 3887.61  117.99
   1  -1  -1  633.54   24.40
   1  -1  -1  625.54   24.20
   1  -1  -1  622.44   19.20
   1  -1  -1  646.04   19.50
   1  -1  -1  637.74   23.00
  -1   1   1  615.24   22.80
  -1   1   1  642.84   24.50
   0  -1  -1 5270.17  164.08
   0  -1  -1 5610.64  162.08
   0  -1  -1 5627.84  164.98
   0   1   1 5557.14  162.18
   0   1   1 5420.46  163.98
   0   1   1 5338.47  164.68
  -1  -1  -1  275.47   14.60
  -1  -1  -1  295.77   15.40
  -1  -1  -1  269.07   12.00
  -1  -1  -1  270.47   10.60
  -1  -1  -1  267.37   10.20
   1   1   1  277.27   14.80
   1   1   1  271.67   10.80
   1   1   1  266.87   14.20
   1   1   1  299.17   11.80
  -2  -1  -1 1176.18   42.10
  -2  -1  -1 1277.67   46.80
  -2  -1  -1 1239.98   43.40
   2   1   1 1249.28   37.80
   2   1   1 1181.68   37.90
   2   1   1 1189.28   46.50
   2   1   1 1257.77   45.90
  -3  -1  -1   12.20    4.60
  -3  -1  -1   19.20    5.00
  -3  -1  -1   19.70    4.90
   3   1   1   19.00    6.00
   3   1   1   18.00    5.80
  -4  -1  -1   95.29   11.90
  -4  -1  -1  136.19   15.20
  -4  -1  -1  140.39   16.70
   4   1   1  111.29   15.30
   4   1   1   99.79   12.70
   4   1   1  117.59   15.80
   4   1   1  113.09    8.20
  -5  -1  -1  113.99   14.50
  -5  -1  -1  158.48   18.20
  -5  -1  -1  152.28   19.00
   5   1   1  133.79   17.90
   5   1   1  114.39   17.30
  -6  -1  -1  194.68   21.70
  -6  -1  -1  217.48   22.20
  -6  -1  -1  165.08   21.60
   6   1   1  235.28   26.30
  -7  -1  -1    0.60    3.70
  -7  -1  -1   -3.90    5.60
  -7  -1  -1   -2.40    5.80
  -8  -1  -1    2.50    6.30
  -8  -1  -1    4.40    7.30
  -9  -1  -1    4.50    8.60
  -9  -1  -1    2.70    7.20
  -9   2   1    3.20    7.90
  -9   2   1   18.20   10.60
  -9   2   1    9.10    9.00
   8  -2  -1   -7.60    8.80
  -8   2   1    9.40    6.70
  -8   2   1   -1.70    5.10
  -8   2   1    2.10    5.90
   7  -2  -1    5.70    5.80
  -7   2   1    4.50    5.60
  -7   2   1   12.30    5.70
  -7   2   1   -4.90    4.30
   6  -2  -1   94.99   16.50
   6  -2  -1   77.59   13.70
  -6   2   1   85.79   13.30
  -6   2   1  101.49   13.50
  -6   2   1   93.69   16.30
  -6   2   1  100.29   14.40
   5  -2  -1  184.78   21.00
   5  -2  -1  188.28   14.50
   5  -2  -1  163.88   15.70
   5  -2  -1  141.49   17.10
  -5   2   1  148.69   15.60
  -5   2   1  170.38   15.70
  -5   2   1  155.58   19.00
  -5   2   1  128.89   14.70
  -5   2   1  151.88   16.30
   4  -2  -1   25.80    7.40
   4  -2  -1   39.70    6.70
   4  -2  -1   45.10    7.50
  -4   2   1   36.10    6.70
  -4   2   1   58.99    9.30
  -4   2   1   48.20    8.50
  -4   2   1   45.50    8.40
  -4   2   1   38.90    6.70
   3  -2  -1  314.27   19.00
   3  -2  -1  267.67   14.30
  -3   2   1  271.47   14.30
  -3   2   1  264.07   16.10
  -3   2   1  252.37   14.80
  -3   2   1  262.07   14.00
   2  -2  -1  711.73   30.80
   2  -2  -1  712.93   26.60
   2  -2  -1  684.03   22.00
   2  -2  -1  706.83   22.60
  -2   2   1  733.43   26.60
  -2   2   1  713.83   29.70
   1  -2  -1  803.02   27.90
   1  -2  -1  775.42   28.90
  -1   2   1  778.22   31.60
  -1   2   1  807.82   26.50
  -1   2   1  776.02   25.10
  -1   2   1  780.72   28.90
   0  -2  -1  553.34   20.00
   0  -2  -1  537.35   21.50
   0  -2  -1  555.94   23.90
   0  -2  -1  585.54   22.40
   0   2   1  538.85   23.60
   0   2   1  543.15   21.50
   0   2   1  561.94   25.10
  -1  -2  -1 1489.85   53.29
  -1  -2  -1 1405.66   47.90
  -1  -2  -1 1419.16   45.30
  -1  -2  -1 1443.56   46.50
   1   2   1 1355.26   52.39
   1   2   1 1522.85   48.20
   1   2   1 1414.36   52.49
   1   2   1 1439.36   46.20
  -2  -2  -1    0.90    1.80
  -2  -2  -1    0.00    2.50
  -2  -2  -1    3.10    2.30
  -2  -2  -1    2.00    2.90
   2   2   1    0.60    3.10
   2   2   1    0.60    1.10
   2   2   1   -1.80    1.80
   2   2   1    0.20    1.40
  -3  -2  -1    5.50    3.30
  -3  -2  -1   20.70    6.50
  -3  -2  -1   15.20    5.10
   3   2   1   12.10    5.80
   3   2   1   15.40    6.80
   3   2   1    7.40    2.20
   3   2   1    8.20    2.60
  -4  -2  -1  730.43   33.50
  -4  -2  -1  746.73   34.90
   4   2   1  760.92   41.00
   4   2   1  773.92   26.20
   4   2   1  744.03   39.20
  -5  -2  -1   81.59   12.30
  -5  -2  -1  102.39   15.20
  -5  -2  -1   77.79   14.90
   5   2   1   65.99   14.30
   5   2   1   62.89   13.30
  -6  -2  -1    8.80    6.60
  -6  -2  -1    5.90    6.00
  -6  -2  -1   11.80    6.40
   6   2   1    8.00    7.50
  -7  -2  -1   11.00    7.50
  -7  -2  -1   17.60    8.40
  -7  -2  -1    6.00    7.10
  -8  -2  -1   -3.50    7.40
  -8  -2  -1    2.80    7.30
  -8  -2  -1    1.50    6.50
  -9  -2  -1    2.80    8.00
  -9  -2  -1    0.80    7.50
  -9   3   1   -1.90    6.60
   8  -3  -1   21.90   10.20
  -8   3   1   25.30   10.00
  -8   3   1   11.40    7.30
  -8   3   1   -1.10    5.00
   7  -3  -1    6.00    7.10
  -7   3   1   36.00   10.40
  -7   3   1   42.10   11.10
  -7   3   1   18.90    7.50
   6  -3  -1   15.20    7.60
  -6   3   1   44.90    9.00
  -6   3   1   18.60    7.10
  -6   3   1   26.00    8.20
  -6   3   1   26.30    9.20
   5  -3  -1  101.59   16.30
  -5   3   1  131.99   14.10
  -5   3   1  128.59   15.70
  -5   3   1  162.68   17.20
  -5   3   1   92.19   13.30
   4  -3  -1   44.40   10.40
   4  -3  -1   62.09    8.00
  -4   3   1   63.99    7.90
  -4   3   1   62.79   10.10
  -4   3   1   66.29   10.20
  -4   3   1   60.09   10.10
   3  -3  -1  669.03   24.20
   3  -3  -1  664.23   26.60
   3  -3  -1  709.53   23.10
   3  -3  -1  609.24   33.50
  -3   3   1  671.53   31.40
  -3   3   1  671.83   26.60
  -3   3   1  698.13   29.10
   2  -3  -1   36.70    4.30
   2  -3  -1   34.40    5.00
   2  -3  -1   36.60    8.00
   2  -3  -1   40.70    5.60
  -2   3   1   46.50    6.10
  -2   3   1   39.20    7.60
   1  -3  -1  992.50   37.20
   1  -3  -1 1025.70   37.70
   1  -3  -1 1035.40   37.20
   1  -3  -1 1007.90   40.30
  -1   3   1 1005.10   37.60
  -1   3   1  986.80   40.80
  -1   3   1 1028.30   35.80
  -1   3   1  955.10   33.30
   0  -3  -1   58.39    7.70
   0  -3  -1   51.89    7.60
   0  -3  -1   62.89    8.90
   0  -3  -1   57.79    6.40
   0  -3  -1   55.39    8.20
   0  -3  -1   53.09    7.00
   0   3   1   44.60    7.70
   0   3   1   62.09    8.00
   0   3   1   49.00    9.40
  -1  -3  -1  741.23   32.30
  -1  -3  -1  714.23   29.70
  -1  -3  -1  717.73   33.90
  -1  -3  -1  711.13   27.10
  -1  -3  -1  741.73   28.10
  -1  -3  -1  758.42   26.20
   1   3   1  655.03   33.10
   1   3   1  656.93   28.40
   1   3   1  664.53   32.30
  -2  -3  -1    6.60    1.80
  -2  -3  -1    3.90    1.60
  -2  -3  -1    4.30    3.80
  -2  -3  -1    2.30    2.60
  -2  -3  -1    9.30    3.90
   2   3   1   14.80    5.40
   2   3   1   11.30    3.80
   2   3   1   11.80    3.30
   2   3   1   -1.50    2.60
  -3  -3  -1   99.79   14.60
  -3  -3  -1  130.69   13.80
  -3  -3  -1  105.09   12.80
   3   3   1   87.99    9.60
   3   3   1   89.19   14.30
   3   3   1   88.39   14.00
  -4  -3  -1   37.10    8.60
  -4  -3  -1   45.70    9.20
  -4  -3  -1   46.00   11.10
   4   3   1   47.60   12.40
   4   3   1   19.70    8.80
  -5  -3  -1   -0.80    3.60
  -5  -3  -1   -2.60    4.70
  -5  -3  -1   11.00    5.80
   5   3   1    0.90    5.90
  -6  -3  -1    0.00    5.30
  -6  -3  -1   -1.60    4.10
  -6  -3  -1    0.60    4.20
   6   3   1    5.00    8.70
  -7  -3  -1   10.90    9.10
  -7  -3  -1    8.20    6.70
  -7  -3  -1    8.40    7.30
  -8  -3  -1   30.50   11.50
  -8  -3  -1    8.40   10.50
  -8  -3  -1   34.10   11.70
   9  -4  -1   -4.30    8.30
  -9   4   1    7.40    7.90
   8  -4  -1   -1.00    7.60
  -8   4   1   16.50    9.50
  -8   4   1    7.80    7.80
   7  -4  -1   -0.60    6.20
  -7   4   1   -2.10    4.40
  -7   4   1   -0.80    4.80
   6  -4  -1    5.00    5.80
  -6   4   1    4.10    4.70
  -6   4   1   -2.30    3.90
   5  -4  -1   12.40    7.80
  -5   4   1    3.70    3.80
  -5   4   1   10.80    5.70
   4  -4  -1  270.57   22.30
  -4   4   1  275.87   19.60
  -4   4   1  269.77   19.20
   3  -4  -1 1592.84   65.99
   3  -4  -1 1578.04   53.19
   3  -4  -1 1633.84   55.19
  -3   4   1 1638.64   54.79
  -3   4   1 1620.74   62.59
   2  -4  -1  140.59   14.10
   2  -4  -1  126.69    9.60
   2  -4  -1  122.59   11.60
   2  -4  -1   86.99   12.60
  -2   4   1  104.19    8.90
  -2   4   1  135.49   16.20
   1  -4  -1   13.30    4.50
   1  -4  -1   23.60    6.00
   1  -4  -1   18.00    4.60
   1  -4  -1   17.20    5.10
   1  -4  -1   24.60    6.90
  -1   4   1   24.70    4.20
  -1   4   1   12.30    3.80
  -1   4   1   30.90    8.20
  -1   4   1   14.70    4.60
   0  -4  -1  270.77   18.90
   0  -4  -1  300.97   14.90
   0  -4  -1  307.97   16.80
   0  -4  -1  332.77   18.20
   0  -4  -1  315.47   18.80
   0  -4  -1  295.87   18.70
   0   4   1  301.57   19.40
   0   4   1  288.17   20.70
   0   4   1  290.17   17.00
  -1  -4  -1  190.48   12.00
  -1  -4  -1  213.78   11.40
  -1  -4  -1  212.08   13.80
  -1  -4  -1  203.08   16.20
  -1  -4  -1  183.18   13.90
   1   4   1  193.58   13.80
   1   4   1  186.68   11.80
   1   4   1  158.08   18.90
   1   4   1  193.48   16.20
  -2  -4  -1  110.49   15.90
  -2  -4  -1   82.09   11.50
  -2  -4  -1  106.59   11.80
  -2  -4  -1   93.69    6.40
   2   4   1   88.39   11.20
   2   4   1   87.49   15.00
   2   4   1   61.49   11.50
  -3  -4  -1   33.00    9.10
  -3  -4  -1   20.00    6.10
  -3  -4  -1   13.00    5.40
   3   4   1   13.10    6.90
   3   4   1   19.80    8.30
  -4  -4  -1    0.80    3.40
  -4  -4  -1   13.60    7.10
  -4  -4  -1   10.40    7.30
   4   4   1   -4.90    5.20
  -5  -4  -1  291.27   32.20
  -5  -4  -1  284.57   28.10
  -5  -4  -1  258.27   24.30
   5   4   1  204.98   27.70
  -6  -4  -1   32.30    9.90
  -6  -4  -1    1.50    7.30
  -6  -4  -1   20.20    8.50
   6   4   1   27.20   12.10
  -7  -4  -1   62.49   14.90
  -7  -4  -1   71.19   18.80
  -7  -4  -1   74.49   14.90
  -8  -4  -1   22.20   11.30
  -8  -4  -1    4.90    7.20
  -8  -4  -1   20.20   10.60
   9  -5  -1   10.20   12.00
  -9   5   1    5.20    7.60
   8  -5  -1    3.20    7.50
  -8   5   1    0.70    5.60
   7  -5  -1    5.40    7.60
  -7   5   1    2.40    6.20
  -7   5   1    2.40    6.10
   6  -5  -1  102.79   19.90
  -6   5   1   80.99   14.90
   5  -5  -1   10.60    6.70
  -5   5   1   11.10    6.30
   4  -5  -1   28.30   10.10
  -4   5   1   26.90    8.70
   3  -5  -1   75.69   15.00
   3  -5  -1   64.79   10.50
  -3   5   1   96.19   15.10
   2  -5  -1   69.49   10.30
   2  -5  -1   69.39   10.80
   2  -5  -1   71.39   12.20
   2  -5  -1   62.19    8.90
  -2   5   1   67.59    7.30
  -2   5   1   55.09   11.90
  -2   5   1   65.49    9.10
   1  -5  -1   24.50    7.10
   1  -5  -1   22.60    5.50
   1  -5  -1   16.20    6.00
   1  -5  -1   14.20    4.00
   1  -5  -1   18.70    6.20
   1  -5  -1   18.20    6.00
  -1   5   1   19.90    7.50
  -1   5   1   20.30    4.30
  -1   5   1   17.30    5.90
  -1   5   1   11.30    5.60
   0  -5  -1   10.60    3.40
   0  -5  -1   17.20    5.80
   0  -5  -1   18.30    5.00
   0  -5  -1   24.90    7.80
   0  -5  -1   10.20    4.40
   0   5   1    8.60    4.10
   0   5   1   16.60    7.60
   0   5   1   21.60    7.20
  -1  -5  -1  112.59   15.10
  -1  -5  -1  114.69   13.50
  -1  -5  -1   93.19   12.60
   1   5   1   85.79   11.90
   1   5   1  115.69   18.60
   1   5   1   78.29   13.20
  -2  -5  -1   14.80    8.10
  -2  -5  -1   17.00    5.30
  -2  -5  -1   15.80    6.30
   2   5   1   17.90    7.60
   2   5   1   24.00    8.50
   2   5   1   16.40    6.10
  -3  -5  -1 1306.27   53.99
  -3  -5  -1 1277.37   55.69
  -3  -5  -1 1327.57   61.49
   3   5   1 1394.36   65.19
  -4  -5  -1  490.15   29.20
  -4  -5  -1  500.05   31.00
  -4  -5  -1  480.75   35.30
  -5  -5  -1  102.09   17.00
  -5  -5  -1   71.29   16.60
  -5  -5  -1   63.99   12.80
   5   5   1   83.39   19.00
  -6  -5  -1   25.20   10.50
  -6  -5  -1   50.49   15.90
  -6  -5  -1   45.10   13.50
  -7  -5  -1   -2.50    5.90
  -7  -5  -1   -1.80    7.70
  -7  -5  -1    8.40    7.10
   8  -6  -1  -12.00    6.50
   7  -6  -1   23.30   12.10
  -7   6   1   19.90   10.20
   6  -6  -1   29.80   12.70
  -6   6   1   24.30    9.10
   5  -6  -1    6.40    5.90
  -5   6   1    5.50    5.80
   4  -6  -1   50.99   10.70
   4  -6  -1   37.30   12.70
   3  -6  -1   32.90    8.20
   3  -6  -1   41.40   12.10
  -3   6   1   37.30   10.90
   2  -6  -1   33.20   10.20
   2  -6  -1   38.50    9.00
  -2   6   1   32.20   10.80
   1  -6  -1  162.98   20.50
   1  -6  -1  204.98   20.60
   1  -6  -1  151.58   17.60
  -1   6   1  195.68   23.80
   0  -6  -1   84.49   13.40
   0  -6  -1   63.89   12.40
   0  -6  -1   53.89   12.00
   0   6   1   79.89   13.70
   0   6   1   63.99   14.90
  -1  -6  -1   29.60    8.30
  -1  -6  -1   55.59   12.10
   1   6   1   41.70   10.30
   1   6   1   25.40   10.60
  -2  -6  -1 1165.78   51.49
  -2  -6  -1 1145.89   55.39
  -2  -6  -1 1123.59   48.60
   2   6   1 1085.39   58.29
  -3  -6  -1    4.30    6.90
  -3  -6  -1    5.90    5.20
  -3  -6  -1    9.60    5.50
   3   6   1    2.80    7.80
  -4  -6  -1   -3.10    4.50
  -4  -6  -1    6.10    7.90
  -4  -6  -1    3.30    5.40
  -5  -6  -1   33.80   12.80
  -5  -6  -1   22.00    8.60
  -5  -6  -1   12.60    8.40
  -6  -6  -1    7.90    7.60
  -6  -6  -1   25.00   11.70
  -6  -6  -1    2.80    8.10
  -7  -6  -1   11.10    8.50
  -7  -6  -1   -2.70    9.10
   8  -7  -1    4.90   10.10
   7  -7  -1   13.90   11.50
   6  -7  -1   32.30   10.00
   6  -7  -1   30.10   13.30
  -6   7   1   23.80   10.10
   5  -7  -1   52.19   12.40
   5  -7  -1   40.60   13.60
  -5   7   1   31.00    9.40
   4  -7  -1   24.50    8.40
   4  -7  -1   22.40    9.20
   3  -7  -1    3.80    5.00
   3  -7  -1   46.40   11.70
  -3   7   1   25.30   10.60
   2  -7  -1   43.50   10.20
   2  -7  -1   50.59   13.50
  -2   7   1   40.10   12.30
   1  -7  -1  227.78   24.30
   1  -7  -1  257.97   25.90
   1  -7  -1  192.38   24.90
  -1   7   1  166.58   24.40
   0  -7  -1   91.69   15.70
   0  -7  -1   91.49   15.00
   0   7   1  120.29   22.80
  -1  -7  -1    2.00    5.60
  -1  -7  -1    4.30    5.60
   1   7   1   17.20    9.70
  -2  -7  -1   24.80    9.40
  -2  -7  -1    9.80    7.00
  -2  -7  -1   20.90    8.10
   2   7   1   20.50   11.80
  -3  -7  -1   -0.80    7.60
  -3  -7  -1   -8.90    3.70
  -3  -7  -1   -0.10    4.40
  -4  -7  -1    1.30    6.90
  -4  -7  -1   13.50    7.70
  -4  -7  -1   11.70    7.10
  -5  -7  -1   -1.40    7.40
  -5  -7  -1    3.30    6.60
  -5  -7  -1   -1.50    6.10
  -6  -7  -1   -1.60    8.40
  -6  -7  -1   -3.80    7.00
  -6  -7  -1   -2.90    7.00
   7  -8  -1   15.20    9.50
   7  -8  -1    1.40    8.70
   6  -8  -1   50.79   19.00
   6  -8  -1   10.10    8.30
   5  -8  -1    7.20    7.10
   5  -8  -1   -3.00    7.90
  -5   8   1   -3.80    6.10
   4  -8  -1    8.10    6.80
   4  -8  -1   -1.20    6.60
   3  -8  -1   17.90    9.60
   3  -8  -1    9.30    6.90
   2  -8  -1   15.90    8.00
   2  -8  -1   10.60    7.70
  -2   8   1   -3.10    8.00
   1  -8  -1   24.30   10.50
   1  -8  -1    9.40    6.90
  -1   8   1   11.00    9.80
   0  -8  -1    7.90    6.90
   0  -8  -1    4.90    5.20
  -1  -8  -1   24.80   10.80
  -1  -8  -1   37.90   11.60
  -2  -8  -1   46.80   12.30
  -2  -8  -1   43.60   10.90
  -2  -8  -1   33.30   12.60
  -3  -8  -1    7.60   11.00
  -3  -8  -1    5.10    8.10
  -3  -8  -1    8.60    7.00
  -4  -8  -1   13.90    8.70
  -4  -8  -1   11.20    7.40
  -4  -8  -1    7.00    9.60
  -5  -8  -1   -1.10    8.90
  -5  -8  -1    2.90    8.00
  -5  -8  -1    0.00    7.90
   6  -9  -1   -1.80   10.20
   6  -9  -1  -10.10    6.10
   5  -9  -1   21.40   10.40
   5  -9  -1    4.00    9.30
   4  -9  -1    8.60    8.10
   4  -9  -1   10.80    9.80
   3  -9  -1   20.90    9.50
   3  -9  -1   12.30   12.60
   2  -9  -1    7.90    8.90
   2  -9  -1    4.20    6.70
   1  -9  -1   36.90   11.80
   0  -9  -1    9.60    7.70
  -1  -9  -1   26.20   12.20
  -1  -9  -1   36.10   12.00
  -2  -9  -1   34.10   10.80
  -2  -9  -1   60.99   18.00
  -2  -9  -1   39.30   12.80
  -3  -9  -1   47.30   13.50
  -3  -9  -1   56.89   17.20
  -3  -9  -1   28.60   12.30
  -4  -9  -1    4.20    9.30
  -4  -9  -1   11.90   10.70
   4 -10  -1   23.50   11.40
   4 -10  -1    7.00   10.90
   3 -10  -1   -4.60    8.90
   3 -10  -1    6.60    7.30
   2 -10  -1   -5.80    6.80
   1 -10  -1   83.09   19.20
   0 -10  -1   25.00   11.80
  -1 -10  -1   29.80   10.90
  -1 -10  -1   42.70   13.90
  -2 -10  -1   33.60   14.20
  -2 -10  -1   22.70   10.30
  -1 -11   2    6.30    8.20
   0 -11   2  108.09   22.00
   1 -11   2   54.99   16.30
   2 -11   2   26.20   16.00
   2 -11   2   50.09   15.90
   3 -11   2   16.30    9.50
   3 -11   2   -8.70    9.90
  -3 -10   2    4.00    7.50
  -3 -10   2   12.40   10.70
  -2 -10   2    9.30    8.20
  -2 -10   2   -8.20    6.10
  -1 -10   2    4.00    7.60
   0 -10   2    2.30    6.70
   1 -10   2   26.10   13.60
   1 -10   2   22.30    9.90
   2 -10   2   20.90    9.50
   2 -10   2   -5.00    8.20
   3 -10   2   -5.20    6.70
   3 -10   2    2.20    7.40
   4 -10   2    0.20    6.30
   4 -10   2    3.90    8.80
   5 -10   2    9.40   10.00
   5 -10   2   -2.10    6.70
  -4  -9   2    1.00    7.50
  -4  -9   2   -5.50    6.50
  -4  -9   2    1.90    9.20
  -3  -9   2   15.90   10.90
  -3  -9   2   29.10   10.20
  -3  -9   2   33.10   11.50
  -2  -9   2   -1.60    7.10
  -2  -9   2   -0.60    5.20
  -1  -9   2   12.10    9.20
   0   9  -2   -4.20   13.80
   0  -9   2   -2.70    6.40
   0  -9   2    4.40    6.50
   1  -9   2   42.80   11.80
   1  -9   2   45.50   14.80
   2  -9   2   11.40    9.20
   2  -9   2   12.00    7.50
  -3   9  -2    1.40    5.30
   3  -9   2    0.50    6.10
   3  -9   2    5.30    8.10
  -4   9  -2    1.10    6.60
   4  -9   2    0.40    5.10
   4  -9   2    2.10    9.10
  -5   9  -2   -0.20    6.30
   5  -9   2    0.50    8.60
   5  -9   2    0.10    6.10
   6  -9   2    0.90   10.60
   6  -9   2   -3.10    6.60
   7  -9   2    6.90   13.00
   7  -9   2    7.60    8.20
  -6  -8   2   -4.60    7.40
  -6  -8   2   -2.10    9.60
  -5  -8   2    1.80    8.40
  -5  -8   2    6.70    7.60
  -5  -8   2   -1.90    8.00
  -4  -8   2   -1.30    6.60
  -4  -8   2   -2.90    5.30
  -4  -8   2    6.60    7.10
  -3  -8   2    2.70    5.90
  -3  -8   2    1.40    5.90
  -3  -8   2    7.60    7.90
  -2  -8   2   68.39   13.70
  -2  -8   2   68.19   16.50
   1   8  -2    3.90    9.00
  -1  -8   2   16.30    8.40
  -1  -8   2    3.00    4.80
   0   8  -2  149.88   23.40
   0  -8   2   98.99   16.00
   0  -8   2  139.19   22.70
  -1   8  -2   18.40    8.80
   1  -8   2    1.10    7.00
   1  -8   2   -2.70    3.50
  -2   8  -2   52.89   10.60
   2  -8   2   50.59   11.80
  -3   8  -2   66.29   12.10
   3  -8   2   56.59   13.00
   3  -8   2   55.99   17.00
  -4   8  -2   16.00    8.50
   4  -8   2    8.40    8.60
   4  -8   2   18.70    7.90
  -5   8  -2   20.70    8.80
   5  -8   2   30.60   13.70
   5  -8   2    0.30    4.90
  -6   8  -2    2.70    5.90
   6  -8   2    2.90    9.60
   7  -8   2   15.50   12.00
  -6  -7   2   11.30    8.60
  -6  -7   2   24.30   13.30
  -6  -7   2   19.90   10.30
  -5  -7   2   -0.30    5.60
  -5  -7   2    5.30    6.40
  -5  -7   2   14.00    8.80
  -4  -7   2   11.00    6.90
  -4  -7   2   12.40    7.20
  -4  -7   2   23.00   10.50
   3   7  -2   11.90   10.80
  -3  -7   2   33.20    9.90
  -3  -7   2   12.50    8.40
  -3  -7   2   15.20    6.70
   2   7  -2  112.19   20.40
  -2  -7   2  104.49   17.90
  -2  -7   2  113.09   17.00
   1   7  -2   72.19   14.30
   1   7  -2   37.90   12.00
  -1  -7   2   69.29   13.70
  -1  -7   2   53.19   11.70
  -1  -7   2   61.39   12.60
   0   7  -2   36.90   11.40
   0  -7   2   25.50    8.50
   0  -7   2   33.90   11.00
   0  -7   2   47.10   10.40
  -1   7  -2  162.78   21.80
   1  -7   2  200.98   25.70
   1  -7   2  166.58   19.00
  -2   7  -2  688.63   32.90
  -2   7  -2  688.13   37.00
   2  -7   2  561.84   38.80
   2  -7   2  594.14   33.40
  -3   7  -2  433.66   26.10
   3  -7   2  382.46   25.50
   3  -7   2  318.17   34.80
  -4   7  -2   52.19   11.20
   4  -7   2   99.89   21.40
  -5   7  -2   58.29   13.00
   5  -7   2   38.40   13.00
  -6   7  -2    3.00    5.20
   6  -7   2   -9.40    5.90
   7  -7   2   38.80   15.60
   8  -7   2   33.70   16.10
  -7  -6   2    8.70    8.70
  -7  -6   2   -0.80    6.00
  -7  -6   2    4.50   10.00
  -6  -6   2   51.39   13.60
  -6  -6   2   19.40   11.80
  -6  -6   2   36.00   10.50
  -5  -6   2   -5.00    5.50
  -5  -6   2    2.80    6.30
  -5  -6   2   12.30    7.30
   4   6  -2   18.00   12.00
  -4  -6   2   -1.50    4.40
  -4  -6   2    8.60    6.00
  -4  -6   2   16.10    7.30
   3   6  -2   53.99   15.90
  -3  -6   2   44.30    9.50
  -3  -6   2   44.60   12.30
  -3  -6   2   39.30    9.30
   2   6  -2  187.08   22.40
   2   6  -2  221.78   27.70
   2   6  -2  219.88   25.10
  -2  -6   2  277.17   24.80
  -2  -6   2  221.88   24.10
  -2  -6   2  263.77   20.20
   1   6  -2   -0.50    6.50
   1   6  -2   -1.10    2.90
   1   6  -2    2.90    5.00
  -1  -6   2   -5.30    3.00
  -1  -6   2   -1.30    3.70
  -1  -6   2   -2.10    3.00
   0   6  -2   15.60    6.10
   0   6  -2    3.90    5.30
   0   6  -2   11.00    4.10
   0  -6   2   18.00    7.30
   0  -6   2   11.00    5.10
   0  -6   2   20.90    6.90
   0  -6   2    9.40    3.80
  -1   6  -2  206.68   21.90
  -1   6  -2  206.88   21.20
   1  -6   2  204.48   23.70
   1  -6   2  210.88   16.30
   1  -6   2  222.88   15.70
  -2   6  -2  307.37   19.40
  -2   6  -2  282.67   20.70
   2  -6   2  285.97   16.90
   2  -6   2  341.67   21.20
   2  -6   2  345.37   26.40
  -3   6  -2  204.58   19.80
   3  -6   2  189.18   24.20
  -4   6  -2   19.30    6.60
   4  -6   2    1.20    4.90
  -5   6  -2  166.48   20.20
   5  -6   2  128.59   22.60
  -6   6  -2  277.07   28.10
  -6   6  -2  239.48   26.20
   6  -6   2  325.67   36.70
  -7   6  -2   60.79   14.50
  -7   6  -2   67.19   14.10
   7  -6   2   66.39   17.60
  -8   6  -2    1.50    7.40
   8  -6   2   -4.30    7.50
  -9   6  -2  -10.30    6.80
   9  -6   2    9.80   13.10
  -8  -5   2   18.00   11.10
  -8  -5   2   13.40    9.10
  -8  -5   2    7.00    9.30
  -7  -5   2   -9.30    5.30
  -7  -5   2   -0.40    6.70
  -7  -5   2   -1.60    6.60
  -6  -5   2   11.80    6.50
  -6  -5   2    7.40    7.60
  -6  -5   2   12.60    7.30
   5   5  -2    1.70    7.50
  -5  -5   2    6.40    5.30
  -5  -5   2   -3.70    3.90
  -5  -5   2   -2.40    5.70
   4   5  -2   -0.90    6.80
  -4  -5   2    4.40    4.30
  -4  -5   2   -0.40    6.30
  -4  -5   2    5.90    5.10
   3   5  -2    1.30    7.10
   3   5  -2    3.40    5.70
  -3  -5   2   18.30    7.70
  -3  -5   2   10.70    5.40
  -3  -5   2   10.40    5.40
  -3  -5   2   23.30    7.50
   2   5  -2  310.87   31.20
   2   5  -2  233.68   24.10
   2   5  -2  271.57   16.60
  -2  -5   2  268.27   18.90
  -2  -5   2  267.27   18.10
  -2  -5   2  236.08   23.40
   1   5  -2  254.57   26.10
   1   5  -2  222.88   14.70
   1   5  -2  193.38   16.80
  -1  -5   2  186.28   16.10
  -1  -5   2  211.58   15.10
  -1  -5   2  218.28   21.00
  -1  -5   2  206.28   12.10
  -1  -5   2  221.08   11.50
   0   5  -2  257.57   15.80
   0   5  -2  264.27   14.50
   0   5  -2  244.68   18.90
   0   5  -2  271.67   17.70
   0   5  -2  227.08   16.30
   0  -5   2  276.57   15.30
   0  -5   2  278.97   17.20
   0  -5   2  263.97   17.00
   0  -5   2  246.38   19.50
  -1   5  -2   11.40    4.10
  -1   5  -2    9.00    3.20
  -1   5  -2   11.70    3.70
  -1   5  -2   17.70    4.60
  -1   5  -2   10.10    5.20
   1  -5   2   13.80    4.30
   1  -5   2   21.20    5.50
   1  -5   2    8.50    5.30
  -2   5  -2  359.56   18.80
  -2   5  -2  430.36   19.70
  -2   5  -2  407.96   15.70
  -2   5  -2  400.06   21.40
  -2   5  -2  416.26   22.50
   2  -5   2  421.46   27.90
   2  -5   2  421.26   19.50
   2  -5   2  426.06   22.60
  -3   5  -2   65.29   10.40
  -3   5  -2   55.59    8.20
   3  -5   2   65.29   13.50
   3  -5   2   71.49    8.80
  -4   5  -2   -0.80    3.60
  -4   5  -2   -1.30    3.00
   4  -5   2   -0.10    4.30
  -5   5  -2   99.59   15.10
  -5   5  -2  113.09   15.50
   5  -5   2   69.39   14.40
  -6   5  -2    4.30    5.80
  -6   5  -2    8.30    6.40
   6  -5   2    4.50    6.20
  -7   5  -2    5.20    7.00
  -7   5  -2   -1.60    4.40
   7  -5   2   -0.80    6.30
  -8   5  -2   -2.00    5.80
   8  -5   2    3.10    8.10
  -9   5  -2   -2.20    6.60
  -8  -4   2    8.30    8.80
  -8  -4   2   -3.80    6.10
  -7  -4   2    5.70    6.80
  -7  -4   2   -0.50    5.00
  -7  -4   2    0.90    5.60
   6   4  -2    5.30    8.70
  -6  -4   2   -1.00    4.90
  -6  -4   2   17.00    9.20
  -6  -4   2    5.70    5.70
   5   4  -2   -3.20    6.70
  -5  -4   2    1.30    4.00
  -5  -4   2    8.70    6.90
  -5  -4   2    6.00    5.10
   4   4  -2   52.79   14.10
  -4  -4   2   58.09   12.60
  -4  -4   2   47.90    9.60
  -4  -4   2   61.29   10.40
   3   4  -2  534.35   33.50
  -3  -4   2  540.65   27.30
  -3  -4   2  536.55   31.50
  -3  -4   2  601.04   28.10
  -3  -4   2  574.84   27.00
   2   4  -2  220.18   12.90
   2   4  -2  218.48   18.10
   2   4  -2  217.58   23.00
  -2  -4   2  214.18   15.50
  -2  -4   2  214.28   14.50
  -2  -4   2  226.08   17.50
   1   4  -2 1479.55   60.59
   1   4  -2 1479.15   57.99
   1   4  -2 1530.65   57.39
   1   4  -2 1485.35   51.89
  -1  -4   2 1472.55   57.19
  -1  -4   2 1491.45   56.19
  -1  -4   2 1497.75   57.09
  -1  -4   2 1544.25   48.30
  -1  -4   2 1441.86   53.19
  -1  -4   2 1502.45   48.90
   0   4  -2  445.16   21.50
   0   4  -2  397.76   21.00
   0   4  -2  423.16   18.40
   0   4  -2  419.26   19.80
   0   4  -2  479.05   24.80
   0  -4   2  416.46   24.20
   0  -4   2  410.06   20.30
   0  -4   2  399.36   18.60
  -1   4  -2  221.78   14.20
  -1   4  -2  203.98   11.30
  -1   4  -2  208.58   11.60
  -1   4  -2  208.08   12.50
  -1   4  -2  223.58   11.50
  -1   4  -2  208.98   12.20
   1  -4   2  196.48   12.10
   1  -4   2  207.98   16.30
   1  -4   2  198.28   12.90
   1  -4   2  208.78   11.40
  -2   4  -2  842.42   30.70
  -2   4  -2  819.42   29.70
  -2   4  -2  829.92   32.70
  -2   4  -2  897.41   34.70
   2  -4   2  925.61   32.20
   2  -4   2  810.62   32.50
   2  -4   2  791.42   39.50
  -3   4  -2  173.18   13.40
  -3   4  -2  180.18   14.00
  -3   4  -2  169.38   10.30
   3  -4   2  182.78   11.80
   3  -4   2  179.88   11.00
   3  -4   2  180.78   10.80
   3  -4   2  202.68   21.70
  -4   4  -2   52.89   10.10
  -4   4  -2   52.89    9.40
   4  -4   2   36.30   10.00
  -5   4  -2    4.00    4.10
  -5   4  -2    4.80    4.60
   5  -4   2    3.40    5.00
  -6   4  -2   24.50    7.90
  -6   4  -2   11.50    7.30
  -6   4  -2   13.70    6.00
   6  -4   2   14.00    7.80
  -7   4  -2   15.10    8.60
  -7   4  -2   27.20    9.20
  -7   4  -2   12.20    7.60
   7  -4   2   18.40   10.00
  -8   4  -2    9.60    7.40
  -8   4  -2   -1.50    6.30
  -8   4  -2   -0.50    5.70
  -9   4  -2    7.50    7.50
  -9   4  -2    0.50    8.90
  -9  -3   2    6.20   10.20
  -8  -3   2   10.50    7.80
  -8  -3   2   -6.70    6.20
  -7  -3   2    0.70    5.40
  -7  -3   2   -3.00    6.10
  -7  -3   2   -1.30    5.90
   6   3  -2    0.20    7.10
  -6  -3   2   -0.80    5.40
  -6  -3   2    2.80    4.90
  -6  -3   2    5.40    5.10
   5   3  -2    5.60    6.80
  -5  -3   2    6.40    4.70
  -5  -3   2    2.80    3.90
  -5  -3   2    8.50    6.50
   4   3  -2   26.90    7.90
   4   3  -2   43.20   12.10
  -4  -3   2   19.50    5.30
  -4  -3   2   16.10    6.70
  -4  -3   2   48.50    9.40
  -4  -3   2   46.00    8.20
   3   3  -2 1947.21   61.19
   3   3  -2 2067.89   78.69
   3   3  -2 2017.30   61.09
   3   3  -2 2085.99   78.89
  -3  -3   2 1964.00   68.79
  -3  -3   2 1986.20   74.29
  -3  -3   2 1929.81   76.29
  -3  -3   2 1959.40   69.49
  -3  -3   2 1998.10   68.09
   2   3  -2    8.10    2.30
   2   3  -2   16.80    5.50
   2   3  -2   10.70    4.00
   2   3  -2   24.60    7.60
   2   3  -2   16.70    2.90
  -2  -3   2   11.90    5.00
  -2  -3   2   13.60    5.40
  -2  -3   2   18.80    4.50
  -2  -3   2   27.90    5.90
   1   3  -2 2151.58   68.59
   1   3  -2 2047.30   74.19
   1   3  -2 2196.38   76.69
  -1  -3   2 2151.68   74.89
  -1  -3   2 2102.69   66.09
  -1  -3   2 2183.78   74.39
  -1  -3   2 2253.07   73.39
  -1  -3   2 2244.38   73.89
  -1  -3   2 2143.89   65.69
   0   3  -2   13.20    4.50
   0   3  -2   11.70    2.60
   0   3  -2   14.80    2.60
   0   3  -2   13.30    3.50
   0   3  -2   13.40    3.40
   0  -3   2   12.50    2.90
   0  -3   2    0.40    2.40
   0  -3   2   13.40    3.90
  -1   3  -2  881.51   30.20
  -1   3  -2  897.01   29.60
  -1   3  -2  717.63   31.10
  -1   3  -2  894.01   31.30
  -1   3  -2  893.41   31.20
   1  -3   2  819.82   29.40
   1  -3   2  745.93   30.60
   1  -3   2  921.71   30.40
   1  -3   2  930.71   37.40
   1  -3   2  913.11   32.60
  -2   3  -2  530.65   18.60
  -2   3  -2  496.95   18.20
  -2   3  -2  518.25   23.20
  -2   3  -2  520.35   22.80
  -2   3  -2  509.85   19.00
   2  -3   2  506.45   26.60
   2  -3   2  491.15   19.20
   2  -3   2  517.05   20.20
   2  -3   2  493.35   16.40
   2  -3   2  521.35   20.90
  -3   3  -2   11.20    2.10
  -3   3  -2    8.70    4.20
  -3   3  -2    5.70    2.90
  -3   3  -2    8.50    3.80
   3  -3   2   10.90    2.30
   3  -3   2   18.50    6.40
   3  -3   2    6.80    2.60
   3  -3   2   13.50    2.10
   3  -3   2   12.00    3.20
   3  -3   2   11.80    2.00
  -4   3  -2  144.09   15.40
  -4   3  -2  158.68   16.50
  -4   3  -2  149.69   14.90
   4  -3   2  143.99    8.40
   4  -3   2  126.49    8.40
   4  -3   2  135.29    8.20
   4  -3   2  134.29    7.70
   4  -3   2  136.49   16.50
   4  -3   2  120.69    8.30
  -5   3  -2  516.05   28.30
  -5   3  -2  483.95   28.50
  -5   3  -2  511.65   27.10
   5  -3   2  490.65   30.70
   5  -3   2  518.55   19.40
  -6   3  -2   11.70    6.10
  -6   3  -2   20.90    8.10
  -6   3  -2   32.00    9.20
   6  -3   2    6.40    7.00
  -7   3  -2   10.50    6.20
  -7   3  -2   -1.10    4.10
  -7   3  -2   13.50    7.20
   7  -3   2   10.60    7.60
  -8   3  -2   -2.40    5.50
  -8   3  -2   -0.80    5.50
  -8   3  -2    7.00    7.20
  -9   3  -2   11.20    9.20
  -9   3  -2   -0.80    8.20
  -9  -2   2   12.30    9.70
  -8  -2   2   17.30    9.00
  -8  -2   2    3.80    6.10
   7   2  -2    1.20    7.90
  -7  -2   2    6.60    5.80
  -7  -2   2    1.30    5.20
   6   2  -2    1.80    6.10
  -6  -2   2    1.10    4.60
  -6  -2   2    2.10    5.60
  -6  -2   2   -3.10    4.00
   5   2  -2   29.50   10.10
   5   2  -2   21.70    8.60
  -5  -2   2   10.30    6.70
  -5  -2   2    6.30    4.00
  -5  -2   2   19.90    7.80
  -5  -2   2   21.30    5.50
  -5  -2   2    5.40    4.20
  -5  -2   2    2.40    4.40
   4   2  -2   13.90    5.90
   4   2  -2   27.70    9.10
  -4  -2   2   19.70    4.70
  -4  -2   2    2.90    4.60
  -4  -2   2   32.80    8.80
  -4  -2   2   17.80    7.10
  -4  -2   2   24.80    5.80
  -4  -2   2   11.00    4.20
   3   2  -2    6.60    5.10
  -3  -2   2    1.90    3.00
  -3  -2   2   -0.50    2.20
  -3  -2   2   -2.20    2.30
  -3  -2   2    2.00    1.70
  -3  -2   2    2.10    2.20
  -3  -2   2    3.60    3.90
  -3  -2   2    0.00    1.90
   2   2  -2  718.33   31.40
   2   2  -2  643.44   31.90
   2   2  -2  580.84   30.50
  -2  -2   2  650.23   30.40
  -2  -2   2  625.44   29.80
  -2  -2   2  680.63   27.90
  -2  -2   2  678.33   25.10
   1   2  -2  451.85   21.70
   1   2  -2  404.46   14.90
  -1  -2   2  383.56   19.40
  -1  -2   2  390.56   19.50
  -1  -2   2  399.96   19.30
   0   2  -2 1265.07   40.70
   0   2  -2 1307.57   42.60
   0   2  -2 1191.78   38.80
   0   2  -2 1233.98   42.40
   0   2  -2 1195.88   43.40
   0  -2   2 1235.88   42.50
   0  -2   2 1264.67   39.60
   0  -2   2 1232.68   40.20
   0  -2   2 1297.57   42.80
   0  -2   2 1329.77   45.60
   0  -2   2 1167.28   43.10
  -1   2  -2 2613.34   77.79
  -1   2  -2 2490.25   78.79
  -1   2  -2 2560.74   77.69
  -1   2  -2 2513.45   77.49
  -1   2  -2 2582.34   76.49
  -1   2  -2 2512.85   77.09
   1  -2   2 2476.45   83.09
   1  -2   2 2475.05   76.99
   1  -2   2 2605.34   78.19
   1  -2   2 2571.74   77.79
   1  -2   2 2418.46   77.39
  -2   2  -2 3001.80   94.09
  -2   2  -2 2892.81   93.39
  -2   2  -2 2920.81   92.69
  -2   2  -2 2842.12   89.89
   2  -2   2 2993.90   89.99
   2  -2   2 2917.41   90.09
   2  -2   2 3030.40   97.29
   2  -2   2 2966.80   89.79
  -3   2  -2  290.17   16.80
  -3   2  -2  301.77   16.30
  -3   2  -2  334.87   15.20
  -3   2  -2  297.87   17.20
   3  -2   2  272.37   10.80
   3  -2   2  302.57   14.80
   3  -2   2  306.97   12.40
   3  -2   2  303.07   12.20
   3  -2   2  296.27   18.30
  -4   2  -2  780.62   35.30
  -4   2  -2  787.82   31.60
  -4   2  -2  794.02   34.20
  -4   2  -2  836.12   36.40
   4  -2   2  815.02   29.20
   4  -2   2  780.22   28.60
   4  -2   2  848.12   33.50
   4  -2   2  788.12   33.00
   4  -2   2  798.62   36.70
  -5   2  -2  117.69   14.70
  -5   2  -2  119.69   14.20
  -5   2  -2  132.19   15.60
   5  -2   2   99.69   13.90
   5  -2   2  124.89   13.80
   5  -2   2  113.99   13.90
  -6   2  -2   51.09   10.70
  -6   2  -2   43.90    9.90
  -6   2  -2   52.49   11.90
   6  -2   2   45.40   10.60
  -7   2  -2   19.00    7.80
  -7   2  -2   30.10    9.80
  -7   2  -2   24.60    8.40
  -8   2  -2    2.40    5.70
  -8   2  -2    0.50    5.00
  -8   2  -2    2.00    5.80
  -9   2  -2    4.10    8.70
  -9   2  -2   -8.70    6.30
  -8  -1   2    1.00    7.00
  -8  -1   2    5.40    6.70
   7   1  -2   -3.90    6.40
  -7  -1   2   -1.50    4.60
  -7  -1   2   -1.40    3.90
   6   1  -2    3.60    4.70
   6   1  -2   17.90    9.40
  -6  -1   2   14.50    5.60
  -6  -1   2   10.60    7.90
  -6  -1   2   13.00    5.80
  -6  -1   2    9.20    5.70
   5   1  -2    0.00    5.40
   5   1  -2    6.50    5.50
  -5  -1   2    2.70    3.70
  -5  -1   2   11.70    6.30
  -5  -1   2   14.70    5.10
  -5  -1   2    4.30    4.20
  -5  -1   2    4.30    5.10
   4   1  -2    0.30    4.50
  -4  -1   2    5.50    4.90
  -4  -1   2    1.30    3.80
  -4  -1   2    2.60    2.40
  -4  -1   2    3.10    2.40
  -4  -1   2    3.20    3.30
  -4  -1   2    1.40    3.50
   3   1  -2   40.30    9.00
   3   1  -2   55.09    9.00
  -3  -1   2   44.70    8.70
  -3  -1   2   56.69    6.30
  -3  -1   2   43.70    8.80
  -3  -1   2   45.50    6.10
  -3  -1   2   37.30    7.70
   2   1  -2 8403.86  262.67
   2   1  -2 9008.40  264.67
   2   1  -2 8716.63  266.17
  -2  -1   2 8791.92  260.67
  -2  -1   2 8811.92  263.37
  -2  -1   2 8717.13  255.17
  -2  -1   2 8521.25  265.77
  -2  -1   2 8533.85  263.27
  -2  -1   2 8679.83  255.97
   1   1  -2  202.58   11.90
   1   1  -2  180.18   13.30
   1   1  -2  204.78   12.50
   1   1  -2  197.28    6.80
   1   1  -2  196.98   13.20
  -1  -1   2  185.78   12.80
  -1  -1   2  196.88   12.00
  -1  -1   2  205.88   12.70
  -1  -1   2  216.08   12.40
   0   1  -2  341.37   14.50
   0   1  -2  339.07   13.00
   0   1  -2  363.26   15.30
   0   1  -2  347.27   15.70
   0   1  -2  341.67   15.10
   0  -1   2  346.57   12.80
   0  -1   2  324.67   12.60
   0  -1   2  350.36   15.90
   0  -1   2  340.67   14.60
   0  -1   2  349.27   15.70
   0  -1   2  360.36   15.40
  -1   1  -2   27.80    3.60
  -1   1  -2   23.90    2.90
  -1   1  -2   26.10    3.70
  -1   1  -2   16.00    3.30
  -1   1  -2   17.80    2.60
  -1   1  -2   25.70    3.10
  -1   1  -2   23.70    3.80
   1  -1   2   23.70    3.10
   1  -1   2   13.50    3.00
   1  -1   2   24.50    3.60
   1  -1   2   29.20    5.00
   1  -1   2   20.80    2.70
  -2   1  -2 4637.94  141.89
  -2   1  -2 4597.34  140.99
  -2   1  -2 4644.34  137.09
  -2   1  -2 4708.43  142.49
   2  -1   2 4633.74  137.99
   2  -1   2 4692.13  142.39
   2  -1   2 4475.55  136.79
   2  -1   2 4519.65  141.59
   2  -1   2 4737.33  137.39
  -3   1  -2  140.49   10.10
  -3   1  -2  123.89   10.10
  -3   1  -2  133.29   10.80
  -3   1  -2  127.59    8.30
  -3   1  -2  118.69   11.70
   3  -1   2  144.49    8.70
   3  -1   2  134.09   10.70
   3  -1   2  130.99    7.90
   3  -1   2  125.19   10.00
  -4   1  -2  197.88   14.60
  -4   1  -2  195.28   14.50
  -4   1  -2  190.98   13.40
  -4   1  -2  171.98   14.10
  -4   1  -2  162.88   15.10
   4  -1   2  196.98   13.80
   4  -1   2  193.78   14.70
   4  -1   2  178.48   12.10
   4  -1   2  159.68   13.50
  -5   1  -2  106.39   13.20
  -5   1  -2  130.09   16.30
  -5   1  -2   85.19   12.10
  -5   1  -2   96.49   13.70
   5  -1   2   95.49   12.70
   5  -1   2   80.49   12.60
   5  -1   2   77.09   11.20
  -6   1  -2   37.70    9.90
  -6   1  -2   48.70    9.80
  -6   1  -2   64.49   13.00
   6  -1   2   37.50   11.10
  -7   1  -2    8.90    6.60
  -7   1  -2    0.80    4.20
  -7   1  -2    8.50    6.40
  -8   1  -2   -0.20    6.70
  -8   1  -2   -1.40    5.70
  -9   1  -2   -0.70    6.50
  -9   1  -2    0.30    7.00
  -8   0   2    9.30    7.00
  -8   0   2   -8.20    4.50
   7   0  -2    4.30    6.80
   7   0  -2    6.30    8.10
   7   0  -2    1.80    5.30
  -7   0   2    2.60    5.20
  -7   0   2    2.10    7.10
  -7   0   2    7.40    5.20
  -7   0   2   -0.10    4.20
   6   0  -2   22.00    7.70
   6   0  -2   41.90   12.80
   6   0  -2   29.10    9.90
  -6   0   2   43.80   11.60
  -6   0   2    9.40    6.00
  -6   0   2   21.40    9.70
  -6   0   2   18.80    6.60
  -6   0   2   31.80    8.30
  -6   0   2   36.90    8.40
   5   0  -2    2.70    3.90
   5   0  -2    1.10    4.80
  -5   0   2   -4.90    3.90
  -5   0   2    0.80    4.20
  -5   0   2    3.50    3.20
  -5   0   2   -0.20    2.40
  -5   0   2    0.60    3.10
  -5   0   2    0.70    3.70
   4   0  -2 8292.77  268.47
  -4   0   2 8599.44  260.47
  -4   0   2 8840.42  259.77
  -4   0   2 8794.22  267.87
  -4   0   2 8565.04  261.07
  -4   0   2 8654.83  272.47
  -4   0   2 8709.53  267.57
   3   0  -2   19.70    5.30
   3   0  -2   20.40    5.10
   3   0  -2   33.40    7.80
  -3   0   2   29.40    4.90
  -3   0   2   35.80    7.20
  -3   0   2   40.70    9.00
  -3   0   2   24.00    4.10
  -3   0   2   19.60    6.00
   2   0  -2 5765.72  179.08
  -2   0   2 5838.72  183.18
  -2   0   2 6010.30  179.78
  -2   0   2 5875.81  172.88
  -2   0   2 5744.33  179.68
   1   0  -2 5178.28  158.68
   1   0  -2 5224.18  158.28
  -1   0   2 5237.88  160.58
  -1   0   2 5372.56  158.48
  -1   0   2 5035.70  158.18
  -1   0   2 5149.48  157.78
   0   0  -2  248.58    9.70
   0   0  -2  225.58   12.10
   0   0  -2  229.88   11.90
   0   0   2  242.48   12.40
   0   0   2  230.18    9.40
   0   0   2  233.38   11.90
   0   0   2  230.48   10.00
  -1   0  -2   68.89    5.00
  -1   0  -2   61.79    4.30
  -1   0  -2   66.79    6.90
  -1   0  -2   59.09    5.60
   1   0   2   83.79    8.50
   1   0   2   66.79    4.60
   1   0   2   68.09    7.00
   1   0   2   82.59    5.70
  -2   0  -2 1673.73   56.69
  -2   0  -2 1795.92   60.79
  -2   0  -2 1726.43   57.69
   2   0   2 1719.53   53.19
   2   0   2 1711.73   53.99
   2   0   2 1754.92   60.19
   2   0   2 1633.34   56.59
  -3   0  -2  524.45   23.70
  -3   0  -2  495.15   22.90
  -3   0  -2  458.25   23.00
  -3   0  -2  496.85   25.80
   3   0   2  487.25   22.70
   3   0   2  509.35   17.10
   3   0   2  471.95   17.30
   3   0   2  497.05   20.30
   3   0   2  500.85   25.50
   3   0   2  513.25   20.50
  -4   0  -2  192.78   18.10
  -4   0  -2  183.88   16.60
  -4   0  -2  194.48   18.30
   4   0   2  178.28   12.00
   4   0   2  157.78   17.30
   4   0   2  181.98   11.70
   4   0   2  190.48   14.30
  -5   0  -2   24.40    6.60
  -5   0  -2   33.00    8.80
  -5   0  -2   28.70    8.00
   5   0   2   28.10    7.80
   5   0   2   13.70    6.80
  -6   0  -2   65.39   12.70
  -6   0  -2   75.79   12.90
  -6   0  -2   78.99   13.60
   6   0   2   47.00   12.10
  -7   0  -2   -0.70    5.10
  -7   0  -2    1.30    6.10
  -8   0  -2    5.90    5.80
  -8   0  -2   -8.90    4.30
  -9   0  -2   17.70   10.10
  -9   0  -2   -2.10    7.40
  -8   1   2    8.60    6.40
  -8   1   2    0.20    5.60
  -8   1   2    5.30    6.60
   7  -1  -2    1.50    5.50
  -7   1   2   -0.30    3.90
  -7   1   2    6.80    5.60
  -7   1   2    8.60    5.30
   6  -1  -2  255.87   27.70
   6  -1  -2  188.08   22.00
   6  -1  -2  245.78   21.30
   6  -1  -2  242.78   19.30
  -6   1   2  224.68   16.80
  -6   1   2  247.88   28.30
  -6   1   2  218.18   17.40
  -6   1   2  247.78   25.40
  -6   1   2  199.38   16.90
  -6   1   2  237.78   24.70
   5  -1  -2   54.79   11.90
   5  -1  -2   31.60    8.50
   5  -1  -2   54.79   10.10
  -5   1   2   76.59   13.30
  -5   1   2   41.00    7.70
  -5   1   2   62.29    9.70
  -5   1   2   41.80    9.00
  -5   1   2   59.69    9.80
  -5   1   2   40.20   11.00
   4  -1  -2 1864.91   69.89
   4  -1  -2 1938.21   72.39
   4  -1  -2 1946.41   73.09
   4  -1  -2 1961.60   69.09
  -4   1   2 2032.70   77.29
  -4   1   2 1937.11   65.19
  -4   1   2 1880.71   67.89
  -4   1   2 1937.21   66.49
  -4   1   2 1937.91   71.89
  -4   1   2 1967.10   70.59
   3  -1  -2  244.78   14.60
   3  -1  -2  209.98   14.30
  -3   1   2  235.78   15.90
  -3   1   2  227.48   14.80
  -3   1   2  248.78   18.40
  -3   1   2  223.88   11.60
   2  -1  -2 2547.65   81.99
  -2   1   2 2483.65   83.59
  -2   1   2 2513.45   81.89
  -2   1   2 2497.55   76.49
   1  -1  -2  407.06   18.80
   1  -1  -2  401.46   15.10
  -1   1   2  385.06   18.50
  -1   1   2  413.76   19.90
   0  -1  -2 1712.63   49.40
   0  -1  -2 1624.14   49.99
   0  -1  -2 1572.04   54.59
   0  -1  -2 1564.64   51.69
   0   1   2 1502.75   54.19
   0   1   2 1591.64   49.50
   0   1   2 1538.55   51.19
   0   1   2 1569.94   54.89
  -1  -1  -2  197.88    9.90
  -1  -1  -2  185.88    8.90
  -1  -1  -2  195.18   12.90
  -1  -1  -2  192.18    9.90
   1   1   2  186.88   12.50
   1   1   2  184.38   10.30
   1   1   2  186.98    9.20
   1   1   2  173.68   12.60
  -2  -1  -2  152.78   10.60
  -2  -1  -2  146.49    9.70
  -2  -1  -2  164.68   13.40
   2   1   2  143.49   14.20
   2   1   2  142.39   12.30
   2   1   2  159.48    8.40
   2   1   2  160.98    9.30
  -3  -1  -2  376.66   22.20
  -3  -1  -2  399.66   20.50
  -3  -1  -2  442.16   21.70
   3   1   2  426.76   25.00
   3   1   2  402.06   17.10
   3   1   2  445.66   16.60
   3   1   2  423.76   23.20
  -4  -1  -2  951.80   40.80
  -4  -1  -2  933.81   42.20
  -4  -1  -2 1013.20   40.10
   4   1   2  878.61   33.30
   4   1   2  952.20   45.50
   4   1   2  911.81   42.10
   4   1   2  957.20   31.90
   4   1   2  941.91   39.60
  -5  -1  -2   -5.10    2.70
  -5  -1  -2   -4.10    3.60
  -5  -1  -2    0.80    2.80
   5   1   2    4.30    5.20
   5   1   2   -0.20    4.70
  -6  -1  -2   -0.40    4.90
  -6  -1  -2    6.00    4.90
  -6  -1  -2   10.00    6.20
  -7  -1  -2    3.30    6.30
  -7  -1  -2   13.20    7.70
  -7  -1  -2    6.00    6.20
  -8  -1  -2    4.50    7.50
  -8  -1  -2   -1.50    6.70
  -9  -1  -2   -1.00    7.30
  -9  -1  -2    9.80    8.70
  -9   2   2    2.90    7.60
   8  -2  -2    4.00    8.10
  -8   2   2    2.60    6.90
  -8   2   2    7.50    7.10
   7  -2  -2   19.80    9.50
  -7   2   2   29.50    9.20
  -7   2   2   15.60    7.30
  -7   2   2   32.10    9.10
   6  -2  -2    1.40    4.40
   6  -2  -2    4.40    5.90
  -6   2   2    9.70    4.70
  -6   2   2   13.60    7.40
  -6   2   2    2.70    4.50
  -6   2   2    2.80    3.80
  -6   2   2    2.30    5.00
   5  -2  -2   14.50    7.00
   5  -2  -2   11.30    5.20
   5  -2  -2    8.60    6.10
  -5   2   2    1.70    3.70
  -5   2   2   13.50    5.40
  -5   2   2   18.70    5.70
  -5   2   2    7.50    4.80
  -5   2   2   11.60    6.60
  -5   2   2    5.70    5.30
   4  -2  -2   98.39   11.40
   4  -2  -2  123.09   16.60
   4  -2  -2   81.09   10.80
  -4   2   2  110.59   12.90
  -4   2   2   97.29   10.60
  -4   2   2  110.99   12.20
  -4   2   2   86.99   12.60
   3  -2  -2  304.97   17.10
   3  -2  -2  292.47   16.60
   3  -2  -2  272.37   19.10
  -3   2   2  268.67   16.20
  -3   2   2  292.77   15.30
  -3   2   2  275.77   18.20
   2  -2  -2   56.59    3.70
   2  -2  -2   58.59    5.40
   2  -2  -2   52.19    7.40
   2  -2  -2   63.69    9.90
  -2   2   2   67.49    8.20
  -2   2   2   64.29    9.70
   1  -2  -2 1449.95   48.20
   1  -2  -2 1412.16   50.59
   1  -2  -2 1415.66   45.70
   1  -2  -2 1463.75   51.59
  -1   2   2 1404.66   52.89
  -1   2   2 1400.26   44.10
  -1   2   2 1420.26   50.79
  -1   2   2 1416.06   45.50
   0  -2  -2   46.90    6.40
   0  -2  -2   38.30    4.50
   0  -2  -2   49.60    7.90
   0  -2  -2   52.99    7.10
   0   2   2   47.00    7.60
   0   2   2   42.00    6.00
   0   2   2   51.09    8.90
  -1  -2  -2  113.89   11.10
  -1  -2  -2  106.59    7.00
  -1  -2  -2  121.19    8.30
  -1  -2  -2  116.39   13.00
  -1  -2  -2  114.49    8.30
  -1  -2  -2  133.19   14.10
   1   2   2  125.39   14.00
   1   2   2  118.79   10.70
   1   2   2   98.49   12.20
  -2  -2  -2 2168.58   68.29
  -2  -2  -2 2304.77   78.89
  -2  -2  -2 2216.28   83.59
  -2  -2  -2 2189.68   73.89
  -2  -2  -2 2293.57   68.09
   2   2   2 2260.37   73.59
   2   2   2 2216.18   70.99
   2   2   2 2306.47   80.09
   2   2   2 2147.29   80.39
  -3  -2  -2  441.46   23.70
  -3  -2  -2  499.55   27.10
  -3  -2  -2  470.65   23.20
   3   2   2  480.05   28.50
   3   2   2  453.85   19.10
   3   2   2  444.96   26.50
   3   2   2  422.76   20.20
  -4  -2  -2   12.00    4.80
  -4  -2  -2    3.00    3.20
  -4  -2  -2    7.90    4.40
   4   2   2   19.50    8.00
   4   2   2   19.40    8.00
  -5  -2  -2   98.69   14.60
  -5  -2  -2  129.89   19.70
  -5  -2  -2   84.59   13.70
   5   2   2   93.19   16.00
  -6  -2  -2    8.60    7.20
  -6  -2  -2    1.20    4.20
  -6  -2  -2   -0.70    4.20
   6   2   2    9.60    7.80
  -7  -2  -2    5.00    6.40
  -7  -2  -2    1.40    7.40
  -7  -2  -2    1.70    5.80
  -8  -2  -2    0.10    6.70
  -8  -2  -2   -7.30    7.10
  -8  -2  -2   16.90    9.60
  -9  -2  -2   -3.00    5.50
   9  -3  -2   13.40   10.30
   8  -3  -2    3.90    7.80
  -8   3   2    2.80    5.50
  -8   3   2    9.90    7.80
   7  -3  -2    6.00    6.40
  -7   3   2   -3.90    3.30
  -7   3   2    4.90    5.60
  -7   3   2   -3.90    4.50
   6  -3  -2    6.40    6.60
   6  -3  -2    0.30    5.30
  -6   3   2   -0.60    6.00
  -6   3   2    2.60    4.10
  -6   3   2    2.80    4.10
   5  -3  -2   27.50    9.70
  -5   3   2   33.40    7.90
  -5   3   2   46.30   10.60
  -5   3   2   48.10    9.00
   4  -3  -2   11.50    6.50
   4  -3  -2   10.40    4.80
   4  -3  -2    7.70    4.10
  -4   3   2   13.00    5.50
  -4   3   2    6.20    3.70
  -4   3   2    9.10    4.00
   3  -3  -2  534.25   25.10
   3  -3  -2  582.64   21.70
   3  -3  -2  559.04   30.50
   3  -3  -2  536.85   25.40
   3  -3  -2  533.95   19.70
  -3   3   2  536.85   24.80
  -3   3   2  494.25   28.40
   2  -3  -2  245.58   17.70
   2  -3  -2  243.18   14.20
   2  -3  -2  267.37   16.00
   2  -3  -2  264.67   14.40
   2  -3  -2  277.07   16.10
  -2   3   2  273.77   16.10
  -2   3   2  279.47   19.30
   1  -3  -2  542.05   24.10
   1  -3  -2  542.05   23.60
   1  -3  -2  500.25   26.10
   1  -3  -2  545.85   25.50
   1  -3  -2  537.45   21.50
   1  -3  -2  547.05   26.20
  -1   3   2  544.55   20.20
  -1   3   2  514.45   28.10
  -1   3   2  543.35   22.20
  -1   3   2  544.35   25.80
   0  -3  -2   -1.20    2.00
   0  -3  -2   -1.30    1.10
   0  -3  -2   -1.30    2.70
   0  -3  -2   -0.70    1.80
   0  -3  -2    0.20    2.70
   0  -3  -2    0.10    1.80
   0   3   2   -1.00    3.10
   0   3   2   -1.50    1.80
   0   3   2    0.20    2.60
  -1  -3  -2  253.97   14.00
  -1  -3  -2  255.57   17.30
  -1  -3  -2  207.58   13.00
  -1  -3  -2  238.58   13.00
  -1  -3  -2  239.68   14.90
  -1  -3  -2  243.58   12.30
   1   3   2  232.78   17.70
   1   3   2  230.48   14.50
   1   3   2  239.28   18.60
   1   3   2  228.88   12.60
  -2  -3  -2  145.79   17.30
  -2  -3  -2  148.29    8.20
  -2  -3  -2  133.79   14.00
  -2  -3  -2  146.89    8.60
  -2  -3  -2  145.19   13.20
   2   3   2  136.69   17.00
   2   3   2  127.79   13.10
   2   3   2  154.18   19.10
   2   3   2  133.99    9.60
  -3  -3  -2   -0.10    2.60
  -3  -3  -2    6.90    3.60
  -3  -3  -2    0.70    3.00
   3   3   2    5.80    4.70
   3   3   2    7.00    3.40
   3   3   2   -6.50    3.10
  -4  -3  -2    0.80    3.70
  -4  -3  -2    7.60    5.00
  -4  -3  -2    0.60    4.30
   4   3   2    5.60    5.60
  -5  -3  -2    9.00    5.60
  -5  -3  -2   12.70    8.60
  -5  -3  -2    3.80    5.00
   5   3   2    2.90    6.20
  -6  -3  -2   36.70    9.90
  -6  -3  -2   49.60   12.10
   6   3   2   35.20   12.50
  -7  -3  -2   45.10   13.90
  -7  -3  -2    7.40    8.50
  -7  -3  -2    8.50    7.20
  -8  -3  -2    9.60    9.50
  -8  -3  -2    5.40    6.50
  -8  -3  -2   -1.40    8.30
   9  -4  -2   -1.00    9.50
   8  -4  -2    5.60    7.80
  -8   4   2   -1.30    6.40
  -8   4   2   -2.70    6.80
   7  -4  -2    2.90    5.70
  -7   4   2    0.00    4.70
  -7   4   2   -0.40    4.30
   6  -4  -2   57.59   15.00
  -6   4   2   65.19   13.40
  -6   4   2   52.09   10.40
   5  -4  -2  398.06   30.60
  -5   4   2  365.26   26.10
  -5   4   2  381.96   25.40
   4  -4  -2   19.70    8.50
  -4   4   2   17.70    7.80
   3  -4  -2   18.20    7.60
   3  -4  -2   18.50    5.70
   3  -4  -2   14.70    5.10
   3  -4  -2   24.50    6.40
  -3   4   2   10.00    4.20
  -3   4   2   25.60    7.80
   2  -4  -2  128.99   13.90
   2  -4  -2  119.59   15.40
   2  -4  -2  144.59   14.20
   2  -4  -2  166.68   16.20
  -2   4   2   96.49   14.70
  -2   4   2  134.39   11.70
   1  -4  -2   85.29   11.80
   1  -4  -2  102.79   11.80
   1  -4  -2   95.29   11.50
   1  -4  -2   83.49   11.50
   1  -4  -2   91.19   12.80
   1  -4  -2   85.19    8.40
  -1   4   2  111.79   15.90
  -1   4   2   86.99    9.60
  -1   4   2   87.69    6.70
  -1   4   2   88.79   11.60
   0  -4  -2  234.58   17.60
   0  -4  -2  247.08   15.60
   0  -4  -2  279.87   17.40
   0  -4  -2  209.78   15.10
   0  -4  -2  263.07   14.00
   0   4   2  211.48   15.10
   0   4   2  260.37   20.50
   0   4   2  262.97   18.80
  -1  -4  -2  194.08   11.60
  -1  -4  -2  208.78   21.50
  -1  -4  -2  182.18   12.90
  -1  -4  -2  166.88   16.30
  -1  -4  -2  168.18   12.30
  -1  -4  -2  156.98   14.90
   1   4   2  184.48   20.40
   1   4   2  197.78   21.70
   1   4   2  191.98   12.20
   1   4   2  170.28   15.90
  -2  -4  -2   -3.10    2.20
  -2  -4  -2    2.90    2.80
  -2  -4  -2    4.60    5.50
  -2  -4  -2   -0.30    1.70
   2   4   2    2.90    4.90
   2   4   2   -0.80    4.40
   2   4   2    1.10    3.00
  -3  -4  -2  432.86   24.70
  -3  -4  -2  451.35   26.70
  -3  -4  -2  407.16   28.70
   3   4   2  446.76   31.00
   3   4   2  429.96   31.00
  -4  -4  -2   11.80    7.00
  -4  -4  -2   11.70    5.80
  -4  -4  -2    9.60    5.70
   4   4   2    6.90    7.40
  -5  -4  -2  298.07   26.80
  -5  -4  -2  281.17   32.40
  -5  -4  -2  319.07   25.00
   5   4   2  217.68   29.10
  -6  -4  -2   68.09   13.80
  -6  -4  -2  121.19   19.50
  -6  -4  -2  120.19   21.40
   6   4   2   53.09   25.60
  -7  -4  -2   56.19   12.70
  -7  -4  -2   22.20    9.80
  -7  -4  -2   21.10   12.70
  -8  -4  -2   -4.90    6.00
  -8  -4  -2    1.60    9.70
   9  -5  -2    3.30    9.80
   8  -5  -2    4.40    8.80
   7  -5  -2   -2.40    7.30
  -7   5   2   -1.60    5.00
   6  -5  -2    0.30    7.30
  -6   5   2    1.70    4.80
   5  -5  -2   25.50   11.30
  -5   5   2   30.80    9.40
   4  -5  -2   42.30   12.40
   4  -5  -2   51.29    9.90
  -4   5   2   48.40   12.00
   3  -5  -2    6.70    4.30
   3  -5  -2    2.70    5.60
   3  -5  -2    5.30    4.90
  -3   5   2    5.70    6.10
   2  -5  -2    0.40    3.50
   2  -5  -2   -2.60    3.60
   2  -5  -2    2.20    4.40
   2  -5  -2    2.40    3.80
  -2   5   2    2.40    2.40
  -2   5   2    4.40    5.30
  -2   5   2    1.10    3.40
   1  -5  -2  200.18   18.90
   1  -5  -2  167.68   18.40
   1  -5  -2  196.58   13.10
   1  -5  -2  216.88   18.30
  -1   5   2  197.88   16.60
  -1   5   2  189.98   23.10
   0  -5  -2   57.79   10.30
   0  -5  -2   72.69   12.40
   0  -5  -2   61.09   10.90
   0  -5  -2   45.60    8.10
   0   5   2   46.20    9.80
   0   5   2   75.19   15.30
  -1  -5  -2 1702.63   70.09
  -1  -5  -2 1702.43   65.89
   1   5   2 1771.72   72.99
   1   5   2 1729.83   74.49
  -2  -5  -2 1039.80   51.49
  -2  -5  -2 1013.30   44.50
  -2  -5  -2 1103.79   47.70
   2   5   2 1024.40   57.49
   2   5   2 1105.29   55.49
   2   5   2 1121.29   55.09
  -3  -5  -2  384.56   23.70
  -3  -5  -2  386.26   29.30
  -3  -5  -2  391.96   25.80
   3   5   2  267.17   31.30
  -4  -5  -2   42.70   13.40
  -4  -5  -2   60.29   12.00
  -4  -5  -2   79.99   14.30
   4   5   2   56.49   15.00
  -5  -5  -2    0.20    6.10
  -5  -5  -2    4.50    6.00
  -5  -5  -2    3.60    8.20
  -6  -5  -2   -3.20    6.40
  -6  -5  -2    5.80    6.90
  -6  -5  -2    8.80    6.80
  -7  -5  -2   -4.20    6.60
  -7  -5  -2    1.10    7.70
  -7  -5  -2   -4.60    8.00
   8  -6  -2   12.50   10.80
   7  -6  -2    5.20    8.40
   6  -6  -2   15.30   10.80
  -6   6   2    4.80    6.00
   5  -6  -2   11.00    8.50
   5  -6  -2    5.60    4.80
   4  -6  -2   25.70   10.60
   4  -6  -2   16.70    7.40
  -4   6   2   21.90   10.30
   3  -6  -2   95.49   14.20
  -3   6   2  117.59   19.70
   2  -6  -2    7.30    6.30
   2  -6  -2   13.30    6.00
   2  -6  -2   21.40    8.10
  -2   6   2   11.00    7.20
   1  -6  -2   24.20    8.20
   1  -6  -2   43.40   11.00
   1  -6  -2   46.50   10.60
  -1   6   2   47.20   12.40
   0  -6  -2 1255.87   52.49
   0  -6  -2 1113.09   52.39
   0  -6  -2 1178.38   54.29
   0   6   2 1236.68   55.89
   0   6   2 1212.68   60.39
  -1  -6  -2   61.09   11.40
  -1  -6  -2   45.10   12.20
   1   6   2   54.29   15.00
   1   6   2   53.79   18.50
  -2  -6  -2   99.59   15.50
  -2  -6  -2  104.39   14.20
  -2  -6  -2   85.19   15.80
   2   6   2   91.79   18.70
  -3  -6  -2  177.18   19.90
  -3  -6  -2  185.78   23.10
  -3  -6  -2  145.19   22.70
   3   6   2  198.08   27.90
  -4  -6  -2   87.99   19.70
  -4  -6  -2   90.49   16.40
  -4  -6  -2   87.59   15.60
  -5  -6  -2    8.70    7.20
  -5  -6  -2   14.10   12.70
  -5  -6  -2   25.80   10.50
  -6  -6  -2    3.80    6.60
  -6  -6  -2   -5.60    5.60
  -6  -6  -2   -0.80    8.00
   8  -7  -2   -7.20    8.90
   7  -7  -2    8.70    7.90
   7  -7  -2   13.70   11.70
   6  -7  -2    4.10    7.20
   6  -7  -2    5.80    6.60
  -6   7   2   -6.80    8.10
   5  -7  -2   25.70   12.20
   5  -7  -2   20.00    8.80
   4  -7  -2    7.60    7.80
   4  -7  -2   21.80    8.40
   3  -7  -2   83.39   15.70
   3  -7  -2   88.89   18.40
  -3   7   2   87.49   18.30
   2  -7  -2   98.89   18.00
   2  -7  -2  101.19   16.00
  -2   7   2  119.19   20.80
   1  -7  -2    0.70    4.80
   1  -7  -2    8.30    7.50
   1  -7  -2    4.70    6.20
  -1   7   2    6.40    7.90
   0  -7  -2   61.49   12.80
   0  -7  -2   69.49   15.20
   0   7   2   68.19   17.20
  -1  -7  -2    5.20    5.40
  -1  -7  -2   -2.90    3.60
  -1  -7  -2   -4.80    5.40
   1   7   2   -4.60    8.50
  -2  -7  -2   14.20    7.30
  -2  -7  -2    9.60    7.70
  -2  -7  -2    5.80    5.60
  -3  -7  -2   38.50   12.40
  -3  -7  -2   11.30    7.90
  -3  -7  -2    7.90    6.00
  -4  -7  -2    7.20    7.20
  -4  -7  -2    3.60    8.80
  -4  -7  -2   -4.50    5.00
  -5  -7  -2   50.09   18.40
  -5  -7  -2    9.00    8.60
  -5  -7  -2   20.00   10.40
  -6  -7  -2    6.00   10.10
  -6  -7  -2    0.80    9.40
   7  -8  -2   11.60    9.30
   7  -8  -2    2.90   10.50
   6  -8  -2   13.10   10.70
   6  -8  -2    5.60    8.00
   5  -8  -2    2.60    7.30
   5  -8  -2    7.80    7.40
   4  -8  -2    2.80    8.00
   4  -8  -2    4.40    6.40
   3  -8  -2    3.60    5.30
   3  -8  -2    4.10    7.50
  -3   8   2   -0.50    8.60
   2  -8  -2   -6.10    4.30
   2  -8  -2   -1.60    5.10
   1  -8  -2   24.70    9.10
   0  -8  -2   21.70    9.70
   0  -8  -2   27.90    9.60
  -1  -8  -2    3.70    7.10
  -1  -8  -2    9.70    6.30
  -1  -8  -2    3.80    8.20
  -2  -8  -2   -0.40    7.00
  -2  -8  -2    0.90    5.80
  -2  -8  -2   11.80    7.50
  -3  -8  -2    0.50    6.40
  -3  -8  -2    8.10    8.40
  -3  -8  -2   -2.40    8.50
  -4  -8  -2    4.10   10.90
  -4  -8  -2    3.40    7.10
  -4  -8  -2   10.80    7.00
   5  -9  -2    0.00    8.30
   5  -9  -2   -5.00    6.00
   4  -9  -2    8.10    8.50
   4  -9  -2   -1.10    9.70
   3  -9  -2   39.40   12.40
   3  -9  -2   34.60   13.50
   2  -9  -2   -2.60    6.20
   1  -9  -2   17.00    9.50
   0  -9  -2   75.79   16.70
  -1  -9  -2  128.29   20.00
  -1  -9  -2  154.38   27.20
  -1  -9  -2  142.89   22.50
  -2  -9  -2    2.50   10.40
  -2  -9  -2    5.10    8.20
  -2  -9  -2   -4.00    6.10
  -3  -9  -2   -8.10    5.20
  -3  -9  -2   -5.30    9.30
  -3  -9  -2   -0.40    8.50
   3 -10  -2   14.00    9.60
   2 -10  -2   10.40    8.70
   1 -10  -2   33.40   12.00
   0 -10  -2   29.20   13.00
  -1 -10  -2    2.90    8.60
  -1 -10  -2   16.90    9.20
  -1 -11   3   62.39   16.10
   0 -11   3   71.89   17.00
   1 -11   3   -2.40    7.30
   1 -11   3    1.70   13.40
   2 -11   3    0.00    8.20
   2 -11   3   -4.30    9.60
   3 -11   3   15.80   14.60
   3 -11   3    4.30    7.70
  -3 -10   3   15.90   12.00
  -3 -10   3    3.60    6.70
  -3 -10   3   -8.40    5.50
  -2 -10   3    7.20    8.00
  -1 -10   3    0.80    7.30
   0 -10   3   19.70    9.60
   1 -10   3   26.50   10.40
   1 -10   3    4.50    9.30
   2 -10   3   10.60    7.80
   2 -10   3   27.10   14.50
   3 -10   3   -0.90    6.60
   3 -10   3   13.60   11.50
   4 -10   3   10.60   10.80
   4 -10   3    7.70    8.30
   5 -10   3    0.20    6.60
   5 -10   3    5.40   10.50
  -5  -9   3    2.30    7.60
  -5  -9   3    8.70   10.70
  -4  -9   3    5.00    7.40
  -4  -9   3    8.70   11.70
  -4  -9   3   -2.90    6.00
  -3  -9   3   13.30    7.70
  -3  -9   3    3.50    8.30
  -3  -9   3   12.70    8.50
  -2  -9   3   -6.80    5.90
  -2  -9   3    1.00    5.20
  -1  -9   3   35.00   11.60
   0   9  -3   36.10   13.80
   0  -9   3   13.50    8.70
   0  -9   3   13.00    8.70
   1  -9   3   -4.30    6.20
   1  -9   3   -0.50    4.60
   2  -9   3   -5.40    5.40
   2  -9   3   15.10    7.40
   3  -9   3   -3.50    5.00
   3  -9   3   15.40    9.90
  -4   9  -3   -0.10    6.80
   4  -9   3   -0.50    5.90
   4  -9   3   -1.60    7.10
  -5   9  -3   47.30   13.90
   5  -9   3   21.50   11.70
   5  -9   3   58.99   14.70
   6  -9   3   -3.40    6.00
   6  -9   3   14.90    9.90
   7  -9   3   -4.80   10.60
  -6  -8   3    6.90   12.10
  -6  -8   3   -1.40    8.30
  -6  -8   3    3.10    6.80
  -5  -8   3    1.50    6.30
  -5  -8   3   -2.30    8.80
  -5  -8   3   22.20   10.20
  -4  -8   3    7.40    7.00
  -4  -8   3    9.80    9.60
  -4  -8   3   15.20    7.20
  -3  -8   3   -4.50    6.10
  -3  -8   3   -4.00    5.10
  -3  -8   3   -5.00    5.10
   2   8  -3   40.60   17.40
  -2  -8   3   48.30   13.60
  -2  -8   3   24.50    8.40
   1   8  -3   15.50   10.40
  -1  -8   3   -2.90    5.70
  -1  -8   3   12.80    7.30
  -1  -8   3    4.20    5.50
   0   8  -3   55.19   15.50
   0  -8   3   57.69   11.80
   0  -8   3   72.39   16.90
  -1   8  -3   14.20   13.10
   1  -8   3   41.10   14.10
   1  -8   3    8.10    6.40
   2  -8   3    6.10    5.60
   2  -8   3   10.10    8.50
  -3   8  -3   60.19   11.80
   3  -8   3   50.69   14.70
   3  -8   3   85.99   16.20
  -4   8  -3   11.00    6.50
   4  -8   3   14.50    9.90
   4  -8   3   11.40    7.10
  -5   8  -3    2.50    5.80
   5  -8   3   -6.90    7.00
  -6   8  -3   10.60    7.90
   6  -8   3   14.10    9.80
   7  -8   3    8.70   11.80
  -7  -7   3    3.50    7.70
  -7  -7   3   -1.70   10.50
  -7  -7   3   -3.70    8.20
  -6  -7   3    5.80    7.40
  -6  -7   3   12.20    9.20
  -6  -7   3    4.70    7.70
  -5  -7   3    1.00    6.40
  -5  -7   3    1.90    5.90
  -5  -7   3    9.50    8.80
  -4  -7   3   45.70   13.90
  -4  -7   3   22.30    8.20
  -4  -7   3   35.20    9.40
   3   7  -3   13.40   11.70
  -3  -7   3   30.10   10.80
  -3  -7   3   22.90    8.30
  -3  -7   3   33.00    9.30
   2   7  -3   22.90   11.60
  -2  -7   3   51.89   11.40
  -2  -7   3   58.39   12.00
  -2  -7   3   48.70   12.00
   1   7  -3   74.59   14.60
   1   7  -3   61.89   14.10
  -1  -7   3   76.69   13.60
  -1  -7   3   50.99   11.50
  -1  -7   3   81.09   14.90
   0   7  -3  371.06   28.80
   0  -7   3  407.56   25.20
   0  -7   3  404.16   25.60
   0  -7   3  409.46   30.80
  -1   7  -3  479.55   30.50
  -1   7  -3  466.95   24.60
   1  -7   3  496.05   28.70
  -2   7  -3  288.07   19.40
   2  -7   3  278.27   21.10
   2  -7   3  295.47   32.40
  -3   7  -3  194.38   19.90
   3  -7   3  183.48   21.10
   3  -7   3  210.78   28.10
  -4   7  -3   -1.70    3.50
   4  -7   3   -6.60    5.70
  -5   7  -3  137.79   18.90
   5  -7   3   93.69   20.70
  -6   7  -3  105.99   18.50
   6  -7   3   76.69   19.80
   7  -7   3   15.40   13.80
  -8   7  -3   13.80    9.80
   8  -7   3    1.30    9.70
  -7  -6   3   10.00   10.60
  -7  -6   3    6.20    8.40
  -7  -6   3   -0.30    7.30
  -6  -6   3   -0.20    6.80
  -6  -6   3    7.80    8.50
  -6  -6   3   -2.30    5.70
  -5  -6   3   15.70    7.80
  -5  -6   3    9.70    6.50
  -5  -6   3    8.80    7.60
   4   6  -3   41.50   16.50
  -4  -6   3   44.70   13.60
  -4  -6   3   44.20   10.20
  -4  -6   3   23.90    7.40
   3   6  -3    4.60   10.20
  -3  -6   3    4.80    4.60
  -3  -6   3    0.70    3.20
  -3  -6   3    1.60    6.10
   2   6  -3   22.80    8.50
   2   6  -3   12.40    9.20
  -2  -6   3   19.10    7.50
  -2  -6   3   12.60    6.80
  -2  -6   3   17.90    7.00
   1   6  -3  129.29   17.00
   1   6  -3   97.49   17.50
   1   6  -3  163.48   16.50
  -1  -6   3  139.29   17.20
  -1  -6   3  128.09   18.30
  -1  -6   3  175.58   18.20
   0   6  -3  385.06   27.00
   0   6  -3  397.66   24.50
   0   6  -3  403.66   20.50
   0   6  -3  421.46   19.40
   0  -6   3  376.26   28.00
   0  -6   3  416.56   23.70
   0  -6   3  399.76   23.50
  -1   6  -3  368.46   23.80
  -1   6  -3  339.57   18.60
  -1   6  -3  362.26   19.30
   1  -6   3  335.17   26.30
   1  -6   3  356.56   22.00
   1  -6   3  344.27   20.00
  -2   6  -3  109.89   13.80
  -2   6  -3  100.89   12.20
   2  -6   3   79.19   15.50
   2  -6   3   95.19   12.60
   2  -6   3   69.89    9.50
  -3   6  -3  158.88    9.20
  -3   6  -3  151.48   16.70
   3  -6   3  121.59   12.80
   3  -6   3  152.08   22.20
  -4   6  -3  578.64   31.50
   4  -6   3  539.85   37.70
  -5   6  -3  285.07   27.40
  -5   6  -3  325.17   23.90
   5  -6   3  282.17   33.20
  -6   6  -3   10.20    7.70
  -6   6  -3    9.40    6.10
   6  -6   3    2.00    7.30
  -7   6  -3    1.50    5.40
  -7   6  -3    0.50    5.50
   7  -6   3    2.00    8.10
  -8   6  -3    3.20    7.40
   8  -6   3   14.80   13.60
  -8  -5   3    1.20    8.20
  -7  -5   3   -2.20    8.10
  -7  -5   3    2.70    7.50
  -7  -5   3   11.90    8.20
  -6  -5   3    5.60    7.30
  -6  -5   3   -2.10    5.80
  -6  -5   3    1.60    5.20
   5   5  -3   -1.60    7.60
  -5  -5   3    7.00    5.50
  -5  -5   3    1.50    4.90
  -5  -5   3    9.50    5.40
   4   5  -3   53.69   14.70
  -4  -5   3   38.40    8.80
  -4  -5   3   59.79   11.10
  -4  -5   3   46.90   12.00
   3   5  -3  111.99   17.40
   3   5  -3  157.08   24.30
  -3  -5   3  103.19   13.50
  -3  -5   3  135.79   15.50
  -3  -5   3  104.79   16.60
  -3  -5   3  121.69   15.70
   2   5  -3   18.80    5.20
   2   5  -3   26.80    9.80
   2   5  -3   33.90    9.50
  -2  -5   3   44.20    8.90
  -2  -5   3   21.50    8.00
  -2  -5   3   10.80    5.80
  -2  -5   3   26.00    7.40
   1   5  -3    0.80    2.50
   1   5  -3    6.70    5.90
   1   5  -3   -2.30    3.30
  -1  -5   3   -0.70    2.00
  -1  -5   3    0.10    2.60
  -1  -5   3    1.20    1.70
  -1  -5   3   -3.60    3.20
  -1  -5   3   -0.10    2.50
   0   5  -3  794.32   31.30
   0   5  -3  832.72   29.70
   0   5  -3  803.32   33.50
   0   5  -3  788.42   35.00
   0   5  -3  653.53   36.50
   0   5  -3  783.92   35.90
   0  -5   3  783.92   34.50
   0  -5   3  841.12   35.90
   0  -5   3  823.52   40.70
   0  -5   3  818.42   34.50
   0  -5   3  798.72   31.70
  -1   5  -3   20.70    4.90
  -1   5  -3   22.80    4.60
  -1   5  -3   24.50    5.40
  -1   5  -3   27.00    5.20
  -1   5  -3   26.90    5.80
  -1   5  -3   23.50    6.20
   1  -5   3   24.00    5.20
   1  -5   3   24.60    6.20
   1  -5   3   25.90    8.30
   1  -5   3   25.80    5.00
   1  -5   3   19.60    4.70
  -2   5  -3    1.20    2.30
  -2   5  -3    5.80    3.90
  -2   5  -3    5.80    3.00
   2  -5   3    6.70    3.10
   2  -5   3    4.20    4.30
   2  -5   3   -0.10    2.40
  -3   5  -3  315.67   19.50
   3  -5   3  283.17   16.20
   3  -5   3  317.47   24.60
  -4   5  -3   22.80    7.30
  -4   5  -3   34.90    8.50
   4  -5   3   51.49   12.80
  -5   5  -3    0.60    4.20
  -5   5  -3    0.50    4.20
   5  -5   3   -2.40    4.00
  -6   5  -3   13.00    6.70
  -6   5  -3   15.40    8.00
   6  -5   3   19.20    9.60
  -7   5  -3    9.80    7.70
  -7   5  -3    5.70    6.00
   7  -5   3   -6.70    5.70
  -8   5  -3    3.90    7.00
  -9   5  -3   11.20    9.60
  -8  -4   3    2.60    8.30
  -7  -4   3    0.00    5.20
  -7  -4   3    0.30    5.60
   6   4  -3   11.30    9.90
  -6  -4   3   11.50    6.30
  -6  -4   3    6.00    7.30
  -6  -4   3   25.70    7.90
   5   4  -3   61.49   16.40
  -5  -4   3   63.89   13.90
  -5  -4   3  110.19   14.50
  -5  -4   3  102.79   14.30
   4   4  -3   18.30    8.40
  -4  -4   3    9.40    6.40
  -4  -4   3   22.10    6.30
  -4  -4   3   10.40    5.40
  -4  -4   3    7.50    4.20
   3   4  -3  686.43   39.20
   3   4  -3  672.43   38.50
  -3  -4   3  602.94   31.50
  -3  -4   3  638.34   34.90
  -3  -4   3  636.94   28.80
  -3  -4   3  651.43   29.60
  -3  -4   3  634.64   37.00
   2   4  -3  282.17   22.20
   2   4  -3  321.27   15.80
  -2  -4   3  313.77   20.10
  -2  -4   3  313.87   17.60
  -2  -4   3  303.47   21.00
  -2  -4   3  313.57   22.40
   1   4  -3  239.58   18.50
   1   4  -3  244.28    9.20
   1   4  -3  221.98   13.40
   1   4  -3  218.98   16.50
   1   4  -3  222.28   12.30
  -1  -4   3  265.87   17.10
  -1  -4   3  224.78   13.90
  -1  -4   3  253.97   18.00
  -1  -4   3  217.18   16.70
  -1  -4   3  252.27   11.00
  -1  -4   3  228.38   11.00
   0   4  -3  698.33   30.30
   0   4  -3  705.83   25.20
   0   4  -3  750.22   33.30
   0   4  -3  683.13   27.00
   0   4  -3  677.53   28.20
   0  -4   3  704.03   29.00
   0  -4   3  701.53   30.60
   0  -4   3  645.54   33.80
   0  -4   3  694.53   27.20
  -1   4  -3  373.26   19.80
  -1   4  -3  368.06   17.20
  -1   4  -3  375.96   17.40
  -1   4  -3  387.96   18.50
  -1   4  -3  384.06   17.70
   1  -4   3  348.87   23.20
   1  -4   3  398.96   17.50
   1  -4   3  349.47   17.20
   1  -4   3  386.66   18.30
  -2   4  -3  287.37   12.30
  -2   4  -3  288.47   14.20
  -2   4  -3  261.87   15.60
  -2   4  -3  281.97   13.80
  -2   4  -3  265.37   16.40
  -2   4  -3  280.17   14.00
  -2   4  -3  278.27   13.50
   2  -4   3  294.27   15.90
   2  -4   3  284.37   14.60
   2  -4   3  265.27   12.10
   2  -4   3  285.97   20.60
   2  -4   3  290.77   14.60
  -3   4  -3   25.50    6.70
  -3   4  -3   18.90    5.60
   3  -4   3   19.50    4.20
   3  -4   3   17.40    7.30
  -4   4  -3  153.08   17.70
  -4   4  -3  119.19   15.00
   4  -4   3  102.09   16.10
  -5   4  -3   83.39   13.50
  -5   4  -3  107.19   16.00
  -5   4  -3   67.49   11.40
   5  -4   3   79.79   14.70
  -6   4  -3   -1.20    3.20
  -6   4  -3   -0.80    4.40
  -6   4  -3    7.10    5.20
   6  -4   3    5.60    5.70
  -7   4  -3    6.60    6.10
  -7   4  -3   -3.10    4.70
  -7   4  -3    3.40    5.20
   7  -4   3   -0.60    7.60
  -8   4  -3    7.60    6.80
  -8   4  -3    0.00    8.30
  -8   4  -3   -3.10    6.30
  -9   4  -3  -12.20    6.60
  -9   4  -3   -2.70    6.20
  -8  -3   3    1.60    6.70
  -7  -3   3    5.90    5.40
  -7  -3   3    0.70    5.50
   6   3  -3   -1.60    6.20
  -6  -3   3    5.10    4.80
  -6  -3   3    7.60    5.80
   5   3  -3  289.67   32.30
  -5  -3   3  315.07   31.40
  -5  -3   3  340.77   21.10
  -5  -3   3  350.46   21.00
   4   3  -3   -0.10    4.60
   4   3  -3    2.70    4.60
  -4  -3   3   13.90    5.80
  -4  -3   3    2.60    4.60
  -4  -3   3    6.20    3.90
  -4  -3   3    3.90    5.30
  -4  -3   3    8.80    6.20
  -4  -3   3   11.70    4.50
   3   3  -3   95.49    5.50
   3   3  -3   99.99    5.40
   3   3  -3   91.29   15.90
  -3  -3   3  133.79   17.10
  -3  -3   3  107.69   11.20
  -3  -3   3  111.19   15.30
  -3  -3   3   64.49   11.60
  -3  -3   3   93.19   10.60
  -3  -3   3  102.79   13.10
   2   3  -3    6.90    2.20
   2   3  -3    3.70    4.70
  -2  -3   3    5.40    3.60
  -2  -3   3    7.90    4.00
  -2  -3   3    3.70    2.90
  -2  -3   3    4.30    4.50
  -2  -3   3    5.70    3.20
   1   3  -3  108.39   12.30
   1   3  -3   72.49   11.00
   1   3  -3   97.19    7.20
   1   3  -3  104.79    6.80
  -1  -3   3  119.29   12.70
  -1  -3   3  111.19   13.10
  -1  -3   3  106.89    5.60
  -1  -3   3  100.99   12.50
  -1  -3   3   95.59    5.30
   0   3  -3  184.58    8.90
   0   3  -3  214.98   14.10
   0   3  -3  178.08   10.10
   0   3  -3  197.78   11.10
   0   3  -3  193.38   12.40
   0  -3   3  173.28   12.20
   0  -3   3  213.88   10.10
   0  -3   3  181.58   12.40
   0  -3   3  199.28   14.70
   0  -3   3  188.98   10.20
  -1   3  -3   36.00    5.20
  -1   3  -3   36.30    5.20
  -1   3  -3   32.40    4.80
  -1   3  -3   35.70    5.40
  -1   3  -3   31.00    4.90
  -1   3  -3   36.40    5.00
   1  -3   3   39.40    5.90
   1  -3   3   33.20    4.80
   1  -3   3   38.50    5.40
   1  -3   3   41.00    5.60
   1  -3   3   36.50    8.10
  -2   3  -3  549.54   26.00
  -2   3  -3  612.64   26.40
  -2   3  -3  597.04   20.40
  -2   3  -3  610.04   20.20
  -2   3  -3  583.74   22.90
  -2   3  -3  577.14   22.60
  -2   3  -3  608.94   23.00
   2  -3   3  637.44   24.60
   2  -3   3  656.43   24.90
   2  -3   3  605.94   30.50
   2  -3   3  654.13   23.40
  -3   3  -3 1217.78   46.80
  -3   3  -3 1195.58   46.80
  -3   3  -3 1165.78   45.30
  -3   3  -3 1228.48   41.50
   3  -3   3 1165.38   42.10
   3  -3   3 1164.68   50.09
   3  -3   3 1232.08   42.20
   3  -3   3 1188.08   40.90
  -4   3  -3   36.90    7.40
  -4   3  -3   33.60    7.50
  -4   3  -3   31.00    7.20
   4  -3   3   37.50    6.20
   4  -3   3   40.40    6.30
   4  -3   3   52.19   10.70
  -5   3  -3  172.18   17.70
  -5   3  -3  170.28   19.20
  -5   3  -3  150.58   18.00
   5  -3   3  171.08   20.70
  -6   3  -3    6.40    5.00
  -6   3  -3    1.50    4.00
  -6   3  -3   -3.20    3.00
   6  -3   3   -2.40    4.40
  -7   3  -3    0.20    5.20
  -7   3  -3    6.60    6.60
  -7   3  -3   14.00    7.30
  -8   3  -3   18.80    8.40
  -8   3  -3    8.90    7.30
  -8   3  -3   22.70    8.80
  -9   3  -3   19.80   10.20
  -9   3  -3    4.70    8.30
   9   2  -3    5.70    9.10
   7   2  -3   -5.90    7.20
  -7  -2   3   -1.70    5.40
  -7  -2   3   -2.20    5.40
   6   2  -3   -3.90    5.10
  -6  -2   3   -1.30    3.80
  -6  -2   3   -3.70    3.70
  -6  -2   3   -2.20    4.80
   5   2  -3    8.50    7.00
  -5  -2   3   17.80    5.20
  -5  -2   3   29.80    7.50
  -5  -2   3   21.40    9.10
  -5  -2   3   12.40    7.00
   4   2  -3  141.59   20.60
  -4  -2   3  109.09   11.30
  -4  -2   3   91.49   15.40
  -4  -2   3  110.59    8.40
  -4  -2   3  114.59   17.10
  -4  -2   3  120.99   12.70
   3   2  -3  243.48   20.10
  -3  -2   3  236.68   11.30
  -3  -2   3  240.68   13.30
  -3  -2   3  243.68   16.50
  -3  -2   3  252.67   18.70
  -3  -2   3  263.57   19.00
  -3  -2   3  242.58   13.60
   2   2  -3   23.90    2.30
   2   2  -3   14.40    4.80
   2   2  -3   29.70    7.40
   2   2  -3   20.90    2.10
  -2  -2   3   34.60    8.20
  -2  -2   3   18.60    5.50
  -2  -2   3    8.50    3.80
  -2  -2   3   21.40    2.30
  -2  -2   3   20.60    3.70
   1   2  -3 1715.03   54.09
   1   2  -3 1616.64   61.49
   1   2  -3 1725.23   63.69
   1   2  -3 1742.43   53.59
  -1  -2   3 1663.13   60.59
  -1  -2   3 1730.73   61.19
  -1  -2   3 1829.22   60.89
   0   2  -3 5674.63  173.68
   0   2  -3 5428.46  171.28
   0   2  -3 5742.43  167.88
   0   2  -3 5687.83  173.98
   0   2  -3 5696.43  171.78
   0  -2   3 5390.66  171.28
   0  -2   3 5887.01  166.78
   0  -2   3 5349.36  173.58
   0  -2   3 5625.44  167.08
  -1   2  -3  420.76   17.90
  -1   2  -3  426.66   16.30
  -1   2  -3  398.76   16.80
  -1   2  -3  414.16   18.50
  -1   2  -3  420.66   16.80
  -1   2  -3  417.66   17.30
   1  -2   3  408.06   16.30
   1  -2   3  389.46   21.10
   1  -2   3  387.16   18.00
   1  -2   3  406.46   17.00
   1  -2   3  403.46   17.10
  -2   2  -3 1905.81   65.39
  -2   2  -3 2013.70   64.59
  -2   2  -3 1906.71   60.09
  -2   2  -3 1904.91   64.89
  -2   2  -3 1877.31   63.89
  -2   2  -3 1904.31   60.49
   2  -2   3 1970.60   62.89
   2  -2   3 1945.71   62.09
   2  -2   3 1954.30   64.09
   2  -2   3 1993.60   68.69
  -3   2  -3 1025.00   40.40
  -3   2  -3 1044.60   38.90
  -3   2  -3  926.21   37.80
  -3   2  -3 1020.90   39.80
   3  -2   3  977.60   34.70
   3  -2   3  953.70   37.50
   3  -2   3  960.80   41.10
   3  -2   3 1012.90   35.80
  -4   2  -3  231.18   17.00
  -4   2  -3  230.48   15.90
  -4   2  -3  236.78   16.80
  -4   2  -3  281.57   17.20
   4  -2   3  256.67   12.30
   4  -2   3  246.48   10.40
   4  -2   3  226.08   17.40
   4  -2   3  257.67   16.30
   4  -2   3  234.48   12.50
  -5   2  -3  126.29   15.70
  -5   2  -3  161.38   17.60
  -5   2  -3  130.19   16.40
   5  -2   3  156.88   17.00
   5  -2   3  122.29   15.60
  -6   2  -3    4.00    5.00
  -6   2  -3    1.20    3.60
  -6   2  -3    2.40    4.80
  -7   2  -3    1.90    5.10
  -7   2  -3    4.50    5.30
  -7   2  -3    3.80    6.10
  -8   2  -3   12.10    8.40
  -8   2  -3   12.90    6.30
  -8   2  -3   15.40    8.00
  -9   2  -3    7.30    9.00
  -9   2  -3    4.80    7.50
   8   1  -3    8.70    7.30
   7   1  -3    1.10    8.00
  -7  -1   3   -0.20    7.80
  -7  -1   3    2.30    5.30
   6   1  -3   -3.70    6.60
  -6  -1   3    2.50    4.10
  -6  -1   3    0.60    5.90
  -6  -1   3    2.00    4.10
   5   1  -3   10.50    7.30
  -5  -1   3    8.50    4.30
  -5  -1   3    7.00    6.80
  -5  -1   3    5.30    5.10
  -5  -1   3    9.60    4.90
  -5  -1   3   19.20    9.10
  -5  -1   3   13.60    4.60
   4   1  -3 1803.12   72.29
  -4  -1   3 1674.73   68.39
  -4  -1   3 1782.72   59.79
  -4  -1   3 1769.42   73.59
  -4  -1   3 1707.73   68.19
  -4  -1   3 1722.13   60.09
  -4  -1   3 1747.03   59.69
   3   1  -3   99.99   12.50
   3   1  -3  114.79   15.20
  -3  -1   3  112.19    7.70
  -3  -1   3  107.49   14.10
  -3  -1   3   89.09    7.00
  -3  -1   3   74.69   12.80
  -3  -1   3  101.39   13.00
   2   1  -3   13.00    4.50
   2   1  -3   11.90    5.20
   2   1  -3    5.70    3.80
   2   1  -3   14.70    4.70
  -2  -1   3   12.90    4.30
  -2  -1   3    5.60    3.90
  -2  -1   3    7.90    4.60
  -2  -1   3    9.60    2.20
  -2  -1   3    9.10    4.20
   1   1  -3   15.90    2.40
   1   1  -3   13.60    4.60
   1   1  -3    7.90    3.60
   1   1  -3   16.70    4.50
   1   1  -3   18.70    2.50
  -1  -1   3   14.00    4.30
  -1  -1   3   16.30    4.40
  -1  -1   3   12.20    4.00
  -1  -1   3   27.20    6.80
   0   1  -3 5820.62  176.98
   0   1  -3 6037.00  181.98
   0   1  -3 6012.10  180.78
   0  -1   3 6092.29  182.18
   0  -1   3 6107.69  181.98
   0  -1   3 5946.71  176.88
   0  -1   3 5812.02  180.28
   0  -1   3 6086.19  182.08
   0  -1   3 5798.92  176.48
  -1   1  -3 1066.19   36.50
  -1   1  -3 1039.30   39.30
  -1   1  -3 1107.59   37.00
  -1   1  -3 1065.59   35.60
  -1   1  -3 1044.80   35.80
   1  -1   3 1071.89   39.50
   1  -1   3 1093.59   36.10
   1  -1   3 1104.49   36.70
   1  -1   3 1008.00   36.40
   1  -1   3 1045.80   39.20
  -2   1  -3  266.07   14.10
  -2   1  -3  247.48   10.10
  -2   1  -3  253.67   13.40
  -2   1  -3  247.28   10.40
  -2   1  -3  237.68   11.60
  -2   1  -3  267.57   15.30
   2  -1   3  221.18   12.40
   2  -1   3  237.98   11.50
   2  -1   3  240.68   14.70
   2  -1   3  249.68   11.80
   2  -1   3  270.47   14.90
  -3   1  -3  248.68   16.80
  -3   1  -3  256.57   15.70
  -3   1  -3  258.77   15.10
  -3   1  -3  215.68   12.40
   3  -1   3  249.97   13.00
   3  -1   3  283.97   12.30
   3  -1   3  240.68   16.10
   3  -1   3  250.67   12.70
   3  -1   3  254.97   15.10
  -4   1  -3   67.29   10.30
  -4   1  -3   68.29   10.40
  -4   1  -3   87.59   11.90
  -4   1  -3   71.89    9.90
  -4   1  -3   94.99   12.80
   4  -1   3   64.29   10.70
   4  -1   3   86.89    9.40
   4  -1   3   79.19    7.00
   4  -1   3   94.59   11.50
   4  -1   3   76.89    7.70
  -5   1  -3   53.89    9.80
  -5   1  -3   48.50   10.20
  -5   1  -3   58.39   10.30
   5  -1   3   59.79   11.60
  -6   1  -3   32.70   10.30
  -6   1  -3   31.90    8.70
  -7   1  -3   11.00    7.00
  -7   1  -3   13.30    7.50
  -8   1  -3    2.80    6.50
  -8   1  -3   -9.10    5.00
  -9   1  -3   48.40   15.00
  -9   1  -3   31.20   11.60
   8   0  -3    0.40    7.00
   7   0  -3    0.60    6.10
   7   0  -3   -0.20    7.00
   7   0  -3   -6.00    4.60
  -7   0   3   -5.00    7.10
   6   0  -3  878.41   45.50
   6   0  -3  893.31   44.50
   6   0  -3  945.11   50.89
  -6   0   3  861.71   47.40
  -6   0   3  964.90   39.80
  -6   0   3  855.41   50.69
  -6   0   3  965.60   40.80
  -6   0   3  845.52   46.30
  -6   0   3  841.82   39.80
   5   0  -3   17.80    7.20
   5   0  -3    8.00    5.90
  -5   0   3   18.40    7.80
  -5   0   3   21.10    5.90
  -5   0   3   24.90    6.40
  -5   0   3   21.20    9.30
  -5   0   3   22.90    8.10
  -5   0   3   16.70    5.00
   4   0  -3 2463.05   91.09
   4   0  -3 2432.06   86.09
  -4   0   3 2425.76   89.09
  -4   0   3 2396.86   81.59
  -4   0   3 2494.85   89.09
  -4   0   3 2491.25   79.39
  -4   0   3 2397.16   79.89
  -4   0   3 2407.86   94.09
   3   0  -3 1353.16   51.89
   3   0  -3 1393.46   55.99
   3   0  -3 1380.56   53.69
  -3   0   3 1359.76   54.39
  -3   0   3 1391.16   58.49
  -3   0   3 1356.26   53.69
  -3   0   3 1352.46   45.20
   2   0  -3   55.59    8.10
   2   0  -3   62.49    8.90
  -2   0   3   41.90    7.20
  -2   0   3   73.39   11.20
  -2   0   3   56.69    8.90
  -2   0   3   65.49    4.00
   1   0  -3   -1.30    0.90
   1   0  -3   -1.00    1.90
   1   0  -3    3.00    1.50
  -1   0   3    3.10    3.10
  -1   0   3    1.20    2.30
  -1   0   3    6.00    3.20
  -1   0   3    2.90    2.50
   0   0  -3 1246.48   39.70
   0   0  -3 1218.98   44.80
   0   0  -3 1183.98   37.50
   0   0   3 1255.87   45.00
   0   0   3 1172.68   42.80
   0   0   3 1246.78   40.20
   0   0   3 1196.28   39.00
   0   0   3 1160.68   43.70
  -1   0  -3  803.82   27.70
  -1   0  -3  661.73   31.90
  -1   0  -3  747.83   27.00
  -1   0  -3  782.52   28.90
   1   0   3  806.62   32.80
   1   0   3  784.62   30.50
   1   0   3  774.82   29.10
   1   0   3  815.82   28.60
  -2   0  -3  543.95   23.10
  -2   0  -3  519.25   26.40
  -2   0  -3  610.34   28.30
  -2   0  -3  536.35   19.10
  -2   0  -3  536.65   23.70
  -2   0  -3  527.35   19.60
   2   0   3  566.14   21.20
   2   0   3  566.84   24.40
   2   0   3  594.14   27.50
   2   0   3  553.24   23.00
   2   0   3  550.04   22.50
  -3   0  -3  394.46   20.70
  -3   0  -3  416.46   21.90
  -3   0  -3  450.05   25.20
  -3   0  -3  439.96   22.20
   3   0   3  412.66   18.20
   3   0   3  430.06   17.60
   3   0   3  422.06   24.50
   3   0   3  398.66   20.70
   3   0   3  388.76   18.30
  -4   0  -3  204.08   15.60
  -4   0  -3  211.68   18.50
  -4   0  -3  208.18   15.80
   4   0   3  168.78   18.50
   4   0   3  189.78   14.50
   4   0   3  204.18   10.80
  -5   0  -3   -3.10    4.00
  -5   0  -3    0.80    3.80
  -5   0  -3   -0.30    3.20
   5   0   3   -1.00    3.40
   5   0   3    0.10    4.20
  -6   0  -3    9.60    5.20
  -6   0  -3    4.60    4.60
  -6   0  -3    6.50    6.10
   6   0   3   13.40    9.30
  -7   0  -3   22.30    8.80
  -7   0  -3    8.40    6.50
  -8   0  -3   22.60    9.90
  -8   0  -3   10.30    8.60
  -9   0  -3   20.10   10.50
  -9   0  -3    2.70    8.40
   8  -1  -3   20.00   10.00
   7  -1  -3    3.80    6.20
   7  -1  -3    0.20    7.40
   7  -1  -3    0.50    6.80
  -7   1   3    6.30    5.00
  -7   1   3    1.70    9.00
   6  -1  -3  525.05   35.00
   6  -1  -3  496.75   33.30
   6  -1  -3  513.35   30.90
  -6   1   3  506.85   37.80
  -6   1   3  481.85   28.50
  -6   1   3  533.75   27.70
  -6   1   3  492.65   32.40
  -6   1   3  545.05   26.90
  -6   1   3  511.45   33.40
   5  -1  -3   59.09   13.10
   5  -1  -3   64.99   12.90
   5  -1  -3   64.89   11.70
  -5   1   3   41.40    7.10
  -5   1   3   79.69   16.60
  -5   1   3   39.10    9.50
  -5   1   3   53.89    9.00
  -5   1   3   49.99    9.40
  -5   1   3   25.00    8.80
   4  -1  -3  254.47   17.40
  -4   1   3  233.08   14.20
  -4   1   3  230.08   20.60
  -4   1   3  236.98   18.00
  -4   1   3  238.08   13.20
  -4   1   3  245.08   19.00
   3  -1  -3   30.70    6.80
   3  -1  -3   26.40    6.30
  -3   1   3   16.50    6.50
  -3   1   3   19.40    5.50
  -3   1   3   26.10    7.60
  -3   1   3   36.60    4.60
   2  -1  -3   80.99    4.30
   2  -1  -3   77.89   10.00
   2  -1  -3   77.89    9.90
  -2   1   3   69.39   10.40
  -2   1   3   85.19   10.60
   1  -1  -3   36.30    4.00
   1  -1  -3   40.80    5.20
   1  -1  -3   33.00    6.30
   1  -1  -3   30.60    6.00
  -1   1   3   33.90    3.20
  -1   1   3   44.40    8.20
  -1   1   3   19.90    4.90
   0  -1  -3   62.69    5.90
   0  -1  -3   63.39    4.50
   0  -1  -3   66.49    7.70
   0  -1  -3   68.19    9.40
   0  -1  -3   60.29    8.80
   0   1   3   59.39    8.80
   0   1   3   52.49    5.20
   0   1   3   68.89    9.50
   0   1   3   51.69    6.20
  -1  -1  -3  622.04   29.90
  -1  -1  -3  623.14   25.30
  -1  -1  -3  636.14   24.30
  -1  -1  -3  610.84   28.10
  -1  -1  -3  673.93   24.10
   1   1   3  626.54   28.80
   1   1   3  623.54   29.70
   1   1   3  642.94   26.10
   1   1   3  645.04   24.00
  -2  -1  -3 2187.88   73.99
  -2  -1  -3 2184.38   80.19
  -2  -1  -3 2231.28   68.99
  -2  -1  -3 2252.57   72.69
  -2  -1  -3 2157.68   67.89
   2   1   3 2235.98   72.99
   2   1   3 2125.89   70.09
   2   1   3 2155.28   76.79
   2   1   3 2287.47   80.29
  -3  -1  -3  227.18   15.10
  -3  -1  -3  231.88   16.70
  -3  -1  -3  203.18   14.00
   3   1   3  211.68   16.20
   3   1   3  213.78   11.90
   3   1   3  206.08   12.90
   3   1   3  215.38   17.90
  -4  -1  -3   60.59   11.70
  -4  -1  -3   62.89   10.80
  -4  -1  -3   83.09   11.90
   4   1   3   69.19   12.20
   4   1   3   62.99   12.30
  -5  -1  -3  111.19   16.10
  -5  -1  -3   99.09   14.90
  -5  -1  -3  128.29   16.20
   5   1   3  126.79   17.50
   5   1   3  120.59   18.50
  -6  -1  -3    1.20    4.10
  -6  -1  -3    2.50    5.20
  -6  -1  -3    7.80    6.20
  -7  -1  -3   -5.10    5.90
  -7  -1  -3    3.00    4.50
  -7  -1  -3   13.40    8.00
  -8  -1  -3   -1.00    6.10
  -8  -1  -3   -9.10    6.00
  -9  -1  -3   -6.50    6.20
   8  -2  -3   -1.30    6.90
  -8   2   3    2.20    5.90
   7  -2  -3    2.60    6.10
  -7   2   3    2.80    5.30
   6  -2  -3   19.30    8.80
   6  -2  -3   21.00    9.70
   6  -2  -3   21.20    7.40
  -6   2   3   15.90    8.80
  -6   2   3   24.90    7.80
  -6   2   3   22.60   10.00
  -6   2   3   24.40    8.00
   5  -2  -3   21.70    6.60
   5  -2  -3   15.30    7.50
  -5   2   3   36.80   12.10
  -5   2   3   11.40    6.70
  -5   2   3   19.60    5.40
  -5   2   3   15.60    5.90
  -5   2   3   28.70    7.80
  -5   2   3   27.50    7.80
   4  -2  -3    7.20    4.60
   4  -2  -3    1.70    3.80
   4  -2  -3    4.60    4.20
  -4   2   3    7.60    4.60
  -4   2   3    1.10    4.30
  -4   2   3    3.40    3.10
   3  -2  -3  173.38   13.50
   3  -2  -3  134.49   14.20
   3  -2  -3  186.78   19.40
  -3   2   3  172.28   13.50
  -3   2   3  155.58   17.80
   2  -2  -3   24.30    4.40
   2  -2  -3   24.50    6.20
   2  -2  -3   27.80    6.50
   2  -2  -3   26.10    6.60
  -2   2   3   20.70    5.50
  -2   2   3   26.60    7.80
   1  -2  -3   19.90    4.80
   1  -2  -3   13.20    2.90
   1  -2  -3   16.30    4.70
   1  -2  -3   35.20    7.10
   1  -2  -3   17.60    4.70
  -1   2   3   12.90    4.70
  -1   2   3   18.10    5.50
  -1   2   3   25.30    3.90
   0  -2  -3 2311.47   80.99
   0  -2  -3 2336.27   72.79
   0  -2  -3 2099.69   71.69
   0  -2  -3 2291.27   78.89
   0  -2  -3 2238.98   75.89
   0  -2  -3 2322.07   75.49
   0  -2  -3 2314.67   75.29
   0   2   3 2438.16   72.29
   0   2   3 2294.27   74.99
   0   2   3 2286.27   81.29
   0   2   3 2162.18   79.69
  -1  -2  -3  817.52   33.10
  -1  -2  -3  879.41   32.10
  -1  -2  -3  864.11   37.50
  -1  -2  -3  884.11   39.40
  -1  -2  -3  856.91   33.30
  -1  -2  -3  830.12   30.80
  -1  -2  -3  854.61   31.10
   1   2   3  815.22   38.40
   1   2   3  814.92   34.20
   1   2   3  904.41   39.40
   1   2   3  876.21   31.60
  -2  -2  -3    2.50    1.80
  -2  -2  -3    5.10    2.60
  -2  -2  -3    5.70    4.90
  -2  -2  -3    2.70    2.70
  -2  -2  -3    0.40    1.50
   2   2   3   -0.50    3.80
   2   2   3    0.70    2.20
   2   2   3    2.10    2.10
   2   2   3    6.50    4.30
  -3  -2  -3  419.16   26.30
  -3  -2  -3  450.35   22.60
  -3  -2  -3  407.56   23.40
   3   2   3  449.56   28.70
   3   2   3  404.26   21.40
   3   2   3  393.16   25.80
  -4  -2  -3   19.40    6.10
  -4  -2  -3   26.10    7.30
   4   2   3   42.10   11.00
   4   2   3   19.80    7.60
  -5  -2  -3   35.70   10.80
  -5  -2  -3   33.00    9.60
  -5  -2  -3   32.10    8.40
   5   2   3   27.70    9.30
  -6  -2  -3   31.30   12.00
  -6  -2  -3   33.10   10.00
  -6  -2  -3   19.80    7.60
  -7  -2  -3   10.50    7.20
  -7  -2  -3    6.00    7.90
  -7  -2  -3    3.00    7.50
  -8  -2  -3   11.90   11.60
  -8  -2  -3   15.30    9.30
  -8  -2  -3    7.00    7.70
   9  -3  -3   -7.70    7.70
  -8   3   3    0.50    5.90
   7  -3  -3    4.00    6.70
  -7   3   3   -1.00    4.80
   6  -3  -3   12.20    8.30
   6  -3  -3   19.70    9.60
  -6   3   3   26.70    8.10
  -6   3   3    0.50    3.70
  -6   3   3   20.40    8.60
   5  -3  -3  151.18   17.60
   5  -3  -3  161.38   21.90
  -5   3   3  191.88   22.70
  -5   3   3  145.69   15.80
  -5   3   3  161.78   18.50
   4  -3  -3  111.79   17.10
   4  -3  -3  118.79    8.10
   4  -3  -3  133.49   15.20
   4  -3  -3   99.99   13.20
  -4   3   3  108.59   13.70
  -4   3   3  128.59   17.00
   3  -3  -3   79.69   11.10
   3  -3  -3   63.89   10.30
   3  -3  -3   82.29   10.50
   3  -3  -3   51.09   10.50
   3  -3  -3   82.49    9.80
  -3   3   3   66.29   10.20
  -3   3   3   94.29   14.50
   2  -3  -3    0.10    2.70
   2  -3  -3   -0.20    2.60
   2  -3  -3    7.30    4.40
   2  -3  -3    2.20    2.30
   2  -3  -3    0.60    2.50
  -2   3   3    3.50    3.50
  -2   3   3    0.30    4.00
   1  -3  -3   15.30    5.50
   1  -3  -3   22.70    5.20
   1  -3  -3    9.00    3.80
   1  -3  -3   16.10    5.30
   1  -3  -3   24.30    6.80
   1  -3  -3   18.70    4.00
  -1   3   3    6.90    5.10
  -1   3   3   16.90    5.90
  -1   3   3   15.70    3.00
  -1   3   3   29.40    5.10
   0  -3  -3  401.76   23.40
   0  -3  -3  375.66   20.20
   0  -3  -3  390.26   18.10
   0  -3  -3  391.16   20.00
   0  -3  -3  392.06   20.70
   0   3   3  390.56   20.10
   0   3   3  388.16   24.90
   0   3   3  378.26   23.50
  -1  -3  -3   42.80    9.30
  -1  -3  -3   22.60    5.30
  -1  -3  -3   37.00    5.50
  -1  -3  -3   37.20    6.40
  -1  -3  -3   32.90    5.70
  -1  -3  -3   40.10    7.50
   1   3   3   49.70   11.00
   1   3   3   28.50    5.00
   1   3   3   20.80    5.70
   1   3   3   22.10    7.00
  -2  -3  -3   75.59   11.10
  -2  -3  -3   60.39   11.80
  -2  -3  -3   70.39    9.70
  -2  -3  -3   65.39    6.90
   2   3   3   68.99   13.40
   2   3   3   76.39   10.60
   2   3   3   72.79   13.50
  -3  -3  -3    5.00    5.20
  -3  -3  -3   -3.00    2.40
  -3  -3  -3   -0.60    3.20
   3   3   3    2.70    5.00
   3   3   3   -1.50    4.40
   3   3   3    1.90    3.20
  -4  -3  -3   53.19   11.50
  -4  -3  -3   46.50    9.50
  -4  -3  -3   18.20    8.40
   4   3   3   58.59   14.80
  -5  -3  -3   70.89   13.50
  -5  -3  -3   28.00   10.10
  -5  -3  -3   42.90   10.50
   5   3   3   25.60   10.00
  -6  -3  -3   48.00   15.00
  -6  -3  -3   42.70   10.90
  -6  -3  -3   51.99   13.20
  -7  -3  -3   45.70   13.20
  -7  -3  -3   66.79   17.30
  -7  -3  -3   36.30   11.40
  -8  -3  -3   11.00   10.10
  -8  -3  -3    8.50    8.60
  -8  -3  -3    3.60    9.20
   9  -4  -3   -2.30    9.90
   8  -4  -3    6.30    9.50
  -8   4   3    7.50   10.00
   7  -4  -3   33.00   12.90
  -7   4   3   61.09   13.40
   6  -4  -3    0.80    6.20
  -6   4   3    0.70    3.90
   5  -4  -3   13.80    7.10
  -5   4   3   13.90    8.00
   4  -4  -3   67.99   14.70
   4  -4  -3   44.50   10.00
   4  -4  -3   56.29    9.70
  -4   4   3   69.19   14.20
   3  -4  -3   10.90    4.80
   3  -4  -3   19.80    7.80
   3  -4  -3   18.10    6.50
   3  -4  -3   22.90    6.60
  -3   4   3   23.50    9.30
  -3   4   3   11.40    5.50
   2  -4  -3  152.58   14.70
   2  -4  -3  182.18   22.00
   2  -4  -3  148.89   10.70
   2  -4  -3  132.99   17.40
   2  -4  -3  171.78   18.20
  -2   4   3  140.69   19.00
  -2   4   3  146.59   16.10
   1  -4  -3  141.59   14.40
   1  -4  -3  158.58   17.10
   1  -4  -3  161.48   11.20
   1  -4  -3  183.28   19.20
  -1   4   3  171.78   12.20
  -1   4   3  199.48   22.60
  -1   4   3  164.58   17.70
   0  -4  -3    0.90    2.40
   0  -4  -3    0.90    4.20
   0  -4  -3    1.00    3.60
   0  -4  -3    1.60    3.60
   0  -4  -3    1.70    3.20
   0   4   3    3.20    5.20
   0   4   3    6.00    3.90
   0   4   3    7.00    4.90
  -1  -4  -3  319.47   18.50
  -1  -4  -3  271.67   18.60
  -1  -4  -3  295.47   17.50
  -1  -4  -3  285.87   21.80
   1   4   3  317.07   23.70
   1   4   3  309.17   19.70
   1   4   3  281.97   16.30
   1   4   3  290.37   24.10
  -2  -4  -3   14.90    5.10
  -2  -4  -3    8.00    5.30
  -2  -4  -3   16.50    5.60
   2   4   3    0.40    3.70
   2   4   3   13.60    7.10
   2   4   3   12.70    7.10
  -3  -4  -3  623.54   31.20
  -3  -4  -3  603.94   36.90
  -3  -4  -3  565.64   31.90
   3   4   3  568.84   37.70
  -4  -4  -3  375.26   29.50
  -4  -4  -3  408.76   27.20
  -4  -4  -3  371.76   25.00
   4   4   3  319.07   33.50
  -5  -4  -3  252.87   31.10
  -5  -4  -3  292.57   29.70
  -5  -4  -3  261.37   25.60
   5   4   3  247.48   30.70
  -6  -4  -3    5.40    6.70
  -6  -4  -3   -6.50    6.30
  -6  -4  -3   -2.40    6.00
  -7  -4  -3    2.20    6.40
  -7  -4  -3    3.20    6.70
  -7  -4  -3   -5.00    7.00
   8  -5  -3    4.90    8.90
   7  -5  -3   -4.60    6.50
  -7   5   3    5.30    7.80
   6  -5  -3   13.70    8.60
  -6   5   3    4.80    5.50
   5  -5  -3   -1.40    4.60
   5  -5  -3   -0.90    4.00
  -5   5   3    1.10    6.80
   4  -5  -3    0.80    4.60
   4  -5  -3    3.80    4.30
  -4   5   3    0.00    6.20
   3  -5  -3  130.79   16.50
   3  -5  -3  128.69   15.60
  -3   5   3   90.79   16.80
   2  -5  -3   56.69   11.40
   2  -5  -3   52.49    8.10
   2  -5  -3   59.89   12.80
   2  -5  -3   32.50    7.30
  -2   5   3   45.80    5.30
  -2   5   3   50.39   12.10
  -2   5   3   30.40    8.00
   1  -5  -3  958.80   46.20
   1  -5  -3 1046.80   47.50
   1  -5  -3 1032.60   43.70
  -1   5   3 1012.00   47.20
  -1   5   3  992.50   51.69
   0  -5  -3 1079.29   47.30
   0  -5  -3 1123.39   46.70
   0  -5  -3 1002.40   44.80
   0  -5  -3 1037.00   49.70
   0   5   3 1081.49   54.39
   0   5   3 1111.79   51.49
  -1  -5  -3  925.41   46.80
  -1  -5  -3  927.21   40.10
  -1  -5  -3  963.10   43.20
   1   5   3  911.31   50.29
   1   5   3  942.91   48.50
  -2  -5  -3   84.69   16.10
  -2  -5  -3   87.69   12.80
  -2  -5  -3   72.19   12.90
   2   5   3   52.49   14.50
  -3  -5  -3   -1.30    4.70
  -3  -5  -3    1.50    4.20
  -3  -5  -3    4.20    4.80
   3   5   3   -1.60    6.00
  -4  -5  -3   38.60   12.50
  -4  -5  -3   22.70    8.50
  -4  -5  -3   24.60    8.90
   4   5   3   16.00   11.70
  -5  -5  -3   13.70    8.00
  -5  -5  -3    2.90    7.20
  -5  -5  -3    0.30    5.50
  -6  -5  -3   -1.80    4.80
  -6  -5  -3   -6.50    7.30
  -6  -5  -3    4.50    7.60
  -7  -5  -3    7.60   10.30
  -7  -5  -3   -3.80    6.60
  -7  -5  -3   12.10    9.90
   8  -6  -3   -3.50    9.20
   7  -6  -3    5.40    7.60
   6  -6  -3    4.50    6.90
   6  -6  -3   10.30    6.70
  -6   6   3   -2.70    4.50
   5  -6  -3   20.10   10.90
   5  -6  -3   29.20    8.90
   4  -6  -3    0.00    6.30
   4  -6  -3    2.50    5.40
  -4   6   3    4.50    8.20
   3  -6  -3   23.50    7.40
   3  -6  -3   40.40   12.70
  -3   6   3   15.50    9.30
   2  -6  -3  633.74   35.40
   2  -6  -3  594.04   32.90
   2  -6  -3  645.74   39.20
  -2   6   3  631.04   40.70
   1  -6  -3  166.38   20.00
   1  -6  -3  144.89   19.60
   1  -6  -3  166.08   20.80
  -1   6   3  228.88   29.30
   0  -6  -3  267.27   21.10
   0  -6  -3  315.57   30.40
   0   6   3  368.06   27.30
   0   6   3  284.37   32.50
  -1  -6  -3  365.66   23.00
  -1  -6  -3  368.06   28.90
  -1  -6  -3  335.97   24.50
   1   6   3  397.56   40.50
  -2  -6  -3  153.48   19.70
  -2  -6  -3  145.39   22.50
  -2  -6  -3  148.59   17.30
   2   6   3  182.18   27.70
  -3  -6  -3   35.40   10.50
  -3  -6  -3   50.89   11.30
  -3  -6  -3   41.10   13.70
  -4  -6  -3   -2.50    6.00
  -4  -6  -3    0.40    6.00
  -4  -6  -3   -1.30    5.30
  -5  -6  -3    1.80    8.90
  -5  -6  -3    0.80    6.90
  -5  -6  -3    2.70    6.50
  -6  -6  -3   -4.70    5.30
  -6  -6  -3    5.60    7.50
  -6  -6  -3    0.70    8.90
   7  -7  -3    7.40   10.00
   6  -7  -3    3.90    8.70
   6  -7  -3   -2.10    5.50
   5  -7  -3   -1.80    5.10
   5  -7  -3   18.40   10.50
   4  -7  -3   28.50   12.60
   4  -7  -3   58.89   12.50
  -4   7   3   48.50   15.20
   3  -7  -3   -4.80    4.10
   3  -7  -3   -0.10    5.90
  -3   7   3    0.80    9.20
   2  -7  -3  102.49   15.80
   2  -7  -3   80.19   16.60
  -2   7   3  124.19   22.70
   1  -7  -3    3.90    5.70
   1  -7  -3    4.40    5.80
  -1   7   3   -4.20    7.00
   0  -7  -3   -1.30    4.10
   0  -7  -3    2.80    6.60
  -1  -7  -3   45.40   10.00
  -1  -7  -3   44.90   11.80
  -1  -7  -3   32.20   11.50
  -2  -7  -3   24.90    8.60
  -2  -7  -3   18.20    8.40
  -2  -7  -3   31.50   11.80
  -3  -7  -3   37.10   11.70
  -3  -7  -3    8.40    7.20
  -3  -7  -3   47.70   15.60
  -4  -7  -3   11.20    7.50
  -4  -7  -3   14.10   10.80
  -4  -7  -3   22.30   11.00
  -5  -7  -3   22.10   14.40
  -5  -7  -3   35.80   13.00
  -5  -7  -3   67.69   16.90
   6  -8  -3    7.20   10.00
   5  -8  -3   -4.30    8.40
   5  -8  -3    2.70    7.70
   4  -8  -3   -1.10    5.90
   4  -8  -3   -1.50    5.30
   3  -8  -3    5.00    6.20
   3  -8  -3   12.20    9.20
   2  -8  -3    8.70    8.70
   2  -8  -3   25.80    9.60
   1  -8  -3   -0.60    6.30
   0  -8  -3    1.10    7.80
   0  -8  -3   25.50   10.00
  -1  -8  -3    0.50    5.10
  -1  -8  -3   12.40    9.40
  -1  -8  -3    0.70    4.90
  -2  -8  -3   16.00    8.30
  -2  -8  -3   17.10    8.40
  -2  -8  -3    7.00    9.90
  -3  -8  -3   37.90   14.90
  -3  -8  -3    9.40    8.60
  -3  -8  -3   20.50    9.50
  -4  -8  -3    3.30    7.70
  -4  -8  -3   11.20    8.70
  -4  -8  -3    7.80   11.10
   5  -9  -3    3.30    9.00
   5  -9  -3    5.00    9.80
   4  -9  -3    3.20    7.50
   4  -9  -3   -4.50    9.40
   3  -9  -3   11.60   11.00
   3  -9  -3   -0.70    6.20
   2  -9  -3   90.79   18.70
   1  -9  -3  113.69   20.20
   0  -9  -3   10.00    8.00
   0  -9  -3   13.60    7.80
   0  -9  -3   12.50   10.20
  -1  -9  -3   -3.30    5.90
  -1  -9  -3   -3.30    6.50
  -1  -9  -3   -0.70    8.20
  -2  -9  -3    3.40    9.30
  -2  -9  -3   -3.30    6.20
  -2  -9  -3   -2.70    7.40
  -1 -11   4    2.30    8.40
   0 -11   4   -3.70    5.90
   1 -11   4   11.10   11.80
   1 -11   4   31.70   12.20
   2 -11   4   11.10    9.60
   2 -11   4   -2.90   10.40
   3 -11   4    0.50    9.60
   3 -11   4    9.00   10.00
  -3 -10   4   -6.50    7.00
  -3 -10   4   -3.40    7.60
  -3 -10   4    0.10    6.90
  -2 -10   4   13.80    8.70
  -1 -10   4   10.20    7.50
   0 -10   4   39.30   11.90
   0 -10   4   29.40   13.80
   1 -10   4   -2.60    5.40
   1 -10   4    4.80    9.90
   2 -10   4   16.00   11.20
   2 -10   4    1.50    6.50
   3 -10   4    3.70    8.60
   3 -10   4    4.50    7.30
   4 -10   4   -0.80    7.10
   4 -10   4   10.70   11.90
   5 -10   4   29.20   11.80
   5 -10   4   43.70   17.70
  -5  -9   4    5.60    8.60
  -5  -9   4   11.60    9.90
  -5  -9   4    5.80    9.10
  -4  -9   4   -8.50    5.10
  -4  -9   4   -0.20    9.20
  -4  -9   4   -3.40    6.80
  -3  -9   4   32.10   10.50
  -3  -9   4   16.40   10.30
  -3  -9   4   -0.30    5.50
  -2  -9   4    5.30    7.70
  -2  -9   4   10.40    6.70
  -1  -9   4    0.30    5.40
  -1  -9   4    7.10    8.70
   0  -9   4    3.00    6.50
   0  -9   4   12.20    9.00
   1  -9   4    8.90    6.70
   1  -9   4    4.90    8.40
   2  -9   4   -2.10    6.90
   2  -9   4   -0.50    4.70
   3  -9   4   92.89   18.30
   3  -9   4  119.49   25.50
   4  -9   4   13.70   10.80
   4  -9   4   20.30    8.80
  -5   9  -4    9.80    8.90
   5  -9   4    8.40    9.70
   5  -9   4    5.10    8.50
   6  -9   4    6.40    9.90
   7  -9   4   -7.10    9.10
  -6  -8   4    2.10    9.50
  -6  -8   4   -1.40    8.50
  -5  -8   4   -1.10    6.30
  -5  -8   4    4.30    6.60
  -5  -8   4    1.00    7.80
  -4  -8   4    7.10    6.80
  -4  -8   4    2.80    6.30
  -4  -8   4   -5.20    7.60
  -3  -8   4   17.30    8.80
  -3  -8   4   21.00    9.10
  -3  -8   4    9.00    8.20
   2   8  -4   26.70   13.50
  -2  -8   4   42.90   13.60
  -2  -8   4   45.70   12.70
  -2  -8   4   70.09   14.30
   1   8  -4   13.40   10.50
  -1  -8   4    5.80    7.10
  -1  -8   4    7.70    6.90
  -1  -8   4   -2.20    5.00
   0   8  -4    2.60    7.00
   0  -8   4   -2.20    5.10
   0  -8   4    4.10    5.40
   1  -8   4    9.50    8.00
   1  -8   4   99.29   15.60
   2  -8   4    5.10    5.70
   2  -8   4   12.30    6.80
  -3   8  -4   -2.00    3.70
   3  -8   4    0.60    5.00
   3  -8   4   -3.10    5.10
  -4   8  -4   45.50   10.80
   4  -8   4   25.90   10.90
   4  -8   4   37.30   11.10
  -5   8  -4   -0.70    6.10
   5  -8   4    3.90    7.70
  -6   8  -4   16.30    9.00
   6  -8   4   17.70   12.70
   7  -8   4   -3.00    9.70
  -6  -7   4    5.50   10.00
  -6  -7   4    1.40    7.20
  -5  -7   4   11.50    7.10
  -5  -7   4   16.30    8.30
  -5  -7   4    4.30    7.70
  -4  -7   4   22.50    8.50
  -4  -7   4   38.40    9.80
  -4  -7   4   23.00    9.70
   3   7  -4   10.40   10.70
  -3  -7   4   18.30    6.90
  -3  -7   4   24.20   10.60
  -3  -7   4   24.30    8.40
   2   7  -4  155.78   25.10
  -2  -7   4  126.69   18.60
  -2  -7   4  144.99   18.80
  -2  -7   4  109.79   17.90
   1   7  -4  289.17   32.90
   1   7  -4  349.87   26.70
  -1  -7   4  305.87   21.90
  -1  -7   4  330.67   24.20
  -1  -7   4  312.47   26.00
   0   7  -4  445.96   31.20
   0  -7   4  443.96   32.20
   0  -7   4  428.96   26.30
  -1   7  -4  485.15   29.60
   1  -7   4  394.76   31.80
   1  -7   4  411.46   25.90
  -2   7  -4    5.70    4.10
   2  -7   4    6.90    5.70
   2  -7   4   10.30    8.10
  -3   7  -4  120.49   15.30
   3  -7   4  101.19   15.30
   3  -7   4  112.89   20.80
  -4   7  -4  254.97   20.60
   4  -7   4  265.37   32.80
  -5   7  -4  148.69   20.10
   5  -7   4  103.59   22.00
  -6   7  -4    2.70    5.80
   6  -7   4   -0.80    7.20
  -7   7  -4    7.20    8.20
   7  -7   4    3.90    8.60
  -8   7  -4   -1.90    7.50
   8  -7   4    8.60   12.30
  -7  -6   4   -1.50    7.80
  -6  -6   4    4.90    6.10
  -5  -6   4    2.60    5.40
  -5  -6   4    1.30    5.20
  -5  -6   4    3.60    7.40
   4   6  -4   11.40   11.20
  -4  -6   4   -1.30    6.10
  -4  -6   4    4.40    4.80
  -4  -6   4   22.10    7.90
   3   6  -4   56.79   16.40
  -3  -6   4   60.39   13.60
  -3  -6   4   49.99   11.40
  -3  -6   4   49.00   10.00
  -3  -6   4   69.89   12.20
   2   6  -4  250.37   29.60
   2   6  -4  221.68   25.50
  -2  -6   4  277.07   19.10
  -2  -6   4  244.58   25.70
  -2  -6   4  283.67   28.50
  -2  -6   4  228.68   23.90
   1   6  -4  309.07   24.00
   1   6  -4  301.57   19.60
   1   6  -4  288.67   30.60
  -1  -6   4  295.47   19.70
  -1  -6   4  330.57   22.80
  -1  -6   4  288.37   23.90
  -1  -6   4  348.27   24.30
   0   6  -4   66.79   13.80
   0   6  -4   55.09   10.70
   0  -6   4   62.19   10.80
   0  -6   4   49.00    9.50
  -1   6  -4   55.39    8.10
  -1   6  -4   44.80   10.00
  -1   6  -4   44.60    7.40
   1  -6   4   74.99   11.70
   1  -6   4   42.50    7.70
   1  -6   4   48.70   11.60
  -2   6  -4  776.82   33.60
   2  -6   4  745.73   43.60
   2  -6   4  701.93   34.80
  -3   6  -4  679.73   33.00
   3  -6   4  626.74   29.20
   3  -6   4  670.33   41.20
  -4   6  -4   82.69   13.30
   4  -6   4   98.19   18.90
  -5   6  -4   11.80    6.70
  -5   6  -4    5.50    5.50
   5  -6   4    7.00    6.10
  -6   6  -4   52.59   13.70
  -6   6  -4   50.09   12.20
   6  -6   4   55.99   15.30
  -7   6  -4    6.40    8.10
  -7   6  -4   11.80    9.00
   7  -6   4    8.40    9.30
  -8   6  -4    3.40    7.20
   8  -6   4    8.10    9.40
  -7  -5   4    1.20    7.20
  -6  -5   4   -2.20    5.30
   5   5  -4   16.00    9.70
  -5  -5   4   15.00    6.90
  -5  -5   4   25.00    8.50
   4   5  -4   -4.20    6.80
  -4  -5   4    0.40    5.90
  -4  -5   4   -1.70    3.80
  -4  -5   4   -0.90    4.10
  -4  -5   4   -1.00    3.70
   3   5  -4    5.70    5.70
   3   5  -4   14.30    7.90
  -3  -5   4   11.00    5.00
  -3  -5   4   10.10    4.60
  -3  -5   4    7.40    5.70
  -3  -5   4   -2.90    4.90
  -3  -5   4    0.40    3.80
   2   5  -4  393.16   28.80
  -2  -5   4  347.67   20.40
  -2  -5   4  384.56   27.20
  -2  -5   4  341.37   24.40
  -2  -5   4  361.66   24.50
   1   5  -4    8.00    6.10
   1   5  -4   -2.00    2.40
  -1  -5   4    1.70    2.00
  -1  -5   4    3.80    3.70
  -1  -5   4   -0.20    2.40
  -1  -5   4    3.50    4.70
   0   5  -4    2.10    2.60
   0   5  -4    3.00    4.30
   0   5  -4    7.30    2.80
   0   5  -4    1.20    2.40
   0   5  -4    2.50    3.00
   0  -5   4   11.30    4.80
   0  -5   4   16.00    5.00
   0  -5   4    5.10    5.00
   0  -5   4    6.60    2.90
  -1   5  -4  430.16   22.00
  -1   5  -4  446.26   24.70
  -1   5  -4  460.35   21.60
  -1   5  -4  386.36   21.50
  -1   5  -4  448.36   20.90
   1  -5   4  486.85   23.10
   1  -5   4  494.05   22.60
   1  -5   4  458.35   23.10
   1  -5   4  451.85   20.80
   1  -5   4  412.86   28.80
  -2   5  -4  121.79    9.90
  -2   5  -4  112.19   12.00
   2  -5   4  100.89    8.10
   2  -5   4   78.29   14.60
   2  -5   4  108.89   11.10
  -3   5  -4    2.90    2.10
  -3   5  -4   -2.70    2.30
  -3   5  -4    1.70    3.80
   3  -5   4    0.20    2.20
   3  -5   4   -4.30    3.50
  -4   5  -4   78.39   12.70
  -4   5  -4   50.79   10.50
   4  -5   4  112.29   18.90
  -5   5  -4    2.50    3.90
  -5   5  -4   -6.70    3.90
   5  -5   4    3.00    4.80
  -6   5  -4    3.60    5.00
  -6   5  -4   10.80    7.70
   6  -5   4    1.40    5.10
  -7   5  -4    1.70    5.50
  -7   5  -4    0.50    5.60
   7  -5   4   -0.50    7.50
  -8   5  -4    9.90    8.00
  -9   5  -4    2.50    8.50
  -7  -4   4   -1.90    9.00
  -6  -4   4   -4.60    4.50
   5   4  -4  172.88   26.00
  -5  -4   4  201.68   26.30
  -5  -4   4  169.08   17.20
  -5  -4   4  188.78   18.60
   4   4  -4   63.19   15.40
  -4  -4   4   59.49   11.60
  -4  -4   4   71.39   10.90
  -4  -4   4   59.79    9.80
   3   4  -4   50.09   12.40
  -3  -4   4   66.69    9.60
  -3  -4   4   65.19   11.40
  -3  -4   4   75.19   14.50
  -3  -4   4   63.89    9.20
  -3  -4   4   56.49   12.20
   2   4  -4  120.19    9.20
   2   4  -4  110.99   17.20
  -2  -4   4  109.79   14.70
  -2  -4   4  118.79   15.50
  -2  -4   4  140.89   18.30
  -2  -4   4  129.09   10.10
   1   4  -4  263.07   14.50
   1   4  -4  256.57   20.00
   1   4  -4  238.48   13.20
  -1  -4   4  256.77   18.50
  -1  -4   4  245.18   17.80
  -1  -4   4  266.07   14.80
  -1  -4   4  244.08   11.20
  -1  -4   4  237.58   11.30
   0   4  -4  561.74   24.70
   0   4  -4  537.95   26.50
   0   4  -4  577.34   23.60
   0   4  -4  533.85   27.90
   0   4  -4  549.74   20.90
   0   4  -4  520.25   24.80
   0  -4   4  531.15   22.70
   0  -4   4  561.44   27.60
   0  -4   4  560.04   30.50
   0  -4   4  554.14   22.20
   0  -4   4  570.84   24.30
  -1   4  -4    1.60    3.00
  -1   4  -4    4.00    2.40
  -1   4  -4    4.30    2.60
  -1   4  -4    3.30    2.10
  -1   4  -4    3.40    2.80
   1  -4   4    3.20    2.60
   1  -4   4    4.20    4.10
   1  -4   4    4.70    2.50
   1  -4   4    3.60    2.00
  -2   4  -4  246.18   15.70
  -2   4  -4  268.47   14.40
  -2   4  -4  266.37   14.40
  -2   4  -4  284.27   13.50
  -2   4  -4  254.17   13.90
  -2   4  -4  258.17   12.60
  -2   4  -4  275.57   16.20
   2  -4   4  283.47   21.40
   2  -4   4  260.27   14.20
   2  -4   4  234.78   12.70
   2  -4   4  255.27   14.50
  -3   4  -4  191.28   14.80
  -3   4  -4  168.98   13.70
   3  -4   4  170.08   10.40
   3  -4   4  211.58   22.90
   3  -4   4  170.28   12.10
  -4   4  -4    0.40    3.60
  -4   4  -4   -2.10    2.20
   4  -4   4   -2.70    3.60
  -5   4  -4    0.30    3.20
  -5   4  -4    1.50    4.20
  -5   4  -4    3.40    4.60
   5  -4   4   -2.50    4.90
  -6   4  -4    2.20    5.10
  -6   4  -4    4.50    6.10
  -6   4  -4    4.90    5.20
   6  -4   4    3.50    6.00
  -7   4  -4    4.20    6.90
  -7   4  -4   -3.30    4.90
  -7   4  -4    2.30    5.00
  -8   4  -4    3.60    7.90
  -8   4  -4   10.60    7.50
  -9   4  -4   19.60   10.70
  -9   4  -4    6.80    9.40
   9   3  -4   10.50    9.20
   6   3  -4    4.60    8.10
  -6  -3   4    0.40    4.80
  -6  -3   4    2.60    6.80
   5   3  -4    3.60    7.10
  -5  -3   4   -0.40    5.00
  -5  -3   4   -2.40    5.30
  -5  -3   4    2.30    3.60
   4   3  -4   -1.80    4.80
  -4  -3   4    3.20    5.90
  -4  -3   4    3.90    4.10
  -4  -3   4   -0.70    4.00
  -4  -3   4   -0.30    2.90
  -4  -3   4   -3.40    2.40
   3   3  -4   13.80    7.40
   3   3  -4    9.70    2.40
  -3  -3   4   12.70    5.40
  -3  -3   4   11.00    4.00
  -3  -3   4    6.50    3.60
  -3  -3   4    7.90    5.50
  -3  -3   4    4.80    4.40
   2   3  -4   51.39   10.80
   2   3  -4   98.29    6.70
   2   3  -4  106.09    7.20
  -2  -3   4  101.09   14.10
  -2  -3   4  110.39   15.00
  -2  -3   4  112.39   14.30
   1   3  -4    9.20    2.50
   1   3  -4    5.60    2.50
   1   3  -4    4.30    3.00
   1   3  -4    4.80    4.30
   1   3  -4   11.50    4.50
  -1  -3   4    6.00    1.70
  -1  -3   4    9.40    4.40
  -1  -3   4    6.50    1.30
  -1  -3   4    4.90    3.70
  -1  -3   4    7.20    4.10
   0   3  -4  833.62   35.30
   0   3  -4  744.63   35.10
   0   3  -4  856.51   31.40
   0   3  -4  878.31   38.50
   0   3  -4  864.71   32.00
   0  -3   4  855.01   38.40
   0  -3   4  834.72   30.50
   0  -3   4  848.92   30.10
   0  -3   4  841.72   35.50
   0  -3   4  860.61   34.70
  -1   3  -4  941.31   34.20
  -1   3  -4  952.50   34.60
  -1   3  -4  889.21   36.00
  -1   3  -4  861.21   33.90
  -1   3  -4  920.21   34.40
  -1   3  -4  946.51   34.60
   1  -3   4  904.91   34.10
   1  -3   4  937.81   34.20
   1  -3   4  930.41   33.80
   1  -3   4  933.41   41.10
   1  -3   4  962.90   36.40
  -2   3  -4  172.28   12.10
  -2   3  -4  163.18   10.00
  -2   3  -4  161.58   11.90
  -2   3  -4  152.18   10.10
  -2   3  -4  155.08    8.00
  -2   3  -4  168.18    7.90
  -2   3  -4  167.68   11.30
   2  -3   4  163.68   11.10
   2  -3   4  203.38   20.10
   2  -3   4  140.79   10.30
   2  -3   4  168.28   11.10
  -3   3  -4  881.41   38.10
  -3   3  -4  891.71   36.80
  -3   3  -4  879.21   35.00
  -3   3  -4  914.21   37.80
   3  -3   4  932.91   35.80
   3  -3   4  891.21   35.00
   3  -3   4  885.21   41.50
   3  -3   4  857.31   34.50
  -4   3  -4   16.90    5.70
  -4   3  -4   17.80    6.00
  -4   3  -4   14.40    5.70
   4  -3   4   17.40    6.60
   4  -3   4   15.00    4.60
  -5   3  -4    9.80    5.80
  -5   3  -4   27.10    8.00
  -5   3  -4   17.20    6.70
   5  -3   4    7.00    6.00
  -6   3  -4   47.10   11.80
  -6   3  -4   84.19   13.50
  -6   3  -4   71.19   13.80
  -7   3  -4   60.69   14.40
  -7   3  -4   88.09   15.70
  -7   3  -4   75.39   15.00
  -8   3  -4   -1.80    9.00
  -8   3  -4   11.00    8.00
  -8   3  -4   20.90    9.80
  -9   3  -4   24.90   10.40
  -9   3  -4   22.30   10.10
   9   2  -4    6.90   10.40
   8   2  -4   -6.10    6.20
   7   2  -4    1.60    7.20
   6   2  -4   13.00    8.80
  -6  -2   4   13.50    6.10
  -6  -2   4    6.00    8.20
   5   2  -4   27.00   10.50
  -5  -2   4   42.30    8.10
  -5  -2   4   39.40   10.90
   4   2  -4   16.40    8.30
  -4  -2   4   13.80    4.30
  -4  -2   4   13.50    4.60
  -4  -2   4   15.00    6.70
  -4  -2   4    8.30    5.40
   3   2  -4  269.17   18.70
   3   2  -4  286.87   22.40
  -3  -2   4  227.28   12.80
  -3  -2   4  264.27   19.70
  -3  -2   4  224.28   17.40
  -3  -2   4  224.88   21.20
  -3  -2   4  255.57   20.10
  -3  -2   4  275.87   12.00
   2   2  -4 1904.41   70.79
   2   2  -4 1838.02   56.89
   2   2  -4 1878.91   56.69
   2   2  -4 1828.22   66.29
  -2  -2   4 1716.43   67.89
  -2  -2   4 1850.81   67.49
  -2  -2   4 1803.82   58.29
  -2  -2   4 1807.72   72.49
  -2  -2   4 1836.12   68.99
   1   2  -4  240.88   18.60
   1   2  -4  319.67   13.30
   1   2  -4  296.17   18.40
   1   2  -4  322.07   19.60
   1   2  -4  324.77   13.50
  -1  -2   4  299.37   20.40
  -1  -2   4  307.27   19.00
  -1  -2   4  277.37   17.90
  -1  -2   4  280.77   10.50
  -1  -2   4  283.17   17.90
   0   2  -4  985.80   40.60
   0   2  -4  942.51   38.30
   0   2  -4  961.30   39.20
   0   2  -4  972.80   35.10
   0   2  -4 1041.40   34.90
   0  -2   4  972.50   33.80
   0  -2   4 1014.20   40.80
   0  -2   4  980.60   38.00
   0  -2   4  973.50   39.40
   0  -2   4  969.20   33.90
  -1   2  -4 3312.67  105.49
  -1   2  -4 3265.77  102.29
  -1   2  -4 3168.48  101.09
  -1   2  -4 3317.67  104.09
  -1   2  -4 3273.97  102.29
  -1   2  -4 3141.29  101.59
   1  -2   4 3394.96  108.19
   1  -2   4 3245.98  101.69
   1  -2   4 3317.07  101.19
   1  -2   4 3234.28  105.19
   1  -2   4 3141.49  101.29
  -2   2  -4  587.14   21.00
  -2   2  -4  532.75   20.60
  -2   2  -4  495.25   24.90
  -2   2  -4  576.34   21.80
  -2   2  -4  580.64   24.10
  -2   2  -4  579.24   24.80
  -2   2  -4  574.64   22.60
   2  -2   4  573.74   23.20
   2  -2   4  547.25   20.50
   2  -2   4  562.14   28.00
   2  -2   4  553.04   25.70
   2  -2   4  541.85   23.60
  -3   2  -4  414.86   21.20
  -3   2  -4  452.55   23.20
  -3   2  -4  384.26   21.60
  -3   2  -4  421.06   22.50
   3  -2   4  426.86   22.30
   3  -2   4  427.06   20.30
   3  -2   4  379.86   23.20
   3  -2   4  420.86   14.80
   3  -2   4  440.06   19.40
  -4   2  -4   43.00    8.60
  -4   2  -4   39.90    8.80
  -4   2  -4   24.40    6.70
  -4   2  -4   30.40    7.40
   4  -2   4   40.30    9.00
   4  -2   4   41.50    8.40
  -5   2  -4   58.69   11.20
  -5   2  -4   78.29   12.70
  -5   2  -4   37.70    9.50
   5  -2   4   85.79   12.90
   5  -2   4   57.39   11.00
  -6   2  -4   32.60    9.20
  -6   2  -4   51.49   11.20
  -7   2  -4   -0.40    5.10
  -7   2  -4    3.60    6.10
  -8   2  -4   -5.50    5.60
  -8   2  -4   -2.10    5.50
  -9   2  -4   23.50   10.90
  -9   2  -4   18.00   10.30
   9   1  -4   -4.70    7.60
   8   1  -4    2.50    8.20
   7   1  -4   -0.30    5.90
   7   1  -4   -1.20    5.60
   7   1  -4   -4.50    6.50
  -7  -1   4    1.00    8.00
   6   1  -4  314.87   29.80
   6   1  -4  231.08   29.80
  -6  -1   4  254.97   29.10
   5   1  -4    7.80    6.30
   5   1  -4    8.10    6.60
  -5  -1   4    9.60    7.70
  -5  -1   4    6.40    6.10
  -5  -1   4   15.60    7.40
  -5  -1   4   17.90    5.60
  -5  -1   4   11.60    4.60
   4   1  -4   30.60   10.10
   4   1  -4   17.90    7.10
  -4  -1   4   10.70    5.80
  -4  -1   4   29.10    5.60
  -4  -1   4   27.30    5.40
  -4  -1   4   35.30    6.10
  -4  -1   4   17.60    6.80
  -4  -1   4   28.00    9.70
   3   1  -4   -2.60    3.10
   3   1  -4    2.80    3.70
  -3  -1   4    2.10    3.30
  -3  -1   4    3.50    4.60
  -3  -1   4    0.60    3.20
  -3  -1   4   -2.30    2.60
  -3  -1   4    0.30    1.50
   2   1  -4 1248.58   51.79
   2   1  -4 1242.68   49.80
   2   1  -4 1326.97   53.59
   2   1  -4 1322.07   40.30
   2   1  -4 1316.87   40.30
  -2  -1   4 1303.87   40.90
  -2  -1   4 1330.87   52.69
  -2  -1   4 1252.07   55.09
  -2  -1   4 1316.97   52.39
  -2  -1   4 1325.17   51.09
   1   1  -4  422.36   22.40
   1   1  -4  413.66   16.30
   1   1  -4  387.16   15.90
   1   1  -4  384.66   22.90
   1   1  -4  399.96   20.40
  -1  -1   4  399.86   23.50
  -1  -1   4  399.76   21.40
  -1  -1   4  375.86   21.50
  -1  -1   4  404.36   21.70
   0   1  -4    2.20    1.70
   0   1  -4    0.00    1.00
   0   1  -4   -0.70    2.20
   0   1  -4    0.90    2.80
   0  -1   4   -0.50    1.20
   0  -1   4    2.20    3.10
   0  -1   4    2.50    2.60
   0  -1   4    4.00    1.90
   0  -1   4    2.90    2.80
   0  -1   4    1.30    2.30
  -1   1  -4  215.28   11.20
  -1   1  -4  192.08   11.90
  -1   1  -4  219.48   14.90
  -1   1  -4  201.48   10.60
   1  -1   4  206.58   13.50
   1  -1   4  214.78   14.60
   1  -1   4  197.28   12.10
   1  -1   4  212.68   11.30
   1  -1   4  213.48   12.10
   1  -1   4  223.88   12.90
  -2   1  -4   80.29   11.00
  -2   1  -4   72.39    6.70
  -2   1  -4  106.59   10.70
  -2   1  -4   67.79    9.90
  -2   1  -4   85.49    8.80
  -2   1  -4   85.39    8.10
  -2   1  -4   61.49    7.70
   2  -1   4   72.79    4.80
   2  -1   4   96.49   10.80
   2  -1   4   76.79    8.40
   2  -1   4   78.09    9.10
   2  -1   4   73.99   10.20
   2  -1   4   75.39    7.70
  -3   1  -4  171.68   11.60
  -3   1  -4  170.58   17.50
  -3   1  -4  173.18   13.20
  -3   1  -4  160.68   12.00
  -3   1  -4  166.78   15.70
   3  -1   4  180.18   10.80
   3  -1   4  195.98   15.10
   3  -1   4  169.98   12.60
   3  -1   4  169.58   11.90
   3  -1   4  162.98   10.90
  -4   1  -4  170.58   17.30
  -4   1  -4  209.18   15.10
  -4   1  -4  192.18   15.20
   4  -1   4  222.98   17.90
   4  -1   4  203.98   14.80
   4  -1   4  201.38   13.10
  -5   1  -4  126.09   15.90
  -5   1  -4  122.59   16.40
   5  -1   4  176.68   20.30
  -6   1  -4   33.40   10.20
  -6   1  -4   12.80    6.10
  -7   1  -4  149.29   20.00
  -7   1  -4  199.08   25.30
  -8   1  -4   70.49   15.90
  -8   1  -4   70.59   16.00
  -9   1  -4    6.10   10.30
  -9   1  -4   -3.00    7.80
   8   0  -4   55.69   15.30
   8   0  -4   76.69   16.80
   7   0  -4   13.80    7.30
   7   0  -4    5.60    7.60
   7   0  -4   23.90   11.30
  -7   0   4   15.80    9.80
   6   0  -4  569.44   39.00
   6   0  -4  576.14   34.80
  -6   0   4  559.84   29.90
  -6   0   4  597.14   37.90
   5   0  -4  249.38   24.40
   5   0  -4  251.37   28.40
  -5   0   4  265.57   26.70
  -5   0   4  243.18   25.60
  -5   0   4  201.78   25.50
  -5   0   4  222.48   16.00
   4   0  -4   -1.10    4.30
   4   0  -4   -0.20    3.70
  -4   0   4    2.80    4.30
  -4   0   4   -2.30    3.90
  -4   0   4    0.20    2.00
  -4   0   4    4.30    4.70
  -4   0   4    2.10    4.60
   3   0  -4   45.40    9.00
  -3   0   4   38.50    8.60
  -3   0   4   39.00    4.60
  -3   0   4   41.80    9.90
  -3   0   4   23.10    8.40
   2   0  -4   32.00    3.40
   2   0  -4   40.00    7.90
   2   0  -4   31.30    3.20
   2   0  -4   30.00    6.80
  -2   0   4   29.00    7.00
  -2   0   4   26.80    7.50
  -2   0   4   26.60    6.50
   1   0  -4  154.78   14.70
   1   0  -4  127.09   13.70
   1   0  -4  137.79    7.90
   1   0  -4  146.39    8.90
  -1   0   4  138.09   11.50
  -1   0   4  161.38   13.10
  -1   0   4  133.29   14.00
  -1   0   4  151.18   13.60
  -1   0   4  141.49    6.20
   0   0  -4  965.00   35.70
   0   0  -4  950.50   38.30
   0   0  -4  979.70   34.00
   0   0  -4  980.10   40.20
   0   0  -4  953.00   31.10
   0   0   4  984.30   39.50
   0   0   4  883.31   37.20
   0   0   4  990.70   40.70
   0   0   4  975.90   34.30
   0   0   4  968.20   33.10
  -1   0  -4 1887.31   67.39
  -1   0  -4 1809.12   59.49
  -1   0  -4 1799.42   61.79
  -1   0  -4 1876.81   59.29
  -1   0  -4 1850.41   64.29
   1   0   4 1839.72   61.99
   1   0   4 1776.62   64.29
   1   0   4 1798.82   59.59
   1   0   4 1835.02   61.69
   1   0   4 1868.61   67.19
  -2   0  -4  522.85   22.10
  -2   0  -4  538.55   26.50
  -2   0  -4  537.05   20.90
  -2   0  -4  536.75   24.30
  -2   0  -4  505.65   23.10
  -2   0  -4  573.44   29.20
   2   0   4  516.25   24.20
   2   0   4  580.14   22.90
   2   0   4  532.75   22.50
   2   0   4  533.65   28.30
   2   0   4  569.24   26.00
  -3   0  -4   38.40    8.50
  -3   0  -4   49.00    8.80
  -3   0  -4   57.49    8.60
   3   0   4   59.49    7.50
   3   0   4   44.10    6.20
   3   0   4   58.19    9.40
   3   0   4   58.79   11.00
   3   0   4   38.50    6.90
  -4   0  -4   83.99   12.60
  -4   0  -4   70.39   11.70
  -4   0  -4   54.79    9.40
   4   0   4   59.79   11.70
   4   0   4   62.89   10.20
  -5   0  -4   12.10    6.10
  -5   0  -4   22.10    8.10
  -5   0  -4    9.00    5.90
   5   0   4   11.40    7.00
  -6   0  -4   44.10   11.10
  -6   0  -4   29.10   10.10
  -6   0  -4   40.90   11.40
  -7   0  -4   45.60   11.60
  -7   0  -4   70.09   15.10
  -8   0  -4   13.60    8.50
  -8   0  -4   20.80    9.80
  -9   0  -4   16.40    9.40
   8  -1  -4   56.39   15.30
   7  -1  -4    9.10    7.50
   7  -1  -4    3.00    7.00
   7  -1  -4    9.80    9.00
  -7   1   4    2.70    5.80
  -7   1   4    1.40    8.00
   6  -1  -4   -5.20    4.50
   6  -1  -4    4.80    6.50
   6  -1  -4   -0.30    6.50
  -6   1   4   -2.00    3.70
  -6   1   4   -4.10    6.10
  -6   1   4   -2.70    4.90
   5  -1  -4    6.10    4.90
   5  -1  -4    2.30    4.50
   5  -1  -4    0.00    4.90
  -5   1   4    2.40    5.60
  -5   1   4    9.40    7.20
  -5   1   4    3.10    4.40
  -5   1   4    2.20    3.60
   4  -1  -4    8.90    5.00
  -4   1   4    1.00    4.60
  -4   1   4    3.90    5.30
  -4   1   4    8.10    4.00
  -4   1   4    8.70    5.50
   3  -1  -4    4.40    4.10
  -3   1   4    5.40    4.50
  -3   1   4    8.70    5.10
  -3   1   4    6.60    5.20
   2  -1  -4   -3.90    2.40
   2  -1  -4    0.00    3.20
   2  -1  -4    1.00    1.20
   2  -1  -4    3.20    1.90
  -2   1   4    1.90    3.30
  -2   1   4    7.00    4.00
   1  -1  -4  200.58   14.70
   1  -1  -4  206.88    8.10
   1  -1  -4  209.08   10.90
   1  -1  -4  201.98   12.20
   1  -1  -4  195.48   15.30
  -1   1   4  195.58    9.30
  -1   1   4  217.58   16.00
  -1   1   4  203.38   16.10
   0  -1  -4 1855.71   65.49
   0  -1  -4 1886.51   68.59
   0  -1  -4 2056.29   63.19
   0  -1  -4 1942.71   60.69
   0  -1  -4 1970.50   71.29
   0   1   4 1861.51   70.79
   0   1   4 1941.71   71.19
   0   1   4 1940.31   64.39
   0   1   4 1949.70   61.99
  -1  -1  -4  855.31   37.50
  -1  -1  -4  852.41   33.90
  -1  -1  -4  853.51   32.00
  -1  -1  -4  856.31   31.70
  -1  -1  -4  827.22   33.10
   1   1   4  912.31   38.80
   1   1   4  918.01   40.40
   1   1   4  912.41   32.40
   1   1   4  834.12   34.50
  -2  -1  -4  234.38   15.10
  -2  -1  -4  249.08   13.60
  -2  -1  -4  270.27   15.00
  -2  -1  -4  246.18   12.60
   2   1   4  270.27   14.00
   2   1   4  241.18   17.70
   2   1   4  266.47   16.10
   2   1   4  264.57   19.70
  -3  -1  -4  601.94   28.30
  -3  -1  -4  641.34   32.40
  -3  -1  -4  561.14   28.90
   3   1   4  589.64   31.70
   3   1   4  602.84   28.60
   3   1   4  702.53   36.30
  -4  -1  -4   -3.60    3.50
  -4  -1  -4    4.50    4.20
  -4  -1  -4   -1.40    2.80
   4   1   4    1.90    4.20
   4   1   4   -3.60    4.40
  -5  -1  -4   30.40    9.30
  -5  -1  -4   15.70    7.00
  -5  -1  -4    6.90    6.60
  -6  -1  -4   -4.70    5.10
  -6  -1  -4    0.10    4.50
  -6  -1  -4   -1.50    4.70
  -7  -1  -4    6.00    5.80
  -7  -1  -4    5.90    8.90
  -7  -1  -4    4.00    6.60
  -8  -1  -4    1.40    8.00
  -8  -1  -4    4.20    7.90
   9  -2  -4   13.40   10.00
   8  -2  -4   11.40    9.70
  -8   2   4    0.40    6.10
   7  -2  -4  -11.00    6.80
   7  -2  -4   -1.70    6.30
  -7   2   4    6.70    5.40
   6  -2  -4   -1.30    5.10
   6  -2  -4    3.20    6.90
   6  -2  -4    2.60    4.50
  -6   2   4   -2.00    3.90
  -6   2   4    6.20    8.00
   5  -2  -4   -2.10    4.80
   5  -2  -4   -2.10    3.80
  -5   2   4   11.00    6.10
  -5   2   4   -3.60    4.70
  -5   2   4   -2.90    4.60
   4  -2  -4    5.20    3.90
   4  -2  -4   -2.00    3.60
  -4   2   4    0.10    3.80
  -4   2   4   11.50    6.60
  -4   2   4    0.00    4.10
   3  -2  -4    4.60    3.00
   3  -2  -4    0.80    3.20
   3  -2  -4    1.50    3.70
   3  -2  -4    0.20    1.90
  -3   2   4    2.20    3.90
  -3   2   4    3.90    4.10
   2  -2  -4  660.63   27.00
   2  -2  -4  598.34   23.70
   2  -2  -4  649.64   31.40
  -2   2   4  615.04   31.40
  -2   2   4  665.23   34.70
   1  -2  -4  579.14   28.60
   1  -2  -4  565.44   25.70
   1  -2  -4  536.45   22.60
  -1   2   4  560.24   30.90
  -1   2   4  555.44   21.70
  -1   2   4  537.55   29.10
   0  -2  -4  159.48   16.30
   0  -2  -4  153.38    9.20
   0  -2  -4  135.59   10.10
   0  -2  -4  122.29   12.10
   0  -2  -4  150.28   10.00
   0   2   4  166.78   11.70
   0   2   4  171.28    9.80
   0   2   4  164.98   17.80
   0   2   4  160.18   18.30
  -1  -2  -4  470.15   27.60
  -1  -2  -4  537.25   24.40
  -1  -2  -4  520.65   22.60
  -1  -2  -4  536.95   22.60
  -1  -2  -4  521.85   24.80
   1   2   4  509.45   22.40
   1   2   4  568.34   25.80
   1   2   4  542.95   30.40
   1   2   4  501.25   29.20
  -2  -2  -4   60.79    8.80
  -2  -2  -4   54.69   10.60
  -2  -2  -4   66.09    9.20
  -2  -2  -4   67.49   10.10
  -2  -2  -4   58.79    6.70
   2   2   4   77.69   13.40
   2   2   4   68.39   12.90
   2   2   4   58.59    9.00
  -3  -2  -4   59.09   12.50
  -3  -2  -4   56.09   10.10
  -3  -2  -4   66.29   10.10
   3   2   4   69.99   13.60
   3   2   4   78.79   11.70
   3   2   4   75.69   14.50
  -4  -2  -4   75.79   12.30
  -4  -2  -4   65.09   12.10
   4   2   4   62.09   12.80
  -5  -2  -4    0.60    4.90
  -5  -2  -4    6.10    6.00
  -5  -2  -4   -0.60    4.20
   5   2   4   15.50    9.00
  -6  -2  -4   18.80    8.90
  -6  -2  -4    8.40    6.50
  -6  -2  -4   18.90   10.30
  -7  -2  -4    0.50    6.70
  -7  -2  -4    9.80    7.30
  -7  -2  -4   -1.40    6.10
  -8  -2  -4   27.00   11.30
  -8  -2  -4    8.60    8.40
   9  -3  -4   -0.30   11.10
   8  -3  -4    3.50    9.60
  -8   3   4    8.10    7.50
   7  -3  -4   28.90   11.70
  -7   3   4   15.10    8.10
   6  -3  -4   10.80    7.70
  -6   3   4   19.90   10.10
  -6   3   4    0.60    5.10
   5  -3  -4   22.10    7.90
   5  -3  -4    2.70    5.50
  -5   3   4   15.40    8.80
   4  -3  -4    0.30    3.30
   4  -3  -4    0.40    4.50
   4  -3  -4    2.20    4.40
  -4   3   4    6.80    4.60
  -4   3   4   -3.70    4.60
   3  -3  -4    1.30    4.10
   3  -3  -4    8.10    5.50
   3  -3  -4    9.50    4.20
  -3   3   4    4.00    4.10
  -3   3   4    3.60    5.30
   2  -3  -4  244.28   13.70
   2  -3  -4  280.47   19.40
   2  -3  -4  277.87   20.50
   2  -3  -4  261.27   15.10
  -2   3   4  257.27   19.70
  -2   3   4  290.77   22.80
   1  -3  -4   94.79   13.60
   1  -3  -4   86.69   12.10
   1  -3  -4   80.69    9.10
   1  -3  -4   85.59   10.00
  -1   3   4  101.99   16.20
  -1   3   4   92.79    9.40
  -1   3   4   93.69   13.80
   0  -3  -4  141.99   17.50
   0  -3  -4  157.58   10.30
   0  -3  -4  145.99   15.20
   0  -3  -4  144.49   15.10
   0  -3  -4  142.09   10.60
   0  -3  -4  156.48   11.90
   0   3   4  154.68   14.90
   0   3   4  158.38   20.30
   0   3   4  162.88   18.70
   0   3   4  154.38   10.40
  -1  -3  -4    6.00    3.60
  -1  -3  -4    2.80    4.10
  -1  -3  -4    2.60    3.60
  -1  -3  -4    1.20    2.50
   1   3   4    0.20    3.90
   1   3   4    1.30    2.20
   1   3   4    2.40    3.30
   1   3   4    0.60    4.20
  -2  -3  -4    9.80    6.20
  -2  -3  -4   19.80    6.30
  -2  -3  -4    5.40    3.60
   2   3   4    1.80    5.40
   2   3   4    3.30    3.60
   2   3   4    0.80    5.20
  -3  -3  -4   72.69   14.00
  -3  -3  -4   94.09   12.90
  -3  -3  -4   67.39   11.70
   3   3   4   68.49   11.90
   3   3   4   48.50   12.60
  -4  -3  -4  272.37   26.90
  -4  -3  -4  271.17   20.20
  -4  -3  -4  289.77   31.10
   4   3   4  320.37   32.50
  -5  -3  -4  134.69   19.50
  -5  -3  -4  147.89   23.00
  -5  -3  -4  105.29   16.70
   5   3   4  140.49   22.50
  -6  -3  -4   51.09   12.90
  -6  -3  -4   34.50   11.00
  -6  -3  -4   14.90    9.70
  -7  -3  -4   37.00   13.10
  -7  -3  -4   30.40   11.80
  -7  -3  -4   39.80   12.10
  -8  -3  -4   -2.80    7.40
  -8  -3  -4   -0.90    9.90
   8  -4  -4    0.00    8.20
   7  -4  -4    0.80    8.20
  -7   4   4    0.90    4.80
   6  -4  -4    3.10    8.20
  -6   4   4    5.20    8.50
  -6   4   4   15.50    7.20
   5  -4  -4    0.10    3.60
  -5   4   4    0.10    6.40
   4  -4  -4   47.50   11.30
   4  -4  -4   23.10    9.30
   4  -4  -4   21.80    6.40
  -4   4   4   22.40    9.70
   3  -4  -4   72.89   10.70
   3  -4  -4   55.59   11.40
   3  -4  -4   78.69   14.60
  -3   4   4   72.19   12.30
  -3   4   4   44.20   11.50
   2  -4  -4   -1.40    3.10
   2  -4  -4    0.60    3.00
   2  -4  -4    4.20    4.50
   2  -4  -4   -1.00    2.30
  -2   4   4    0.70    4.90
  -2   4   4    2.60    4.50
   1  -4  -4   77.79   13.50
   1  -4  -4  117.79   15.90
   1  -4  -4   92.09   10.80
   1  -4  -4  139.19   14.90
  -1   4   4   84.79   16.30
  -1   4   4  113.79   16.20
   0  -4  -4  104.99   16.20
   0  -4  -4   63.19   10.40
   0  -4  -4   72.89    9.40
   0  -4  -4   86.29   12.30
   0  -4  -4  102.89   13.60
   0   4   4   83.09   14.60
   0   4   4   71.79   14.10
  -1  -4  -4  635.24   31.60
  -1  -4  -4  633.44   29.40
  -1  -4  -4  662.73   36.90
   1   4   4  633.04   28.50
   1   4   4  646.54   39.20
   1   4   4  643.94   38.00
  -2  -4  -4  726.23   34.00
  -2  -4  -4  696.63   40.40
   2   4   4  755.22   43.80
  -3  -4  -4  772.32   45.20
  -3  -4  -4  865.01   39.10
  -3  -4  -4  799.92   40.70
   3   4   4  814.62   48.00
  -4  -4  -4   -1.90    3.80
  -4  -4  -4    1.30    6.30
  -4  -4  -4   -0.40    5.20
   4   4   4    1.80    7.20
  -5  -4  -4    0.50    4.20
  -5  -4  -4    9.70    8.90
  -5  -4  -4    1.40    4.70
   5   4   4   13.00   10.30
  -6  -4  -4    7.00    7.60
  -6  -4  -4   -3.30    7.40
  -6  -4  -4    6.00    8.60
  -7  -4  -4    1.90    6.80
  -7  -4  -4    7.60    8.10
  -7  -4  -4    4.00    8.70
   8  -5  -4    1.50    9.50
   7  -5  -4   -2.90    7.20
   6  -5  -4   -0.60    6.50
  -6   5   4   -4.20    5.20
   5  -5  -4   16.80   10.50
  -5   5   4    4.00    8.50
   4  -5  -4    2.70    6.10
   4  -5  -4    6.00    5.00
  -4   5   4    7.00    7.40
   3  -5  -4  241.38   24.70
   3  -5  -4  236.78   17.90
   3  -5  -4  220.28   26.10
  -3   5   4  239.98   28.30
   2  -5  -4  545.15   29.30
   2  -5  -4  589.04   36.10
   2  -5  -4  567.44   33.60
  -2   5   4  618.54   39.90
  -2   5   4  603.34   34.80
   1  -5  -4 1148.39   51.99
   1  -5  -4 1033.70   49.60
   1  -5  -4 1010.80   45.40
  -1   5   4 1109.49   52.39
  -1   5   4 1068.19   55.69
   0  -5  -4   15.10    5.90
   0  -5  -4   10.40    4.40
   0  -5  -4    6.80    6.00
   0   5   4   11.20    7.70
   0   5   4   19.30    9.20
  -1  -5  -4    6.10    5.00
  -1  -5  -4   -1.20    3.30
  -1  -5  -4    6.00    6.60
   1   5   4   -0.80    6.70
  -2  -5  -4   81.99   16.50
  -2  -5  -4  121.29   17.10
  -2  -5  -4  103.69   13.80
   2   5   4   97.79   20.50
  -3  -5  -4    5.90    5.40
  -3  -5  -4   10.00    8.40
  -3  -5  -4    1.10    4.50
   3   5   4   -0.50    9.20
  -4  -5  -4    2.70    6.20
  -4  -5  -4    8.00    6.80
  -4  -5  -4    1.60    7.30
  -5  -5  -4    7.20    8.00
  -5  -5  -4   -1.30    5.80
  -5  -5  -4   -4.10    6.20
  -6  -5  -4    1.10    9.00
  -6  -5  -4   -8.40    6.50
  -6  -5  -4   -0.20    6.50
   7  -6  -4    0.10    9.20
   6  -6  -4   11.00    9.00
   5  -6  -4    4.30    7.80
   4  -6  -4  178.28   27.30
   4  -6  -4  124.69   16.70
  -4   6   4  151.08   24.50
   3  -6  -4  132.69   21.60
   3  -6  -4  146.39   18.10
  -3   6   4  102.79   20.60
   2  -6  -4  319.17   25.90
   2  -6  -4  326.07   23.10
   2  -6  -4  352.66   28.10
  -2   6   4  292.47   33.00
   1  -6  -4  320.37   26.00
   1  -6  -4  342.17   23.80
   1  -6  -4  294.37   30.00
  -1   6   4  307.77   34.50
   0  -6  -4  138.09   17.80
   0  -6  -4  140.39   21.20
   0  -6  -4  118.59   15.10
   0   6   4  150.08   24.60
  -1  -6  -4   31.90    9.00
  -1  -6  -4   25.80    7.60
  -1  -6  -4    7.30    6.70
   1   6   4   39.40   13.40
  -2  -6  -4    1.90    5.80
  -2  -6  -4   -1.90    5.30
  -2  -6  -4   -1.20    4.90
  -3  -6  -4    7.50    8.60
  -3  -6  -4   -5.40    5.30
  -3  -6  -4   -0.40    5.60
  -4  -6  -4   -0.50    7.60
  -4  -6  -4    2.20    6.40
  -4  -6  -4    9.50    8.00
  -5  -6  -4   13.70    9.70
  -5  -6  -4    3.20    7.10
  -5  -6  -4    3.00    8.10
  -6  -6  -4    7.90    8.50
  -6  -6  -4   14.70   13.60
   7  -7  -4   -1.20   10.40
   6  -7  -4   15.50   11.90
   5  -7  -4   -2.00    5.70
   4  -7  -4   56.09   12.70
   4  -7  -4   62.09   16.80
   3  -7  -4    4.90    7.60
   3  -7  -4    7.90    6.70
   2  -7  -4   -0.80    4.60
   2  -7  -4    4.80    7.10
   2  -7  -4   -2.70    7.00
   1  -7  -4   18.30   10.00
   1  -7  -4   23.10    9.50
   0  -7  -4   48.60   11.00
   0  -7  -4   44.00   11.90
   0  -7  -4   38.30   11.80
  -1  -7  -4    0.40    5.80
  -1  -7  -4    4.30    6.10
  -1  -7  -4   25.70   10.70
  -2  -7  -4   15.50    7.50
  -2  -7  -4   16.20    8.80
  -2  -7  -4   21.90   11.20
  -3  -7  -4   76.49   15.90
  -3  -7  -4  135.19   19.70
  -3  -7  -4  105.49   23.60
  -4  -7  -4   -5.80    6.50
  -4  -7  -4    2.50    8.40
  -4  -7  -4   -2.00    6.80
  -5  -7  -4   18.40   11.50
  -5  -7  -4    2.70   11.60
   6  -8  -4   -1.20   10.10
   5  -8  -4    5.40   11.40
   4  -8  -4   -4.90    6.20
   4  -8  -4    4.40    9.80
   3  -8  -4   -3.30    6.00
   3  -8  -4   11.40    9.20
   2  -8  -4   11.40    8.10
   1  -8  -4    6.70    8.00
   1  -8  -4   -0.60    5.50
   0  -8  -4   13.30    8.40
   0  -8  -4    8.60    7.40
   0  -8  -4    2.60    6.00
  -1  -8  -4   17.70   10.70
  -1  -8  -4   25.10    9.80
  -1  -8  -4   30.80   10.70
  -2  -8  -4   31.40   12.40
  -2  -8  -4   10.00   10.60
  -2  -8  -4   19.70    9.80
  -3  -8  -4   31.80   11.50
  -3  -8  -4   29.60   13.20
  -3  -8  -4   25.20   10.40
   4  -9  -4   32.30   14.60
   3  -9  -4   34.80   13.00
   2  -9  -4   -0.70    6.60
   1  -9  -4    5.90    8.50
   0  -9  -4   10.20    9.90
   0  -9  -4   11.60    9.90
  -1  -9  -4   -2.50    8.50
  -1  -9  -4    6.80    8.10
  -1  -9  -4   -0.70    7.80
  -1 -11   5   15.10   10.50
   0 -11   5   -2.60    5.50
   0 -11   5    7.20   11.00
   1 -11   5   -0.90    9.30
   1 -11   5   15.70    9.90
   2 -11   5    2.10    6.50
   2 -11   5   16.40   12.80
   3 -11   5    8.50    8.10
   3 -11   5   -2.40   10.20
  -3 -10   5   12.40   10.20
  -3 -10   5   -2.30    7.70
  -2 -10   5   21.30   10.90
  -1 -10   5    4.30    6.60
   0 -10   5    4.00    8.80
   0 -10   5   -0.10    5.60
   1 -10   5   -3.20    7.80
   1 -10   5    4.90    7.50
   2 -10   5   35.00   11.90
   2 -10   5    8.50    9.20
   3 -10   5   62.29   19.70
   3 -10   5   67.49   15.40
   4 -10   5    0.90    8.30
   4 -10   5    1.70    5.60
   5 -10   5   -5.00    9.40
   5 -10   5   10.00    8.70
  -5  -9   5    7.30    8.80
  -4  -9   5   -6.10    6.80
  -3  -9   5    1.10    5.60
  -3  -9   5    3.10    7.60
  -2  -9   5    4.60    6.10
  -1  -9   5   25.50   12.50
  -1  -9   5   15.70    8.00
   0  -9   5    2.10    7.00
   0  -9   5    4.20    5.80
   1  -9   5   52.39   15.50
   1  -9   5   68.69   14.40
   2  -9   5   33.10   10.90
   2  -9   5   21.40   11.70
   3  -9   5   32.50   14.30
   3  -9   5   36.50   11.90
   4  -9   5   19.00   13.80
   4  -9   5    2.80    6.00
   5  -9   5   -0.10    6.20
   5  -9   5   -1.20    8.20
   6  -9   5   -3.90    9.20
  -6  -8   5    7.20    9.90
  -5  -8   5    4.30    7.00
  -4  -8   5   10.40    7.20
  -4  -8   5   25.10   14.70
  -3  -8   5    5.50    6.00
  -3  -8   5   -4.70    4.40
   2   8  -5    1.90    9.10
  -2  -8   5    2.70    5.90
  -2  -8   5    5.80    7.00
   1   8  -5   42.60   15.40
  -1  -8   5   93.09   15.70
  -1  -8   5   67.79   16.40
   0  -8   5    5.80    5.40
   0  -8   5    4.20    6.80
   1  -8   5   -0.20    5.70
   1  -8   5   18.10    7.90
   2  -8   5   17.80    9.10
   2  -8   5   29.60    9.10
   3  -8   5    0.80    5.00
   3  -8   5    5.40    5.30
  -4   8  -5   37.20    9.90
   4  -8   5   20.20   10.50
  -5   8  -5   -2.20    5.00
   5  -8   5   12.20   10.40
  -6   8  -5    1.20    7.00
   6  -8   5    1.10    7.10
   7  -8   5   -3.20   10.70
  -6  -7   5   14.10    7.90
  -5  -7   5   13.60    8.40
  -4  -7   5   25.00    9.00
   3   7  -5   97.39   21.80
  -3  -7   5   61.19   13.30
  -3  -7   5   57.39   11.60
  -3  -7   5   71.09   12.30
   2   7  -5  273.57   34.30
  -2  -7   5  288.47   30.40
  -2  -7   5  268.97   20.70
   1   7  -5  457.35   36.20
   1   7  -5  460.05   34.70
  -1  -7   5  411.76   26.00
  -1  -7   5  427.76   30.30
  -1  -7   5  447.76   32.60
   0   7  -5   -3.00    6.00
   0  -7   5    1.20    4.30
   0  -7   5    1.80    3.50
   1  -7   5   31.50   11.00
   1  -7   5   65.89   11.60
   2  -7   5  330.97   22.90
  -3   7  -5  240.78   18.80
   3  -7   5  221.18   29.90
  -4   7  -5    1.20    4.10
   4  -7   5   -1.20    5.50
  -5   7  -5   21.40    8.30
   5  -7   5   35.40   14.50
  -6   7  -5   11.80    8.10
  -6   7  -5   -0.40    5.80
   6  -7   5    5.30    7.80
  -7   7  -5   -3.90    6.90
   7  -7   5   14.50   11.70
  -8   7  -5    2.00    8.00
   8  -7   5    5.90   11.20
  -6  -6   5   11.80   10.20
  -5  -6   5    4.30    6.30
   4   6  -5   73.79   17.90
  -4  -6   5   89.59   16.30
  -4  -6   5   57.89   11.40
   3   6  -5  167.18   25.80
  -3  -6   5  171.58   18.80
  -3  -6   5  203.98   19.70
  -3  -6   5  173.68   22.30
   2   6  -5   -4.70    4.30
  -2  -6   5   -2.10    5.10
  -2  -6   5    3.90    4.40
  -2  -6   5    0.50    3.80
   1   6  -5    1.50    5.90
   1   6  -5   -4.70    2.70
  -1  -6   5    2.80    4.20
  -1  -6   5    1.60    4.00
  -1  -6   5    0.50    4.00
   0   6  -5  398.86   27.70
   0  -6   5  369.06   22.30
   0  -6   5  369.36   24.60
   0  -6   5  372.76   28.40
  -1   6  -5 1009.20   44.70
   1  -6   5  972.30   41.50
   1  -6   5  914.51   39.20
   1  -6   5  898.91   49.40
  -2   6  -5  360.06   20.90
   2  -6   5  349.27   29.20
  -3   6  -5    9.60    5.30
   3  -6   5   12.40    7.10
  -4   6  -5  164.88   19.60
  -4   6  -5  112.89   16.00
   4  -6   5  118.49   20.40
  -5   6  -5    3.50    5.30
  -5   6  -5   -3.30    3.90
   5  -6   5   -1.30    7.00
  -6   6  -5   11.40    8.10
  -6   6  -5    4.60    6.20
   6  -6   5    1.10    8.20
  -7   6  -5   -8.70    4.40
  -7   6  -5   -6.00    6.70
   7  -6   5   14.80   10.20
  -8   6  -5   -6.20    7.30
  -5  -5   5    7.10    4.90
   4   5  -5   77.89   18.10
  -4  -5   5   78.39   12.10
  -4  -5   5   87.59   16.10
   3   5  -5   27.10   10.40
  -3  -5   5    5.00    4.10
  -3  -5   5   17.40    7.70
  -3  -5   5    4.40    4.10
   2   5  -5    2.70    6.10
  -2  -5   5    1.50    3.20
  -2  -5   5   -0.60    4.10
  -2  -5   5   -3.30    3.40
   1   5  -5  274.47   22.40
   1   5  -5  238.98   16.30
  -1  -5   5  270.77   12.90
  -1  -5   5  300.17   17.30
  -1  -5   5  276.07   20.90
  -1  -5   5  296.77   23.00
   0   5  -5  155.38   18.60
   0   5  -5  161.48   12.10
   0   5  -5   99.99   11.60
   0   5  -5  152.88   15.10
   0  -5   5  154.98   19.90
   0  -5   5  179.48   15.30
   0  -5   5  157.48   12.20
  -1   5  -5    3.10    2.70
  -1   5  -5    0.50    2.20
  -1   5  -5   -3.50    1.90
  -1   5  -5   -2.30    3.70
   1  -5   5    7.50    4.60
   1  -5   5    4.10    3.80
   1  -5   5    2.10    2.60
   1  -5   5   -0.90    2.70
  -2   5  -5  154.98   12.30
   2  -5   5  117.19   11.50
   2  -5   5  119.29   18.70
  -3   5  -5   -2.90    3.30
  -3   5  -5    1.30    3.30
   3  -5   5    3.00    3.20
   3  -5   5    4.70    5.60
  -4   5  -5   12.80    5.80
  -4   5  -5    7.50    6.00
   4  -5   5    2.60    5.40
  -5   5  -5    1.80    4.10
  -5   5  -5   -1.70    5.40
   5  -5   5   -1.00    5.50
  -6   5  -5   -0.90    4.90
  -6   5  -5   -0.60    5.30
   6  -5   5   -1.10    6.00
  -7   5  -5   14.20    8.50
  -7   5  -5   20.80   10.40
  -8   5  -5    9.50    9.70
   8   4  -5    8.10   10.10
   5   4  -5    8.50    8.50
  -5  -4   5    2.70    4.30
  -5  -4   5    5.10    5.30
  -5  -4   5    7.40   10.10
   4   4  -5    2.30    5.60
  -4  -4   5    2.90    3.50
  -4  -4   5    3.00    7.20
  -4  -4   5    0.40    4.60
   3   4  -5   18.50    8.10
  -3  -4   5   27.20    9.40
  -3  -4   5   23.90    7.40
  -3  -4   5   42.70   11.90
  -3  -4   5   20.40    5.30
   2   4  -5  209.18   24.10
   2   4  -5  238.58   13.90
  -2  -4   5  240.68   13.90
  -2  -4   5  155.78   18.70
  -2  -4   5  213.08   22.30
  -2  -4   5  260.47   25.60
   1   4  -5    0.30    1.90
   1   4  -5    0.20    3.80
   1   4  -5    4.80    3.30
  -1  -4   5    1.40    3.20
  -1  -4   5    2.00    3.00
  -1  -4   5    8.10    4.40
  -1  -4   5    0.20    3.70
  -1  -4   5    4.30    2.60
   0   4  -5  148.09   14.70
   0   4  -5  141.59   10.90
   0   4  -5  128.89   14.40
   0   4  -5  140.99   10.60
   0   4  -5  155.38   17.30
   0  -4   5  140.49    9.70
   0  -4   5  125.39   14.20
   0  -4   5  143.99    9.30
   0  -4   5  127.99   16.80
   0  -4   5  141.19   15.60
   0  -4   5  136.59   10.30
  -1   4  -5  244.48   14.20
  -1   4  -5  204.28   13.30
  -1   4  -5  200.18   12.10
  -1   4  -5  115.19   13.30
  -1   4  -5  201.18   12.60
  -1   4  -5  198.08   14.60
   1  -4   5  164.78   13.70
   1  -4   5  202.08   12.70
   1  -4   5  177.38   19.80
   1  -4   5  185.48   11.80
   1  -4   5  196.08   13.30
  -2   4  -5    3.10    3.00
  -2   4  -5    2.90    2.60
  -2   4  -5    6.90    3.10
  -2   4  -5   -1.30    2.30
  -2   4  -5    0.30    2.30
  -2   4  -5   -2.10    2.80
   2  -4   5   -0.20    2.90
   2  -4   5    2.40    2.80
   2  -4   5    3.20    2.70
   2  -4   5    3.10    2.80
  -3   4  -5    6.10    2.70
  -3   4  -5    6.80    4.40
  -3   4  -5   11.90    5.50
   3  -4   5    3.70    3.10
   3  -4   5    9.20    3.80
   3  -4   5    5.30    4.70
  -4   4  -5    3.60    4.60
  -4   4  -5    2.50    4.10
   4  -4   5   -4.70    5.10
  -5   4  -5    7.00    5.60
  -5   4  -5    9.70    5.70
  -5   4  -5    6.60    6.60
   5  -4   5    3.10    6.90
  -6   4  -5    4.50    6.00
  -6   4  -5   -2.30    5.60
  -6   4  -5   -3.60    4.40
   6  -4   5    4.50    7.80
  -7   4  -5   93.59   18.10
  -7   4  -5   86.29   16.80
  -7   4  -5   85.69   16.50
  -8   4  -5    4.30    7.30
  -8   4  -5    3.00    8.00
  -9   4  -5    2.40    8.60
   8   3  -5   -9.20    5.80
   7   3  -5   10.00    8.40
   6   3  -5   -1.60    8.30
   6   3  -5    9.80    6.50
  -6  -3   5    2.10    8.30
   5   3  -5    5.80    7.30
   5   3  -5   14.90    8.10
  -5  -3   5   11.70    7.80
   4   3  -5   23.10    8.50
   4   3  -5   26.50   11.40
  -4  -3   5   31.40    6.40
  -4  -3   5   16.40    6.80
  -4  -3   5   40.80   12.20
   3   3  -5   19.20    6.90
   3   3  -5   38.50   12.10
  -3  -3   5   25.00    8.40
  -3  -3   5   26.40    5.20
  -3  -3   5   29.30    9.00
  -3  -3   5   27.80    8.20
   2   3  -5  320.27   15.60
   2   3  -5  406.86   26.70
   2   3  -5  340.37   21.80
   2   3  -5  341.37   16.80
  -2  -3   5  309.17   22.00
  -2  -3   5  319.57   23.20
  -2  -3   5  326.87   22.90
   1   3  -5  154.48   10.10
   1   3  -5  164.78   10.70
   1   3  -5  164.18   16.70
   1   3  -5  211.78   21.20
  -1  -3   5  157.48   17.00
  -1  -3   5  168.58   18.70
  -1  -3   5  173.38   18.00
  -1  -3   5  163.98    7.90
   0   3  -5  192.88   23.70
   0   3  -5  242.68   14.10
   0   3  -5  235.88   16.90
   0   3  -5  249.08   14.10
   0   3  -5  269.97   17.80
   0   3  -5  240.48   15.40
   0  -3   5  253.27   16.50
   0  -3   5  248.48   17.10
   0  -3   5  261.17   13.00
   0  -3   5  239.78   12.40
   0  -3   5  218.48   17.60
  -1   3  -5 1671.13   62.59
  -1   3  -5 1699.03   60.39
  -1   3  -5 1701.83   58.69
  -1   3  -5 1793.92   63.69
  -1   3  -5 1772.32   59.59
  -1   3  -5 1683.53   58.29
  -1   3  -5 1722.23   59.59
   1  -3   5 1707.53   62.79
   1  -3   5 1708.23   58.29
   1  -3   5 1669.73   58.09
   1  -3   5 1816.92   59.89
   1  -3   5 1651.63   66.39
  -2   3  -5  161.88    9.60
  -2   3  -5  169.28   11.70
  -2   3  -5  150.28   11.00
  -2   3  -5  146.39   11.70
  -2   3  -5  168.68   13.10
  -2   3  -5  153.28   10.50
  -2   3  -5  163.78   10.00
   2  -3   5  154.48   12.50
   2  -3   5  155.18    9.20
   2  -3   5  154.48   11.50
   2  -3   5  168.08   18.30
   2  -3   5  175.98   11.60
  -3   3  -5    6.50    3.90
  -3   3  -5    4.80    3.10
  -3   3  -5    3.40    1.90
  -3   3  -5   -0.40    2.90
   3  -3   5    4.00    2.90
   3  -3   5    2.60    4.30
   3  -3   5    2.70    2.90
  -4   3  -5  163.98   18.30
  -4   3  -5  176.28   17.70
  -4   3  -5  168.38   17.90
   4  -3   5  191.08   24.60
   4  -3   5  219.78   23.00
  -5   3  -5  109.09   15.30
  -5   3  -5   90.79   14.10
  -5   3  -5  116.09   16.40
   5  -3   5   88.89   15.70
  -6   3  -5   85.29   14.10
  -6   3  -5   96.89   16.80
  -7   3  -5  167.78   23.60
  -7   3  -5   81.69   14.80
  -8   3  -5    4.90    8.00
  -8   3  -5    8.90    7.90
  -9   3  -5    2.00    9.40
   9   2  -5   -5.90    8.40
   8   2  -5    4.50    7.90
   7   2  -5    7.90    8.20
   6   2  -5    3.50    6.30
   6   2  -5    5.10    7.60
  -6  -2   5   -3.50    6.30
   5   2  -5    1.90    6.20
   5   2  -5    2.10    6.00
  -5  -2   5   -2.00    6.20
   4   2  -5  250.77   25.50
   4   2  -5  263.47   29.50
  -4  -2   5  245.68   20.30
  -4  -2   5  277.57   28.00
  -4  -2   5  215.18   26.40
  -4  -2   5  294.57   29.60
   3   2  -5  113.79   15.30
   3   2  -5  113.69   17.40
  -3  -2   5  108.29   15.70
  -3  -2   5  151.98   19.10
  -3  -2   5   89.19   15.40
  -3  -2   5  119.79    8.10
  -3  -2   5  128.29   16.40
   2   2  -5   65.59    6.30
   2   2  -5   39.30    8.20
   2   2  -5   62.09    6.10
   2   2  -5   61.99   12.30
  -2  -2   5   60.49   10.90
  -2  -2   5   60.69    5.70
  -2  -2   5   69.09   13.20
  -2  -2   5   66.79   11.20
  -2  -2   5   57.29   10.30
   1   2  -5 1746.73   58.89
   1   2  -5 1829.82   59.39
   1   2  -5 1902.21   68.79
  -1  -2   5 1739.53   54.99
  -1  -2   5 1800.22   67.99
  -1  -2   5 1806.02   67.19
  -1  -2   5 1844.62   70.69
  -1  -2   5 1748.03   67.59
   0   2  -5  588.64   23.90
   0   2  -5  523.25   27.60
   0   2  -5  531.45   25.70
   0   2  -5  533.45   26.80
   0   2  -5  507.25   22.50
   0   2  -5  518.85   27.50
   0  -2   5  556.34   21.60
   0  -2   5  495.65   27.30
   0  -2   5  545.85   28.10
   0  -2   5  510.15   27.30
   0  -2   5  539.35   21.50
   0  -2   5  587.14   26.70
  -1   2  -5  366.26   17.70
  -1   2  -5  376.26   20.00
  -1   2  -5  375.56   19.60
  -1   2  -5  369.86   21.50
  -1   2  -5  402.56   19.30
   1  -2   5  369.06   21.50
   1  -2   5  371.96   18.80
   1  -2   5  377.86   17.50
   1  -2   5  352.06   21.80
   1  -2   5  357.76   17.90
  -2   2  -5   85.19   10.30
  -2   2  -5   66.69    8.50
  -2   2  -5   66.49    8.30
  -2   2  -5   69.29    8.00
  -2   2  -5   78.19    8.30
  -2   2  -5   66.89   10.20
  -2   2  -5   89.29   10.70
   2  -2   5   76.29    8.50
   2  -2   5   87.79   10.20
   2  -2   5   92.29   12.20
   2  -2   5   60.99   10.10
  -3   2  -5  262.27   11.10
  -3   2  -5  271.57   16.40
  -3   2  -5  228.08   17.60
  -3   2  -5  261.87   16.90
  -3   2  -5  224.58   15.60
   3  -2   5  240.28   17.70
   3  -2   5  230.68   15.40
   3  -2   5  237.28   17.60
   3  -2   5  242.18   12.10
  -4   2  -5   56.19    9.90
  -4   2  -5   72.09   12.20
   4  -2   5   78.69   13.10
   4  -2   5   48.80   10.00
  -5   2  -5    5.50    4.40
  -5   2  -5    7.50    5.40
  -6   2  -5   14.80    6.90
  -6   2  -5   16.40    7.60
  -7   2  -5  112.79   18.70
  -7   2  -5  106.29   16.90
  -8   2  -5   28.70   11.00
  -8   2  -5   24.60   10.10
  -9   2  -5   -9.90    7.30
   9   1  -5   -1.80    9.50
   8   1  -5   16.60   10.50
   7   1  -5  -10.30    4.70
   6   1  -5   26.90   10.70
   6   1  -5   18.90   10.10
  -6  -1   5   29.10   11.50
   5   1  -5    4.30    5.70
   5   1  -5   -3.80    4.80
  -5  -1   5   -6.90    5.90
  -5  -1   5   -3.10    4.50
   4   1  -5   93.49   15.30
   4   1  -5   58.09   13.70
  -4  -1   5   70.99   13.60
  -4  -1   5   91.29   10.20
  -4  -1   5   61.29   13.40
  -4  -1   5   83.19   16.70
   3   1  -5   25.20    8.10
   3   1  -5   17.20    6.70
  -3  -1   5   12.00    5.80
  -3  -1   5   17.80    6.30
  -3  -1   5   22.70    7.70
  -3  -1   5   11.90    6.30
   2   1  -5   97.39    6.50
   2   1  -5   93.69    6.60
   2   1  -5  113.39   14.40
  -2  -1   5  104.09   15.10
  -2  -1   5   90.79   12.90
  -2  -1   5  110.69   13.90
  -2  -1   5  101.49   15.30
   1   1  -5    2.50    1.80
   1   1  -5    1.30    1.90
   1   1  -5    2.10    2.90
  -1  -1   5    8.00    3.80
  -1  -1   5    0.20    3.10
  -1  -1   5    1.60    1.10
  -1  -1   5    1.10    3.40
  -1  -1   5    1.20    2.70
  -1  -1   5    5.90    1.40
   0   1  -5    5.50    2.80
   0   1  -5   25.30    6.60
   0   1  -5   18.20    5.00
   0   1  -5   10.50    3.00
   0  -1   5   18.60    5.90
   0  -1   5   12.50    5.00
   0  -1   5   13.00    4.80
   0  -1   5   17.30    3.40
   0  -1   5   13.70    5.20
   0  -1   5   17.00    3.70
  -1   1  -5  166.88   13.10
  -1   1  -5  189.38   10.20
  -1   1  -5  161.48   14.10
  -1   1  -5  174.58   10.80
  -1   1  -5  166.18   11.90
   1  -1   5  161.98   10.50
   1  -1   5  163.78   12.30
   1  -1   5  185.08   11.80
   1  -1   5  145.49   12.20
   1  -1   5  163.18   14.20
   1  -1   5  172.78   13.00
  -2   1  -5  479.95   20.20
  -2   1  -5  442.06   21.30
  -2   1  -5  443.66   23.80
  -2   1  -5  477.95   22.40
  -2   1  -5  475.25   21.70
   2  -1   5  446.56   22.70
   2  -1   5  474.85   23.90
   2  -1   5  479.65   26.80
   2  -1   5  475.85   19.90
   2  -1   5  476.05   22.80
  -3   1  -5  474.55   24.00
  -3   1  -5  465.35   25.40
  -3   1  -5  489.35   18.00
  -3   1  -5  446.96   24.40
   3  -1   5  551.44   29.80
   3  -1   5  508.45   23.50
   3  -1   5  492.95   24.60
   3  -1   5  461.45   24.10
  -4   1  -5   38.90    8.50
  -4   1  -5   68.29   11.70
  -4   1  -5   64.09   10.60
   4  -1   5   38.20    9.80
  -5   1  -5  303.97   22.50
  -5   1  -5  313.57   22.00
   5  -1   5  293.57   24.30
  -6   1  -5  349.07   32.50
  -6   1  -5  268.07   26.70
  -7   1  -5  120.69   18.90
  -7   1  -5   84.59   17.80
  -8   1  -5   15.80    9.70
  -8   1  -5   -2.10    6.30
  -9   1  -5   -7.00    7.00
   8   0  -5   75.09   18.40
   8   0  -5   86.09   17.90
   7   0  -5   41.40   13.20
   7   0  -5   13.10    8.00
  -7   0   5   18.50   12.30
   6   0  -5    1.40    6.30
   6   0  -5    4.50    7.40
  -6   0   5   -0.50    7.40
   5   0  -5   46.00   13.00
   5   0  -5   16.80    7.70
  -5   0   5   39.40   11.40
  -5   0   5   18.60    9.90
  -5   0   5   23.40    6.80
  -5   0   5   21.80    9.90
   4   0  -5    6.80    5.20
   4   0  -5    7.20    6.40
  -4   0   5    0.50    5.00
  -4   0   5    3.10    5.60
  -4   0   5   11.40    6.20
   3   0  -5    5.20    4.60
   3   0  -5    6.60    1.90
   3   0  -5    6.80    1.60
  -3   0   5    2.70    4.70
  -3   0   5    3.10    4.00
  -3   0   5    5.60    5.40
   2   0  -5  509.05   27.40
   2   0  -5  529.45   21.00
   2   0  -5  484.05   19.60
  -2   0   5  536.75   31.80
  -2   0   5  454.45   28.00
  -2   0   5  498.45   28.60
   1   0  -5 1244.78   43.30
   1   0  -5 1227.18   49.60
   1   0  -5 1286.67   45.40
  -1   0   5 1227.28   39.90
  -1   0   5 1292.97   40.20
  -1   0   5 1307.27   50.79
  -1   0   5 1279.47   51.99
  -1   0   5 1247.28   53.89
  -1   0   5 1279.37   52.59
   0   0  -5  496.25   25.30
   0   0  -5  432.56   22.00
   0   0  -5  453.95   20.30
   0   0  -5  469.35   17.30
   0   0   5  475.15   19.50
   0   0   5  467.35   25.70
   0   0   5  497.55   24.40
   0   0   5  468.15   26.80
   0   0   5  448.86   20.40
  -1   0  -5  103.49   13.50
  -1   0  -5  137.39   13.10
  -1   0  -5  110.39    8.60
  -1   0  -5  113.99    8.10
  -1   0  -5  115.59    8.90
   1   0   5  137.99   16.30
   1   0   5  106.99   10.80
   1   0   5  124.59   12.50
   1   0   5  115.89   10.20
   1   0   5  116.59   14.10
  -2   0  -5  199.98   13.80
  -2   0  -5  209.08   13.20
  -2   0  -5  217.08   13.30
  -2   0  -5  231.98   16.80
  -2   0  -5  214.48   12.10
   2   0   5  194.78   15.10
   2   0   5  208.28   12.80
   2   0   5  240.58   18.80
   2   0   5  221.18   15.00
   2   0   5  213.68   13.30
  -3   0  -5    0.90    3.10
  -3   0  -5    1.50    2.80
  -3   0  -5    1.30    3.70
  -3   0  -5    2.90    1.70
   3   0   5    4.00    3.40
   3   0   5   -2.00    3.40
   3   0   5    3.60    4.60
  -4   0  -5   14.60    6.40
  -4   0  -5   34.00    8.70
  -4   0  -5   44.00    8.30
   4   0   5   32.10    9.50
   4   0   5   36.20    8.50
  -5   0  -5  317.07   23.90
  -5   0  -5  322.47   23.50
  -5   0  -5  333.97   22.80
  -6   0  -5   88.79   16.10
  -6   0  -5  134.29   19.80
  -7   0  -5   44.60   12.80
  -7   0  -5   37.60   11.60
  -8   0  -5   -1.70    6.80
  -8   0  -5   -5.70    5.40
   9  -1  -5   -4.70    7.50
   8  -1  -5   -1.20    5.90
   7  -1  -5   11.10    9.70
   7  -1  -5    4.80    7.20
   7  -1  -5   14.30    9.80
  -7   1   5   11.90   10.60
   6  -1  -5    7.00    6.90
   6  -1  -5    0.50    5.50
   6  -1  -5   13.60    8.30
  -6   1   5    7.00    9.00
  -6   1   5    3.20    4.60
   5  -1  -5    1.40    4.40
   5  -1  -5   15.20    8.60
  -5   1   5    9.20    6.90
  -5   1   5    2.50    5.20
   4  -1  -5    1.80    4.30
  -4   1   5    5.70    4.50
  -4   1   5    2.70    5.70
  -4   1   5    5.40    5.50
   3  -1  -5   17.20    3.80
   3  -1  -5   10.70    4.90
  -3   1   5   19.50    6.60
  -3   1   5   34.40   10.40
  -3   1   5   25.50    9.10
   2  -1  -5  619.34   24.20
   2  -1  -5  632.34   31.60
   2  -1  -5  614.74   26.20
  -2   1   5  655.13   34.90
  -2   1   5  640.24   33.60
   1  -1  -5  667.83   28.70
   1  -1  -5  655.63   32.10
   1  -1  -5  666.23   26.00
   1  -1  -5  609.64   21.00
  -1   1   5  617.54   33.40
  -1   1   5  685.83   35.00
  -1   1   5  643.94   23.40
   0  -1  -5  294.07   19.80
   0  -1  -5  291.47   15.30
   0  -1  -5  304.17   17.80
   0  -1  -5  305.67   13.10
   0   1   5  266.37   20.30
   0   1   5  298.67   16.00
   0   1   5  273.77   20.80
   0   1   5  293.27   14.30
  -1  -1  -5  828.42   33.50
  -1  -1  -5  831.32   31.80
  -1  -1  -5  840.32   32.70
  -1  -1  -5  866.91   35.40
  -1  -1  -5  829.22   39.00
   1   1   5  889.31   40.20
   1   1   5  846.02   32.70
   1   1   5  822.72   41.00
   1   1   5  857.31   35.70
  -2  -1  -5   11.70    3.50
  -2  -1  -5   14.10    4.80
  -2  -1  -5    7.70    3.30
  -2  -1  -5    5.60    4.20
   2   1   5   11.00    5.60
   2   1   5    7.70    5.40
   2   1   5   11.20    4.60
   2   1   5   14.50    4.30
  -3  -1  -5   27.90    7.40
  -3  -1  -5   29.80    4.10
  -3  -1  -5   31.40    7.30
  -3  -1  -5   36.60   10.10
   3   1   5   36.10    9.10
   3   1   5   27.10    9.10
   3   1   5   23.30    5.60
  -4  -1  -5    7.00    5.30
  -4  -1  -5    6.30    5.50
  -4  -1  -5    9.80    5.60
   4   1   5   10.00    6.20
  -5  -1  -5   10.80    7.40
  -5  -1  -5    6.80    5.60
  -5  -1  -5   10.80    6.20
  -6  -1  -5   53.69   11.50
  -6  -1  -5   77.19   15.20
  -6  -1  -5   64.19   15.00
  -7  -1  -5   34.70   11.90
  -7  -1  -5    7.10    7.30
  -8  -1  -5    4.00    7.20
  -8  -1  -5   -2.70    6.70
   9  -2  -5   -4.20   10.40
   8  -2  -5   -0.50    7.20
   7  -2  -5    3.50    8.10
  -7   2   5   -5.20    5.10
   6  -2  -5    3.70    6.70
   6  -2  -5    8.00    7.50
   6  -2  -5    2.10    7.50
  -6   2   5    0.20    4.40
  -6   2   5    8.80    9.30
   5  -2  -5    6.40    5.30
   5  -2  -5    3.90    5.10
  -5   2   5    3.80    7.20
  -5   2   5   -0.80    4.40
   4  -2  -5  102.69   17.50
   4  -2  -5  114.39   16.40
  -4   2   5   79.29   13.60
  -4   2   5   85.69   15.30
  -4   2   5   69.29   15.90
   3  -2  -5  117.89   15.80
  -3   2   5  207.48   21.40
  -3   2   5  172.68   21.60
   2  -2  -5  198.18   11.90
   2  -2  -5  189.08   19.50
  -2   2   5  224.68   24.40
  -2   2   5  223.18   18.30
   1  -2  -5  245.18   11.10
   1  -2  -5  258.17   18.90
   1  -2  -5  237.38   13.10
   1  -2  -5  206.18   13.10
  -1   2   5  211.48   11.90
  -1   2   5  243.28   19.80
  -1   2   5  255.97   26.00
   0  -2  -5   63.99    8.30
   0  -2  -5   61.59    9.80
   0  -2  -5   61.69    8.30
   0  -2  -5   65.39    7.30
   0  -2  -5   67.89   11.90
   0   2   5   88.79   14.90
   0   2   5   69.89    9.20
   0   2   5   62.19    7.40
   0   2   5  101.99   15.40
  -1  -2  -5    4.70    3.40
  -1  -2  -5    9.10    5.40
  -1  -2  -5    3.90    3.20
  -1  -2  -5   13.60    4.80
  -1  -2  -5    4.30    2.80
   1   2   5    8.00    3.60
   1   2   5   14.10    5.30
   1   2   5   10.60    5.80
   1   2   5    4.30    4.20
  -2  -2  -5   71.69    9.70
  -2  -2  -5   81.79   11.30
  -2  -2  -5   75.29   13.90
   2   2   5   57.69    9.40
   2   2   5   49.80   11.90
   2   2   5   62.09   12.30
  -3  -2  -5    3.50    3.50
  -3  -2  -5   -0.50    4.10
  -3  -2  -5   -0.20    3.40
   3   2   5    3.60    4.30
   3   2   5   -1.50    4.60
  -4  -2  -5    1.80    4.00
  -4  -2  -5    3.50    4.10
  -4  -2  -5   -0.80    4.90
   4   2   5    7.00    6.60
  -5  -2  -5   -1.00    6.10
  -5  -2  -5   -2.90    4.60
  -5  -2  -5    0.60    4.90
  -6  -2  -5  106.79   20.60
  -6  -2  -5   71.49   14.60
  -6  -2  -5  129.89   19.70
  -7  -2  -5    2.10    6.30
  -7  -2  -5    2.70    6.80
  -7  -2  -5    2.60    7.90
  -8  -2  -5   -0.20    7.10
   8  -3  -5    7.50   10.60
  -8   3   5   -1.10    5.60
   7  -3  -5    7.40    8.10
  -7   3   5   -2.00    4.70
   6  -3  -5    8.40    8.40
  -6   3   5    3.70    7.90
  -6   3   5    7.40    5.20
   5  -3  -5    0.50    5.30
   5  -3  -5    3.50    5.40
  -5   3   5    5.00    8.10
   4  -3  -5   67.29   14.70
   4  -3  -5   86.69   14.90
  -4   3   5  113.89   16.90
  -4   3   5   94.99   17.60
   3  -3  -5   49.60   12.40
   3  -3  -5   28.60    9.20
  -3   3   5   42.30   10.30
  -3   3   5   43.50   11.50
   2  -3  -5   35.60    7.10
   2  -3  -5   33.80    8.90
   2  -3  -5   35.10    9.60
  -2   3   5   27.00    9.80
  -2   3   5   32.40    8.90
   1  -3  -5   17.00    4.90
   1  -3  -5   16.10    5.20
   1  -3  -5   16.80    3.90
   1  -3  -5   12.50    5.90
   1  -3  -5    7.50    5.80
  -1   3   5    5.90    6.30
  -1   3   5   10.20    6.70
   0  -3  -5   -2.70    2.30
   0  -3  -5   -2.80    2.70
   0  -3  -5    0.40    2.50
   0  -3  -5   -3.30    3.10
   0  -3  -5   -1.20    3.20
   0   3   5   -3.00    4.30
   0   3   5   -0.90    3.70
  -1  -3  -5   68.29   13.70
  -1  -3  -5   59.69    8.70
  -1  -3  -5   81.29   11.70
   1   3   5   80.69   15.20
   1   3   5   62.99    8.30
   1   3   5   95.39   17.30
  -2  -3  -5  578.44   30.10
  -2  -3  -5  588.84   35.20
  -2  -3  -5  520.25   27.20
   2   3   5  553.44   35.30
  -3  -3  -5  140.79   17.70
  -3  -3  -5  136.49   21.30
  -3  -3  -5  163.48   17.40
   3   3   5  131.59   20.90
  -4  -3  -5  145.69   18.40
  -4  -3  -5  175.38   24.90
  -4  -3  -5  136.29   18.70
   4   3   5  138.79   22.50
  -5  -3  -5   98.69   16.50
  -5  -3  -5   92.59   17.20
  -5  -3  -5  111.89   20.20
  -6  -3  -5    5.80    8.10
  -6  -3  -5    0.40    5.30
  -6  -3  -5    2.50    7.10
  -7  -3  -5    2.70    8.40
  -7  -3  -5    0.60    9.00
  -7  -3  -5   -2.10    6.10
   8  -4  -5    5.70   10.00
   7  -4  -5   -5.10    5.70
  -7   4   5   -2.00    5.70
   6  -4  -5    0.40    6.80
  -6   4   5    8.10   10.40
   5  -4  -5   12.80   10.90
   5  -4  -5   19.50    9.80
  -5   4   5    3.70    8.40
   4  -4  -5   14.70    8.10
   4  -4  -5    7.90    6.50
  -4   4   5    4.00    7.80
   3  -4  -5   17.00    8.60
   3  -4  -5   21.90    9.20
  -3   4   5   22.50    8.40
  -3   4   5   17.30    9.10
   2  -4  -5   52.39    9.40
   2  -4  -5   49.50   11.10
   2  -4  -5   41.80   10.90
  -2   4   5   54.89   12.50
  -2   4   5   56.69   14.50
   1  -4  -5  341.17   25.60
   1  -4  -5  343.87   24.30
   1  -4  -5  386.46   21.90
  -1   4   5  400.86   30.80
  -1   4   5  366.96   27.60
   0  -4  -5  480.15   24.20
   0  -4  -5  460.65   31.40
   0  -4  -5  538.45   27.70
   0   4   5  582.44   36.00
   0   4   5  509.75   35.40
  -1  -4  -5 1004.90   42.50
  -1  -4  -5 1070.79   52.59
  -1  -4  -5 1078.79   46.00
   1   4   5 1075.99   55.79
  -2  -4  -5   44.30    9.20
  -2  -4  -5   44.20   12.30
  -2  -4  -5   33.00    8.90
   2   4   5   55.99   15.80
  -3  -4  -5   47.70   10.00
  -3  -4  -5   48.80   13.30
  -3  -4  -5   31.40   10.20
   3   4   5   28.20   12.80
  -4  -4  -5    1.80    6.60
  -4  -4  -5    1.90    5.10
  -4  -4  -5    6.00    6.10
   4   4   5   -1.30    8.40
  -5  -4  -5   -3.00    4.90
  -5  -4  -5    5.40    6.00
  -5  -4  -5   -1.20    8.10
  -6  -4  -5   -3.20    7.30
  -6  -4  -5    2.40    6.10
  -6  -4  -5    0.10    6.80
  -7  -4  -5    3.80    8.80
  -7  -4  -5   11.80   11.30
   8  -5  -5  -11.60    7.20
   7  -5  -5   -1.20    7.90
   6  -5  -5    8.20    8.60
   5  -5  -5   15.10    9.50
  -5   5   5   18.30   18.40
   4  -5  -5  194.98   27.10
   4  -5  -5  165.18   20.90
  -4   5   5  156.18   25.40
   3  -5  -5  590.54   39.50
   3  -5  -5  556.44   34.90
  -3   5   5  589.34   41.60
   2  -5  -5   -2.90    3.70
   2  -5  -5   -1.50    4.40
   2  -5  -5   -5.50    4.60
  -2   5   5   -3.90    6.90
   1  -5  -5   17.70    7.40
   1  -5  -5    5.70    4.90
   1  -5  -5    3.70    5.70
  -1   5   5    1.20    7.40
   0  -5  -5  132.49   20.00
   0  -5  -5  218.68   15.70
   0  -5  -5  221.48   22.10
   0   5   5  208.48   27.90
  -1  -5  -5    1.50    4.20
  -1  -5  -5    2.20    6.90
  -1  -5  -5    0.60    4.30
   1   5   5   -1.10    7.30
  -2  -5  -5   16.70    7.50
  -2  -5  -5   10.00    6.00
  -2  -5  -5   23.80    9.30
   2   5   5   12.00    9.00
  -3  -5  -5   73.99   13.70
  -3  -5  -5   20.10    9.60
  -3  -5  -5   35.90   11.10
  -4  -5  -5   -0.10    6.10
  -4  -5  -5    0.30    6.10
  -4  -5  -5    6.80    6.40
  -5  -5  -5   -2.60    6.40
  -5  -5  -5    6.90    8.00
  -5  -5  -5   13.90   10.90
  -6  -5  -5   12.80   10.50
  -6  -5  -5   -2.30   10.00
  -6  -5  -5   11.40    8.60
   7  -6  -5    3.60   10.10
   6  -6  -5   54.69   18.90
   5  -6  -5   37.00   14.60
   4  -6  -5   -1.60    6.20
   3  -6  -5  103.39   19.50
   3  -6  -5   64.99   14.30
   2  -6  -5   52.79   11.90
   2  -6  -5   58.59   14.90
   2  -6  -5   42.80   12.50
   1  -6  -5   -0.90    4.40
   1  -6  -5   -3.00    5.60
   0  -6  -5   -1.20    4.70
   0  -6  -5   -2.00    6.00
  -1  -6  -5   -4.50    4.20
  -1  -6  -5   -1.80    6.30
  -1  -6  -5    3.50    5.70
  -2  -6  -5   -4.20    5.00
  -2  -6  -5   -6.30    5.30
  -2  -6  -5    2.90    5.60
  -3  -6  -5   -0.40    6.70
  -3  -6  -5    1.50    6.30
  -3  -6  -5    1.00    6.40
  -4  -6  -5   46.80   17.40
  -4  -6  -5   62.19   15.70
  -4  -6  -5   54.59   13.70
  -5  -6  -5    9.80    9.70
  -5  -6  -5    4.90   10.60
  -5  -6  -5   17.10   10.20
   6  -7  -5    9.90   10.40
   5  -7  -5   -5.30    8.40
   4  -7  -5   12.40   10.00
   3  -7  -5    8.80    9.00
   2  -7  -5   24.20    9.50
   2  -7  -5   22.90   10.90
   1  -7  -5    0.70    5.00
   1  -7  -5    0.40    6.90
   0  -7  -5    6.70    6.70
   0  -7  -5    8.00    9.30
  -1  -7  -5  178.18   28.30
  -1  -7  -5  127.59   19.50
  -2  -7  -5   -4.00    7.70
  -2  -7  -5    7.60    7.60
  -2  -7  -5   -1.60    5.20
  -3  -7  -5   35.50   13.10
  -3  -7  -5   30.70   10.40
  -3  -7  -5   33.60   12.80
  -4  -7  -5   -3.20    7.90
  -4  -7  -5    6.00    8.50
  -4  -7  -5    5.80    9.80
   5  -8  -5    1.40    8.60
   4  -8  -5    3.00   11.20
   2  -8  -5   -6.40    5.90
   1  -8  -5    9.50    8.10
   1  -8  -5   22.20   10.30
   0  -8  -5   27.40   10.90
   0  -8  -5   37.90   14.30
  -1  -8  -5   38.30   13.20
  -1  -8  -5   34.50   13.80
  -2  -8  -5    8.00    9.60
  -2  -8  -5    5.80    8.30
   1  -9  -5   21.70   10.50
  -1 -11   6   -4.00    7.20
   0 -11   6    4.00    7.70
   0 -11   6   -2.90    9.40
   1 -11   6    6.20    8.70
   1 -11   6   -0.20    9.40
   2 -11   6    0.90    8.40
   2 -11   6    1.20    9.40
   3 -11   6   10.80   10.00
   3 -11   6   27.10   14.30
  -3 -10   6   13.70    8.40
  -2 -10   6   -1.70    6.50
  -1 -10   6    0.50    9.20
  -1 -10   6    2.80    7.20
   0 -10   6   29.50   14.20
   0 -10   6   36.80   12.20
   1 -10   6   66.49   18.80
   1 -10   6   96.69   18.30
   2 -10   6   -3.20    8.50
   2 -10   6    0.80    5.90
   3 -10   6   -4.70    6.40
   3 -10   6    6.10   10.10
   4 -10   6    3.60   12.00
   4 -10   6   12.00    9.20
   5 -10   6   -3.60    6.40
   5 -10   6    8.80   10.80
  -4  -9   6   -5.30    6.50
  -3  -9   6    8.70    8.60
  -2  -9   6    1.90    7.70
  -2  -9   6    3.80    6.30
  -1  -9   6   14.50    7.30
  -1  -9   6   19.00   12.10
   0  -9   6    0.80    5.40
   0  -9   6    5.40    9.60
   1  -9   6   67.99   14.10
   1  -9   6   57.29   18.20
   2  -9   6   33.50   11.20
   2  -9   6   31.60   14.00
   3  -9   6   -3.90    6.60
   3  -9   6    4.30    7.00
   4  -9   6   -9.20    8.90
   4  -9   6   -0.40    4.90
   5  -9   6   -6.10    7.60
   5  -9   6    5.30    7.80
   6  -9   6   20.00   14.10
  -4  -8   6   -3.00    5.60
  -3  -8   6   24.40    9.80
  -3  -8   6    5.60    7.70
  -2  -8   6    1.50    5.30
  -2  -8   6    1.70    5.80
   1   8  -6   -1.10    8.70
  -1  -8   6    1.90    5.20
  -1  -8   6   -2.30    5.60
   0  -8   6    3.20    6.90
   0  -8   6   21.70    8.50
   1  -8   6   -0.30    4.40
   1  -8   6    3.60    6.20
   2  -8   6   26.10   12.20
   2  -8   6   40.20    9.90
   3  -8   6    1.50    5.40
   3  -8   6    2.90    7.20
   4  -8   6    2.00    8.40
  -5   8  -6   13.90    7.50
   5  -8   6   11.50   11.70
   6  -8   6   -7.30    8.30
   7  -8   6   -0.20   12.20
  -4  -7   6   57.99   12.20
  -3  -7   6  178.78   19.70
  -3  -7   6  254.37   29.70
   2   7  -6    5.80    8.30
  -2  -7   6    6.80    7.40
  -2  -7   6   -1.70    5.70
   1   7  -6    0.30    6.80
  -1  -7   6    7.00    5.40
  -1  -7   6   13.90    8.30
  -1  -7   6   -2.20    3.50
   0   7  -6  235.28   27.30
   0  -7   6  211.18   27.50
   0  -7   6  271.17   19.80
   1  -7   6  201.68   27.50
   1  -7   6  248.78   19.20
   2  -7   6   10.40    7.50
   2  -7   6    8.40    4.90
  -3   7  -6   58.19   10.90
   3  -7   6   54.99   17.10
  -4   7  -6    4.20    4.80
   4  -7   6   -4.80    5.80
  -5   7  -6   12.10    7.80
   5  -7   6   14.50    9.20
  -6   7  -6   12.40    9.30
  -6   7  -6   22.50   10.40
   6  -7   6   -2.70    8.70
  -7   7  -6    0.30    6.40
   7  -7   6    8.40   11.20
  -4  -6   6   11.40    6.00
  -4  -6   6   15.20    6.80
   3   6  -6    2.80    8.00
  -3  -6   6    8.30    6.40
  -3  -6   6   14.30    6.30
   2   6  -6   86.79   18.20
  -2  -6   6   74.19   15.30
   1   6  -6  670.03   35.10
   1   6  -6  683.23   40.50
  -1  -6   6  670.73   31.60
  -1  -6   6  614.64   37.20
  -1  -6   6  645.64   39.90
   0   6  -6  446.26   29.90
   0   6  -6  435.96   25.80
   0  -6   6  485.55   28.70
   0  -6   6  452.65   32.80
   0  -6   6  470.95   25.20
   1  -6   6   -1.10    4.10
   1  -6   6    2.00    3.70
  -2   6  -6  192.98   14.60
   2  -6   6  142.79   22.30
  -3   6  -6    2.70    3.70
   3  -6   6   -1.70    4.90
  -4   6  -6   11.50    6.30
  -4   6  -6   42.00   10.50
   4  -6   6   15.60    9.50
  -5   6  -6    2.70    5.60
  -5   6  -6    8.90    6.10
   5  -6   6    5.80    8.40
  -6   6  -6   -7.20    5.70
  -6   6  -6    3.70    6.70
   6  -6   6    0.70    8.00
  -7   6  -6    1.50    6.80
   7  -6   6   -8.60    8.60
  -8   6  -6    3.60    8.60
   7   5  -6   13.10    8.60
   6   5  -6    4.00    6.70
  -5  -5   6    4.50    6.20
   4   5  -6    2.20    7.40
  -4  -5   6   -2.20    4.10
  -4  -5   6   -0.70    8.50
   3   5  -6   67.79   13.50
   3   5  -6   63.59   15.70
  -3  -5   6   98.09   18.90
  -3  -5   6   98.79   16.80
  -3  -5   6   84.59   11.30
   2   5  -6   84.39   16.90
   2   5  -6   70.79   12.80
  -2  -5   6   69.09   14.40
  -2  -5   6   69.29   14.00
   1   5  -6   21.30    5.70
   1   5  -6   19.60    6.90
   1   5  -6   25.20    9.90
  -1  -5   6   21.50    8.00
  -1  -5   6   18.80    5.70
  -1  -5   6   12.60    7.20
  -1  -5   6   11.20    6.10
   0   5  -6   79.59   11.80
   0   5  -6   73.49   11.30
   0   5  -6   73.19   13.50
   0  -5   6   67.69   13.50
   0  -5   6   64.39   11.70
   0  -5   6   75.49   10.30
   0  -5   6   56.49   11.20
  -1   5  -6    2.90    3.60
  -1   5  -6    1.30    4.20
   1  -5   6    0.80    4.70
   1  -5   6   -1.30    2.40
   1  -5   6   -2.60    3.20
  -2   5  -6    4.20    3.80
   2  -5   6    1.00    4.00
  -3   5  -6   -4.30    3.00
  -3   5  -6   11.30    4.90
   3  -5   6   -2.10    5.90
  -4   5  -6    3.80    4.30
  -4   5  -6    5.10    4.20
   4  -5   6    0.00    4.30
  -5   5  -6   12.00    6.70
  -5   5  -6   21.40    7.80
   5  -5   6    1.80    6.90
  -6   5  -6   23.40    9.00
  -6   5  -6   14.50    9.10
   6  -5   6   53.89   15.70
  -7   5  -6   33.50   12.20
  -7   5  -6    6.80    7.10
  -8   5  -6   -0.30    8.50
   8   4  -6  -11.70    7.70
   7   4  -6    1.60    7.50
   6   4  -6   -2.60    5.50
   5   4  -6    2.20    6.30
   5   4  -6   -1.10    7.60
  -5  -4   6   -2.10    6.70
  -5  -4   6    4.90    5.30
   4   4  -6   27.70   12.50
   4   4  -6   45.60   12.60
  -4  -4   6   42.90   11.50
  -4  -4   6   79.29   16.80
   3   4  -6   15.00    8.90
   3   4  -6    6.00    6.20
  -3  -4   6    5.20    6.10
  -3  -4   6   10.40    5.40
  -3  -4   6    5.50    3.70
   2   4  -6    6.40    7.00
   2   4  -6    7.50    4.90
  -2  -4   6   -0.90    3.50
  -2  -4   6    8.20    6.50
  -2  -4   6    4.60    4.30
   1   4  -6   72.99    9.30
   1   4  -6   68.29   11.50
   1   4  -6  119.89   18.00
  -1  -4   6   74.79   13.00
  -1  -4   6   95.19   14.40
  -1  -4   6   90.79   15.10
   0   4  -6    7.30    4.10
   0   4  -6   10.00    4.10
   0   4  -6    5.80    4.90
   0   4  -6    9.50    4.40
   0  -4   6    9.00    4.90
   0  -4   6   13.70    4.30
   0  -4   6   17.60    6.10
   0  -4   6   17.30    6.30
   0  -4   6   10.40    5.60
  -1   4  -6    2.20    3.50
  -1   4  -6    7.90    4.20
  -1   4  -6    5.30    4.00
  -1   4  -6    3.60    3.30
   1  -4   6    5.80    3.30
   1  -4   6    4.10    3.10
   1  -4   6    6.20    3.60
   1  -4   6    6.50    4.10
   1  -4   6    1.60    4.90
  -2   4  -6    2.30    4.00
  -2   4  -6    0.50    3.10
   2  -4   6    1.50    2.80
   2  -4   6    0.30    2.50
   2  -4   6    2.10    4.30
  -3   4  -6   28.60    7.80
   3  -4   6   31.10    9.40
   3  -4   6   11.80    5.00
  -4   4  -6   11.60    6.20
   4  -4   6   13.30    7.80
  -5   4  -6  139.29   18.10
  -5   4  -6   74.99   13.30
   5  -4   6  130.49   20.40
  -6   4  -6   15.20    6.60
  -6   4  -6   13.70    8.80
  -7   4  -6    4.90    7.40
  -7   4  -6    5.10    6.80
  -8   4  -6    3.80    8.70
  -8   4  -6    9.30    9.20
   8   3  -6    1.80    8.60
   7   3  -6   -2.80    6.00
   6   3  -6    3.30    6.50
   5   3  -6    0.30    5.60
   5   3  -6    4.30    6.20
  -5  -3   6    3.70    7.20
   4   3  -6  101.79   15.80
   4   3  -6   67.19   16.60
  -4  -3   6   64.59   15.00
  -4  -3   6  116.09   17.20
   3   3  -6    7.60    5.50
   3   3  -6   33.40   11.00
  -3  -3   6   37.90   10.70
  -3  -3   6   28.50    9.10
  -3  -3   6   33.70    9.70
   2   3  -6   79.99   13.60
   2   3  -6   46.50   11.20
  -2  -3   6   77.79   14.00
  -2  -3   6   75.39   13.30
  -2  -3   6   77.49   13.00
   1   3  -6 1013.70   47.30
   1   3  -6 1045.60   39.40
   1   3  -6  988.00   44.10
  -1  -3   6 1008.00   47.00
  -1  -3   6 1016.10   47.60
  -1  -3   6 1128.69   47.30
   0   3  -6  144.69   16.30
   0   3  -6  163.88   15.80
   0   3  -6  108.99   11.00
   0   3  -6  132.39   12.40
   0  -3   6  147.49    9.50
   0  -3   6  166.48   10.30
   0  -3   6  135.39   15.60
   0  -3   6  150.68   18.40
   0  -3   6  154.18   16.60
  -1   3  -6   -0.20    2.10
  -1   3  -6    4.40    3.60
  -1   3  -6   -0.20    2.90
  -1   3  -6   -0.60    2.30
  -1   3  -6    1.40    2.70
  -1   3  -6   -2.30    2.70
   1  -3   6    6.10    3.80
   1  -3   6   -2.30    1.70
   1  -3   6   -0.70    2.70
   1  -3   6    6.40    4.80
   1  -3   6    0.50    2.50
  -2   3  -6  195.08   14.10
  -2   3  -6  141.09   12.20
  -2   3  -6  193.58   13.80
   2  -3   6  219.68   12.90
   2  -3   6  209.98   14.20
   2  -3   6  211.88   16.50
   2  -3   6  205.08   13.80
   2  -3   6  216.38   22.60
  -3   3  -6   59.79    9.50
  -3   3  -6   70.59   11.00
   3  -3   6   54.99    9.30
   3  -3   6   47.60    9.30
   3  -3   6   75.69   13.60
  -4   3  -6  105.39   14.80
  -4   3  -6  130.49   15.30
   4  -3   6  102.89   15.70
  -5   3  -6  438.36   27.00
  -5   3  -6  469.45   29.30
  -6   3  -6   60.39   13.30
  -6   3  -6   46.30   10.80
  -7   3  -6    3.90    6.90
  -7   3  -6   14.40    7.50
  -8   3  -6    2.90    7.70
  -8   3  -6   -0.80    7.90
   8   2  -6   -3.00    7.50
   7   2  -6    4.20    7.40
   6   2  -6   12.80    8.40
  -6  -2   6   15.90   14.60
   5   2  -6    9.80    8.30
   5   2  -6   17.90    9.80
  -5  -2   6   38.90   12.60
   4   2  -6    4.90    5.80
   4   2  -6   -1.80    5.10
  -4  -2   6    2.80    6.50
  -4  -2   6    1.70    3.70
  -4  -2   6    8.10    6.50
   3   2  -6  406.46   29.60
   3   2  -6  417.26   26.60
  -3  -2   6  384.56   26.20
  -3  -2   6  414.56   28.80
  -3  -2   6  406.16   28.10
  -3  -2   6  361.06   30.10
   2   2  -6  165.38   18.40
   2   2  -6  160.98   10.30
   2   2  -6  124.59   17.50
  -2  -2   6  177.68   21.00
  -2  -2   6  162.98   19.90
  -2  -2   6  165.28   20.80
  -2  -2   6  152.28   18.40
   1   2  -6    4.00    4.40
   1   2  -6    3.20    2.30
   1   2  -6    4.70    3.20
   1   2  -6   -0.30    2.70
  -1  -2   6    3.70    4.20
  -1  -2   6    2.10    1.40
  -1  -2   6    5.50    1.70
  -1  -2   6   13.10    6.10
  -1  -2   6    4.80    4.50
  -1  -2   6    4.20    4.70
   0   2  -6   45.40    7.70
   0   2  -6   39.30    8.20
   0   2  -6   28.10    5.30
   0  -2   6   34.40    8.00
   0  -2   6   37.10    5.60
   0  -2   6   25.10    4.30
   0  -2   6   29.70    7.20
   0  -2   6   32.40    8.00
   0  -2   6   38.10    8.90
  -1   2  -6  447.16   21.40
  -1   2  -6  468.15   24.50
  -1   2  -6  445.46   19.90
  -1   2  -6  445.66   22.80
   1  -2   6  445.26   24.30
   1  -2   6  445.76   20.90
   1  -2   6  436.46   21.40
   1  -2   6  464.25   26.70
   1  -2   6  421.46   22.90
   1  -2   6  453.95   26.10
  -2   2  -6   92.19   10.90
  -2   2  -6   98.79   12.30
  -2   2  -6   96.69   10.30
  -2   2  -6   97.39   11.20
  -2   2  -6  149.69   15.00
   2  -2   6  116.39   11.80
   2  -2   6   92.79   13.30
   2  -2   6   83.59    9.80
   2  -2   6   98.99   13.80
   2  -2   6  110.19   11.20
  -3   2  -6    8.00    3.20
  -3   2  -6   14.00    5.70
  -3   2  -6   16.70    5.30
  -3   2  -6   12.80    5.40
   3  -2   6    5.50    4.00
   3  -2   6    7.10    4.80
   3  -2   6    9.70    5.30
  -4   2  -6  110.39   14.10
  -4   2  -6   80.49   13.20
   4  -2   6  104.89   18.00
   4  -2   6  102.89   15.40
  -5   2  -6  278.97   27.00
  -5   2  -6  277.37   20.70
  -6   2  -6   90.19   15.40
  -6   2  -6  135.89   19.60
  -7   2  -6    7.50    6.50
  -7   2  -6   -2.70    7.40
  -8   2  -6    2.20    8.10
  -8   2  -6   -4.10    6.40
   8   1  -6    6.50    7.50
   8   1  -6    1.00    7.10
   7   1  -6   -4.10    5.50
   6   1  -6   10.80    8.70
   6   1  -6   -9.00    6.00
  -6  -1   6    2.80    8.00
   5   1  -6    4.00    5.80
   5   1  -6   -2.00    4.60
  -5  -1   6    3.90    7.00
   4   1  -6   65.19   14.90
   4   1  -6   49.90   11.60
  -4  -1   6   59.09   15.30
  -4  -1   6   39.90   12.40
  -4  -1   6   48.50   14.20
   3   1  -6   10.40    6.70
   3   1  -6    2.10    3.70
  -3  -1   6    0.10    4.80
  -3  -1   6   -0.30    3.50
  -3  -1   6    4.60    5.30
  -3  -1   6    6.20    5.60
   2   1  -6    0.60    3.40
   2   1  -6    2.70    2.00
  -2  -1   6   -3.40    3.40
  -2  -1   6    1.40    3.90
  -2  -1   6   -2.40    3.00
  -2  -1   6    5.50    5.00
   1   1  -6   40.60    8.90
   1   1  -6   42.00    6.30
   1   1  -6   63.09    8.60
  -1  -1   6   59.19   10.90
  -1  -1   6   54.29   10.50
  -1  -1   6   38.10    9.20
  -1  -1   6   52.99    4.80
  -1  -1   6   40.60    4.10
  -1  -1   6   51.79   11.10
   0   1  -6  324.97   16.80
   0   1  -6  328.77   18.50
   0  -1   6  319.67   20.70
   0  -1   6  291.87   14.90
   0  -1   6  313.17   15.80
   0  -1   6  324.67   22.40
   0  -1   6  342.87   21.30
   0  -1   6  328.97   22.20
  -1   1  -6  614.04   26.60
  -1   1  -6  591.34   24.30
  -1   1  -6  609.34   25.40
  -1   1  -6  613.04   28.60
  -1   1  -6  587.44   30.40
   1  -1   6  653.43   34.10
   1  -1   6  641.14   27.80
   1  -1   6  586.74   30.30
   1  -1   6  630.24   30.40
   1  -1   6  636.04   30.80
   1  -1   6  622.74   26.10
  -2   1  -6   10.10    4.00
  -2   1  -6   15.20    4.80
  -2   1  -6   23.90    7.30
  -2   1  -6    9.50    3.70
   2  -1   6   12.50    4.20
   2  -1   6   18.90    5.60
   2  -1   6   16.00    4.30
   2  -1   6   12.20    6.20
   2  -1   6   29.20    7.50
   2  -1   6   17.80    5.60
  -3   1  -6  219.28   20.90
  -3   1  -6  232.68   16.50
  -3   1  -6  222.08   19.00
   3  -1   6  233.98   20.10
   3  -1   6  228.88   16.10
   3  -1   6  225.18   16.60
   3  -1   6  231.18   16.30
  -4   1  -6  378.56   24.30
  -4   1  -6  384.16   25.20
  -4   1  -6  386.76   23.80
   4  -1   6  420.56   29.10
  -5   1  -6  585.34   33.60
  -5   1  -6  546.75   31.50
  -6   1  -6   31.40    9.80
  -6   1  -6   18.20    8.60
  -7   1  -6   27.90   10.40
  -7   1  -6   31.20   11.70
  -8   1  -6   -4.60    6.70
  -8   1  -6    1.80    7.60
   9   0  -6   11.90   17.80
   8   0  -6   -2.70    6.00
   8   0  -6    5.30    9.30
   7   0  -6   18.60    8.80
   7   0  -6    2.80    7.10
   6   0  -6    3.80    5.40
   6   0  -6    7.90    9.40
  -6   0   6   -1.40    6.30
   5   0  -6    3.30    5.90
   5   0  -6   -2.10    5.50
  -5   0   6   -4.50    6.10
   4   0  -6   66.99   13.40
   4   0  -6   28.00   10.50
  -4   0   6   89.99   16.50
  -4   0   6   68.19   14.70
  -4   0   6   55.49   15.30
   3   0  -6  212.38   22.40
  -3   0   6  278.47   27.40
  -3   0   6  248.98   25.50
  -3   0   6  242.08   28.70
   2   0  -6  162.28   10.30
   2   0  -6  167.18   18.90
  -2   0   6  130.09   18.80
  -2   0   6  183.08   20.50
  -2   0   6  182.88   21.60
   1   0  -6    2.80    4.00
   1   0  -6    2.80    2.30
  -1   0   6    1.20    1.50
  -1   0   6    4.30    1.90
  -1   0   6    4.00    4.70
  -1   0   6    8.60    5.70
  -1   0   6    6.90    4.30
  -1   0   6    0.00    3.70
   0   0  -6  353.26   23.10
   0   0  -6  370.06   20.90
   0   0  -6  340.37   18.30
   0   0  -6  359.46   14.70
   0   0   6  408.06   19.10
   0   0   6  412.26   22.90
   0   0   6  349.87   23.90
   0   0   6  365.86   25.20
   0   0   6  364.96   24.00
   0   0   6  372.36   17.30
  -1   0  -6   58.89    9.70
  -1   0  -6   72.69    7.70
  -1   0  -6   73.89    9.00
  -1   0  -6   60.09    8.00
   1   0   6   89.09   13.60
   1   0   6   47.50    6.60
   1   0   6   71.59   12.80
   1   0   6   55.99    9.90
   1   0   6   45.70    7.50
  -2   0  -6   19.30    6.90
  -2   0  -6   12.70    4.40
  -2   0  -6   12.60    5.20
   2   0   6    9.20    4.40
   2   0   6    6.00    4.90
   2   0   6    9.20    5.70
   2   0   6   13.20    4.70
  -3   0  -6  858.31   37.40
  -3   0  -6  858.01   38.70
  -3   0  -6  876.81   42.30
   3   0   6  832.62   44.80
   3   0   6  895.11   40.80
   3   0   6  892.91   39.70
  -4   0  -6  193.18   21.20
  -4   0  -6  209.98   21.10
  -4   0  -6  194.18   19.30
  -5   0  -6  165.48   20.40
  -5   0  -6  133.89   17.40
  -5   0  -6  114.89   18.00
  -6   0  -6    7.60    6.60
  -6   0  -6    4.90    5.10
  -7   0  -6    1.70    7.90
  -7   0  -6   -2.90    4.80
  -8   0  -6    4.90    7.80
  -8   0  -6   -3.30    5.80
   8  -1  -6   -3.10    6.40
   7  -1  -6    5.50    6.30
   7  -1  -6   16.80    8.70
   6  -1  -6   -5.20    3.60
   6  -1  -6    1.50    7.40
   6  -1  -6    1.50    6.20
  -6   1   6   -8.10    7.80
  -6   1   6   -0.50    5.20
   5  -1  -6   -0.80    5.80
   5  -1  -6    4.10    6.50
  -5   1   6   -9.80    5.20
   4  -1  -6  153.68   20.50
  -4   1   6  123.09   21.90
  -4   1   6  107.19   18.50
  -4   1   6  146.29   20.30
   3  -1  -6  104.99   15.30
  -3   1   6  130.19   21.40
  -3   1   6  133.49   17.60
  -3   1   6  118.19   18.60
   2  -1  -6  148.49   18.30
  -2   1   6  101.49   15.30
  -2   1   6  139.99   19.20
  -2   1   6  153.08   20.90
   1  -1  -6  283.67   21.00
   1  -1  -6  260.37   15.40
  -1   1   6  286.57   13.40
  -1   1   6  313.47   23.40
  -1   1   6  312.47   23.60
   0  -1  -6   16.60    5.20
   0  -1  -6   32.30    4.80
   0  -1  -6   27.90    5.20
   0  -1  -6   21.90    4.80
   0  -1  -6   24.40    7.50
   0   1   6   13.00    6.30
   0   1   6   25.70    8.40
   0   1   6   21.30    4.40
  -1  -1  -6    4.50    3.10
  -1  -1  -6    2.00    2.70
  -1  -1  -6    7.70    4.20
  -1  -1  -6    1.80    4.20
   1   1   6    0.20    4.00
   1   1   6   -0.20    3.90
   1   1   6    4.10    2.90
  -2  -1  -6    2.70    4.20
  -2  -1  -6    2.70    3.40
  -2  -1  -6    7.70    3.70
   2   1   6   -1.10    4.50
   2   1   6    6.80    4.90
   2   1   6   12.30    7.00
  -3  -1  -6    3.60    3.90
  -3  -1  -6    0.40    3.80
  -3  -1  -6    7.20    5.60
   3   1   6   -2.70    3.60
   3   1   6    2.00    5.10
  -4  -1  -6  207.58   20.70
  -4  -1  -6  156.48   19.60
  -4  -1  -6  135.99   19.90
  -5  -1  -6    3.50    6.40
  -5  -1  -6   16.00    6.80
  -5  -1  -6   23.40    9.60
  -6  -1  -6    2.80    6.20
  -6  -1  -6    6.90    6.70
  -6  -1  -6    7.80    7.80
  -7  -1  -6   -2.90    6.60
  -7  -1  -6   -6.40    5.30
  -8  -1  -6   -2.80    7.90
   8  -2  -6   -5.00    7.10
   7  -2  -6    2.10    6.00
   7  -2  -6   -1.40    5.70
   6  -2  -6    9.70    7.80
   6  -2  -6   -3.70    8.30
   6  -2  -6    7.60    6.90
  -6   2   6    4.60    9.40
  -6   2   6   18.60    7.80
   5  -2  -6   22.70    9.40
   5  -2  -6   28.70   10.40
  -5   2   6   18.30    9.00
   4  -2  -6  111.39   17.30
  -4   2   6   94.79   18.10
  -4   2   6   78.39   14.80
   3  -2  -6   10.70    6.40
  -3   2   6   28.20   10.00
  -3   2   6   47.30   11.70
   2  -2  -6   45.60   11.20
  -2   2   6   28.00    9.70
  -2   2   6   23.30    8.60
   1  -2  -6    7.20    3.80
   1  -2  -6   20.70    7.30
  -1   2   6    6.90    5.80
  -1   2   6    8.20    6.10
   0  -2  -6   12.40    6.20
   0  -2  -6    6.20    5.20
   0  -2  -6   21.30    6.00
   0   2   6   10.40    6.50
   0   2   6   23.60    8.40
  -1  -2  -6   21.40    6.00
  -1  -2  -6   12.40    5.40
  -1  -2  -6   11.70    6.10
  -1  -2  -6   16.70    4.70
   1   2   6   13.80    8.20
   1   2   6   17.30    4.90
   1   2   6    8.80    6.10
  -2  -2  -6   41.90    7.50
  -2  -2  -6   40.20   11.30
  -2  -2  -6   36.80    8.60
   2   2   6   37.80   11.70
  -3  -2  -6   16.10    6.30
  -3  -2  -6   -1.30    3.80
  -3  -2  -6    0.50    3.70
   3   2   6    4.80    7.40
  -4  -2  -6  316.57   24.30
  -4  -2  -6  356.36   24.30
   4   2   6  349.07   28.20
  -5  -2  -6   11.80    6.70
  -5  -2  -6    2.60    5.40
  -5  -2  -6    4.90    6.60
  -6  -2  -6   -2.30    6.10
  -6  -2  -6    5.40    7.00
  -6  -2  -6   16.30   10.50
  -7  -2  -6    2.30    8.40
  -7  -2  -6   -8.60    8.10
  -7  -2  -6    5.80    6.70
   8  -3  -6    0.70    7.70
   7  -3  -6  -11.00    5.90
  -7   3   6    7.30    8.30
   6  -3  -6   18.70   10.50
   6  -3  -6   26.40    9.60
   5  -3  -6    5.60    5.60
   5  -3  -6   11.40    8.00
  -5   3   6    5.80    9.00
   4  -3  -6    3.60    6.10
   4  -3  -6    4.00    5.40
  -4   3   6    2.30    6.90
   3  -3  -6   11.50    6.70
   3  -3  -6    0.80    3.90
  -3   3   6   10.50    6.30
  -3   3   6   -1.10    6.80
   2  -3  -6    3.50    5.00
   2  -3  -6   -3.70    4.10
  -2   3   6   -2.40    5.30
  -2   3   6    2.70    5.20
   1  -3  -6   50.39   10.20
   1  -3  -6   54.89   11.30
   1  -3  -6   64.29   13.40
  -1   3   6   49.60   12.10
  -1   3   6   62.19   15.10
   0  -3  -6  544.95   26.90
   0  -3  -6  528.35   29.20
   0  -3  -6  547.15   33.80
   0   3   6  544.65   36.60
  -1  -3  -6  169.98   17.50
  -1  -3  -6  118.69   18.90
  -1  -3  -6  148.29   14.20
   1   3   6  157.58   23.00
  -2  -3  -6  177.38   19.40
  -2  -3  -6  140.79   21.30
  -2  -3  -6  193.68   18.10
   2   3   6  174.28   24.90
  -3  -3  -6  177.18   23.70
  -3  -3  -6  222.58   20.80
  -3  -3  -6  237.58   24.00
   3   3   6  182.78   24.90
  -4  -3  -6    3.20    5.40
  -4  -3  -6    2.50    5.40
  -4  -3  -6   -3.30    6.10
   4   3   6   11.30   10.00
  -5  -3  -6    3.70    6.40
  -5  -3  -6    3.30    6.10
  -5  -3  -6    1.40    6.80
  -6  -3  -6    0.80    7.40
  -6  -3  -6   -2.40    7.20
  -6  -3  -6    0.70    7.40
  -7  -3  -6   -3.10    8.00
  -7  -3  -6   27.90   12.90
  -7  -3  -6   -2.60    9.50
   8  -4  -6    9.00   12.30
   7  -4  -6    3.00    8.20
   6  -4  -6    4.80    7.40
   5  -4  -6   12.70    9.00
   5  -4  -6    6.30    7.20
   4  -4  -6   22.60    9.50
   4  -4  -6   13.30    8.50
  -4   4   6    6.00    8.10
   3  -4  -6  122.89   20.40
   3  -4  -6   87.89   16.50
  -3   4   6  110.49   21.10
   2  -4  -6  211.18   25.10
   2  -4  -6  166.18   21.60
  -2   4   6  158.08   24.20
   1  -4  -6  693.23   38.90
   1  -4  -6  732.13   41.40
  -1   4   6  703.73   45.40
   0  -4  -6  132.59   15.70
   0  -4  -6  130.79   20.80
   0   4   6  109.39   19.90
  -1  -4  -6  141.29   17.20
  -1  -4  -6  137.49   21.30
   1   4   6  199.88   27.60
  -2  -4  -6    8.50    5.70
  -2  -4  -6    1.00    5.50
  -2  -4  -6    6.70    5.30
   2   4   6    5.30    8.80
  -3  -4  -6    7.60    6.00
  -3  -4  -6    9.90    6.40
  -3  -4  -6    3.60    5.80
   3   4   6   14.10    9.30
  -4  -4  -6   -0.30    5.20
  -4  -4  -6    2.90    5.50
  -4  -4  -6   -0.70    7.40
  -5  -4  -6   10.30    9.20
  -5  -4  -6   31.40   12.90
  -5  -4  -6    9.30    7.40
  -6  -4  -6    4.60    9.20
  -6  -4  -6   17.70   10.30
  -6  -4  -6    4.40    7.60
   7  -5  -6   10.90   11.60
   6  -5  -6   24.70   12.20
   5  -5  -6  111.19   22.10
   4  -5  -6    1.30    6.90
   4  -5  -6    3.40    7.10
   3  -5  -6    5.80    7.70
   3  -5  -6    5.90    7.50
   2  -5  -6  215.08   26.20
   2  -5  -6  196.38   25.30
  -2   5   6  172.38   31.60
   1  -5  -6   18.90    8.60
  -1   5   6   21.40   11.50
   0  -5  -6    0.80    4.00
   0  -5  -6   -3.50    6.20
  -1  -5  -6   76.99   17.00
  -1  -5  -6   74.19   13.30
  -2  -5  -6    7.80    6.10
  -2  -5  -6   14.70    9.60
  -2  -5  -6    0.90    4.90
  -3  -5  -6   19.10    8.10
  -3  -5  -6   12.50    7.40
  -3  -5  -6   41.30   13.40
  -4  -5  -6   17.10    8.50
  -4  -5  -6   43.30   14.60
  -4  -5  -6    0.20    7.60
  -5  -5  -6    9.40   12.60
  -5  -5  -6   15.30   10.00
  -5  -5  -6    4.90    8.20
   6  -6  -6   48.10   17.70
   5  -6  -6    0.90    8.50
   4  -6  -6   -7.90    6.60
   3  -6  -6    4.80    6.80
   3  -6  -6    5.70    8.60
   2  -6  -6    4.30    7.10
   1  -6  -6   13.60    9.50
   0  -6  -6    1.80    5.20
   0  -6  -6   -6.40    6.80
  -1  -6  -6    2.40    6.50
  -1  -6  -6   -5.20    5.40
  -2  -6  -6   70.29   15.60
  -2  -6  -6   38.20   14.50
  -3  -6  -6   32.50   13.80
  -3  -6  -6   27.00   10.20
  -3  -6  -6   -0.30    6.50
  -4  -6  -6   -1.50    6.20
  -4  -6  -6    4.30    9.30
  -4  -6  -6    0.10    6.80
   5  -7  -6    3.60    8.00
   4  -7  -6    8.10    9.60
   3  -7  -6   -7.60    7.60
   2  -7  -6    2.00    7.80
   1  -7  -6   62.99   16.20
   0  -7  -6   16.50    8.30
   0  -7  -6   -1.70    8.50
  -1  -7  -6   73.19   19.70
  -1  -7  -6   31.70   11.10
  -2  -7  -6   12.70   10.50
  -2  -7  -6   -2.30    6.30
  -3  -7  -6    0.40    7.50
  -3  -7  -6    8.80   11.10
   1  -8  -6   33.00   14.10
   0  -8  -6   -3.70    8.10
   0  -8  -6    2.70    6.70
  -1  -8  -6    8.30    8.20
  -1  -8  -6    1.30    9.90
   0 -11   7   -1.70   11.60
   0 -11   7    5.60    8.90
   1 -11   7   17.70   11.90
   1 -11   7   28.80   11.80
   2 -11   7   -5.60   10.00
   2 -11   7    9.70    9.10
  -3 -10   7    5.70    9.30
  -2 -10   7    8.60   14.90
  -1 -10   7   29.60   14.00
   0 -10   7   -2.00    6.90
   0 -10   7    1.30    6.20
   1 -10   7    0.70    9.00
   1 -10   7   13.40    8.80
   2 -10   7    9.60    8.10
   2 -10   7    6.00    9.20
   3 -10   7   -6.00    7.80
   3 -10   7   10.10    9.10
   4 -10   7    3.70   11.50
   4 -10   7   12.80    9.60
   5 -10   7    8.20   12.70
   5 -10   7   -1.60    7.20
  -3  -9   7    6.70    7.80
  -2  -9   7    2.20    7.50
  -1  -9   7   63.89   18.20
   0  -9   7   24.40   11.50
   0  -9   7   35.10   10.60
   1  -9   7   -0.10    7.10
   1  -9   7    6.00    6.70
   2  -9   7   13.30    9.40
   2  -9   7   -2.80    6.40
   3  -9   7    1.40    9.00
   3  -9   7    0.10    5.70
   4  -9   7    0.20    8.00
   4  -9   7    0.60    5.70
   5  -9   7    8.70   12.60
   6  -9   7   18.50   13.20
  -3  -8   7    3.70    8.00
  -3  -8   7   -5.30    5.20
   2   8  -7   12.90    7.60
  -2  -8   7    2.50    6.60
  -1  -8   7    5.30    6.80
   0  -8   7   24.20    8.80
   0  -8   7   27.00   10.70
   1  -8   7   -2.40    4.20
   1  -8   7    0.60    5.70
   2  -8   7   -1.50    5.20
   2  -8   7   -1.10    5.50
   3  -8   7   12.90    9.10
   3  -8   7    2.90    6.20
   4  -8   7    0.10    7.20
   5  -8   7   22.20   12.10
   6  -8   7   19.50   13.60
   7  -8   7   -4.20   11.00
   6   7  -7   28.50   13.30
   5   7  -7   45.40   14.90
   4   7  -7   10.80    7.20
  -4  -7   7    1.10    6.80
   3   7  -7    1.60    5.60
  -3  -7   7    3.20    6.80
   2   7  -7  116.69   18.50
   2   7  -7  121.89   22.70
  -2  -7   7  107.09   20.30
   1   7  -7   83.89   14.50
  -1  -7   7   98.79   19.00
   0  -7   7   19.70    7.20
   0  -7   7   10.70    7.50
   1  -7   7   73.89   12.20
   1  -7   7   67.89   17.70
   2  -7   7    6.60    6.70
   2  -7   7    8.00    4.90
   3  -7   7   22.90    9.70
  -4   7  -7   33.80    9.80
   4  -7   7   23.30   11.00
  -5   7  -7    4.70    6.20
  -5   7  -7   -2.60    5.00
   5  -7   7   10.30   10.10
  -6   7  -7   14.10    8.00
  -6   7  -7   15.00    8.70
   6  -7   7   -4.20    7.50
  -7   7  -7   -0.40    7.50
   7  -7   7    3.60   10.00
   7   6  -7   10.40    9.50
   6   6  -7   -1.80    6.80
   5   6  -7   22.30   11.00
  -5  -6   7   21.00   11.80
   4   6  -7   11.80    8.00
  -4  -6   7   14.30    8.70
   3   6  -7  189.28   29.50
   3   6  -7  206.08   25.40
  -3  -6   7  232.48   28.80
   2   6  -7  204.78   23.50
   2   6  -7  209.78   28.10
  -2  -6   7  241.98   27.90
   1   6  -7    1.80    5.10
   1   6  -7    7.20    6.70
  -1  -6   7    3.90    6.50
  -1  -6   7    3.80    6.90
   0   6  -7   57.99   12.80
   0  -6   7   92.19   15.60
   0  -6   7   98.19   17.00
   1  -6   7    1.70    4.30
   1  -6   7   -0.60    4.00
   2  -6   7   11.90    7.90
  -3   6  -7   -2.50    3.70
   3  -6   7    8.10    6.10
  -4   6  -7   17.80    7.40
  -4   6  -7    5.80    5.00
   4  -6   7   22.30   10.40
  -5   6  -7    0.20    6.20
  -5   6  -7   -2.40    4.90
   5  -6   7    2.60    8.20
  -6   6  -7    8.40    7.20
  -6   6  -7   -2.50    6.70
   6  -6   7   -0.90    8.30
  -7   6  -7   -0.60    6.20
   7   5  -7   -1.90    7.80
   6   5  -7    1.20    7.30
   5   5  -7   -4.00    5.90
  -5  -5   7    3.60    6.90
   4   5  -7   36.30   14.10
   4   5  -7   -2.40    5.40
  -4  -5   7   12.20    7.80
  -4  -5   7    9.20    8.90
   3   5  -7   29.90   10.20
   3   5  -7   14.00    8.70
  -3  -5   7    3.70    4.40
  -3  -5   7   33.10   12.40
   2   5  -7    4.70    7.50
   2   5  -7    7.00    5.40
  -2  -5   7    1.30    6.10
  -2  -5   7    0.80    5.00
   1   5  -7    6.20    4.40
   1   5  -7   -0.90    4.10
   1   5  -7    6.00    6.80
  -1  -5   7    6.20    6.10
  -1  -5   7    4.50    5.80
  -1  -5   7    1.30    4.40
   0   5  -7   16.70    7.50
   0   5  -7    7.20    4.40
   0  -5   7   -1.50    4.70
   0  -5   7   11.00    5.80
   0  -5   7    4.20    4.60
   1  -5   7   -1.10    4.30
   1  -5   7    8.40    6.10
   2  -5   7    4.60    5.30
  -3   5  -7   25.80    8.90
   3  -5   7   10.80    7.20
  -4   5  -7   23.90    8.30
   4  -5   7   44.80   12.40
  -5   5  -7   71.39   14.30
   5  -5   7   73.59   17.70
  -6   5  -7    1.00    6.70
  -7   5  -7   11.00    9.00
  -8   5  -7   -3.20    8.40
   8   4  -7   13.00   11.30
   7   4  -7    8.40    8.20
   6   4  -7   13.10    8.20
   5   4  -7    4.10    7.10
  -5  -4   7    0.00    5.80
   4   4  -7   -0.60    5.90
   4   4  -7    2.10    6.20
  -4  -4   7    0.00    7.70
  -4  -4   7    2.50    5.10
   3   4  -7   19.40    9.10
   3   4  -7   24.20    8.90
  -3  -4   7   33.50   10.60
  -3  -4   7   32.80   11.00
   2   4  -7    6.50    4.70
   2   4  -7   13.70    8.50
  -2  -4   7    7.70    6.90
  -2  -4   7   23.60    8.90
  -2  -4   7    7.10    6.20
   1   4  -7   -3.80    2.80
   1   4  -7   -0.80    2.50
   1   4  -7   -0.80    4.50
  -1  -4   7    2.20    4.60
  -1  -4   7    1.20    3.70
  -1  -4   7   -4.10    2.60
   0   4  -7    0.10    4.10
   0   4  -7   -2.20    4.00
   0   4  -7    1.70    2.80
   0  -4   7   -2.20    3.50
   0  -4   7   -0.20    3.70
   0  -4   7    0.00    4.20
  -1   4  -7   16.20    6.10
  -1   4  -7   11.70    5.90
  -1   4  -7    6.10    4.10
   1  -4   7    7.70    4.80
   1  -4   7    6.50    4.10
   1  -4   7   10.20    6.50
   1  -4   7    9.40    5.20
  -2   4  -7   11.00    5.00
   2  -4   7   14.50    7.10
   2  -4   7   13.10    6.40
  -3   4  -7   76.59   12.50
   3  -4   7   53.59   12.60
  -4   4  -7   21.00    8.00
   4  -4   7    1.90    5.80
  -5   4  -7   29.40    9.10
  -5   4  -7   28.20    8.50
   5  -4   7   14.00    7.80
  -6   4  -7   39.80   11.60
  -6   4  -7   52.49   13.40
  -7   4  -7    0.10    6.10
  -7   4  -7   -0.50    6.50
  -8   4  -7    6.60    9.90
  -8   4  -7    1.90    8.20
   8   3  -7    8.70    9.90
   7   3  -7   12.20   10.50
   6   3  -7   20.10    9.50
   5   3  -7    3.10    7.00
   5   3  -7   -2.60    4.70
  -5  -3   7    4.30    8.80
   4   3  -7    3.80    6.10
   4   3  -7    1.60    7.50
  -4  -3   7   13.90    8.90
  -4  -3   7    6.50    5.60
   3   3  -7  246.78   25.10
   3   3  -7  283.47   30.70
  -3  -3   7  257.37   27.60
  -3  -3   7  240.88   26.90
   2   3  -7   20.10    7.50
   2   3  -7    9.50    6.40
  -2  -3   7    7.50    4.90
  -2  -3   7   13.40    6.70
  -2  -3   7   18.30    7.50
   1   3  -7    3.40    2.80
   1   3  -7   -0.70    3.50
   1   3  -7    1.80    5.10
  -1  -3   7   -1.30    3.70
  -1  -3   7   -1.50    4.40
  -1  -3   7    1.90    3.50
   0   3  -7   57.19   11.20
   0   3  -7   53.09   10.20
   0   3  -7   49.20    7.80
   0  -3   7   34.60    8.60
   0  -3   7   46.00   10.20
   0  -3   7   63.19   12.10
  -1   3  -7    0.60    3.30
  -1   3  -7    5.60    4.00
  -1   3  -7   -2.50    2.90
  -1   3  -7    2.60    3.30
   1  -3   7   -0.40    3.60
   1  -3   7   -2.30    2.20
   1  -3   7    8.60    4.50
   1  -3   7    0.30    3.90
  -2   3  -7   64.89    9.90
  -2   3  -7   35.20    8.00
   2  -3   7   40.90    9.40
   2  -3   7   44.00   10.20
  -3   3  -7  878.31   39.50
  -3   3  -7  974.60   41.10
   3  -3   7  895.11   44.60
   3  -3   7  962.30   46.50
  -4   3  -7  313.97   21.10
  -4   3  -7  300.37   21.70
   4  -3   7  268.77   23.10
  -5   3  -7   59.19   12.90
  -5   3  -7   41.60    9.90
  -6   3  -7   -0.80    5.10
  -6   3  -7    9.60    7.60
  -7   3  -7    1.10    4.80
  -7   3  -7    3.60    7.30
  -8   3  -7    1.90    8.00
  -8   3  -7    7.70    9.00
   8   2  -7    8.20    9.40
   7   2  -7   13.40    9.70
   6   2  -7   -2.30    5.50
   5   2  -7   43.80   12.60
   5   2  -7   94.39   20.40
  -5  -2   7   58.49   15.60
   4   2  -7   34.30   12.50
   4   2  -7   20.80    9.10
  -4  -2   7   63.99   15.90
   3   2  -7   12.50    7.30
   3   2  -7    6.50    7.00
  -3  -2   7   21.70    9.00
  -3  -2   7   18.00    8.80
  -3  -2   7   40.00   11.00
   2   2  -7    5.00    5.80
   2   2  -7    0.00    4.20
  -2  -2   7   -3.00    5.00
  -2  -2   7   -0.30    4.00
  -2  -2   7    4.70    6.00
  -2  -2   7    1.60    3.80
   1   2  -7  316.17   23.80
   1   2  -7  287.87   16.30
   1   2  -7  235.98   23.80
  -1  -2   7  295.77   22.50
  -1  -2   7  289.77   22.80
  -1  -2   7  282.07   12.10
  -1  -2   7  302.77   24.70
  -1  -2   7  278.67   21.50
   0   2  -7   98.09   13.90
   0   2  -7   69.89    8.90
   0  -2   7  101.19   15.20
   0  -2   7  105.79   15.10
   0  -2   7  106.69   15.70
   0  -2   7   93.79   14.50
  -1   2  -7   25.20    6.40
  -1   2  -7   12.70    5.30
  -1   2  -7    6.10    5.10
   1  -2   7   38.30   10.10
   1  -2   7   22.60    6.40
   1  -2   7    8.80    3.50
   1  -2   7    9.80    5.80
   1  -2   7   19.40    6.80
  -2   2  -7  185.98   19.20
  -2   2  -7  183.08   12.80
  -2   2  -7  182.28   13.30
   2  -2   7  166.18   19.60
   2  -2   7  156.08   16.30
   2  -2   7  204.08   21.00
  -3   2  -7  409.66   22.60
  -3   2  -7  396.16   23.60
  -3   2  -7  430.96   25.50
   3  -2   7  387.46   25.60
   3  -2   7  422.86   28.30
   3  -2   7  399.16   26.90
  -4   2  -7  165.28   18.10
  -4   2  -7  132.19   16.30
   4  -2   7  157.18   20.50
  -5   2  -7   26.50    8.60
  -5   2  -7   11.30    6.70
  -6   2  -7   11.70    8.30
  -6   2  -7   14.30    7.40
  -7   2  -7   -1.20    6.10
  -7   2  -7   -4.40    6.70
  -8   2  -7    8.20    9.40
  -8   2  -7   -1.20    6.40
   8   1  -7    8.20    9.60
   8   1  -7    3.10    9.10
   7   1  -7   10.10    8.50
   6   1  -7   -3.20    6.30
   5   1  -7    0.20    5.70
   5   1  -7   -6.60    7.10
  -5  -1   7    5.60    7.60
   4   1  -7   -3.20    3.60
   4   1  -7   -1.70    5.60
  -4  -1   7    0.60    6.70
   3   1  -7    3.90    5.60
   3   1  -7    3.10    5.20
  -3  -1   7    8.50    7.50
  -3  -1   7    3.70    6.40
   2   1  -7   57.19   11.80
  -2  -1   7   81.89   16.30
  -2  -1   7   84.19   14.60
  -2  -1   7   72.19   13.10
  -2  -1   7   87.39   15.80
   1   1  -7  214.78   22.00
   1   1  -7  171.18   12.80
  -1  -1   7  217.78   25.00
  -1  -1   7  192.28   21.10
  -1  -1   7  194.58   21.60
  -1  -1   7  235.28   24.90
  -1  -1   7  206.28    9.90
   0   1  -7   -2.50    2.70
   0   1  -7    0.20    2.30
   0  -1   7   -2.70    4.20
   0  -1   7    0.70    4.20
   0  -1   7    0.70    4.20
   0  -1   7   -0.80    3.60
  -1   1  -7   16.50    5.90
  -1   1  -7   28.50    6.60
  -1   1  -7   36.10    5.60
   1  -1   7   25.90    5.60
   1  -1   7   18.40    6.40
   1  -1   7   30.50    7.90
   1  -1   7   21.50    7.80
   1  -1   7   29.20    8.00
  -2   1  -7  343.77   18.70
  -2   1  -7  360.86   19.90
  -2   1  -7  301.87   22.20
   2  -1   7  325.07   25.40
   2  -1   7  373.36   23.30
   2  -1   7  356.06   22.80
  -3   1  -7 1418.46   56.49
  -3   1  -7 1506.05   61.19
  -3   1  -7 1456.45   55.19
   3  -1   7 1386.06   64.39
  -4   1  -7  149.79   19.40
  -4   1  -7  141.09   16.20
  -4   1  -7  165.78   19.80
  -5   1  -7   91.59   15.50
  -5   1  -7   93.39   14.00
  -6   1  -7   20.90    8.90
  -6   1  -7   22.10    8.50
  -7   1  -7    9.20    8.30
  -7   1  -7    2.10    7.20
  -8   1  -7   -1.00    8.40
  -8   1  -7    3.10    8.40
   8   0  -7    6.90    8.20
   8   0  -7    5.30   10.10
   7   0  -7    6.60    8.10
   6   0  -7    0.60    5.90
   5   0  -7    5.60    6.70
   5   0  -7   16.60    9.60
  -5   0   7   19.60   10.50
   4   0  -7   64.29   14.00
  -4   0   7   67.79   15.20
   3   0  -7    5.10    4.80
  -3   0   7   -2.70    5.60
  -3   0   7    5.90    6.40
   2   0  -7  295.87   27.20
  -2   0   7  252.87   26.80
  -2   0   7  199.18   23.30
  -2   0   7  195.08   25.30
   1   0  -7   50.79    7.90
   1   0  -7   28.30    8.90
  -1   0   7   64.49   13.70
  -1   0   7   46.20   11.10
  -1   0   7   58.49    5.80
  -1   0   7   61.99   11.90
  -1   0   7   70.19   14.40
   0   0  -7    3.00    2.70
   0   0  -7    5.70    4.80
   0   0   7    1.50    5.00
   0   0   7    7.70    4.50
   0   0   7    3.30    5.40
   0   0   7    4.00    5.60
  -1   0  -7  989.00   45.90
  -1   0  -7  978.60   43.50
   1   0   7 1076.09   51.69
   1   0   7 1006.10   43.90
   1   0   7 1035.00   47.10
   1   0   7 1012.00   39.40
   1   0   7 1024.60   48.20
  -2   0  -7  257.47   16.90
  -2   0  -7  262.57   25.20
  -2   0  -7  241.08   15.40
   2   0   7  209.58   24.80
   2   0   7  249.97   20.40
  -3   0  -7  148.79   19.60
  -3   0  -7  149.88   15.20
  -3   0  -7  144.29   16.80
   3   0   7  135.89   21.20
  -4   0  -7   -1.90    4.60
  -4   0  -7   -8.90    3.90
  -4   0  -7    1.30    4.00
  -5   0  -7   13.20    8.00
  -5   0  -7    8.90    6.50
  -5   0  -7   23.30    9.60
  -6   0  -7   -2.00    5.80
  -6   0  -7   -5.60    4.50
  -7   0  -7   -3.20    6.70
  -7   0  -7   -1.10    6.50
  -8   0  -7    5.30    8.10
   8  -1  -7   -0.30   10.10
   8  -1  -7   17.50   10.80
   7  -1  -7    3.60    8.10
   7  -1  -7   -5.40    5.60
   6  -1  -7   18.80    9.70
   6  -1  -7   14.00    8.00
   5  -1  -7   25.10   10.00
  -5   1   7    9.70   10.40
   4  -1  -7   20.50    8.00
  -4   1   7   45.50   13.90
   3  -1  -7   27.40    9.30
  -3   1   7   26.20   10.50
  -3   1   7   13.70    8.80
   2  -1  -7   21.60    9.20
  -2   1   7   27.60    9.30
  -2   1   7    8.60    6.80
  -2   1   7    9.40    7.30
   1  -1  -7   -3.10    3.90
   1  -1  -7    6.70    3.50
  -1   1   7    9.40    6.80
  -1   1   7    3.30    4.90
   0  -1  -7    4.30    5.40
   0   1   7    2.10    6.40
   0   1   7    3.50    5.50
  -1  -1  -7    1.50    3.90
  -1  -1  -7    7.00    5.70
   1   1   7   -5.40    4.80
  -2  -1  -7  144.69   19.50
  -2  -1  -7  128.79   14.70
  -2  -1  -7  144.59   14.10
   2   1   7  103.59   17.40
  -3  -1  -7   24.30    9.70
  -3  -1  -7   33.30    8.50
  -3  -1  -7   42.70    8.70
   3   1   7   42.00   11.00
  -4  -1  -7   11.50    6.20
  -4  -1  -7    4.10    6.60
  -4  -1  -7   11.10    6.60
  -5  -1  -7   -2.00    5.30
  -5  -1  -7    5.30    7.00
  -5  -1  -7   12.30    7.80
  -6  -1  -7   -0.10    6.80
  -6  -1  -7   -5.20    5.90
  -6  -1  -7   -3.00    7.00
  -7  -1  -7    9.80    8.80
  -7  -1  -7   14.70    9.30
   8  -2  -7    1.50   10.30
   7  -2  -7    5.50    8.10
   7  -2  -7    8.90    7.20
   6  -2  -7   13.90    9.00
   6  -2  -7   20.50   10.70
   5  -2  -7    5.30    6.60
   5  -2  -7    4.90    6.20
   4  -2  -7    6.40    7.30
  -4   2   7    6.50    8.90
   3  -2  -7   13.70    8.10
  -3   2   7   24.10   11.30
   2  -2  -7   -3.80    4.40
  -2   2   7    1.00    6.10
   1  -2  -7   16.30    7.70
  -1   2   7   25.30   10.50
   0  -2  -7  106.49   16.60
   0   2   7  134.39   22.10
  -1  -2  -7   17.30    6.10
  -1  -2  -7    2.10    4.20
   1   2   7   14.00    9.70
  -2  -2  -7  547.45   29.30
  -2  -2  -7  516.85   35.30
  -2  -2  -7  539.75   27.80
   2   2   7  607.14   38.20
  -3  -2  -7    6.90    6.20
  -3  -2  -7   -3.80    4.40
  -3  -2  -7   10.30    8.40
   3   2   7    9.30    7.40
  -4  -2  -7   13.60    7.10
  -4  -2  -7   16.40    7.50
  -4  -2  -7    2.90    6.00
  -5  -2  -7   -2.20    5.50
  -5  -2  -7    2.80    5.90
  -5  -2  -7   -0.90    7.20
  -6  -2  -7    6.70    7.50
  -6  -2  -7    0.90    7.30
  -6  -2  -7   -1.80    5.90
  -7  -2  -7   16.00   10.20
  -7  -2  -7   -3.20    7.60
  -7  -2  -7   14.70   11.20
   8  -3  -7    9.00   11.50
   7  -3  -7   -5.60    6.60
  -7   3   7   -0.80    8.00
   6  -3  -7   10.80    8.00
   6  -3  -7    8.70    8.30
   5  -3  -7    4.50    6.80
   5  -3  -7   10.40    8.10
   4  -3  -7    6.10    7.30
   4  -3  -7   -1.70    5.10
  -4   3   7    1.70    8.20
   3  -3  -7   16.30    9.20
   3  -3  -7   13.70    8.30
  -3   3   7    4.70    7.40
   2  -3  -7  275.07   29.10
   2  -3  -7  287.07   28.60
  -2   3   7  205.88   28.70
   1  -3  -7   81.49   14.20
   1  -3  -7  104.39   17.50
  -1   3   7   69.09   16.00
   0  -3  -7   73.19   15.80
   0   3   7   99.09   20.00
  -1  -3  -7  201.78   25.30
  -1  -3  -7  212.58   20.10
   1   3   7  162.18   24.10
  -2  -3  -7    5.80    6.70
  -2  -3  -7   -2.90    4.20
   2   3   7   -0.90    6.20
  -3  -3  -7    5.00    5.80
  -3  -3  -7   27.60    8.30
  -3  -3  -7    6.20    7.70
   3   3   7   36.50   13.80
  -4  -3  -7    3.90    6.00
  -4  -3  -7   22.20    9.90
  -4  -3  -7   -2.90    6.40
  -5  -3  -7   11.50    9.00
  -5  -3  -7    9.00    8.10
  -5  -3  -7    2.20    7.70
  -6  -3  -7   14.40    9.00
  -6  -3  -7   25.10   11.80
  -6  -3  -7   16.90   12.90
   7  -4  -7    2.60    8.80
   6  -4  -7   11.70   11.30
   5  -4  -7   23.90   10.90
   5  -4  -7   17.30    9.90
   4  -4  -7   12.20    8.80
   4  -4  -7   28.60   11.90
   3  -4  -7  268.87   32.00
   3  -4  -7  234.98   28.20
   2  -4  -7  127.29   20.90
   2  -4  -7  139.29   21.10
  -2   4   7  141.59   27.20
   1  -4  -7  290.67   30.90
  -1   4   7  190.68   28.60
   0  -4  -7   -3.30    5.70
   0   4   7   11.80    9.60
  -1  -4  -7    9.80    5.70
  -1  -4  -7    1.20    6.50
   1   4   7    1.80    8.80
  -2  -4  -7    6.50    5.50
  -2  -4  -7    6.40    7.50
  -3  -4  -7    5.70    6.10
  -3  -4  -7   21.60    9.70
  -4  -4  -7   54.99   15.90
  -4  -4  -7   12.20    7.90
  -4  -4  -7   43.80   11.80
  -5  -4  -7   -1.10    7.20
  -5  -4  -7    1.60    8.60
  -5  -4  -7    2.60    8.60
   6  -5  -7    2.50   10.70
   5  -5  -7    7.00    9.20
   4  -5  -7   61.19   16.10
   4  -5  -7   53.99   14.00
   3  -5  -7   37.70   12.60
   3  -5  -7   17.10    9.10
   2  -5  -7   -5.10    5.70
   2  -5  -7    9.90    7.20
   1  -5  -7   28.30   11.10
   0  -5  -7    3.80    6.10
  -1  -5  -7   10.00    8.60
  -1  -5  -7   14.10    8.20
  -2  -5  -7    9.70    9.40
  -2  -5  -7    1.10    5.50
  -3  -5  -7   15.00   10.60
  -3  -5  -7    5.50    7.10
  -4  -5  -7   -0.20    6.50
  -4  -5  -7    2.10    7.40
  -5  -5  -7   15.20   10.90
  -5  -5  -7    6.50    8.60
  -5  -5  -7    5.10    9.40
   6  -6  -7   -5.60   10.30
   5  -6  -7    6.30   11.80
   4  -6  -7   -3.90    8.00
   3  -6  -7   -6.20    7.10
   3  -6  -7    0.10    7.50
   2  -6  -7   12.20    9.00
   1  -6  -7    6.90    9.00
   0  -6  -7   53.09   15.40
  -1  -6  -7   20.30   11.40
  -2  -6  -7   13.30   10.60
  -2  -6  -7   -4.60    6.40
  -3  -6  -7    0.30    6.60
  -3  -6  -7   14.00   12.30
   4  -7  -7   12.70   11.80
   2  -7  -7   -2.10    9.10
   1  -7  -7   29.60   13.40
   0  -7  -7   -4.20    9.10
  -1  -7  -7    3.80    9.30
  -2  -7  -7   21.40   13.50
  -2  -7  -7   25.70   11.50
  -2 -10   8   13.00   12.20
  -1 -10   8   -0.30    8.80
   0 -10   8   10.40   10.50
   1 -10   8   -2.60    9.80
   2 -10   8   14.70    8.90
   2 -10   8    9.60   10.00
   3 -10   8   -3.00    9.20
   3 -10   8   -4.30    6.90
   4 -10   8   -0.40    8.70
   4 -10   8   13.20   12.50
   4   9  -8   -0.60    7.60
   3   9  -8    5.90    9.20
  -3  -9   8   10.30   10.40
  -2  -9   8   -0.20    7.70
  -1  -9   8    1.10    7.80
   0  -9   8    2.70    7.60
   1  -9   8    3.30    8.20
   2  -9   8    0.90    6.70
   2  -9   8    3.20    6.70
   3  -9   8    3.00    7.60
   3  -9   8    7.20    8.40
   4  -9   8   39.70   12.50
   4  -9   8   21.40   11.60
   5  -9   8   -7.60    8.70
   5   8  -8   -2.30    7.40
   4   8  -8   -2.20    7.30
  -4  -8   8    0.80    8.60
   3   8  -8   -2.40    7.40
  -3  -8   8   -1.90    7.50
   2   8  -8   15.00    8.30
  -2  -8   8   24.40   11.90
  -1  -8   8   -0.50    5.20
   0  -8   8    2.50    6.00
   1  -8   8   -3.00    4.80
   2  -8   8    0.70    5.10
   2  -8   8   -3.80    6.10
   3  -8   8   28.40    9.30
   3  -8   8   13.00    8.80
   4  -8   8   12.50   11.30
   5  -8   8   -5.10    7.40
   6  -8   8    9.80   11.10
   6   7  -8   14.60   10.60
   5   7  -8   -6.70    6.70
   4   7  -8    2.00    6.90
  -4  -7   8   36.30   13.10
   3   7  -8   27.80   10.30
  -3  -7   8   56.59   16.80
   2   7  -8   10.10    7.30
   2   7  -8   43.40   15.10
  -2  -7   8   12.40    7.80
  -1  -7   8   51.49   15.00
   0  -7   8   -3.40    5.10
   1  -7   8   26.90   12.40
   2  -7   8   24.90   12.30
   2  -7   8   16.20    7.30
   3  -7   8   11.00    8.30
   4  -7   8   -9.00    6.40
  -5   7  -8   15.40    9.10
   5  -7   8    8.90    9.60
  -6   7  -8   12.40    9.20
   6  -7   8   -4.10    8.00
  -7   7  -8   -3.30    8.00
   6   6  -8    2.20    7.80
   5   6  -8   37.30   12.70
  -5  -6   8   27.30   11.50
   4   6  -8   68.29   15.20
  -4  -6   8   44.20   13.70
   3   6  -8   11.40    8.70
   3   6  -8   10.30   14.40
  -3  -6   8   10.30    9.40
  -3  -6   8    7.80    7.30
   2   6  -8   21.70    9.00
   2   6  -8   16.90   11.30
  -2  -6   8   42.90   13.70
  -2  -6   8   22.30   10.50
   1   6  -8   -1.00    7.20
   1   6  -8   -1.30    4.60
  -1  -6   8    1.60    6.00
  -1  -6   8    7.50    7.20
   0  -6   8    0.10    4.20
   0  -6   8   17.10   12.60
   1  -6   8   -5.60    4.30
   2  -6   8   35.70   12.00
   3  -6   8    7.30    7.60
  -4   6  -8    9.30    6.30
   4  -6   8   -3.50    5.40
  -5   6  -8   14.90    8.80
   5  -6   8   22.50   11.60
  -6   6  -8    6.00    8.80
  -7   6  -8    6.20    8.10
   7   5  -8  -11.50    7.40
   6   5  -8    5.40    7.90
   5   5  -8   -2.10    5.50
  -5  -5   8   31.50   12.20
   4   5  -8   -4.50    5.30
  -4  -5   8    0.30    6.00
   3   5  -8    1.00    5.30
   3   5  -8    5.80    9.30
  -3  -5   8    2.90    6.70
  -3  -5   8    2.30    5.40
   2   5  -8   -0.50    5.20
   2   5  -8   12.00    8.80
  -2  -5   8    6.60    6.70
  -2  -5   8   15.30    8.80
   1   5  -8    1.90    6.10
   1   5  -8    7.00    5.10
  -1  -5   8    8.40    6.50
  -1  -5   8   11.10    7.80
   0   5  -8   -1.60    6.00
   0   5  -8   -0.50    4.30
   0  -5   8    0.10    4.40
   0  -5   8    9.00    6.00
   0  -5   8   -2.50    4.80
   1  -5   8   21.50    8.50
   1  -5   8    3.60    5.40
   2  -5   8   51.69   14.10
  -3   5  -8  108.69   15.60
   3  -5   8   87.79   17.70
  -4   5  -8   -2.60    5.20
   4  -5   8    5.60    7.90
  -5   5  -8   13.40    8.60
   5  -5   8   15.00    8.30
  -6   5  -8    7.50    7.40
  -7   5  -8   17.70   10.40
   7   4  -8    3.60    9.90
   6   4  -8   -4.70    5.10
   5   4  -8   -1.80    5.90
  -5  -4   8   -0.30    6.90
   4   4  -8   -0.10    8.00
   4   4  -8    4.40    5.90
  -4  -4   8    1.60    7.40
  -4  -4   8   15.80    8.00
   3   4  -8    7.20    7.70
   3   4  -8   11.70    7.60
  -3  -4   8    3.00    6.90
  -3  -4   8   -2.60    5.80
   2   4  -8   -1.10    4.30
   2   4  -8    5.10    6.40
  -2  -4   8   12.20    6.70
  -2  -4   8   -1.10    3.90
   1   4  -8   13.50    7.20
   1   4  -8    5.50    4.20
   1   4  -8    0.20    4.20
  -1  -4   8   -0.70    5.00
  -1  -4   8    0.40    4.10
   0   4  -8    0.10    5.70
   0   4  -8    1.30    4.10
   0  -4   8    2.50    4.90
   0  -4   8   -0.40    4.30
   0  -4   8    7.50    5.70
  -1   4  -8   18.30    6.60
   1  -4   8   21.10    6.70
   1  -4   8   26.80    9.50
   2  -4   8    4.20    4.60
   2  -4   8   -0.20    5.30
  -3   4  -8   71.09   12.10
   3  -4   8   68.59   14.40
  -4   4  -8   78.59   13.60
   4  -4   8   79.19   15.80
  -5   4  -8   -3.80    4.90
  -5   4  -8   -5.10    4.40
  -6   4  -8   -1.30    6.50
  -6   4  -8   -1.90    6.20
  -7   4  -8   -1.80    6.90
  -7   4  -8   -3.60    6.80
   7   3  -8   -9.20    6.50
   6   3  -8   -0.50    6.40
   5   3  -8   46.30   13.30
   4   3  -8   -2.30    5.70
   4   3  -8   -0.50    6.20
  -4  -3   8   -0.50    7.70
  -4  -3   8   -2.80    3.60
   3   3  -8    0.80    5.30
   3   3  -8    5.10    6.10
  -3  -3   8    2.80    5.20
  -3  -3   8   -3.90    5.40
   2   3  -8    4.10    6.00
   2   3  -8    3.10    4.90
  -2  -3   8    0.20    4.10
  -2  -3   8   -0.20    5.30
   1   3  -8    5.40    3.80
   1   3  -8    1.30    3.80
   1   3  -8    6.80    5.80
  -1  -3   8   -0.50    4.00
  -1  -3   8   -1.00    4.90
   0   3  -8   14.50    6.80
   0   3  -8   17.90    7.20
   0  -3   8   26.20    8.80
   0  -3   8   19.40    8.30
   0  -3   8    6.70    5.90
  -1   3  -8  703.73   37.30
  -1   3  -8  809.72   40.40
  -1   3  -8  881.81   55.99
   1  -3   8  773.52   42.20
   1  -3   8  742.43   40.90
   1  -3   8  801.72   38.20
  -2   3  -8  438.96   26.90
   2  -3   8  476.15   31.00
   2  -3   8  472.55   30.70
  -3   3  -8  158.18   16.90
  -3   3  -8  153.18   16.00
   3  -3   8  152.28   20.10
   3  -3   8  186.08   23.20
  -4   3  -8    2.00    4.60
  -4   3  -8    3.50    5.40
  -5   3  -8    4.50    5.80
  -5   3  -8   -5.20    4.60
  -6   3  -8   -6.20    5.60
  -6   3  -8   -5.10    6.30
  -7   3  -8   -7.40    7.30
  -7   3  -8   -1.90    7.60
   8   2  -8   -5.10    8.40
   7   2  -8    1.70    8.80
   6   2  -8    2.00    8.00
   5   2  -8   15.20    9.40
   4   2  -8   -1.40    5.60
   4   2  -8   -3.40    6.60
  -4  -2   8    0.60    6.60
   3   2  -8   53.09   12.90
   3   2  -8   51.39   14.10
  -3  -2   8   40.90   11.30
  -3  -2   8   73.59   16.90
   2   2  -8   16.10    7.50
   2   2  -8   35.80   11.10
  -2  -2   8   36.10   12.80
  -2  -2   8   16.00    8.00
  -2  -2   8   29.00   11.00
   1   2  -8    3.30    3.50
   1   2  -8    5.30    5.30
  -1  -2   8    4.80    6.00
  -1  -2   8    0.90    5.00
  -1  -2   8    5.30    5.40
   0   2  -8  167.88   19.80
   0  -2   8  120.59   17.00
   0  -2   8  149.59   20.00
   0  -2   8  152.98   19.40
   0  -2   8  146.89   20.30
  -1   2  -8  416.66   27.30
  -1   2  -8  433.26   25.70
   1  -2   8  398.76   27.70
   1  -2   8  430.46   26.70
   1  -2   8  450.75   30.60
  -2   2  -8   64.69   12.50
  -2   2  -8   74.59   10.00
   2  -2   8   60.19   11.80
   2  -2   8   55.39   12.80
  -3   2  -8   66.69   10.20
  -3   2  -8   47.10    9.50
  -3   2  -8   65.79   12.30
  -4   2  -8   66.29   12.70
  -4   2  -8   46.70   10.40
  -5   2  -8   -3.60    4.70
  -5   2  -8    8.60    6.10
  -6   2  -8   -3.40    6.80
  -6   2  -8    3.50    7.10
  -7   2  -8    4.20    8.60
  -7   2  -8   -0.10    8.10
   8   1  -8   10.20   11.10
   8   1  -8    8.60    8.50
   7   1  -8    4.10    7.70
   6   1  -8    9.90    8.00
   5   1  -8   -2.90    4.40
   4   1  -8   -3.10    6.30
   4   1  -8    5.10    6.10
  -4  -1   8   22.50   10.90
   3   1  -8   15.10    8.70
   3   1  -8   36.20   11.70
  -3  -1   8   19.30   10.50
   2   1  -8   -6.00    3.30
  -2  -1   8   -1.90    6.20
  -2  -1   8    1.00    4.20
  -2  -1   8    9.40    6.60
   1   1  -8    9.20    6.20
   1   1  -8   10.70    4.50
  -1  -1   8   10.90    6.30
  -1  -1   8    4.40    6.10
  -1  -1   8    6.10    7.00
   0   1  -8   77.09   14.80
   0  -1   8  162.28   21.30
   0  -1   8  101.89   15.90
   0  -1   8  193.88   22.30
  -1   1  -8 1581.94   64.89
   1  -1   8 1507.05   63.79
   1  -1   8 1503.05   63.79
  -2   1  -8  326.07   23.90
   2  -1   8  281.87   22.00
   2  -1   8  248.68   20.10
  -3   1  -8  131.99   16.40
  -3   1  -8   96.09   12.70
  -3   1  -8  102.19   16.70
  -4   1  -8   43.50   10.20
  -4   1  -8   48.00   10.30
  -4   1  -8   54.49   12.80
  -5   1  -8   14.50    8.50
  -5   1  -8    3.50    5.50
  -6   1  -8    2.20    6.40
  -6   1  -8   -6.60    5.40
  -7   1  -8    5.80    8.10
  -7   1  -8    8.90    9.40
   8   0  -8    7.60   10.00
   8   0  -8    0.70    8.70
   7   0  -8    0.40    7.80
   6   0  -8    5.70    8.60
   5   0  -8    6.00    7.60
   4   0  -8   48.70   13.20
  -4   0   8   33.30   13.00
   3   0  -8   10.60    8.00
  -3   0   8   27.90   11.10
   2   0  -8    9.30    6.80
  -2   0   8   13.60    7.90
  -2   0   8   15.60    8.70
   1   0  -8  432.76   23.50
   1   0  -8  465.65   30.30
  -1   0   8  404.36   32.00
  -1   0   8  492.55   32.60
   0   0  -8  158.18   20.60
   0   0   8  178.48   22.30
   0   0   8  143.59   20.50
   0   0   8  180.28   21.00
  -1   0  -8    6.30    6.30
   1   0   8    5.90    6.00
   1   0   8   21.30    9.10
  -2   0  -8   -2.60    4.60
   2   0   8    4.60    6.40
  -3   0  -8   89.49   13.30
  -3   0  -8   90.99   16.80
  -3   0  -8   82.39   12.30
  -4   0  -8   -4.60    4.10
  -4   0  -8   -0.10    4.30
  -4   0  -8   -9.20    4.40
  -5   0  -8    4.50    7.30
  -5   0  -8    4.60    6.10
  -5   0  -8   -0.20    5.60
  -6   0  -8    3.10    7.50
  -6   0  -8    2.20    6.50
  -7   0  -8   13.50   10.20
  -7   0  -8    0.90    9.40
   8  -1  -8   -0.50    9.20
   8  -1  -8   20.70   13.30
   7  -1  -8   -1.60    6.30
   7  -1  -8   -2.00    7.30
   6  -1  -8    4.80    7.20
   5  -1  -8   -4.40    6.50
   4  -1  -8    0.70    5.20
  -4   1   8    3.40    8.60
   3  -1  -8    8.30    7.00
  -3   1   8   16.00    9.30
   2  -1  -8    1.20    5.80
  -2   1   8   -3.50    5.30
   1  -1  -8   15.70    7.30
  -1   1   8   19.60    9.90
  -1   1   8   20.70    9.90
   0  -1  -8   64.59   14.50
   0   1   8   66.89   15.30
  -1  -1  -8   46.90   12.80
   1   1   8   53.79   12.90
  -2  -1  -8   80.49   16.60
   2   1   8   65.49   15.70
  -3  -1  -8    6.70    5.60
  -3  -1  -8    1.70    6.30
  -4  -1  -8    2.80    5.30
  -4  -1  -8    1.00    6.50
  -4  -1  -8    5.50    5.30
  -5  -1  -8   10.30    7.70
  -5  -1  -8   12.30    8.70
  -5  -1  -8   12.60    8.00
  -6  -1  -8    6.80    7.40
  -6  -1  -8    2.20    7.80
  -6  -1  -8   -1.40    6.90
  -7  -1  -8    5.70    9.90
  -7  -1  -8   -1.20    7.50
   7  -2  -8   -2.40    8.60
   7  -2  -8    5.20    8.50
   6  -2  -8    2.60    6.50
   6  -2  -8    3.90    7.60
   5  -2  -8    1.80    7.30
   5  -2  -8    7.30    6.70
   4  -2  -8    7.30    7.20
   3  -2  -8    0.80    6.20
  -3   2   8    1.50    8.00
   2  -2  -8   67.89   15.30
  -2   2   8   56.39   16.00
   1  -2  -8   -2.60    5.60
  -1   2   8   -2.10    6.30
   0  -2  -8  345.27   33.40
   0   2   8  371.96   37.10
  -1  -2  -8    2.90    5.40
   1   2   8   -2.30    6.50
  -2  -2  -8    6.40    7.50
   2   2   8    2.80    7.90
  -3  -2  -8   17.60    9.50
  -3  -2  -8   16.20    7.20
   3   2   8    7.30    9.30
  -4  -2  -8   -3.30    5.80
  -4  -2  -8    4.30    8.00
  -5  -2  -8    8.50    7.20
  -5  -2  -8   11.80    7.20
  -5  -2  -8   -6.00    5.50
  -6  -2  -8    1.90    8.90
  -6  -2  -8   24.40   11.30
  -6  -2  -8   51.79   13.90
   7  -3  -8   -0.30    8.60
   6  -3  -8   -2.50    8.50
   6  -3  -8    7.60    8.40
   5  -3  -8    9.60    8.10
   5  -3  -8    8.00    8.60
   4  -3  -8   59.79   15.70
   4  -3  -8   40.00   14.20
   3  -3  -8   21.20    9.70
   3  -3  -8   42.80   13.40
   2  -3  -8    5.10    6.00
   2  -3  -8    3.50    6.90
   1  -3  -8  133.89   19.30
   1  -3  -8  124.29   20.30
  -1   3   8  175.68   28.00
   0  -3  -8    8.90    6.80
   0   3   8   16.50   10.70
  -1  -3  -8   28.30   10.80
   1   3   8   38.70   14.30
  -2  -3  -8   43.20   14.10
   2   3   8   60.29   19.70
  -3  -3  -8   20.90   10.10
  -3  -3  -8   17.00    8.00
  -4  -3  -8    7.20    8.50
  -4  -3  -8   11.50    8.60
  -5  -3  -8   20.70   11.70
  -5  -3  -8   11.60   10.00
   6  -4  -8    5.30   10.20
   5  -4  -8   56.39   18.30
   5  -4  -8   29.30   12.00
   4  -4  -8    3.60    7.60
   4  -4  -8   42.00   14.50
   3  -4  -8  160.48   24.80
   3  -4  -8  120.89   21.60
   2  -4  -8   -0.20    6.70
   2  -4  -8    0.00    6.00
   1  -4  -8    0.80    7.30
   0  -4  -8    5.90    8.30
  -1  -4  -8    4.00    7.30
  -2  -4  -8    9.10    7.60
  -3  -4  -8   12.20   10.60
  -3  -4  -8   24.90    9.70
  -4  -4  -8   37.40   14.90
  -4  -4  -8   24.70   11.20
  -5  -4  -8   18.20   10.90
  -5  -4  -8    8.40   10.40
   6  -5  -8   13.30   12.80
   5  -5  -8   15.90   12.50
   4  -5  -8    4.80    8.80
   4  -5  -8   16.70   10.10
   3  -5  -8   16.90   10.90
   3  -5  -8   11.40    8.90
   2  -5  -8    0.80    6.30
   1  -5  -8   11.00    9.30
   0  -5  -8    6.00    8.00
  -1  -5  -8   -0.60    9.50
  -2  -5  -8   -8.70    7.10
  -3  -5  -8    5.60    9.20
  -3  -5  -8    7.80   10.60
  -4  -5  -8   25.40   11.40
  -4  -5  -8   21.20   12.40
   4  -6  -8    0.60    8.60
   3  -6  -8    8.40    9.10
   2  -6  -8   12.00   10.80
   1  -6  -8   16.30   11.10
   0  -6  -8   -3.80    8.10
  -1  -6  -8   17.70   11.00
  -2  -6  -8   17.10   10.30
   1  -7  -8    2.40   10.20
  -1 -10   9    3.20    9.00
   0 -10   9   -4.20    7.30
   1 -10   9   -1.20    9.20
   2 -10   9   -2.10    9.30
   3 -10   9   -1.60   10.30
  -3  -9   9    1.40    9.00
  -2  -9   9   -1.00    7.90
  -1  -9   9   -0.70    8.30
   0  -9   9    6.90   10.20
   1  -9   9   -3.80    6.50
   2  -9   9   27.70   13.20
   3  -9   9    5.20    8.90
   4  -9   9   28.60   15.50
   4  -9   9   27.90   10.50
   5  -9   9   16.60   12.50
   4   8  -9   11.70    9.70
  -4  -8   9   14.70   11.80
   3   8  -9   -1.40    7.40
  -3  -8   9   -1.60    7.60
  -2  -8   9    0.20    7.20
  -1  -8   9    0.50    6.20
   0  -8   9    2.50    7.40
   1  -8   9   15.90   10.60
   2  -8   9   11.00    8.30
   3  -8   9   14.90   11.00
   4  -8   9    0.20    8.20
   5  -8   9   15.70   13.60
   5   7  -9    8.90    9.20
  -5  -7   9    4.40    8.50
   4   7  -9   -4.10    6.10
  -4  -7   9   18.20   11.70
   3   7  -9    8.20    8.10
  -3  -7   9    7.40    8.30
   2   7  -9   -5.40    4.80
  -2  -7   9   11.30    8.80
  -1  -7   9   20.10   10.40
   0  -7   9   19.70   10.70
   1  -7   9    3.00    5.20
   2  -7   9    9.20    8.10
   3  -7   9   -1.50    4.90
   4  -7   9    7.20    9.00
  -5   7  -9    4.70    7.90
   5  -7   9    2.40    9.50
  -6   7  -9    2.10    6.30
   6   6  -9   17.30   12.50
   5   6  -9   12.00    9.70
  -5  -6   9    9.80    9.20
   4   6  -9    0.30    9.40
  -4  -6   9    2.30    5.80
   3   6  -9   -2.00    5.90
  -3  -6   9    7.50    8.00
   2   6  -9    9.90   10.20
   2   6  -9   -3.40    5.30
  -2  -6   9   19.00   11.70
  -2  -6   9   24.90   11.80
   1   6  -9    3.60    6.30
  -1  -6   9    4.60    6.00
  -1  -6   9   -2.20    7.30
   0  -6   9   38.30   13.00
   1  -6   9   -0.80    5.10
   2  -6   9    2.20    7.10
   3  -6   9   33.20   12.60
  -4   6  -9    8.30    7.20
   4  -6   9   14.90    9.40
  -5   6  -9    3.80    8.20
   5  -6   9    4.90    9.30
  -6   6  -9   -5.50    7.70
   6   5  -9    0.70    7.20
   5   5  -9   -2.70    6.40
  -5  -5   9    1.10    6.20
   4   5  -9   -6.30    5.30
  -4  -5   9    5.20    7.00
   3   5  -9    4.90    6.80
  -3  -5   9   16.10   16.90
  -3  -5   9    6.00    6.70
   2   5  -9    7.40    8.80
   2   5  -9   -5.00    4.50
  -2  -5   9    0.00    7.50
  -2  -5   9   -0.30    5.10
   1   5  -9   -0.20    6.50
   1   5  -9   -3.10    4.00
  -1  -5   9    0.00    6.10
  -1  -5   9   -1.90    4.70
   0   5  -9   24.30    7.70
   0  -5   9   20.30    9.60
   1  -5   9   68.69   15.80
   2  -5   9   -3.30    6.20
   3  -5   9    4.40    7.80
  -4   5  -9   10.90    6.70
   4  -5   9    5.00    7.50
  -5   5  -9   56.69   14.10
  -6   5  -9    2.10    8.50
  -7   5  -9   -7.90    8.40
   7   4  -9   -4.30    8.80
   6   4  -9   -4.40    7.40
   5   4  -9   -3.70    5.70
  -5  -4   9    6.00    7.30
   4   4  -9   -2.30    5.90
  -4  -4   9    3.10    6.20
   3   4  -9   -4.30    5.60
   3   4  -9   -2.80    7.90
  -3  -4   9    2.40    6.40
  -3  -4   9    1.30    8.10
   2   4  -9    1.90    5.10
   2   4  -9    6.30    8.70
  -2  -4   9    0.60    6.30
  -2  -4   9   -4.40    3.50
   1   4  -9   15.00    9.20
   1   4  -9    4.70    5.70
  -1  -4   9   16.40    8.30
  -1  -4   9   10.20    7.30
   0   4  -9   -1.40    4.70
   0  -4   9    6.30    7.40
   0  -4   9   11.30    6.10
  -1   4  -9   75.79   13.50
   1  -4   9   72.29   15.60
   2  -4   9  118.89   19.90
   3  -4   9   15.20    8.40
  -4   4  -9    3.80    6.80
  -5   4  -9    1.10    5.80
  -6   4  -9   18.20   10.60
  -6   4  -9    5.80    8.20
  -7   4  -9    0.50    8.70
  -7   4  -9   -7.60    8.20
   7   3  -9    2.60    9.40
   6   3  -9   13.80   10.60
   5   3  -9    1.90    7.00
   4   3  -9   -0.90    6.20
  -4  -3   9    1.80    5.90
   3   3  -9    0.80    8.20
   3   3  -9    5.80    6.90
  -3  -3   9   -4.90    5.40
  -3  -3   9    1.30    4.20
   2   3  -9    8.00    7.30
   2   3  -9   10.50    8.60
  -2  -3   9    1.00    4.70
  -2  -3   9    4.60    7.10
   1   3  -9  307.07   31.60
   1   3  -9  224.38   25.30
  -1  -3   9  317.97   32.70
  -1  -3   9  285.77   30.50
   0   3  -9  203.48   24.10
   0   3  -9  251.57   24.90
   0  -3   9  241.28   26.20
   0  -3   9  280.77   28.90
  -1   3  -9  206.88   22.50
   1  -3   9  212.08   24.70
  -2   3  -9   19.60    8.10
   2  -3   9   27.80    9.30
   3  -3   9    3.00    5.10
  -4   3  -9    3.40    5.40
  -4   3  -9   -1.10    4.70
  -5   3  -9   -1.90    5.80
  -5   3  -9   -1.10    6.10
  -6   3  -9   14.60    8.70
  -6   3  -9   12.40    9.10
  -7   3  -9    1.00    7.70
  -7   3  -9   12.40    9.80
   7   2  -9   -1.20    8.20
   6   2  -9    2.30    7.80
   5   2  -9    9.60    6.70
   4   2  -9    0.20    5.50
   3   2  -9    3.80    7.50
   3   2  -9   -1.30    5.70
  -3  -2   9    3.40    7.10
  -3  -2   9   -3.40    5.40
   2   2  -9   38.10   12.60
   2   2  -9   53.69   12.90
  -2  -2   9   70.79   15.80
  -2  -2   9   68.09   15.20
   1   2  -9  228.68   25.70
  -1  -2   9  206.38   25.80
  -1  -2   9  291.77   30.50
  -1  -2   9  255.77   29.70
   0   2  -9    0.10    4.70
   0  -2   9   -0.60    5.10
   0  -2   9    4.20    6.80
   0  -2   9    1.30    7.40
  -1   2  -9   70.39   13.90
   1  -2   9  114.39   17.40
   1  -2   9  144.29   19.70
  -2   2  -9  107.79   16.50
   2  -2   9  104.69   16.80
  -3   2  -9   -5.10    4.90
  -4   2  -9    1.90    6.10
  -4   2  -9    3.70    5.00
  -5   2  -9    4.10    7.50
  -5   2  -9   10.70    7.40
  -6   2  -9   10.50    9.30
  -6   2  -9   -2.90    7.20
  -7   2  -9   10.30    9.00
  -7   2  -9   17.50   11.40
   7   1  -9   -4.40    8.50
   6   1  -9    7.20    8.80
   5   1  -9   -1.80    7.20
   4   1  -9    6.00    7.00
   3   1  -9    4.90    7.90
   3   1  -9   12.30    8.00
  -3  -1   9   -0.10    6.80
   2   1  -9   42.00   12.00
  -2  -1   9   36.60   12.50
  -2  -1   9   33.50   10.20
   1   1  -9  818.22   45.10
  -1  -1   9  715.13   43.10
  -1  -1   9  904.81   48.30
  -1  -1   9  898.41   51.59
   0   1  -9  289.37   29.80
   0  -1   9  263.77   43.30
   0  -1   9  280.37   28.80
   0  -1   9  251.17   28.30
  -1   1  -9   54.59   13.20
   1  -1   9   59.29   12.30
   1  -1   9   49.80   12.10
  -2   1  -9   54.49   13.10
  -3   1  -9   -4.50    5.90
  -4   1  -9    6.40    7.20
  -4   1  -9    6.10    6.80
  -5   1  -9   11.70    8.20
  -5   1  -9    7.30    6.80
  -6   1  -9    2.30    8.20
  -6   1  -9    8.60    8.80
  -7   1  -9    4.50    8.50
  -7   1  -9    8.00    9.40
   7   0  -9    0.00    8.20
   6   0  -9    6.10    8.50
   5   0  -9   10.80    9.40
   4   0  -9    3.50    6.70
   3   0  -9   66.79   14.80
  -3   0   9   80.29   18.00
   2   0  -9   30.70   10.00
  -2   0   9   71.79   17.50
   1   0  -9    8.00    7.90
  -1   0   9   15.60    8.10
  -1   0   9   -0.70    6.40
   0   0  -9   10.90    7.40
   0   0   9    3.20    7.40
  -1   0  -9  140.69   20.10
   1   0   9  158.88   23.50
  -2   0  -9    2.30    6.70
  -3   0  -9   16.50    9.70
  -4   0  -9   -0.10    7.60
  -5   0  -9   25.80    9.40
  -6   0  -9    8.20    8.50
  -6   0  -9   22.20    9.90
   7  -1  -9    9.20   12.10
   7  -1  -9    2.80    9.40
   6  -1  -9    5.50    9.00
   5  -1  -9    9.40    7.90
   4  -1  -9    5.80    7.30
   3  -1  -9   14.60   10.10
   2  -1  -9    7.40    7.20
  -2   1   9   19.00   10.90
   1  -1  -9   25.30   10.30
  -1   1   9   26.20   10.70
   0  -1  -9   70.79   14.50
   0   1   9   61.19   16.50
  -1  -1  -9   20.70   10.10
   1   1   9    1.30    8.40
  -2  -1  -9   -3.40    5.70
   2   1   9    2.40    8.20
  -3  -1  -9   10.60    8.80
  -4  -1  -9    7.10    6.60
  -5  -1  -9   12.40    8.80
  -5  -1  -9   20.30    9.90
  -6  -1  -9    9.20    8.60
   7  -2  -9    6.10   10.10
   7  -2  -9    7.90    8.60
   6  -2  -9    5.90   10.30
   6  -2  -9    0.20    8.20
   5  -2  -9   -2.90    4.60
   5  -2  -9   11.40    8.90
   4  -2  -9   27.60   11.20
   3  -2  -9    6.40    7.00
   2  -2  -9  126.79   21.70
   1  -2  -9    4.80    7.70
   0  -2  -9    2.90    5.30
   0   2   9   -1.20    8.40
  -1  -2  -9    1.00    6.90
   1   2   9   -5.30    8.60
  -2  -2  -9   10.70    9.80
   2   2   9   35.00   15.90
  -3  -2  -9    1.80    7.20
  -4  -2  -9    0.40    6.40
  -5  -2  -9   11.80   11.60
  -5  -2  -9    0.10    6.80
   6  -3  -9    8.50    8.90
   6  -3  -9    7.20    9.40
   5  -3  -9   11.40    9.90
   5  -3  -9    8.30   11.00
   4  -3  -9    5.40    7.20
   4  -3  -9   -4.10    6.60
   3  -3  -9   38.60   12.50
   3  -3  -9   56.89   15.60
   2  -3  -9   12.70    8.40
   2  -3  -9   40.70   12.70
   1  -3  -9   26.80   11.80
   0  -3  -9   45.80   13.90
  -1  -3  -9    3.50    7.60
  -2  -3  -9   12.90    9.60
  -3  -3  -9   13.80   10.70
  -4  -3  -9   -3.50    6.90
  -5  -3  -9    8.80    9.40
  -5  -3  -9   14.50    9.70
   5  -4  -9   42.00   15.30
   5  -4  -9   23.50   12.00
   4  -4  -9   -7.20    6.50
   4  -4  -9   -0.20    7.40
   3  -4  -9    7.40    8.60
   3  -4  -9    0.00    7.10
   2  -4  -9    1.10    8.30
   1  -4  -9    9.00    8.20
   0  -4  -9    1.00    7.40
  -1  -4  -9   31.60   12.40
  -2  -4  -9   43.80   16.00
  -3  -4  -9   21.50   11.60
  -4  -4  -9   56.69   18.00
   4  -5  -9   -6.70    7.90
   4  -5  -9    4.40    9.50
   3  -5  -9    0.80    9.10
   2  -5  -9    4.80    8.80
   1  -5  -9    9.50   10.00
   0  -5  -9   -6.00    7.80
  -1  -5  -9   -3.80    9.40
  -2  -5  -9   13.50   12.90
   2  -6  -9    4.10   10.00
   1  -6  -9    2.50   10.70
   0  -6  -9   -4.10    9.70
   1 -10  10   -2.00   10.50
  -2  -9  10   -1.30   10.30
  -1  -9  10   10.20    9.30
   0  -9  10    7.50    9.80
   1  -9  10   -0.50    9.00
   2  -9  10   29.20   14.80
   3  -9  10   15.30   11.30
   4  -9  10   -1.10   10.70
   4   8 -10    1.60    9.80
  -4  -8  10  -10.30    8.00
   3   8 -10    1.10    8.50
  -3  -8  10    5.30    9.80
  -2  -8  10    2.00    8.00
  -1  -8  10    4.70    8.70
   0  -8  10   10.60    9.40
   1  -8  10   11.70   11.10
   2  -8  10   -6.70    6.10
   3  -8  10    8.10    8.30
   4  -8  10    6.60   10.10
   5  -8  10    2.80   11.20
   5   7 -10    2.00   11.80
  -5  -7  10    4.60    9.20
   4   7 -10  -11.30    6.10
  -4  -7  10   -2.40    7.60
   3   7 -10    6.00    8.20
  -3  -7  10    6.50    8.30
   2   7 -10   18.10    9.20
  -2  -7  10   -3.00    6.70
  -1  -7  10   -1.00    4.80
   0  -7  10    1.30    5.40
   1  -7  10    4.10    7.90
   2  -7  10    2.10    7.20
   3  -7  10   -3.60    7.80
   4  -7  10    0.60    8.20
   5  -7  10   -3.20    9.30
   5   6 -10    8.40    8.60
  -5  -6  10    8.40    9.10
   4   6 -10   -8.50    6.20
  -4  -6  10    3.40    7.80
   3   6 -10   -3.10    5.90
  -3  -6  10    0.40    7.10
   2   6 -10   -1.90    5.20
  -2  -6  10   -5.10    5.00
   1   6 -10    0.90    6.30
  -1  -6  10    7.40    8.60
   0  -6  10    2.20    5.40
   1  -6  10   14.50    9.80
   2  -6  10    0.80    7.30
   3  -6  10   -0.60    7.30
   4  -6  10   18.70   12.30
  -6   6 -10   22.60   11.00
   6   5 -10   10.30    8.70
   5   5 -10    2.50    9.40
  -5  -5  10   -7.20    7.30
   4   5 -10   -3.80    6.90
  -4  -5  10   12.20    8.90
   3   5 -10   -4.50    6.40
  -3  -5  10    9.90    9.20
   2   5 -10   13.90    8.60
   2   5 -10   -1.10    8.50
  -2  -5  10   17.50   10.80
  -2  -5  10    8.20    7.20
   1   5 -10   36.00   12.00
  -1  -5  10   23.80   11.10
   0   5 -10   -3.90    5.10
   0  -5  10    5.00    8.00
   1  -5  10    3.90    5.50
   2  -5  10    5.80    7.00
   3  -5  10   77.49   17.70
   4  -5  10   -2.20    7.00
  -6   5 -10   -3.40    7.00
   6   4 -10    2.20    9.30
   5   4 -10    1.90    7.40
   4   4 -10    4.30    7.00
  -4  -4  10   -2.00    5.80
   3   4 -10   -2.60    6.20
  -3  -4  10    1.70    6.20
   2   4 -10    7.60    6.90
   2   4 -10   17.50   12.00
  -2  -4  10    8.60    8.00
  -2  -4  10    9.70    8.80
   1   4 -10   66.59   14.50
   1   4 -10   46.30   13.80
  -1  -4  10   61.99   15.50
  -1  -4  10   61.79   14.90
   0   4 -10   76.09   14.10
   0  -4  10  131.89   21.90
  -1   4 -10    2.60    5.50
   1  -4  10    1.90    5.70
   2  -4  10    4.60    6.70
   3  -4  10    0.20    6.50
  -6   4 -10   35.60   13.00
   6   3 -10    6.50    6.70
   5   3 -10    2.50    7.40
   4   3 -10    2.20    6.10
  -4  -3  10   -1.50    6.40
   3   3 -10   44.20   14.60
  -3  -3  10   73.89   17.50
   2   3 -10   53.79   13.70
   2   3 -10   42.60   14.20
  -2  -3  10   64.79   16.00
  -2  -3  10   41.30   13.00
   1   3 -10  155.18   21.80
   1   3 -10  153.78   23.10
  -1  -3  10  130.99   20.90
  -1  -3  10  129.99   21.90
   0   3 -10   30.30   11.30
   0  -3  10   47.30   13.40
  -1   3 -10   10.40    7.50
   1  -3  10   15.70    8.40
  -2   3 -10   -5.00    7.40
   2  -3  10   -0.30    5.20
  -6   3 -10   29.20   12.40
  -6   3 -10   61.39   14.90
   7   2 -10    7.90   10.10
   6   2 -10   -0.10    9.50
   5   2 -10   -2.20    6.90
   4   2 -10   18.60    9.30
   3   2 -10   62.69   15.30
  -3  -2  10   76.19   17.70
   2   2 -10    8.00    9.10
   2   2 -10    3.00    6.30
  -2  -2  10    5.30    6.60
  -2  -2  10   -0.40    7.70
   1   2 -10  101.29   17.70
  -1  -2  10  111.59   19.60
  -1  -2  10   96.69   18.70
   0   2 -10   70.89   15.10
   0  -2  10   54.89   13.90
   0  -2  10  109.79   19.60
  -1   2 -10   15.50    8.10
   1  -2  10   -5.20    4.90
  -2   2 -10    0.40    6.20
  -6   2 -10   -6.70    8.00
   7   1 -10   14.30   10.10
   6   1 -10    9.10    9.30
   5   1 -10   -3.40    5.80
   4   1 -10   10.50    9.60
   3   1 -10  157.58   23.50
   2   1 -10  114.79   20.40
  -2  -1  10  110.29   22.20
   1   1 -10    7.10    7.10
  -1  -1  10    1.80    7.20
  -1  -1  10   -2.40    6.00
   0   1 -10   12.00    7.80
   0  -1  10   16.60    8.70
   0  -1  10   13.60    9.90
  -1   1 -10    5.20    6.70
   1  -1  10   -5.20    4.50
  -2   1 -10   -0.70    5.90
  -3   1 -10    9.80    9.00
   6   0 -10   -4.00    7.30
   5   0 -10    3.70    7.50
   4   0 -10   19.60   11.00
   3   0 -10   14.60    9.30
   2   0 -10    4.80    6.40
   1   0 -10  147.59   23.10
  -1   0  10   92.19   19.90
   0   0 -10    1.80    5.70
   0   0  10   -1.80    6.10
  -1   0 -10   12.90    7.60
   1   0  10    7.30    8.40
  -2   0 -10    6.60    7.70
  -3   0 -10   41.10   14.20
  -4   0 -10    0.80    8.30
   6  -1 -10   -4.40    7.00
   5  -1 -10   -3.20    8.50
   4  -1 -10    7.00    9.80
   3  -1 -10   18.00    9.50
   2  -1 -10   73.29   17.50
   1  -1 -10   10.80    8.40
   0  -1 -10   -6.20    6.00
  -1  -1 -10    8.30    8.10
   1   1  10    5.90    7.70
  -2  -1 -10   -7.40    6.00
  -3  -1 -10   18.00   10.30
  -4  -1 -10   55.19   16.40
  -5  -1 -10   14.10   10.90
   6  -2 -10    7.10   10.30
   6  -2 -10    8.10   11.00
   5  -2 -10    5.10    9.40
   5  -2 -10   -1.10    7.40
   4  -2 -10   16.50   11.70
   3  -2 -10    1.80    8.60
   2  -2 -10    8.70    8.60
   1  -2 -10    2.10    6.90
   0  -2 -10   -5.90    5.30
  -1  -2 -10    4.60    7.00
  -2  -2 -10   17.20   11.80
  -3  -2 -10    7.50   10.40
  -4  -2 -10    3.90    7.40
   5  -3 -10   11.70   11.10
   5  -3 -10   22.40   14.70
   4  -3 -10   15.50   11.10
   4  -3 -10   -1.40    9.20
   3  -3 -10    5.80    7.90
   3  -3 -10    1.40    8.20
   2  -3 -10   15.00   10.80
   1  -3 -10   -6.30    7.40
   0  -3 -10   19.50   10.90
  -1  -3 -10   22.00   12.00
  -2  -3 -10   13.40   11.00
  -3  -3 -10    4.30    9.20
   4  -4 -10    6.90    9.30
   4  -4 -10   -0.20    9.90
   3  -4 -10    5.30    9.20
   3  -4 -10   -9.40   12.70
   2  -4 -10    3.50    8.70
   1  -4 -10    8.50   10.80
   0  -4 -10   38.90   15.40
  -1  -4 -10   -5.50    6.60
  -2  -4 -10   29.90   15.30
   2  -5 -10   -7.10    7.20
   1  -5 -10   12.70   11.00
   0  -5 -10    4.30   11.20
  -1  -9  11    4.70   11.00
   0  -9  11    2.40    9.80
   1  -9  11   -0.20   10.90
   2  -9  11   15.20   13.50
   3   8 -11   -0.60    9.50
  -3  -8  11    7.70    9.70
  -2  -8  11    8.20    9.80
  -1  -8  11   15.80   12.70
   0  -8  11    2.20    7.80
   1  -8  11   33.10   14.20
   2  -8  11   -8.90    8.40
   3  -8  11    3.50    9.50
   4  -8  11   -7.60   10.50
   4   7 -11    0.40    8.40
  -4  -7  11   -3.70    7.90
   3   7 -11    0.90    8.70
  -3  -7  11   -1.20    8.00
   2   7 -11    9.60    9.00
  -2  -7  11    9.30    9.50
  -1  -7  11    0.20    7.10
   0  -7  11    1.50    6.70
   1  -7  11    5.90    8.30
   2  -7  11    1.20    8.90
   3  -7  11   14.40   11.10
   4  -7  11   22.80   14.10
   4   6 -11   -4.30    7.50
  -4  -6  11    2.90    9.20
   3   6 -11    6.50    8.80
  -3  -6  11    4.00    8.20
   2   6 -11    5.90    8.00
  -2  -6  11    2.50    9.10
   1   6 -11    7.50    6.90
  -1  -6  11    7.40    8.20
   0  -6  11   -0.20    6.40
   1  -6  11    0.80    6.80
   2  -6  11   29.40   12.80
   3  -6  11    4.00    7.40
   4  -6  11    1.20    9.10
   5   5 -11    3.30    8.40
  -5  -5  11    3.40    9.10
   4   5 -11   -1.90    6.90
  -4  -5  11   -0.70    8.10
   3   5 -11   -1.80    7.20
  -3  -5  11    0.30    6.70
   2   5 -11   -3.10    6.80
  -2  -5  11   -5.80    5.70
   1   5 -11    4.40    7.30
  -1  -5  11   14.30   10.40
   0   5 -11   -7.60    5.90
   0  -5  11    5.80    7.30
   1  -5  11   77.59   19.00
   2  -5  11    5.80    7.50
   3  -5  11    8.60    9.80
   5   4 -11    0.30    8.40
   4   4 -11    1.80    7.70
  -4  -4  11   -5.60    6.80
   3   4 -11   12.50    9.10
  -3  -4  11   21.40   12.20
   2   4 -11   15.60    9.20
  -2  -4  11   32.20   12.00
   1   4 -11   -7.10    5.00
  -1  -4  11    0.60    6.30
   0   4 -11    2.70    6.30
   0  -4  11    2.20    6.70
   1  -4  11   -2.30    6.10
   2  -4  11   37.00   12.30
   6   3 -11   -6.00    8.10
   5   3 -11    1.30    8.70
   4   3 -11    0.90    7.40
   3   3 -11   43.70   14.80
  -3  -3  11   54.79   15.10
   2   3 -11   53.39   14.70
  -2  -3  11   49.90   14.00
   1   3 -11   13.00    7.70
   1   3 -11    3.60   12.60
  -1  -3  11    4.40    7.50
  -1  -3  11   19.70   10.80
   0   3 -11   16.40    9.80
   0  -3  11    5.70    7.80
  -1   3 -11    6.90    7.20
   1  -3  11    1.00    6.80
   2  -3  11   -1.40    6.40
   6   2 -11    3.90   10.20
   5   2 -11   10.40   10.70
   4   2 -11    1.30    7.00
   3   2 -11   55.69   14.80
   2   2 -11   25.60   10.40
  -2  -2  11   14.50   10.80
   1   2 -11   17.20   11.30
   1   2 -11   -1.70    6.30
  -1  -2  11    3.50    6.60
  -1  -2  11    3.30    8.60
   0   2 -11   -0.20    5.90
   0  -2  11   -5.60    4.70
  -1   2 -11   -0.10    6.70
   1  -2  11    9.40    7.80
  -2   2 -11   -5.70    6.30
   6   1 -11    8.90    9.40
   5   1 -11   16.30   11.00
   4   1 -11   10.00    8.40
   3   1 -11   -3.10    6.00
   2   1 -11   -6.50    6.30
   1   1 -11    3.40    7.80
   0   1 -11   12.70    8.90
   0  -1  11   10.60    9.90
   0  -1  11    4.80    7.70
  -1   1 -11   -2.80    6.10
  -2   1 -11   -5.50    7.20
  -3   1 -11   -4.20    6.10
   6   0 -11    2.60    9.70
   5   0 -11   16.50   10.10
   4   0 -11    6.90   10.00
   3   0 -11   22.30   11.80
   2   0 -11   -4.70    7.20
   1   0 -11    0.00    5.40
   0   0 -11    3.90    7.70
  -1   0 -11   35.20   13.00
  -2   0 -11    2.50    7.70
  -3   0 -11   10.30    9.30
  -4   0 -11    0.60    9.30
   5  -1 -11    5.50    9.40
   4  -1 -11   -0.70    8.20
   3  -1 -11    2.00    8.80
   2  -1 -11   -3.30    6.50
   1  -1 -11   14.10    9.10
   0  -1 -11    3.70    7.20
  -1  -1 -11   20.10   11.50
  -2  -1 -11   24.10   11.90
  -3  -1 -11   10.90   11.10
  -4  -1 -11   -1.20    8.30
   5  -2 -11   -6.40    8.40
   5  -2 -11   13.60   11.20
   4  -2 -11   -1.20    5.90
   4  -2 -11   -1.50    9.10
   3  -2 -11   -9.70    5.60
   2  -2 -11    3.00    8.50
   1  -2 -11   10.40    9.30
   0  -2 -11    3.80    8.10
  -1  -2 -11    1.00    8.40
  -2  -2 -11   32.80   13.60
  -3  -2 -11   14.20   12.00
   4  -3 -11   -2.30    9.10
   4  -3 -11   -8.10    8.30
   3  -3 -11    0.30    8.80
   3  -3 -11   -4.20    7.80
   2  -3 -11    5.00    8.10
   1  -3 -11   14.00   10.40
   0  -3 -11    1.90    8.10
  -1  -3 -11    1.20    9.00
  -2  -3 -11   12.10   10.70
   1  -4 -11   12.10   12.10
  -1  -8  12    6.00   10.70
   0  -8  12    1.50    8.10
   1  -8  12    7.50   10.20
   2  -8  12   -4.40    8.60
  -2  -7  12   11.80   10.10
  -1  -7  12   -2.80    6.10
   0  -7  12    8.50   10.10
   1  -7  12   -0.60    7.40
   2  -7  12    3.40   10.00
   3  -7  12   16.80   12.40
   3   6 -12   -8.70    7.00
  -3  -6  12    3.50    9.40
   2   6 -12   -0.20    7.80
  -2  -6  12    1.50    7.40
  -1  -6  12   -5.30    6.80
   0  -6  12    1.30    8.10
   1  -6  12    5.70    8.50
   2  -6  12   15.60   10.80
   3  -6  12    6.10    8.80
   4   5 -12   -1.40    9.50
  -4  -5  12   -0.50    8.70
   3   5 -12    5.10    8.40
  -3  -5  12   15.10   10.60
   2   5 -12    2.30    9.00
  -2  -5  12   -3.60    8.40
   1   5 -12   20.50   10.10
  -1  -5  12    8.00    8.40
   0  -5  12    2.00    7.60
   1  -5  12   -0.90    7.60
   2  -5  12    7.00    8.00
   4   4 -12   -2.90    8.50
  -4  -4  12    4.50    8.80
   3   4 -12   -5.70    8.20
  -3  -4  12    1.20    7.80
   2   4 -12   -2.90    6.50
  -2  -4  12   -2.20    7.50
   1   4 -12    8.00    7.80
  -1  -4  12    6.70   10.60
   0   4 -12   12.00    8.30
   0  -4  12    7.30    9.90
   1  -4  12   -3.60    7.10
   2  -4  12    1.70    8.00
   5   3 -12    9.90   11.80
   4   3 -12   16.20   11.10
   3   3 -12    5.30    8.60
  -3  -3  12   -1.50    7.30
   2   3 -12   -0.90    6.30
  -2  -3  12    3.80    7.30
   1   3 -12   -0.40    7.10
  -1  -3  12    3.40    7.80
   0   3 -12   -6.10    6.90
   0  -3  12   12.50    9.70
  -1   3 -12   -0.10    6.80
   1  -3  12    1.40    7.90
   5   2 -12   19.80   11.30
   4   2 -12    8.10   10.00
   3   2 -12   10.60    9.50
   2   2 -12    8.80    8.30
   1   2 -12   -0.30    8.00
  -1  -2  12    4.80    7.90
   0   2 -12    2.90    7.40
   0  -2  12    6.80    7.90
  -1   2 -12   -0.80    7.70
  -2   2 -12    3.20    8.90
   5   1 -12    0.00    9.40
   4   1 -12    4.90   10.40
   3   1 -12   -3.00    7.70
   2   1 -12    4.50    8.90
   1   1 -12   -0.60    7.70
   0   1 -12   13.00    9.90
  -1   1 -12   16.80    9.50
  -2   1 -12   -3.10    7.40
  -3   1 -12    0.40    8.50
   4   0 -12   22.60   12.00
   3   0 -12  -10.10    7.50
   2   0 -12   -9.50    5.50
   1   0 -12   -1.60    7.70
   0   0 -12   -2.50    7.70
  -1   0 -12   10.10   10.40
  -2   0 -12   32.70   13.40
  -3   0 -12    6.70    9.50
   4  -1 -12   -0.20    8.70
   3  -1 -12    0.80    7.20
   2  -1 -12    5.10    7.80
   1  -1 -12   19.20   11.50
   0  -1 -12    5.30    9.20
  -1  -1 -12    8.40    8.40
  -2  -1 -12    0.80    8.70
   3  -2 -12   -1.30    8.50
   3  -2 -12   10.60   12.40
   2  -2 -12    5.40   10.10
   1  -2 -12   11.50    9.90
   0  -2 -12   -8.60    6.90
  -1  -2 -12   22.20   14.30
   0  -7  13   -4.20    8.90
   2   6 -13    5.40   10.20
  -2  -6  13    8.10   11.80
  -1  -6  13    3.60   10.10
   0  -6  13   21.10   12.50
   1  -6  13    4.30   10.70
   2  -6  13   14.20   12.60
   3   5 -13   -0.30    7.40
  -3  -5  13   10.10   10.90
   2   5 -13   16.00   10.50
  -2  -5  13    5.90   10.40
   1   5 -13   11.00   11.20
  -1  -5  13    3.70   10.20
   0  -5  13    0.80    9.10
   1  -5  13    2.90    8.90
   2  -5  13   -1.70    9.10
   3   4 -13   -0.70    8.70
  -3  -4  13   -4.80    8.60
   2   4 -13    3.80    7.70
  -2  -4  13   -7.00    7.10
   1   4 -13    0.00    9.00
  -1  -4  13   -9.00    7.30
   0   4 -13   -1.00    8.60
   0  -4  13   12.70   10.70
   1  -4  13    3.90    9.60
   3   3 -13   12.50   10.20
   2   3 -13    3.70   10.00
  -2  -3  13  -11.20    8.00
   1   3 -13    4.30    9.20
  -1  -3  13   -7.70    7.40
   0   3 -13   17.20   11.50
   0  -3  13   21.80   12.00
  -1   3 -13   -4.70    7.70
   3   2 -13   -4.70   10.90
   2   2 -13   11.50   11.50
   1   2 -13   -0.40    9.30
   0   2 -13   10.50   10.20
   0  -2  13   -1.70    8.90
  -1   2 -13    5.90    9.20
  -2   2 -13   -7.50    7.30
   3   1 -13    6.80    9.10
   2   1 -13   10.20   10.70
   1   1 -13    2.70    9.60
   0   1 -13    1.20    7.90
  -1   1 -13    1.90    9.50
  -2   1 -13   10.80   10.00
   2   0 -13   -3.90    8.70
   1   0 -13   -1.50    8.50
   0   0 -13    9.90   10.40
  -1   0 -13    8.30   10.10
   0   0   0    0.00    0.00

_computing_structure_solution     'SHELXT 2014/5 (Sheldrick, 2014)'
;
_shelx_hkl_checksum              86241
_olex2_submission_special_instructions 'No special instructions were received'
loop_
_space_group_symop_operation_xyz
'x, y, z'
'-x, -y, -z'
loop_
_atom_site_label
_atom_site_type_symbol
_atom_site_fract_x
_atom_site_fract_y
_atom_site_fract_z
_atom_site_U_iso_or_equiv
_atom_site_adp_type
_atom_site_occupancy
_atom_site_site_symmetry_order
_atom_site_calc_flag
_atom_site_refinement_flags_posn
_atom_site_refinement_flags_adp
_atom_site_refinement_flags_occupancy
_atom_site_disorder_assembly
_atom_site_disorder_group
N2 N 0.6164(2) 0.5045(2) 0.16172(19) 0.0873(6) Uani 1 1 d . . . . .
N3 N 0.7253(2) 0.2034(2) 0.38760(17) 0.0794(5) Uani 1 1 d . . . . .
C10 C 0.5374(2) 0.17671(19) 0.05697(17) 0.0512(4) Uani 1 1 d . . . . .
C9 C 0.5832(2) 0.0693(2) 0.13408(17) 0.0514(5) Uani 1 1 d . . . . .
C12 C 0.5793(2) 0.3597(2) 0.11634(18) 0.0621(5) Uani 1 1 d . . . . .
C11 C 0.4532(2) 0.1071(2) -0.0770(2) 0.0559(5) Uani 1 1 d . . . . .
C4 C 0.0378(2) 0.0621(2) 0.06789(17) 0.0504(4) Uani 1 1 d . . . . .
N1 N 0.2560(3) 0.4135(3) 0.4542(2) 0.0859(6) Uani 1 1 d . . . . .
C6 C 0.1719(2) 0.1219(2) 0.30713(18) 0.0569(5) Uani 1 1 d . . . . .
C5 C 0.0987(2) 0.0095(2) 0.17996(18) 0.0543(5) Uani 1 1 d . . . . .
C3 C 0.0545(2) 0.2390(2) 0.0917(2) 0.0584(5) Uani 1 1 d . . . . .
C13 C 0.6653(2) 0.1434(2) 0.2749(2) 0.0609(5) Uani 1 1 d . . . . .
C2 C 0.1249(2) 0.3568(2) 0.21752(19) 0.0601(5) Uani 1 1 d . . . . .
C1 C 0.1847(2) 0.2988(2) 0.32696(18) 0.0590(5) Uani 1 1 d . . . . .
C8 C 0.2321(4) 0.0589(3) 0.4256(3) 0.0781(6) Uani 1 1 d . . . . .
C7 C 0.1340(4) 0.5457(2) 0.2367(3) 0.0840(7) Uani 1 1 d . . . . .
H11 H 0.423(2) 0.179(2) -0.1284(17) 0.062(5) Uiso 1 1 d . . . . .
H5 H 0.090(2) -0.113(2) 0.1745(17) 0.060(5) Uiso 1 1 d . . . . .
H8A H 0.205(3) -0.065(3) 0.400(2) 0.115(8) Uiso 1 1 d . . . . .
H7A H 0.092(4) 0.575(4) 0.151(3) 0.151(11) Uiso 1 1 d . . . . .
H7B H 0.267(3) 0.611(3) 0.268(2) 0.127(8) Uiso 1 1 d . . . . .
H3 H 0.012(2) 0.279(2) 0.0141(18) 0.078(6) Uiso 1 1 d . . . . .
H8B H 0.158(3) 0.105(3) 0.515(3) 0.115(8) Uiso 1 1 d . . . . .
H8C H 0.366(3) 0.096(3) 0.457(2) 0.110(8) Uiso 1 1 d . . . . .
H7C H 0.061(3) 0.603(3) 0.316(3) 0.127(9) Uiso 1 1 d . . . . .
H1A H 0.294(4) 0.374(4) 0.528(3) 0.146(12) Uiso 1 1 d . . . . .
H1B H 0.246(3) 0.528(3) 0.462(2) 0.111(9) Uiso 1 1 d . . . . .
loop_
_atom_site_aniso_label
_atom_site_aniso_U_11
_atom_site_aniso_U_22
_atom_site_aniso_U_33
_atom_site_aniso_U_23
_atom_site_aniso_U_13
_atom_site_aniso_U_12
N2 0.1013(12) 0.0459(10) 0.1009(14) 0.0048(10) -0.0143(10) 0.0041(9)
N3 0.1040(12) 0.0655(11) 0.0587(11) 0.0066(8) -0.0140(10) 0.0073(9)
C10 0.0580(10) 0.0384(9) 0.0514(11) 0.0049(8) 0.0000(8) 0.0064(7)
C9 0.0573(10) 0.0434(9) 0.0475(10) 0.0053(8) -0.0015(8) 0.0059(7)
C12 0.0713(11) 0.0433(10) 0.0651(12) 0.0074(9) -0.0063(9) 0.0060(8)
C11 0.0648(11) 0.0435(10) 0.0560(12) 0.0104(9) -0.0026(9) 0.0072(8)
C4 0.0529(9) 0.0396(9) 0.0527(10) 0.0053(7) -0.0030(8) 0.0059(7)
N1 0.1115(14) 0.0594(12) 0.0676(13) -0.0057(10) -0.0248(10) 0.0051(10)
C6 0.0584(10) 0.0519(10) 0.0559(11) 0.0103(9) -0.0045(8) 0.0066(8)
C5 0.0604(10) 0.0391(9) 0.0586(12) 0.0084(9) -0.0029(9) 0.0056(8)
C3 0.0693(11) 0.0381(9) 0.0617(12) 0.0070(9) -0.0095(9) 0.0067(8)
C13 0.0719(11) 0.0479(10) 0.0579(13) 0.0096(9) -0.0042(10) 0.0057(9)
C2 0.0695(11) 0.0379(9) 0.0637(13) 0.0032(9) -0.0080(9) 0.0041(8)
C1 0.0611(10) 0.0482(10) 0.0559(12) 0.0001(9) -0.0076(9) 0.0031(8)
C8 0.0923(17) 0.0715(15) 0.0678(15) 0.0214(12) -0.0124(13) 0.0026(13)
C7 0.1102(19) 0.0380(11) 0.0911(19) 0.0038(11) -0.0182(16) 0.0058(11)
loop_
_atom_type_symbol
_atom_type_description
_atom_type_scat_dispersion_real
_atom_type_scat_dispersion_imag
_atom_type_scat_source
C C 0.0033 0.0016 'International Tables Vol C Tables 4.2.6.8 and 6.1.1.4'
H H 0.0000 0.0000 'International Tables Vol C Tables 4.2.6.8 and 6.1.1.4'
N N 0.0061 0.0033 'International Tables Vol C Tables 4.2.6.8 and 6.1.1.4'
loop_
_geom_angle_atom_site_label_1
_geom_angle_atom_site_label_2
_geom_angle_atom_site_label_3
_geom_angle
_geom_angle_site_symmetry_1
_geom_angle_site_symmetry_3
_geom_angle_publ_flag
C9 C10 C12 120.03(15) . . ?
C11 C10 C9 119.95(14) . . ?
C11 C10 C12 120.02(16) . . ?
C10 C9 C13 119.37(14) . . ?
C11 C9 C10 120.53(16) 2_655 . ?
C11 C9 C13 120.09(17) 2_655 . ?
N2 C12 C10 178.4(2) . . ?
C10 C11 C9 119.51(18) . 2_655 ?
C10 C11 H11 119.7(10) . . ?
C9 C11 H11 120.7(10) 2_655 . ?
C5 C4 C4 122.05(19) . 2 ?
C5 C4 C3 115.63(16) . . ?
C3 C4 C4 122.3(2) . 2 ?
C1 N1 H1A 120.8(19) . . ?
C1 N1 H1B 114.4(15) . . ?
H1A N1 H1B 124(2) . . ?
C5 C6 C1 119.03(17) . . ?
C5 C6 C8 121.44(17) . . ?
C1 C6 C8 119.50(17) . . ?
C4 C5 H5 121.8(9) . . ?
C6 C5 C4 123.47(16) . . ?
C6 C5 H5 114.7(10) . . ?
C4 C3 H3 117.1(11) . . ?
C2 C3 C4 123.17(18) . . ?
C2 C3 H3 119.7(11) . . ?
N3 C13 C9 178.0(2) . . ?
C3 C2 C1 119.36(16) . . ?
C3 C2 C7 120.19(18) . . ?
C1 C2 C7 120.44(17) . . ?
N1 C1 C6 119.90(19) . . ?
N1 C1 C2 120.76(18) . . ?
C2 C1 C6 119.34(15) . . ?
C6 C8 H8A 110.3(14) . . ?
C6 C8 H8B 112.1(13) . . ?
C6 C8 H8C 113.4(12) . . ?
H8A C8 H8B 105.8(17) . . ?
H8A C8 H8C 109.8(18) . . ?
H8B C8 H8C 105.0(18) . . ?
C2 C7 H7A 114.5(17) . . ?
C2 C7 H7B 112.4(13) . . ?
C2 C7 H7C 112.3(15) . . ?
H7A C7 H7B 107.0(19) . . ?
H7A C7 H7C 109(2) . . ?
H7B C7 H7C 100.9(19) . . ?
loop_
_geom_bond_atom_site_label_1
_geom_bond_atom_site_label_2
_geom_bond_distance
_geom_bond_site_symmetry_2
_geom_bond_publ_flag
N2 C12 1.139(2) . ?
N3 C13 1.139(2) . ?
C10 C9 1.397(2) . ?
C10 C12 1.439(2) . ?
C10 C11 1.383(2) . ?
C9 C11 1.385(2) 2_655 ?
C9 C13 1.439(3) . ?
C11 H11 0.934(18) . ?
C4 C4 1.482(3) 2 ?
C4 C5 1.395(2) . ?
C4 C3 1.397(2) . ?
N1 C1 1.385(2) . ?
N1 H1A 0.94(3) . ?
N1 H1B 0.94(2) . ?
C6 C5 1.381(2) . ?
C6 C1 1.404(2) . ?
C6 C8 1.502(3) . ?
C5 H5 0.987(17) . ?
C3 C2 1.383(2) . ?
C3 H3 0.984(17) . ?
C2 C1 1.397(3) . ?
C2 C7 1.505(2) . ?
C8 H8A 0.97(2) . ?
C8 H8B 1.05(2) . ?
C8 H8C 0.98(2) . ?
C7 H7A 1.00(3) . ?
C7 H7B 1.02(2) . ?
C7 H7C 0.99(3) . ?
loop_
_geom_torsion_atom_site_label_1
_geom_torsion_atom_site_label_2
_geom_torsion_atom_site_label_3
_geom_torsion_atom_site_label_4
_geom_torsion
_geom_torsion_site_symmetry_1
_geom_torsion_site_symmetry_2
_geom_torsion_site_symmetry_3
_geom_torsion_site_symmetry_4
_geom_torsion_publ_flag
C9 C10 C11 C9 -0.7(3) . . . 2_655 ?
C12 C10 C9 C11 -178.72(15) . . . 2_655 ?
C12 C10 C9 C13 2.5(2) . . . . ?
C12 C10 C11 C9 178.73(15) . . . 2_655 ?
C11 C10 C9 C11 0.7(3) . . . 2_655 ?
C11 C10 C9 C13 -178.07(14) . . . . ?
C4 C4 C5 C6 179.21(17) 2 . . . ?
C4 C4 C3 C2 -179.90(17) 2 . . . ?
C4 C3 C2 C1 0.7(3) . . . . ?
C4 C3 C2 C7 -178.42(19) . . . . ?
C5 C4 C3 C2 -0.5(3) . . . . ?
C5 C6 C1 N1 179.40(16) . . . . ?
C5 C6 C1 C2 -0.5(3) . . . . ?
C3 C4 C5 C6 -0.2(3) . . . . ?
C3 C2 C1 N1 179.95(16) . . . . ?
C3 C2 C1 C6 -0.1(3) . . . . ?
C1 C6 C5 C4 0.7(3) . . . . ?
C8 C6 C5 C4 178.80(18) . . . . ?
C8 C6 C1 N1 1.2(3) . . . . ?
C8 C6 C1 C2 -178.66(18) . . . . ?
C7 C2 C1 N1 -1.0(3) . . . . ?
C7 C2 C1 C6 178.95(19) . . . . ?
