#------------------------------------------------------------------------------
#$Date: 2021-01-04 05:13:17 +0200 (Mon, 04 Jan 2021) $
#$Revision: 260427 $
#$URL: file:///home/coder/svn-repositories/cod/cif/4/13/54/4135406.cif $
#------------------------------------------------------------------------------
#
# This file is available in the Crystallography Open Database (COD),
# http://www.crystallography.net/
#
# All data on this site have been placed in the public domain by the
# contributors.
#
data_4135406
loop_
_publ_author_name
'Tang, Yuan-Yuan'
'Xie, Yongfa'
'Ai, Yong'
'Liao, Wei-Qiang'
'Li, Peng-Fei'
'Nakamura, Takayoshi'
'Xiong, Ren-Gen'
_publ_section_title
;
 Organic Ferroelectric Vortex-Antivortex Domain Structure.
;
_journal_issue                   52
_journal_name_full               'Journal of the American Chemical Society'
_journal_page_first              21932
_journal_page_last               21937
_journal_paper_doi               10.1021/jacs.0c11416
_journal_volume                  142
_journal_year                    2020
_chemical_formula_moiety         'C7 H13 F N, O4 Re'
_chemical_formula_sum            'C7 H13 F N O4 Re'
_chemical_formula_weight         380.39
_space_group_crystal_system      orthorhombic
_space_group_IT_number           38
_space_group_name_Hall           'A 2 -2'
_space_group_name_H-M_alt        'A m m 2'
_atom_sites_solution_hydrogens   difmap
_audit_creation_method           SHELXL-2014/7
_cell_angle_alpha                90
_cell_angle_beta                 90
_cell_angle_gamma                90
_cell_formula_units_Z            2
_cell_length_a                   6.15870(10)
_cell_length_b                   8.8322(2)
_cell_length_c                   9.3515(2)
_cell_measurement_reflns_used    8188
_cell_measurement_temperature    363(2)
_cell_measurement_theta_max      31.7540
_cell_measurement_theta_min      3.1510
_cell_volume                     508.674(18)
_computing_cell_refinement       'CrysAlisPro 1.171.39.46 (Rigaku OD, 2018)'
_computing_data_collection       'CrysAlisPro 1.171.39.46 (Rigaku OD, 2018)'
_computing_data_reduction        'CrysAlisPro 1.171.39.46 (Rigaku OD, 2018)'
_computing_molecular_graphics    'DIAMOND (Brandenburg & Putz, 2005)'
_computing_publication_material  'SHELXL-2014/7 (Sheldrick, 2014)'
_computing_structure_refinement  'SHELXL-2014/7 (Sheldrick, 2014)'
_computing_structure_solution    'SHELXL-2014/7 (Sheldrick, 2014)'
_diffrn_ambient_temperature      363(2)
_diffrn_measured_fraction_theta_full 1.000
_diffrn_measured_fraction_theta_max 0.960
_diffrn_measurement_device_type  'XtaLAB Synergy R, DW system, HyPix'
_diffrn_measurement_method       'four-circle diffractometer'
_diffrn_radiation_type           MoK\a
_diffrn_radiation_wavelength     0.71073
_diffrn_reflns_av_R_equivalents  0.0372
_diffrn_reflns_av_unetI/netI     0.0224
_diffrn_reflns_Laue_measured_fraction_full 1.000
_diffrn_reflns_Laue_measured_fraction_max 0.960
_diffrn_reflns_limit_h_max       8
_diffrn_reflns_limit_h_min       -8
_diffrn_reflns_limit_k_max       12
_diffrn_reflns_limit_k_min       -11
_diffrn_reflns_limit_l_max       13
_diffrn_reflns_limit_l_min       -13
_diffrn_reflns_number            6464
_diffrn_reflns_point_group_measured_fraction_full 1.000
_diffrn_reflns_point_group_measured_fraction_max 0.960
_diffrn_reflns_theta_full        25.242
_diffrn_reflns_theta_max         31.343
_diffrn_reflns_theta_min         3.173
_diffrn_source                   'Rotating-anode X-ray tube'
_exptl_absorpt_coefficient_mu    11.949
_exptl_absorpt_correction_T_max  0.102
_exptl_absorpt_correction_T_min  0.092
_exptl_absorpt_correction_type   multi-scan
_exptl_absorpt_process_details   'CrysAlisPro 1.171.39.46 (Rigaku OD, 2018)'
_exptl_crystal_colour            colourless
_exptl_crystal_density_diffrn    2.484
_exptl_crystal_description       block
_exptl_crystal_F_000             356
_exptl_crystal_size_max          0.210
_exptl_crystal_size_mid          0.210
_exptl_crystal_size_min          0.200
_refine_diff_density_max         0.393
_refine_diff_density_min         -0.757
_refine_diff_density_rms         0.113
_refine_ls_abs_structure_details
;
 Refined as an inversion twin.
;
_refine_ls_abs_structure_Flack   0.00(4)
_refine_ls_extinction_method     none
_refine_ls_goodness_of_fit_ref   1.003
_refine_ls_hydrogen_treatment    constr
_refine_ls_matrix_type           full
_refine_ls_number_parameters     60
_refine_ls_number_reflns         881
_refine_ls_number_restraints     79
_refine_ls_restrained_S_all      1.103
_refine_ls_R_factor_all          0.0212
_refine_ls_R_factor_gt           0.0200
_refine_ls_shift/su_max          0.000
_refine_ls_shift/su_mean         0.000
_refine_ls_structure_factor_coef Fsqd
_refine_ls_weighting_details
'w=1/[\s^2^(Fo^2^)+(0.0198P)^2^+0.5200P] where P=(Fo^2^+2Fc^2^)/3'
_refine_ls_weighting_scheme      calc
_refine_ls_wR_factor_gt          0.0389
_refine_ls_wR_factor_ref         0.0393
_reflns_Friedel_coverage         0.895
_reflns_Friedel_fraction_full    1.000
_reflns_Friedel_fraction_max     0.960
_reflns_number_gt                860
_reflns_number_total             881
_reflns_threshold_expression     'I > 2\s(I)'
_cod_data_source_file            ja0c11416_si_006.cif
_cod_data_source_block           Amm2
_cod_depositor_comments
'Adding full bibliography for 4135405--4135410.cif.'
_cod_database_code               4135406
_shelx_shelxl_version_number     2014/7
_shelx_space_group_comment
;
The symmetry employed for this shelxl refinement is uniquely defined
by the following loop, which should always be used as a source of
symmetry information in preference to the above space-group names.
They are only intended as comments.
;
_shelx_estimated_absorpt_t_min   0.188
_shelx_estimated_absorpt_t_max   0.199
_shelx_res_file
;

    Amm2.res created by SHELXL-2014/7


TITL Amm2 in Amm2
CELL 0.71073   6.1587   8.8322   9.3515  90.000  90.000  90.000
ZERR    2.00   0.0001   0.0002   0.0002   0.000   0.000   0.000
LATT -5
SYMM -X, -Y, Z
SYMM X, -Y, Z
SYMM -X, Y, Z
SFAC C  H  N  O  F  Re
UNIT 14 26 2 8 2 2
L.S. 20
ACTA
BOND
FMAP 2
PLAN 20
SIZE 0.20 0.21 0.21
TWIN
DELU C1 C2 C3 C4 C5 N1
SIMU C1 C2 C3 C4 C5 N1
DFIX 1.75 0.02 C1 C3
DFIX 1.75 0.02 C2 C4
DFIX 2.45 0.02 C5 C4
DFIX 2.45 0.02 C5 C2
DFIX 2.45 0.02 N1 C3
DFIX 2.45 0.02 N1 C1
DFIX  1.5 0.02 c3 C5
DFIX  1.5 0.02 c1 c5
DFIX  1.55 0.02 c1 c2
DFIX  1.55 0.02 c4 c3
DFIX  1.5 0.02 N1 c4
DFIX 2.3 0.02 c1 f1
DFIX 2.35 0.02 c3 f1
DFIX 1.35 0.02 c5 f1
DFIX  1.5 0.02 N1 c2
DFIX 2.5 0.02 N1 C5
CONF
TEMP 90
WGHT    0.019800    0.520000
BASF   0.00461
FVAR       0.52636
F1    5    0.500000    0.500000    0.695857    10.25000    0.11024    0.07598 =
         0.03079    0.00000    0.00000    0.00000
RE1   6    0.000000    1.000000   -0.027311    10.25000    0.05813    0.04052 =
         0.03607    0.00000    0.00000    0.00000
O2    4    0.000000    0.842448    0.079707    10.50000    0.09591    0.05371 =
         0.08104    0.01784    0.00000    0.00000
O1    4    0.228383    1.000000   -0.130613    10.50000    0.10137    0.11117 =
         0.07230    0.00000    0.03704    0.00000
N1    3    0.500000    0.500000    1.109432    10.25000    0.13416    0.04804 =
         0.02652    0.00000    0.00000    0.00000
AFIX   3
H1A   2    0.500000    0.500000    1.205452    10.25000   -1.20000
AFIX   0
C1    1    0.586893    0.360356    0.899588    10.50000    0.09010    0.04223 =
         0.05153   -0.01579    0.00051    0.03407
AFIX   3
H1B   2    0.730213    0.343446    0.865509    10.50000   -1.20000
H1C   2    0.516710    0.281617    0.861900    10.50000   -1.20000
AFIX   0
C2    1    0.575453    0.356458    1.064184    10.50000    0.12688    0.06420 =
         0.04193   -0.00026   -0.00733    0.01286
AFIX   3
H2A   2    0.716673    0.334618    1.099634    10.50000   -1.20000
H2B   2    0.479105    0.278769    1.096294    10.50000   -1.20000
AFIX   0
C3    1    0.754436    0.500000    0.891984    10.25000    0.04394    0.11265 =
         0.06011    0.00000    0.00262    0.00000
AFIX   3
H3A   2    0.827376    0.588320    0.857104    10.25000   -1.20000
H3B   2    0.827376    0.411680    0.857104    10.25000   -1.20000
AFIX   0
C4    1    0.751220    0.500000    1.055532    10.25000    0.09211    0.10006 =
         0.06140    0.00000   -0.03372    0.00000
AFIX   3
H4A   2    0.823540    0.588130    1.091391    10.25000   -1.20000
H4B   2    0.823540    0.411870    1.091391    10.25000   -1.20000
AFIX   0
C5    1    0.500000    0.500000    0.844306    10.25000    0.07146    0.04129 =
         0.03433    0.00000    0.00000    0.00000
HKLF 4

REM  Amm2 in Amm2
REM R1 =  0.0200 for     860 Fo > 4sig(Fo)  and  0.0212 for all     881 data
REM     60 parameters refined using     79 restraints

END

WGHT      0.0199      0.0000

REM Highest difference peak  0.393,  deepest hole -0.757,  1-sigma level  0.113
Q1    1   0.7985  0.5000  1.0236  10.50000  0.05    0.39
Q2    1   0.7983  0.5000  0.9208  10.50000  0.05    0.38
Q3    1   0.0000  0.7322  0.1972  10.50000  0.05    0.34
Q4    1   0.0000  0.7674  0.2501  10.50000  0.05    0.31
Q5    1   0.5000  0.2537  1.1431  10.50000  0.05    0.30
Q6    1   0.6403  0.2920  1.1604  11.00000  0.05    0.29
Q7    1   0.0000  1.0000  0.2107  10.25000  0.05    0.29
Q8    1   0.0000  1.0000 -0.2650  10.25000  0.05    0.29
Q9    1   0.5000  0.2504  0.8022  10.50000  0.05    0.29
Q10   1   0.7703  0.2654  1.1752  11.00000  0.05    0.29
Q11   1   0.7772  0.2628  0.7715  11.00000  0.05    0.28
Q12   1   0.6416  0.2930  0.7847  11.00000  0.05    0.27
Q13   1   1.0000  0.6607  1.2632  10.50000  0.05    0.26
Q14   1   0.5000  0.3113  1.2029  10.50000  0.05    0.26
Q15   1   0.5000  0.3106  0.7419  10.50000  0.05    0.25
Q16   1   0.7383  0.3621  1.1172  11.00000  0.05    0.25
Q17   1   0.7856  0.3656  1.2018  11.00000  0.05    0.25
Q18   1   0.0000  0.8337  0.1826  10.50000  0.05    0.25
Q19   1   0.8738  0.3809  0.8855  11.00000  0.05    0.24
Q20   1   0.7891  0.3603  0.7429  11.00000  0.05    0.24
;
_shelx_res_checksum              88319
_shelx_hkl_file
;
   0   0 -12  163.79   29.07
   0   0 -10  434.66   28.27
   0   0 -10  501.42   42.16
   0   0  -8 1034.20   58.17
   0   0  -8  993.83   42.20
   0   0  -8 1021.99   70.64
   0   0  -6  648.53   35.64
   0   0  -6  652.49   48.69
   0   0  -6  713.43   30.02
   0   0  -6  707.47   42.49
   0   0  -4  973.12   50.44
   0   0  -4  929.80   31.71
   0   0  -4  950.46   37.51
   0   0  -2 5857.02  149.22
   0   0  -2 6128.01  137.90
   0   0   2 6163.66  162.37
   0   0   2 6524.91  150.72
   0   0   4  666.24   32.46
   0   0   4  671.93   30.37
   0   0   6  578.50   33.50
   0   0   6  669.13   37.84
   0   0   8 1078.66   56.64
   0   0  10  535.94   37.10
   0   0  10  547.26   42.97
   0   0  12  156.92   22.33
   0   0  12  128.89   24.19
   0  -1 -13   79.84   21.21
   0   1 -11  218.90   19.87
   0  -1 -11  226.37   30.31
   0   1 -11  235.87   30.25
   0   1  -9  802.11   51.34
   0  -1  -9  753.01   51.39
   0   1  -9  745.14   63.74
   0  -1  -9  721.73   62.31
   0   1  -9  669.40   33.39
   0  -1  -9  713.72   37.31
   0  -1  -7 1119.87   45.40
   0  -1  -7 1120.20   71.08
   0   1  -7 1178.45   53.41
   0  -1  -7 1122.88   59.68
   0   1  -7 1081.99   57.11
   0   1  -7 1221.01   73.05
   0   1  -7 1180.83   42.00
   0   1  -5 3003.40   78.44
   0  -1  -5 3088.59   84.67
   0  -1  -5 2942.56   95.22
   0  -1  -5 2969.29  112.19
   0   1  -5 3081.14   92.19
   0  -1  -5 2753.03   96.33
   0   1  -5 3059.16  112.22
   0   1  -3 3827.03  118.62
   0  -1  -3 3956.43   90.90
   0   1  -3 3977.44   90.61
   0   1  -3 3897.30  102.86
   0  -1  -3 3884.20  104.15
   0   1  -3 3949.68   92.75
   0   1  -3 3805.82  109.40
   0  -1  -3 4093.25  119.11
   0  -1  -1 3280.14   77.49
   0  -1  -1 3546.86   80.93
   0   1  -1 3341.04   81.68
   0   1  -1 3341.25   83.51
   0  -1  -1 3559.15   81.29
   0   1   1 3572.71   84.50
   0  -1   1 3590.73   82.92
   0   1   1 3539.13   84.35
   0  -1   1 3426.06   87.91
   0   1   1 3588.40   82.67
   0  -1   1 3612.03   85.78
   0   1   3 3692.43   92.83
   0  -1   3 3821.35   86.86
   0  -1   3 3688.11   99.38
   0   1   3 3751.74   86.65
   0   1   3 3822.90   95.49
   0   1   5 2931.66   92.18
   0  -1   5 3264.06  104.26
   0  -1   5 3206.31   95.75
   0   1   5 3203.19   88.20
   0  -1   7 1089.52   52.88
   0   1   7 1131.97   52.95
   0  -1   7 1249.14   62.06
   0   1   7 1162.22   48.09
   0  -1   7 1191.05   76.07
   0   1   9  792.68   42.33
   0   1   9  737.48   46.86
   0  -1   9  789.98   68.94
   0   1   9  792.28   48.40
   0  -1   9  794.54   52.95
   0   1  11  205.86   26.80
   0  -1  11  224.96   26.61
   0  -1  11  250.39   32.07
   0   1  11  221.10   23.76
   0  -1  13   95.35   20.11
   0  -1  13   82.41   21.98
   0   1  13   78.27   17.31
   0   1  13   64.02   14.93
   0   2 -12   96.97   22.03
   0  -2 -12  134.31   25.19
   0   2 -10  318.89   21.96
   0   2 -10  401.88   34.99
   0   2 -10  344.08   34.29
   0  -2 -10  313.62   35.19
   0   2  -8 1000.07   36.79
   0  -2  -8  835.38   65.98
   0  -2  -8  891.33   54.56
   0   2  -8  948.80   53.96
   0  -2  -8  925.21   54.89
   0   2  -8  827.62   47.30
   0  -2  -8  977.79   44.65
   0  -2  -6 1261.01   57.18
   0  -2  -6 1248.51   48.57
   0  -2  -6 1324.27   72.86
   0  -2  -6 1178.93   34.71
   0  -2  -6 1307.05   34.44
   0   2  -6 1287.44   39.54
   0  -2  -4 2401.12   61.79
   0  -2  -4 2258.61   73.11
   0   2  -4 2395.50   79.96
   0   2  -4 2394.56   60.91
   0   2  -4 2367.43   58.92
   0   2  -2 3858.58   88.30
   0   2  -2 3964.82  102.88
   0  -2  -2 3778.41   91.38
   0  -2  -2 4046.41   98.66
   0  -2   0 8907.20  206.72
   0   2   0 9453.32  205.97
   0  -2   0 9282.81  203.54
   0  -2   0 9118.04  205.99
   0  -2   2 3572.92  100.59
   0  -2   2 3471.15   88.08
   0   2   2 3620.95   91.96
   0  -2   2 3536.84   93.57
   0   2   2 3543.13   91.04
   0   2   2 3689.71   88.34
   0   2   4 2026.05   65.44
   0   2   4 2163.34   56.70
   0   2   4 2130.45   64.78
   0  -2   4 1998.93   79.89
   0  -2   4 2151.74   56.98
   0  -2   4 2095.21   69.58
   0   2   4 2202.74   65.96
   0   2   4 2189.87   59.52
   0  -2   6 1414.99   67.73
   0  -2   6 1557.61   85.19
   0   2   6 1470.87   50.19
   0  -2   6 1447.96   60.59
   0  -2   6 1431.20   39.89
   0   2   6 1461.85   57.74
   0   2   8  944.63   50.65
   0  -2   8  934.72   51.96
   0  -2   8  983.90   60.66
   0   2   8  996.01   43.38
   0  -2  10  392.29   40.10
   0   2  10  359.16   26.96
   0   2  10  396.74   30.77
   0  -2  10  395.10   54.21
   0  -2  12  121.27   22.34
   0   2  12  146.70   21.26
   0   2  12   80.04   14.99
   0  -2  12  126.68   25.75
   0  -3 -13  126.60   26.04
   0   3 -11  223.64   30.29
   0  -3 -11  195.29   29.07
   0   3  -9  497.04   23.86
   0  -3  -9  468.91   41.21
   0  -3  -9  510.86   41.78
   0  -3  -9  520.52   34.57
   0  -3  -7  580.63   39.31
   0  -3  -7  653.28   35.88
   0  -3  -7  620.57   23.14
   0   3  -7  618.79   23.74
   0  -3  -7  593.39   52.01
   0  -3  -7  622.82   24.20
   0  -3  -7  548.89   39.70
   0  -3  -5 2000.87   57.21
   0  -3  -5 1913.76   69.10
   0   3  -5 1994.44   74.71
   0   3  -5 1944.49   49.75
   0   3  -5 1935.77   55.60
   0   3  -3 3803.46   95.23
   0   3  -3 3704.48   85.53
   0  -3  -3 3731.64   96.15
   0  -3  -3 3601.41  100.65
   0  -3  -3 3677.15   91.57
   0   3  -3 3719.32  106.65
   0   3  -1 3796.43  102.11
   0   3  -1 4134.48   96.75
   0  -3  -1 4125.34  103.46
   0   3  -1 4021.36   95.87
   0  -3  -1 4129.47  104.90
   0   3  -1 4243.87  105.40
   0  -3   1 3765.72   93.10
   0   3   1 3893.19  101.02
   0  -3   1 3839.78   90.21
   0  -3   1 3919.98   99.65
   0  -3   1 3895.34  102.11
   0   3   1 3892.30   99.06
   0  -3   1 3832.94   98.29
   0  -3   3 3371.34   95.80
   0   3   3 3356.50   92.38
   0   3   3 3306.57   91.75
   0  -3   3 3273.09   88.02
   0   3   3 3343.66   87.75
   0  -3   3 3288.73   85.91
   0   3   5 2068.79   69.10
   0   3   5 2023.84   58.81
   0   3   5 2044.68   59.33
   0  -3   5 1994.87   97.84
   0   3   5 2047.63   67.65
   0  -3   5 2032.82   59.41
   0  -3   5 1769.82   83.61
   0   3   5 2101.03   69.05
   0  -3   5 2074.07   74.04
   0  -3   7  663.59   25.65
   0   3   7  727.47   40.04
   0  -3   7  610.41   25.19
   0  -3   7  685.25   42.01
   0   3   7  646.71   35.87
   0   3   7  635.68   29.69
   0  -3   7  717.25   63.18
   0   3   9  489.18   33.55
   0   3   9  496.97   28.79
   0  -3   9  507.71   46.38
   0  -3   9  480.43   58.15
   0  -3  11  231.83   45.62
   0   3  11  225.43   25.10
   0   3  11  215.19   20.80
   0  -3  11  235.19   34.75
   0   3  13   87.26   17.65
   0  -4 -12   86.01   21.53
   0  -4 -10  189.82   27.00
   0   4 -10  195.17   12.68
   0   4 -10  213.79   25.94
   0   4  -8  631.49   22.82
   0  -4  -8  724.45   62.62
   0  -4  -8  654.56   39.30
   0  -4  -8  553.19   42.38
   0  -4  -8  694.15   28.06
   0  -4  -8  760.34   47.68
   0  -4  -8  681.64   26.87
   0   4  -8  715.62   43.68
   0   4  -8  624.96   43.92
   0   4  -6 1165.83   57.09
   0   4  -6 1232.07   41.43
   0   4  -6 1151.88   52.86
   0   4  -6 1165.02   31.37
   0  -4  -6 1157.94   53.42
   0  -4  -6 1197.73   42.70
   0   4  -4 1897.49   67.04
   0  -4  -4 1915.93   60.84
   0   4  -4 2002.35   60.35
   0  -4  -4 1964.37   66.77
   0   4  -4 1930.49   46.33
   0  -4  -4 1992.63   56.76
   0   4  -4 1989.17   72.02
   0   4  -2 2168.91   67.58
   0   4  -2 2106.94   63.00
   0  -4  -2 2242.75   66.23
   0   4  -2 2102.63   64.97
   0   4   0 3587.05  101.85
   0   4   0 3656.91   98.31
   0  -4   0 3601.23   94.52
   0  -4   0 3633.10   99.36
   0  -4   0 3568.23   95.38
   0   4   0 3660.62   88.47
   0   4   0 3554.38   94.31
   0  -4   0 3620.22  100.36
   0   4   0 3638.39   92.83
   0  -4   2 1924.85   50.61
   0  -4   2 1884.43   66.60
   0  -4   2 1819.08   60.51
   0   4   2 1954.37   63.18
   0  -4   2 1922.59   64.14
   0  -4   2 1899.12   51.64
   0  -4   2 1931.48   61.75
   0   4   2 1995.27   60.60
   0   4   4 1950.23   64.72
   0   4   4 1873.75   64.17
   0   4   4 1860.97   59.24
   0  -4   4 1805.25   56.63
   0  -4   4 1828.33   60.15
   0  -4   4 1897.46   68.15
   0   4   6 1342.34   55.26
   0   4   6 1414.22   47.09
   0  -4   6 1291.71   47.18
   0  -4   6 1344.77   75.62
   0  -4   6 1402.36   86.41
   0  -4   6 1421.44   62.34
   0   4   6 1276.20   54.53
   0  -4   8  726.75   30.23
   0   4   8  693.95   32.85
   0   4   8  750.99   43.57
   0  -4   8  691.36   46.40
   0   4   8  717.81   40.72
   0   4  10  208.99   23.47
   0  -4  10  213.00   42.57
   0  -4  10  250.22   36.21
   0   4  10  213.68   18.91
   0   4  12   62.29   12.37
   0  -4  12   68.10   32.04
   0   4  12   74.80   16.73
   0  -4  12   46.06   21.01
   0   5 -11  187.82   26.33
   0  -5 -11  190.31   27.67
   0   5  -9  311.76   30.87
   0  -5  -9  342.76   34.15
   0  -5  -9  357.63   20.35
   0   5  -9  328.06   33.69
   0  -5  -9  300.68   33.07
   0  -5  -9  341.93   19.41
   0   5  -7  453.78   24.12
   0   5  -7  476.11   36.54
   0  -5  -7  435.39   25.83
   0  -5  -7  411.67   33.01
   0   5  -7  378.76   30.75
   0   5  -5 1075.95   42.59
   0  -5  -5 1042.71   43.61
   0  -5  -5 1072.74   49.26
   0   5  -5 1051.14   49.24
   0  -5  -5 1156.68   51.81
   0  -5  -5 1138.98   39.98
   0   5  -5 1055.56   52.61
   0   5  -3 1903.51   60.67
   0   5  -3 1792.15   62.66
   0  -5  -3 1837.11   64.25
   0  -5  -3 1725.60   61.31
   0   5  -3 1701.19   45.71
   0   5  -3 1835.03   65.79
   0  -5  -3 1784.96   53.03
   0   5  -1 2272.28   69.48
   0  -5  -1 2182.88   69.88
   0   5  -1 2309.28   62.85
   0  -5  -1 2301.10   67.14
   0  -5  -1 2231.06   72.53
   0   5  -1 2239.07   60.23
   0  -5   1 2340.64   75.70
   0   5   1 2406.14   77.07
   0  -5   1 2367.38   75.59
   0  -5   1 2279.46   74.02
   0  -5   1 2172.96   65.93
   0   5   1 2265.72   72.56
   0   5   1 2391.59   69.90
   0   5   3 1672.59   62.59
   0  -5   3 1805.17   65.19
   0  -5   3 1679.81   61.59
   0  -5   3 1711.35   62.42
   0   5   3 1729.67   59.85
   0  -5   3 1766.14   49.19
   0  -5   3 1683.10   70.74
   0   5   5 1113.54   49.47
   0  -5   5 1049.81   40.28
   0   5   5 1121.22   44.69
   0  -5   5 1046.02   45.31
   0   5   5 1077.56   48.82
   0  -5   5 1228.34   55.10
   0  -5   7  449.31   53.35
   0   5   7  470.74   32.04
   0  -5   7  415.08   25.89
   0   5   7  425.40   24.53
   0  -5   7  411.89   26.76
   0   5   7  443.63   31.60
   0  -5   7  431.45   34.70
   0  -5   9  294.36   40.79
   0  -5   9  311.24   51.83
   0   5   9  308.19   28.42
   0  -5   9  329.90   20.99
   0   5  11  148.63   21.43
   0  -5  11  211.72   46.54
   0  -5  11  135.12   29.37
   0   6 -10  145.46   24.16
   0   6 -10  154.18   23.79
   0  -6 -10  166.20   14.24
   0  -6 -10  135.46   23.93
   0   6  -8  428.49   25.11
   0  -6  -8  333.97   32.24
   0   6  -8  352.17   33.26
   0   6  -8  355.12   31.37
   0  -6  -8  381.80   25.30
   0  -6  -8  355.36   23.84
   0   6  -6  348.48   28.84
   0   6  -6  391.27   24.69
   0  -6  -6  407.14   31.10
   0  -6  -6  423.59   32.29
   0   6  -6  396.43   32.45
   0  -6  -6  450.71   27.88
   0  -6  -6  387.67   22.31
   0  -6  -4  641.05   34.94
   0  -6  -4  623.86   35.73
   0  -6  -4  654.52   27.72
   0   6  -4  667.73   18.22
   0   6  -4  641.47   36.22
   0   6  -4  681.98   39.18
   0  -6  -4  717.87   38.67
   0   6  -4  682.55   34.52
   0   6  -2 1428.38   54.98
   0   6  -2 1451.35   44.16
   0  -6  -2 1498.67   57.45
   0  -6  -2 1638.66   52.36
   0   6  -2 1472.54   55.60
   0   6   0 2882.81   89.56
   0   6   0 3318.32   89.07
   0   6   0 3017.64   99.99
   0   6   0 3205.76   96.26
   0  -6   0 3165.89   93.45
   0   6   0 3165.31   82.82
   0  -6   0 3098.60   98.27
   0  -6   0 3138.43   91.19
   0  -6   0 3274.60  100.26
   0  -6   2 1494.64   59.96
   0   6   2 1503.62   60.81
   0   6   2 1519.07   55.39
   0  -6   2 1425.79   47.68
   0  -6   2 1578.48   61.15
   0   6   2 1421.05   56.43
   0  -6   2 1520.11   63.13
   0  -6   4  712.01   39.49
   0  -6   4  637.79   37.44
   0  -6   4  662.99   47.43
   0  -6   4  697.09   37.87
   0  -6   4  667.83   25.91
   0   6   4  760.66   40.63
   0   6   4  639.55   34.99
   0  -6   6  438.82   24.13
   0  -6   6  461.39   46.70
   0   6   6  449.41   32.19
   0  -6   6  426.30   31.98
   0   6   6  445.51   27.75
   0  -6   6  455.31   29.85
   0   6   6  469.11   30.89
   0  -6   6  398.06   32.66
   0   6   8  327.59   23.67
   0   6   8  329.26   29.23
   0  -6   8  421.07   27.93
   0  -6   8  400.34   26.94
   0  -6   8  395.55   26.88
   0   6   8  379.10   31.01
   0  -6  10  114.43   36.96
   0  -6  10  150.28   32.38
   0   6  10  133.16   20.90
   0  -7  -9  181.86   19.39
   0  -7  -9  212.79   19.20
   0  -7  -9  203.23   25.72
   0   7  -9  176.94   24.52
   0   7  -9  167.06   25.07
   0   7  -7  345.09   32.72
   0   7  -7  337.44   29.74
   0  -7  -7  281.72   24.03
   0   7  -7  300.52   23.16
   0  -7  -7  263.78   27.87
   0  -7  -5  635.50   40.18
   0   7  -5  618.94   40.23
   0  -7  -5  634.42   37.09
   0  -7  -5  631.93   28.84
   0   7  -5  693.85   36.45
   0   7  -5  565.88   36.79
   0  -7  -3  710.80   40.28
   0  -7  -3  845.46   43.21
   0   7  -3  789.92   26.59
   0   7  -3  692.37   38.48
   0   7  -3  752.20   39.44
   0  -7  -3  850.80   35.59
   0  -7  -3  807.01   42.60
   0   7  -1  804.29   38.56
   0  -7  -1  772.86   41.66
   0  -7  -1  801.31   37.25
   0   7  -1  804.34   29.96
   0  -7  -1  844.28   40.08
   0   7  -1  801.92   32.68
   0   7   1  907.57   47.54
   0   7   1  809.82   37.54
   0  -7   1  871.26   45.68
   0   7   1  832.09   38.44
   0  -7   1  891.36   45.36
   0   7   1  795.01   32.75
   0  -7   1  830.74   36.55
   0  -7   1  871.98   44.63
   0   7   1  883.34   43.14
   0   7   3  779.11   40.01
   0   7   3  783.07   44.49
   0  -7   3  818.58   50.35
   0  -7   3  854.88   44.63
   0  -7   3  760.11   42.85
   0   7   3  767.14   40.95
   0   7   5  669.06   37.78
   0   7   5  707.21   42.13
   0  -7   5  662.08   40.09
   0  -7   5  719.69   54.59
   0  -7   5  694.81   41.93
   0  -7   5  663.39   26.21
   0  -7   5  687.78   41.67
   0  -7   7  356.87   53.14
   0   7   7  352.67   28.35
   0   7   7  389.21   32.36
   0  -7   7  356.16   28.14
   0   7   7  322.05   25.85
   0  -7   7  319.26   20.94
   0   7   9  210.16   25.61
   0  -7   9  222.26   46.23
   0  -8  -8  150.08   18.83
   0   8  -8  183.02   24.39
   0   8  -8  164.04   19.09
   0  -8  -8  192.63   21.88
   0   8  -8  159.84   24.13
   0  -8  -6  226.89   17.76
   0   8  -6  190.36   22.60
   0   8  -6  240.12   27.27
   0   8  -6  237.63   23.04
   0  -8  -6  260.10   25.22
   0   8  -4  349.92   27.81
   0  -8  -4  385.30   23.70
   0   8  -4  381.98   28.31
   0  -8  -4  303.05   28.35
   0  -8  -4  343.02   21.09
   0  -8  -4  318.98   28.38
   0  -8  -2  586.52   38.61
   0   8  -2  607.62   36.49
   0  -8  -2  605.78   32.39
   0   8  -2  576.99   25.71
   0  -8  -2  603.88   36.64
   0   8  -2  618.93   35.61
   0   8   0 1040.67   50.19
   0  -8   0  993.05   45.44
   0  -8   0 1108.85   50.71
   0   8   0  991.88   45.40
   0   8   0  978.21   41.37
   0  -8   0  994.49   52.81
   0   8   0 1115.78   38.86
   0  -8   0 1079.11   53.12
   0   8   0  932.53   53.08
   0  -8   2  492.80   38.84
   0   8   2  587.72   33.75
   0  -8   2  599.51   38.77
   0  -8   2  630.95   40.76
   0   8   2  671.35   43.00
   0  -8   2  591.36   28.78
   0   8   2  655.14   38.81
   0   8   2  594.07   29.57
   0  -8   4  306.99   36.04
   0  -8   4  338.30   30.19
   0   8   4  300.30   26.82
   0   8   4  328.83   30.29
   0  -8   6  288.09   27.80
   0   8   6  258.75   25.10
   0   8   6  196.35   24.27
   0  -8   8  171.12   21.53
   0   8   8  172.16   23.98
   0  -8   8  190.14   22.95
   0  -8   8  165.81   41.50
   0  -9  -9   65.01   14.68
   0  -9  -9   61.92   14.84
   0   9  -7   89.18   19.75
   0   9  -7  115.21   19.42
   0  -9  -7   97.68   17.60
   0  -9  -5  259.27   20.30
   0  -9  -5  292.68   28.60
   0   9  -5  286.66   27.00
   0  -9  -3  379.77   32.78
   0   9  -3  373.27   29.21
   0  -9  -3  425.46   27.11
   0  -9  -3  366.84   31.40
   0   9  -1  319.66   25.77
   0  -9  -1  311.07   25.79
   0   9  -1  305.96   18.21
   0  -9  -1  308.52   26.26
   0   9   1  305.55   20.11
   0  -9   1  311.10   22.96
   0   9   1  324.08   23.69
   0  -9   1  281.94   28.93
   0  -9   1  302.95   29.54
   0   9   1  289.60   30.38
   0   9   1  295.48   23.94
   0   9   3  388.09   34.57
   0  -9   3  383.97   34.39
   0   9   3  356.84   24.44
   0  -9   3  423.75   40.59
   0   9   5  255.10   28.94
   0  -9   5  326.27   31.42
   0   9   7  135.46   22.35
   0  -9   7  146.03   22.27
   0  -9   7   96.11   34.62
   0 -10  -8   73.12   16.53
   0 -10  -8  103.16   20.02
   0  10  -6  122.92   20.43
   0 -10  -6  126.31   22.25
   0 -10  -4  190.30   26.52
   0  10  -4  167.20   21.00
   0 -10  -4  190.89   18.83
   0 -10  -2  201.71   21.71
   0  10  -2  172.37   20.82
   0 -10  -2  159.63   23.94
   0  10   0  245.57   23.42
   0 -10   0  260.62   29.92
   0 -10   0  232.78   27.08
   0  10   0  212.30   16.31
   0 -10   0  216.76   21.82
   0 -10   2  147.46   23.82
   0  10   2  218.16   21.27
   0  10   2  150.53   15.69
   0  10   2  176.56   24.93
   0 -10   4  145.44   23.95
   0  10   4  141.59   17.81
   0  10   4  173.87   25.84
   0 -10   6  140.96   25.59
   0  10   6  164.22   24.51
   0 -11  -5  101.06   21.52
   0  11  -5   63.32   15.38
   0  11  -3  126.19   18.79
   0 -11  -3   70.52   18.53
   0 -11  -1  155.23   23.06
   0  11  -1  153.08   20.31
   0 -11   1  152.06   25.93
   0  11   1  127.99   14.16
   0  11   1  166.66   20.53
   0  11   3  122.57   15.80
   0 -11   3  121.02   24.26
   0  11   3  126.74   17.90
   0  11   3   95.79   21.22
   0 -11   5  100.43   23.45
   0  11   5   90.53   16.08
   0  12  -4   54.40   14.86
   0  12  -2   55.60   13.69
   0  12   0  109.56   17.69
   0  12   2   59.06   13.23
  -1   0 -12  115.70   27.26
   1   0 -12  143.25   23.04
   1   0 -10  397.00   27.01
  -1   0 -10  380.75   26.95
  -1   0 -10  430.49   44.36
   1   0 -10  348.61   31.81
  -1   0  -8  777.22   59.57
  -1   0  -8  787.48   45.08
   1   0  -8  713.21   43.40
   1   0  -8  799.37   63.96
  -1   0  -8  754.15   54.20
   1   0  -8  761.58   36.00
  -1   0  -8  849.30   37.62
   1   0  -6 2013.94   73.32
  -1   0  -6 2119.27   74.17
   1   0  -6 2210.06   98.87
  -1   0  -6 2067.87   90.00
  -1   0  -6 2030.99   63.79
   1   0  -6 2058.45   64.40
   1   0  -4 2970.07   70.58
   1   0  -4 2912.54   78.16
  -1   0  -4 2774.03   96.10
  -1   0  -4 2924.75   70.35
   1   0  -4 2665.05   91.41
  -1   0  -4 2826.06   84.09
   1   0  -4 2798.03   83.18
   1   0  -4 2732.63  102.78
  -1   0  -2 4845.52  116.43
  -1   0  -2 4680.62  120.29
   1   0  -2 4881.20  123.31
   1   0   0 2319.08   60.01
  -1   0   0 2467.42   60.44
  -1   0   0 2431.70   58.16
  -1   0   0 2369.18   59.33
   1   0   0 2370.75   59.64
  -1   0   0 2407.33   58.36
  -1   0   2 4841.35  117.16
  -1   0   2 5128.02  120.22
  -1   0   2 5000.74  125.68
   1   0   2 4889.22  114.55
  -1   0   2 4695.04  118.43
  -1   0   2 4788.71  114.08
  -1   0   2 4984.31  135.48
  -1   0   4 3123.30   82.77
   1   0   4 3037.73   75.70
  -1   0   4 3096.36  112.66
  -1   0   4 2779.66   94.62
  -1   0   4 3137.56   75.08
  -1   0   4 3127.67   89.65
  -1   0   6 1977.40   96.92
  -1   0   6 1860.93   76.77
  -1   0   6 2038.52   70.14
   1   0   6 1968.70   69.67
  -1   0   6 1965.79   62.17
  -1   0   6 1953.31   71.31
  -1   0   8  841.31   52.08
  -1   0   8  903.68   46.64
   1   0   8  877.69   46.72
  -1   0   8  854.96   48.10
   1   0   8  845.52   47.46
  -1   0  10  377.82   31.45
  -1   0  10  308.52   34.62
   1   0  10  386.94   32.80
  -1   0  12  115.66   25.05
   1   0  12  182.63   23.39
   1   0  12  119.54   21.54
  -1   0  12  143.77   22.44
   1  -1 -13   66.04   18.28
  -1  -1 -11  207.66   32.26
   1  -1 -11  202.57   25.68
  -1   1 -11  242.53   21.92
   1   1 -11  191.18   25.49
  -1   1 -11  268.47   36.15
   1   1 -11  223.16   19.93
  -1   1  -9  563.70   39.79
   1   1  -9  553.35   29.01
  -1   1  -9  537.80   29.49
   1   1  -9  514.97   37.56
  -1   1  -9  566.08   54.30
   1  -1  -9  579.74   38.62
   1  -1  -9  499.38   31.52
  -1   1  -9  577.52   48.56
  -1  -1  -9  559.63   48.32
  -1  -1  -9  523.56   31.51
  -1  -1  -9  527.69   51.71
  -1  -1  -7 1441.12   53.52
  -1   1  -7 1483.00   62.24
  -1   1  -7 1414.74   77.96
  -1  -1  -7 1567.97   81.70
   1   1  -7 1435.17   61.61
  -1   1  -7 1427.61   49.28
  -1  -1  -7 1433.82   60.67
   1   1  -7 1494.75   85.14
   1  -1  -7 1373.04   53.08
   1  -1  -7 1368.88   59.31
   1  -1  -7 1629.40   87.37
   1  -1  -7 1306.51   67.42
   1   1  -7 1399.38   48.44
  -1  -1  -5 1187.57   47.63
  -1  -1  -5 1224.33   44.42
   1   1  -5 1329.97   69.99
   1  -1  -5 1286.60   68.33
   1   1  -5 1240.87   50.69
  -1   1  -5 1262.18   62.33
  -1   1  -5 1332.85   51.96
  -1   1  -5 1193.65   60.53
   1  -1  -5 1248.24   55.91
   1   1  -5 1211.15   40.24
   1  -1  -5 1290.18   49.49
   1  -1  -5 1281.23   45.95
  -1  -1  -5 1202.21   62.24
   1  -1  -5 1243.37   34.91
  -1  -1  -5 1306.89   35.87
  -1   1  -5 1262.29   34.66
  -1  -1  -5 1287.89   34.88
  -1  -1  -3 2710.49   69.94
  -1  -1  -3 2649.87   72.71
  -1  -1  -3 2750.62   74.75
  -1   1  -3 2672.69   85.80
   1  -1  -3 2696.19   81.77
  -1   1  -3 2704.81   69.25
  -1   1  -3 2735.06   69.04
   1  -1  -3 2776.42   75.78
  -1  -1  -3 2806.21   69.69
   1  -1  -3 2670.31   68.64
   1   1  -3 2721.48   68.63
   1  -1  -3 2827.42   73.32
  -1   1  -3 2759.23   78.97
   1  -1  -3 2780.48   94.88
   1  -1  -1 7555.39  176.02
  -1   1  -1 7488.37  175.68
   1  -1  -1 7523.30  175.59
   1   1  -1 7246.35  176.20
   1  -1  -1 7517.93  172.59
  -1  -1  -1 7565.73  168.24
  -1   1   1 7535.82  172.49
  -1  -1   1 7522.04  173.76
  -1   1   1 7436.36  175.24
  -1  -1   1 7678.85  169.02
  -1   1   1 7215.73  167.97
   1  -1   1 7761.87  174.21
  -1  -1   1 7561.48  172.83
  -1  -1   1 6810.75  215.40
   1   1   1 7591.37  171.35
   1  -1   1 7371.43  166.61
  -1   1   1 7472.98  171.98
   1  -1   1 7346.26  172.17
  -1  -1   1 7363.23  167.48
   1  -1   3 3092.52   91.10
  -1  -1   3 2830.33   90.38
  -1  -1   3 2835.36   73.00
  -1   1   3 2934.94   79.05
  -1   1   3 2816.04   73.25
   1  -1   3 2852.65   72.64
  -1   1   3 2943.80   72.63
  -1  -1   3 2739.43   72.10
  -1  -1   3 2928.51   71.46
   1   1   3 2939.53   78.30
  -1   1   3 3067.43   85.23
   1  -1   3 2822.83   82.33
  -1   1   3 2910.40   72.04
  -1  -1   3 2915.87  102.99
  -1  -1   3 2973.62   80.08
  -1  -1   3 2924.86   86.24
   1  -1   5 1182.44   60.57
  -1  -1   5 1115.63   32.97
   1   1   5 1136.10   42.03
  -1  -1   5 1113.22   46.75
  -1  -1   5 1163.96   37.17
   1  -1   5 1091.75   49.01
   1   1   5 1133.00   45.78
   1  -1   5 1155.57   33.59
  -1   1   5 1158.04   42.93
  -1  -1   5 1185.07   32.86
  -1  -1   5 1033.99   66.56
  -1  -1   5 1099.94   56.46
  -1   1   5 1162.40   32.88
  -1   1   5 1144.99   47.35
  -1   1   5 1151.23   44.59
  -1  -1   7 1390.79   70.69
   1  -1   7 1528.46   65.84
   1  -1   7 1428.65   79.37
  -1   1   7 1499.77   65.94
   1   1   7 1400.45   60.09
  -1  -1   7 1458.74   62.02
  -1   1   7 1429.33   57.30
   1   1   7 1340.86   54.77
  -1   1   7 1384.70   53.93
  -1   1   7 1514.12   62.41
   1  -1   9  618.27   43.40
   1   1   9  574.61   33.21
   1   1   9  566.23   36.40
  -1   1   9  539.14   36.04
  -1  -1   9  576.51   46.62
  -1  -1   9  570.07   39.29
   1   1   9  528.82   38.74
  -1   1   9  559.53   41.94
  -1  -1  11  209.40   26.46
   1   1  11  226.23   23.36
  -1   1  11  164.21   20.20
  -1   1  11  209.01   28.36
  -1  -1  11  213.54   31.56
  -1   1  11  226.73   24.79
   1  -1  11  232.19   28.76
   1   1  13   67.26   15.18
   1  -1  13   89.74   19.74
   1  -1  13   60.82   18.18
  -1   1  13   69.90   17.70
   1   2 -12  194.70   27.37
  -1   2 -12  162.13   29.40
  -1  -2 -12  105.22   26.39
   1  -2 -12  179.72   24.68
  -1   2 -10  309.17   22.42
   1   2 -10  365.49   22.10
  -1   2 -10  448.61   36.92
   1  -2 -10  367.57   31.84
  -1  -2 -10  292.78   37.74
  -1   2 -10  370.74   39.89
   1   2 -10  298.62   30.86
   1   2  -8  626.89   27.27
  -1   2  -8  586.67   39.78
  -1  -2  -8  592.07   52.40
  -1   2  -8  581.33   27.91
   1  -2  -8  544.28   33.55
   1  -2  -8  552.58   42.74
  -1  -2  -8  585.61   33.73
   1  -2  -8  579.32   37.19
   1  -2  -8  572.54   54.85
   1   2  -8  583.31   39.20
   1   2  -6 1568.59   46.62
   1  -2  -6 1486.57   58.47
   1  -2  -6 1562.53   67.50
  -1  -2  -6 1581.86   56.73
  -1  -2  -6 1510.04   60.87
  -1   2  -6 1552.07   43.30
  -1   2  -6 1514.27   73.43
  -1  -2  -6 1577.36   79.34
  -1  -2  -6 1581.41   45.76
   1   2  -6 1523.90   63.27
   1  -2  -6 1575.93   58.02
  -1  -2  -6 1580.04   43.78
   1  -2  -6 1706.72   86.44
   1  -2  -6 1539.70   44.06
  -1   2  -6 1572.95   63.60
   1   2  -4 2543.12   77.42
   1  -2  -4 2669.26   69.35
   1   2  -4 2583.69   64.14
  -1  -2  -4 2528.32   68.97
  -1  -2  -4 2605.16   75.21
   1  -2  -4 2625.17   75.31
   1  -2  -4 2683.47   76.42
  -1   2  -4 2678.98   82.44
  -1   2  -4 2537.31   91.57
  -1  -2  -4 2603.19   70.19
   1  -2  -4 2642.27   83.98
   1  -2  -4 2580.32  100.06
  -1   2  -4 2651.77   68.68
   1  -2  -2 4679.46  121.51
   1  -2  -2 4762.39  114.93
   1   2  -2 5039.90  123.15
   1  -2  -2 4655.35  116.57
   1   2  -2 4796.99  116.52
  -1   2  -2 4931.83  124.58
  -1   2  -2 4714.12  129.76
   1  -2   0 2697.21   72.87
  -1  -2   0 2621.22   72.22
   1   2   0 2827.54   72.72
   1  -2   0 2739.41   72.48
  -1  -2   0 2797.12   70.51
  -1   2   0 2791.07   72.50
   1  -2   0 2717.50   73.45
  -1   2   0 2666.84   67.90
  -1  -2   0 2735.42   70.46
  -1   2   2 4525.40  118.37
  -1  -2   2 4344.85  119.72
  -1   2   2 4508.20  112.47
  -1   2   2 4631.49  114.19
   1  -2   2 4693.55  114.68
  -1  -2   2 4589.43  113.04
   1  -2   2 4661.61  119.19
  -1  -2   2 4660.94  114.07
   1   2   2 4822.99  117.38
  -1  -2   2 4628.78  117.98
  -1  -2   2 4634.39  114.44
   1  -2   2 4725.43  115.46
   1   2   2 4606.73  109.89
  -1   2   4 2709.00   76.22
  -1  -2   4 2555.32   90.26
  -1  -2   4 2598.34   70.99
  -1   2   4 2673.72   79.43
   1  -2   4 2749.94   98.18
  -1   2   4 2638.97   72.88
  -1   2   4 2708.62   70.75
  -1  -2   4 2762.51   71.03
   1   2   4 2631.87   76.86
   1  -2   4 2663.09   71.46
  -1  -2   4 2625.27   80.08
   1  -2   4 2746.94   84.89
  -1  -2   4 2718.03  109.84
   1   2   4 2552.03   65.85
  -1   2   6 1502.33   54.98
   1  -2   6 1560.97   64.33
  -1   2   6 1564.65   57.40
  -1   2   6 1496.33   43.01
  -1   2   6 1507.12   52.30
   1   2   6 1633.71   48.93
  -1  -2   6 1514.45   44.29
  -1  -2   6 1440.28   60.10
   1   2   6 1485.56   57.87
   1  -2   6 1594.59   82.13
  -1  -2   6 1474.02   42.90
  -1  -2   6 1421.56   74.23
   1  -2   6 1464.00   44.31
   1   2   8  585.96   29.89
   1  -2   8  603.72   45.01
   1   2   8  635.67   39.74
   1  -2   8  638.12   56.54
  -1  -2   8  644.36   49.91
  -1   2   8  610.63   34.81
  -1  -2   8  624.34   40.96
  -1   2   8  597.71   32.75
   1  -2   8  582.79   40.86
   1   2  10  341.66   24.34
  -1   2  10  292.48   24.92
  -1  -2  10  373.34   33.80
  -1   2  10  274.00   25.38
   1  -2  10  424.84   50.71
  -1  -2  10  309.54   37.47
  -1  -2  10  347.42   52.64
   1  -2  10  328.18   36.32
   1  -2  12  173.33   28.00
   1   2  12  121.01   16.09
  -1   2  12  135.07   19.86
  -1  -2  12  192.71   27.07
  -1  -2  12  197.63   32.07
   1   2  12  167.42   23.91
  -1   2  12  154.13   19.57
   1  -3 -13   44.88   15.63
   1   3 -11  143.75   23.70
  -1  -3 -11  178.85   30.50
  -1   3 -11  135.11   27.16
  -1   3 -11  191.73   26.49
   1  -3 -11  150.00   21.69
  -1  -3  -9  277.63   35.14
   1   3  -9  382.74   19.13
   1  -3  -9  430.10   32.73
   1  -3  -9  356.78   36.77
   1  -3  -9  387.83   29.85
   1   3  -9  317.46   29.53
   1   3  -9  336.36   31.80
  -1   3  -9  409.92   22.64
  -1   3  -9  383.24   33.26
  -1  -3  -7 1327.35   55.80
   1   3  -7 1392.75   40.37
  -1   3  -7 1422.72   42.31
  -1   3  -7 1372.64   62.52
   1  -3  -7 1322.34   82.84
   1  -3  -7 1277.58   64.42
  -1  -3  -7 1351.63   60.79
   1  -3  -7 1371.74   58.43
  -1  -3  -7 1386.13   43.34
  -1  -3  -7 1454.57   45.14
  -1   3  -7 1354.20   70.39
   1   3  -7 1343.25   58.57
   1  -3  -7 1385.20   43.06
  -1   3  -7 1451.09   45.37
   1  -3  -7 1374.45   57.22
  -1  -3  -7 1368.88   79.68
   1  -3  -5 1888.13   62.89
   1   3  -5 1957.84   66.57
   1  -3  -5 1887.90   71.55
   1  -3  -5 2000.21   58.02
   1  -3  -5 1902.93   64.14
  -1  -3  -5 1881.61   56.89
  -1   3  -5 2069.10   81.01
  -1   3  -5 1893.21   70.94
  -1   3  -5 2036.83   57.14
  -1  -3  -5 1796.29   64.31
   1  -3  -5 1940.71   89.50
  -1  -3  -5 1855.04   64.33
  -1   3  -3 2666.51   86.66
   1  -3  -3 2830.26   81.22
   1  -3  -3 2635.68   73.89
   1   3  -3 2670.57   74.21
   1  -3  -3 2618.41   73.99
   1  -3  -3 2632.08   74.90
  -1  -3  -3 2626.42   77.27
  -1   3  -3 2736.95   73.80
   1   3  -3 2763.86   82.22
   1   3  -3 2502.70   74.73
   1  -3  -3 2646.72   73.36
  -1  -3  -3 2615.56   74.21
   1  -3  -1 2456.09   58.77
  -1  -3  -1 2523.67   69.47
  -1   3  -1 2386.37   66.57
   1  -3  -1 2287.92   69.31
   1   3  -1 2342.47   65.86
   1   3  -1 2285.31   61.20
  -1   3  -1 2322.59   67.77
  -1  -3  -1 2484.34   65.77
  -1  -3   1 2055.16   58.61
  -1   3   1 2174.44   62.27
   1   3   1 2193.11   62.40
  -1  -3   1 2065.21   62.20
   1  -3   1 2079.07   64.37
   1  -3   1 2077.72   61.37
  -1  -3   1 2092.40   60.97
  -1  -3   1 2066.01   56.09
   1  -3   1 2160.67   63.77
   1   3   1 2108.10   62.35
   1  -3   1 2084.67   66.87
  -1   3   1 2112.94   62.68
  -1  -3   1 2091.36   52.83
   1  -3   3 2710.03   74.81
   1   3   3 2570.40   77.51
  -1  -3   3 2665.63   85.51
   1  -3   3 2663.11   75.22
   1   3   3 2528.34   73.16
   1   3   3 2547.69   70.51
  -1   3   3 2642.50   74.25
  -1  -3   3 2537.75   73.16
  -1  -3   3 2561.53   75.97
   1  -3   3 2520.57   79.72
  -1   3   3 2656.96   73.48
  -1  -3   3 2448.38   76.05
  -1   3   3 2608.14   78.22
  -1  -3   3 2540.49   74.30
  -1  -3   5 2023.04   84.89
   1   3   5 1971.60   68.45
   1  -3   5 2113.99   93.08
  -1  -3   5 1973.18   70.46
  -1   3   5 2007.25   58.58
  -1   3   5 2011.75   63.16
   1  -3   5 1973.73   60.04
  -1  -3   5 1863.33   57.99
   1   3   5 1989.05   65.18
   1   3   5 1913.56   51.55
  -1   3   5 1941.43   67.79
   1  -3   5 1962.93   73.16
  -1   3   5 1904.85   62.58
  -1   3   7 1318.63   57.91
  -1   3   7 1454.87   62.22
   1   3   7 1447.94   45.93
  -1  -3   7 1484.36   45.59
   1  -3   7 1439.01   46.89
   1  -3   7 1574.56   89.21
   1   3   7 1336.18   59.19
   1   3   7 1456.72   60.24
  -1  -3   7 1546.55   46.95
  -1  -3   7 1530.98   83.26
  -1   3   7 1533.88   55.92
  -1  -3   7 1471.29   65.06
  -1   3   7 1414.23   54.72
   1  -3   7 1450.74   66.70
  -1  -3   7 1456.74   78.14
  -1   3   7 1489.54   45.32
  -1   3   9  339.74   25.93
  -1  -3   9  429.36   58.86
   1  -3   9  401.14   50.69
   1   3   9  393.04   32.35
   1   3   9  343.07   21.03
   1   3   9  340.77   29.37
  -1   3   9  372.52   26.72
  -1  -3   9  372.78   41.25
   1  -3   9  358.07   38.02
  -1  -3  11  108.15   22.67
   1  -3  11  115.54   31.43
  -1   3  11  150.87   18.79
   1   3  11  130.71   21.06
  -1  -3  11  151.41   29.54
   1  -3  11  100.94   22.89
   1   3  11  130.35   14.54
  -1   3  11  152.89   19.15
  -1  -3  11  144.01   39.12
  -1   3  13   63.44   15.09
   1  -3  13   38.88   19.93
   1  -4 -12   98.13   17.65
  -1  -4 -12   70.76   23.59
  -1  -4 -10  209.25   27.08
  -1  -4 -10  243.42   33.78
  -1   4 -10  247.98   16.86
   1   4 -10  214.03   27.02
   1  -4 -10  266.49   26.26
  -1   4 -10  232.32   30.84
   1   4 -10  291.69   29.56
   1  -4  -8  374.88   29.60
   1  -4  -8  360.68   19.34
  -1  -4  -8  379.92   20.81
  -1   4  -8  341.70   18.16
  -1  -4  -8  350.60   44.12
  -1  -4  -8  375.55   19.89
  -1  -4  -8  355.13   28.43
   1   4  -8  320.68   28.04
   1  -4  -8  367.04   28.95
  -1   4  -8  337.58   33.85
  -1  -4  -8  397.32   32.30
   1  -4  -8  387.83   35.91
  -1   4  -8  368.20   18.86
   1  -4  -6  888.25   39.60
   1  -4  -6  867.05   35.73
   1  -4  -6  845.62   62.13
  -1   4  -6  964.96   35.83
   1  -4  -6  875.88   41.68
   1   4  -6  857.27   46.71
  -1  -4  -6  901.04   35.90
  -1   4  -6  965.61   53.07
   1   4  -6  981.82   45.43
  -1  -4  -6  868.25   42.92
   1  -4  -6  951.99   49.79
   1  -4  -6  945.78   37.95
  -1  -4  -6  876.00   43.02
   1  -4  -4 1896.46   66.83
   1   4  -4 1745.21   61.15
   1  -4  -4 1799.03   59.48
   1   4  -4 1891.48   59.31
   1  -4  -4 1932.22   61.97
  -1   4  -4 1840.41   58.65
  -1   4  -4 1892.23   72.52
  -1  -4  -4 1850.96   63.65
   1  -4  -4 1823.24   60.29
   1   4  -4 1878.23   68.20
  -1  -4  -4 1809.53   59.47
   1  -4  -4 1905.20   59.00
  -1   4  -4 1872.51   55.15
   1  -4  -4 1789.08   68.05
  -1   4  -2 3276.34   90.99
   1  -4  -2 3241.89   78.03
  -1  -4  -2 3246.79   90.91
   1   4  -2 3412.09   90.59
  -1   4  -2 3185.33   86.53
   1   4  -2 3202.17   90.87
  -1   4  -2 3254.76   94.56
   1  -4  -2 3326.02   91.25
   1  -4  -2 3184.71   94.21
  -1  -4  -2 3146.37   93.39
   1   4  -2 3285.88   86.88
  -1  -4   0 1975.18   62.49
   1  -4   0 1904.14   58.63
   1  -4   0 1867.15   60.64
   1   4   0 1952.97   61.51
  -1   4   0 2055.25   55.69
  -1   4   0 1971.82   60.36
  -1  -4   0 1890.84   60.55
  -1  -4   0 1910.55   55.19
   1  -4   0 1919.78   62.61
  -1   4   0 1925.57   61.27
   1   4   0 1822.00   51.11
   1   4   0 1946.11   56.63
  -1   4   2 3152.56   90.20
   1  -4   2 3143.11  100.81
  -1  -4   2 3065.03   73.58
   1  -4   2 3135.27   90.19
   1   4   2 3130.16   91.97
  -1   4   2 3030.50   87.97
  -1  -4   2 3082.35   85.64
   1   4   2 3152.84   88.76
  -1  -4   2 3082.70   88.40
  -1  -4   2 3015.64   83.75
   1  -4   2 3070.27   92.77
  -1  -4   2 3101.62   89.08
  -1  -4   4 2067.86   64.00
  -1   4   4 1947.54   64.40
   1  -4   4 2004.28   71.78
  -1  -4   4 1922.35   63.98
   1   4   4 1879.25   60.57
   1  -4   4 1843.61   63.53
   1   4   4 1953.04   67.80
  -1  -4   4 1987.42   79.44
  -1   4   4 2031.30   63.10
  -1  -4   4 1960.74   65.94
   1  -4   4 1697.97   78.74
  -1  -4   4 1957.50   68.65
   1  -4   4 1935.16   64.68
   1   4   4 2006.51   63.30
  -1   4   4 1916.37   68.41
   1   4   6  883.75   44.47
   1  -4   6  991.60   67.98
  -1   4   6  882.08   44.60
  -1   4   6  921.83   36.71
  -1  -4   6  864.76   36.54
  -1   4   6  919.15   41.50
  -1  -4   6  876.87   46.68
   1   4   6  926.63   42.60
  -1  -4   6  936.01   43.89
  -1  -4   6  936.55   62.00
   1  -4   6  988.74   50.94
   1  -4   6  862.86   38.01
   1   4   8  335.96   28.36
   1   4   8  392.96   19.81
   1  -4   8  391.95   48.72
   1   4   8  352.78   29.29
  -1  -4   8  361.34   41.51
  -1   4   8  367.66   20.15
  -1   4   8  356.10   30.39
  -1  -4   8  340.33   31.33
  -1   4   8  384.40   30.01
  -1   4   8  328.99   25.40
  -1  -4   8  394.12   21.48
  -1  -4   8  365.92   20.55
   1  -4   8  364.82   21.25
  -1  -4   8  455.54   55.93
  -1   4   8  380.06   25.93
  -1   4  10  273.90   23.90
   1  -4  10  233.13   43.61
   1  -4  10  266.01   35.57
   1   4  10  240.05   17.75
  -1  -4  10  245.45   48.36
  -1   4  10  311.06   26.75
  -1  -4  10  321.23   41.62
   1   4  10  235.39   26.67
  -1   4  12  138.45   18.24
  -1   4  12  130.35   19.99
   1   4  12  134.47   22.44
   1  -4  12   90.98   32.78
   1  -4  12  145.41   28.38
   1  -5 -11   88.07   16.16
  -1  -5 -11  110.86   26.96
  -1   5  -9  265.15   16.80
  -1   5  -9  261.39   14.67
  -1  -5  -9  220.12   27.08
  -1  -5  -9  280.38   18.70
   1  -5  -9  238.93   16.70
  -1   5  -9  282.21   30.33
  -1  -5  -9  260.56   17.78
   1   5  -9  292.52   28.12
   1  -5  -9  297.84   26.27
  -1   5  -9  304.30   33.42
  -1   5  -7  702.73   28.15
   1  -5  -7  801.36   40.07
  -1   5  -7  767.37   45.84
  -1   5  -7  729.87   32.71
  -1  -5  -7  794.04   35.27
   1  -5  -7  723.78   34.01
  -1  -5  -7  640.60   39.56
  -1  -5  -7  686.53   41.07
  -1   5  -7  751.88   48.85
   1  -5  -7  765.57   47.69
   1   5  -7  750.08   46.04
   1  -5  -7  690.61   60.12
   1   5  -7  698.27   40.84
   1  -5  -5  877.04   37.06
  -1  -5  -5  872.95   42.87
   1   5  -5  845.39   46.00
   1   5  -5  834.42   40.44
   1  -5  -5  915.80   39.47
  -1   5  -5  909.47   37.94
  -1   5  -5  891.80   31.67
  -1   5  -5  849.29   45.34
  -1  -5  -5  766.55   36.67
  -1  -5  -5  865.97   41.53
  -1   5  -5  856.81   47.40
   1  -5  -5  880.84   39.89
   1   5  -5  875.50   37.60
   1  -5  -5  821.51   43.42
   1  -5  -5  852.03   46.12
   1   5  -3 1331.24   48.04
   1  -5  -3 1342.27   49.98
  -1  -5  -3 1351.03   51.51
   1   5  -3 1342.09   55.39
   1  -5  -3 1464.64   55.91
  -1  -5  -3 1327.82   37.72
  -1   5  -3 1337.87   54.52
   1   5  -3 1360.49   49.91
  -1  -5  -3 1242.78   52.04
  -1   5  -3 1329.01   55.40
   1  -5  -3 1292.41   51.16
  -1   5  -3 1352.63   49.59
  -1  -5  -3 1327.56   50.91
  -1   5  -3 1296.51   43.49
   1  -5  -3 1280.94   46.77
   1   5  -1 2205.96   65.47
  -1   5  -1 2206.80   72.78
   1  -5  -1 2202.41   63.20
   1  -5  -1 2244.76   72.35
   1   5  -1 2254.39   63.62
  -1   5  -1 2220.10   68.17
  -1  -5  -1 2180.04   71.78
  -1  -5  -1 2194.03   68.00
  -1   5  -1 2212.70   67.61
   1  -5   1 2124.99   72.36
   1   5   1 2193.54   64.41
   1   5   1 2124.98   69.88
  -1   5   1 2112.26   73.51
   1   5   1 2036.45   71.14
  -1   5   1 2159.91   69.82
  -1  -5   1 2145.00   70.14
  -1  -5   1 2115.32   60.49
  -1  -5   1 2170.98   72.33
   1  -5   1 2297.06   75.39
  -1  -5   1 2162.36   71.48
   1  -5   1 2081.49   73.18
  -1   5   1 2113.61   69.61
   1  -5   1 2239.38   68.46
  -1   5   3 1558.64   54.77
  -1  -5   3 1404.98   54.12
   1   5   3 1491.56   57.54
  -1  -5   3 1416.05   54.05
   1   5   3 1379.71   53.00
   1  -5   3 1461.23   57.66
   1  -5   3 1407.11   57.27
  -1   5   3 1423.72   55.61
  -1  -5   3 1458.72   53.68
   1  -5   3 1321.99   65.38
   1  -5   3 1407.74   55.50
  -1  -5   3 1435.65   49.03
   1   5   5  912.80   40.10
  -1  -5   5  833.20   38.35
   1   5   5  872.09   44.09
  -1  -5   5  882.66   56.49
  -1  -5   5  839.32   39.50
  -1   5   5  892.07   44.69
  -1   5   5  837.75   41.17
   1   5   5  859.75   38.23
  -1   5   5  840.41   38.05
  -1  -5   5  902.24   45.52
   1  -5   5  759.27   39.29
  -1  -5   5  931.31   43.62
   1  -5   5  854.51   30.79
   1  -5   5  875.05   40.57
   1  -5   5  901.76   46.89
   1   5   7  698.79   39.22
  -1   5   7  784.19   44.39
  -1   5   7  722.57   39.52
  -1  -5   7  755.80   36.21
  -1  -5   7  650.59   65.93
  -1  -5   7  832.01   63.76
   1   5   7  751.07   43.75
  -1   5   7  759.14   43.72
  -1  -5   7  790.49   47.65
   1  -5   7  681.03   45.64
  -1  -5   7  867.58   44.86
  -1  -5   7  788.45   40.84
  -1   5   7  754.53   34.92
   1  -5   7  773.26   66.05
   1  -5   7  763.53   37.05
  -1  -5   9  325.05   54.77
  -1  -5   9  314.75   28.80
  -1  -5   9  263.59   38.85
   1   5   9  304.20   28.86
   1  -5   9  366.44   54.20
  -1   5   9  265.46   24.48
  -1  -5   9  253.59   18.98
   1  -5   9  258.71   19.23
  -1  -5  11   99.07   34.97
  -1   5  11   95.05   17.13
   1  -5  11  146.94   39.88
   1  -5  11   84.97   24.96
   1   5  11   87.02   18.19
  -1  -5  11  165.89   35.33
   1   6 -10  143.87   22.19
  -1  -6 -10  146.13   13.79
  -1   6 -10  119.82   22.34
  -1  -6 -10  145.12   14.41
  -1   6 -10  139.21   25.44
   1  -6 -10  134.34   13.30
   1  -6 -10  159.06   19.25
   1   6  -8  261.98   26.40
  -1  -6  -8  259.20   22.08
  -1   6  -8  307.93   21.25
  -1   6  -8  269.56   28.70
  -1   6  -8  284.01   12.69
  -1   6  -8  231.92   28.72
  -1   6  -8  276.03   11.75
   1  -6  -8  285.06   24.17
  -1  -6  -8  315.75   23.01
   1  -6  -8  306.24   22.45
   1   6  -8  211.66   26.33
  -1  -6  -8  279.17   28.29
  -1   6  -6  580.92   31.49
   1   6  -6  575.45   35.43
   1   6  -6  613.29   32.17
   1  -6  -6  559.96   33.59
   1  -6  -6  514.65   36.39
   1  -6  -6  593.91   33.11
  -1   6  -6  601.74   22.98
   1   6  -6  603.73   40.87
  -1  -6  -6  502.81   35.24
  -1   6  -6  606.77   41.59
   1  -6  -6  575.99   31.16
  -1  -6  -6  634.73   37.70
   1  -6  -6  725.55   44.15
  -1   6  -6  572.57   39.10
  -1  -6  -6  616.24   33.82
   1  -6  -4  913.86   42.18
  -1  -6  -4  846.16   28.35
   1  -6  -4  837.98   36.23
  -1   6  -4  878.52   45.81
   1   6  -4  852.40   39.95
   1   6  -4  870.45   39.94
   1  -6  -4  892.33   43.02
  -1  -6  -4  821.46   42.94
  -1   6  -4  847.88   31.86
  -1   6  -4  876.07   46.02
   1   6  -4  927.43   47.82
  -1  -6  -4  890.78   42.42
  -1   6  -4  903.32   40.51
   1  -6  -4  893.90   45.58
   1  -6  -2 1342.47   55.55
  -1   6  -2 1402.18   53.94
   1  -6  -2 1363.12   54.74
   1   6  -2 1340.82   53.42
   1   6  -2 1362.03   48.58
  -1  -6  -2 1356.26   55.67
  -1   6  -2 1338.30   53.38
  -1   6  -2 1434.92   48.25
   1  -6  -2 1354.32   43.67
   1   6  -2 1406.15   49.54
  -1  -6  -2 1380.92   53.12
  -1   6  -2 1450.54   58.24
   1  -6   0 1161.24   50.81
  -1  -6   0 1157.03   47.19
  -1   6   0 1173.71   48.60
  -1   6   0 1076.28   44.37
   1  -6   0 1192.86   47.15
  -1   6   0 1077.84   47.00
  -1  -6   0 1211.18   51.45
   1   6   0 1172.32   39.81
  -1  -6   0 1064.02   41.69
   1   6   0 1044.56   46.50
   1  -6   0 1049.93   45.41
  -1  -6   0 1111.18   48.03
  -1   6   0 1152.56   33.14
   1   6   0 1090.95   41.32
  -1  -6   2 1476.73   48.23
  -1   6   2 1431.05   56.27
   1  -6   2 1494.77   61.51
   1   6   2 1539.81   60.94
  -1  -6   2 1361.76   43.36
  -1  -6   2 1464.05   57.07
   1  -6   2 1537.25   60.47
  -1  -6   2 1313.84   56.46
  -1   6   2 1477.21   60.54
  -1   6   2 1438.88   56.80
   1   6   2 1491.22   57.17
   1   6   2 1425.12   51.42
   1  -6   2 1422.63   64.47
  -1  -6   2 1499.04   61.85
   1   6   4  934.85   43.51
  -1   6   4  844.22   41.78
   1  -6   4  988.44   48.63
  -1   6   4  875.20   44.73
  -1  -6   4  927.71   44.98
  -1  -6   4 1001.23   45.81
  -1  -6   4  905.44   44.33
   1  -6   4  899.98   47.19
   1  -6   4  886.37   57.71
   1   6   4  969.67   48.05
  -1  -6   4  983.31   56.79
   1  -6   4  967.89   46.69
  -1  -6   4  932.74   38.03
   1  -6   6  610.43   24.43
   1   6   6  527.28   36.59
   1  -6   6  583.71   34.64
  -1   6   6  545.68   31.60
  -1  -6   6  715.57   68.71
  -1   6   6  589.71   38.31
   1  -6   6  550.72   39.38
  -1  -6   6  581.40   34.16
   1   6   6  594.03   33.26
  -1   6   6  603.80   36.40
   1   6   6  590.01   33.24
   1  -6   6  577.53   35.00
  -1  -6   6  614.28   37.58
   1  -6   6  588.89   57.88
  -1  -6   6  537.09   30.43
  -1  -6   6  576.97   39.16
   1  -6   8  295.73   24.15
   1   6   8  292.35   28.66
  -1   6   8  316.08   29.66
  -1  -6   8  223.82   44.26
   1  -6   8  402.05   52.47
  -1  -6   8  336.02   29.55
  -1   6   8  284.91   25.50
  -1   6   8  308.09   22.73
   1  -6   8  262.98   20.15
  -1  -6   8  324.44   26.56
   1   6   8  289.50   26.58
  -1  -6   8  279.61   22.95
  -1   6  10  182.08   22.31
   1   6  10  164.42   23.47
  -1  -6  10  155.61   39.15
   1  -6  10  205.93   45.50
   1  -6  10  155.17   31.73
  -1  -6  10  177.14   35.74
   1  -7  -9  171.15   18.56
   1   7  -9  134.47   23.50
  -1  -7  -9  155.69   17.80
  -1   7  -9  170.14   24.17
   1  -7  -9  168.29   17.84
   1   7  -9  112.87   18.85
  -1   7  -9  124.85   23.46
  -1   7  -7  347.43   33.30
  -1  -7  -7  299.82   25.50
   1   7  -7  345.45   28.84
  -1   7  -7  352.90   25.33
   1  -7  -7  318.41   23.89
  -1   7  -7  315.47   30.78
   1   7  -7  373.43   34.00
   1  -7  -7  334.56   26.49
   1  -7  -7  295.49   22.92
   1  -7  -7  367.39   28.11
  -1  -7  -7  280.37   27.78
   1  -7  -5  350.76   30.10
  -1   7  -5  317.59   28.61
  -1  -7  -5  336.09   16.43
   1  -7  -5  324.99   25.90
   1   7  -5  314.41   24.80
  -1  -7  -5  381.34   28.43
  -1  -7  -5  341.88   28.69
   1  -7  -5  346.31   27.63
   1   7  -5  338.79   25.61
   1  -7  -5  329.84   22.39
  -1   7  -5  337.26   25.34
  -1   7  -5  340.83   29.98
  -1   7  -5  333.90   16.31
   1  -7  -5  298.11   24.88
  -1   7  -3  659.66   35.77
   1  -7  -3  606.52   31.34
   1   7  -3  625.29   35.41
  -1  -7  -3  607.39   35.53
   1  -7  -3  595.93   35.49
  -1  -7  -3  610.44   37.19
   1  -7  -3  617.54   25.81
  -1  -7  -3  596.83   36.73
   1  -7  -3  640.48   38.46
   1  -7  -3  616.02   37.31
  -1   7  -3  575.30   35.00
  -1   7  -3  546.58   36.29
   1   7  -3  665.97   33.47
  -1   7  -3  596.98   27.40
  -1   7  -1 1308.06   49.89
   1  -7  -1 1319.29   54.97
   1  -7  -1 1184.74   54.95
  -1  -7  -1 1281.33   56.00
  -1  -7  -1 1368.47   53.92
  -1  -7  -1 1289.28   51.75
   1  -7  -1 1305.78   49.25
   1   7  -1 1350.39   48.11
  -1   7  -1 1277.54   33.99
  -1   7  -1 1393.95   57.73
   1   7  -1 1308.93   47.68
  -1   7   1 1239.73   52.69
  -1   7   1 1401.93   57.03
   1  -7   1 1331.39   59.39
   1  -7   1 1361.54   60.41
   1   7   1 1379.85   57.15
  -1  -7   1 1403.62   58.94
  -1   7   1 1287.23   59.95
   1   7   1 1268.91   48.31
  -1  -7   1 1430.45   60.86
  -1  -7   1 1333.97   47.13
   1  -7   1 1336.06   52.49
   1   7   1 1203.94   44.77
  -1  -7   1 1381.27   57.34
   1   7   3  754.32   35.95
   1   7   3  684.00   41.62
   1   7   3  674.83   38.49
  -1  -7   3  640.55   37.76
  -1   7   3  669.37   40.83
  -1   7   3  702.66   38.97
  -1  -7   3  723.42   41.37
  -1  -7   3  714.04   45.65
   1  -7   3  683.95   40.99
   1  -7   3  693.54   41.67
  -1   7   3  664.96   38.55
   1  -7   3  700.18   49.42
  -1  -7   3  666.84   29.87
   1  -7   5  339.43   29.58
  -1   7   5  298.26   27.13
   1   7   5  319.09   25.76
  -1  -7   5  390.75   29.91
   1  -7   5  352.11   28.47
   1  -7   5  367.55   31.18
  -1  -7   5  316.00   27.75
  -1  -7   5  333.68   38.00
   1  -7   5  282.49   26.58
   1   7   5  269.71   21.26
  -1  -7   5  338.08   27.58
   1   7   5  376.83   30.82
   1  -7   5  299.49   36.66
  -1   7   5  277.95   24.72
  -1  -7   5  302.05   20.59
  -1   7   7  266.71   26.15
   1   7   7  368.21   32.36
  -1  -7   7  268.86   47.58
   1  -7   7  399.32   52.65
  -1   7   7  340.64   31.03
   1  -7   7  292.21   26.02
   1   7   7  324.24   26.00
  -1  -7   7  299.30   26.54
  -1  -7   7  327.18   23.65
   1  -7   7  315.57   28.34
  -1   7   7  297.42   25.51
   1   7   9  173.21   24.51
  -1  -7   9  184.63   43.36
   1  -7   9  186.53   41.06
  -1   7   9  153.63   21.92
  -1   7  11   45.08   14.30
   1  -8  -8   92.88   16.45
  -1  -8  -8  122.47   18.17
   1   8  -8  144.46   23.45
   1  -8  -8  124.50   17.78
  -1   8  -8  142.68   22.74
   1   8  -8  147.21   21.33
  -1   8  -8  110.99   21.21
  -1   8  -6  285.94   25.02
  -1  -8  -6  307.79   27.95
   1   8  -6  347.68   27.52
   1  -8  -6  287.71   26.20
   1  -8  -6  288.96   22.12
   1   8  -6  293.49   26.30
  -1   8  -6  334.22   31.09
   1  -8  -6  316.14   28.31
   1  -8  -6  311.69   16.08
  -1   8  -6  301.62   29.97
   1  -8  -4  477.12   22.73
  -1  -8  -4  462.24   21.31
   1  -8  -4  483.28   33.60
  -1  -8  -4  488.48   34.88
  -1   8  -4  481.38   35.50
  -1   8  -4  506.22   33.38
  -1  -8  -4  516.70   35.08
   1   8  -4  448.79   29.85
  -1   8  -4  435.96   33.02
   1  -8  -4  434.45   26.82
   1   8  -4  481.27   32.49
  -1   8  -4  434.68   21.39
   1  -8  -4  460.94   33.90
  -1  -8  -2  546.64   37.84
  -1  -8  -2  617.76   35.76
   1   8  -2  551.53   34.66
  -1  -8  -2  475.72   34.27
   1   8  -2  544.96   30.16
  -1   8  -2  604.54   36.18
   1  -8  -2  452.19   33.41
  -1   8  -2  587.59   37.43
   1  -8  -2  592.45   38.66
  -1  -8  -2  530.75   32.27
   1  -8  -2  567.77   29.63
  -1   8  -2  552.94   28.54
   1   8  -2  525.71   28.47
   1  -8  -2  561.23   36.30
  -1   8   0  431.39   30.75
   1   8   0  392.38   23.62
   1   8   0  420.93   30.52
  -1   8   0  418.47   26.92
  -1  -8   0  404.59   30.56
  -1  -8   0  400.01   25.94
  -1  -8   0  391.36   32.00
  -1   8   0  365.54   28.58
   1  -8   0  413.84   32.82
   1  -8   0  397.34   29.82
  -1   8   0  389.99   17.20
  -1  -8   0  349.45   28.03
   1   8   0  400.48   24.23
   1  -8   0  380.46   27.56
  -1   8   2  555.96   36.17
  -1   8   2  533.83   38.61
   1   8   2  529.71   29.71
  -1  -8   2  524.91   37.28
   1   8   2  586.13   37.25
   1   8   2  613.85   40.79
  -1  -8   2  569.31   36.22
  -1   8   2  522.10   33.60
  -1  -8   2  518.66   24.94
   1  -8   2  541.89   38.68
  -1  -8   2  528.51   38.83
   1   8   2  548.72   27.98
   1  -8   2  526.35   41.34
   1  -8   2  571.98   38.53
   1   8   4  567.58   32.82
   1   8   4  502.11   34.59
  -1   8   4  448.43   33.22
   1  -8   4  443.05   43.39
  -1   8   4  505.22   37.61
   1   8   4  497.20   37.61
  -1  -8   4  491.34   35.00
  -1   8   4  506.70   35.43
   1  -8   4  488.68   36.69
  -1  -8   4  475.68   24.98
  -1  -8   4  553.51   38.88
   1  -8   6  309.11   28.68
   1   8   6  307.63   27.23
   1   8   6  256.91   22.76
  -1   8   6  321.05   30.46
  -1   8   6  313.10   29.69
   1   8   6  327.44   31.56
  -1   8   6  281.83   26.59
  -1  -8   6  298.18   29.00
  -1  -8   6  394.37   32.18
   1  -8   6  330.57   29.79
  -1  -8   8  170.93   22.30
   1  -8   8  126.89   19.85
   1  -8   8  186.29   43.85
   1   8   8  173.05   25.45
   1  -8   8  111.67   19.61
  -1   8   8  132.70   20.36
  -1  -8   8  116.87   39.35
   1  -8  10   91.77   36.82
  -1   8  10   67.43   17.50
   1  -9  -9   68.54   14.15
   1   9  -9   50.88   15.08
  -1  -9  -9   52.50   13.63
  -1   9  -7  183.05   25.42
  -1  -9  -7  168.09   22.53
  -1   9  -7  142.12   24.04
   1   9  -7  154.47   20.79
   1  -9  -7  162.00   22.79
   1  -9  -7  180.61   22.81
   1  -9  -5  197.69   23.82
   1   9  -5  197.91   21.01
   1  -9  -5  216.50   14.79
  -1   9  -5  160.97   22.57
   1  -9  -5  198.37   18.63
  -1   9  -5  204.86   11.33
  -1  -9  -5  208.73   24.98
  -1   9  -5  228.85   25.82
   1  -9  -5  206.22   25.19
  -1  -9  -3  278.57   29.17
   1  -9  -3  279.98   23.30
  -1   9  -3  256.72   26.30
   1   9  -3  238.30   21.60
  -1  -9  -3  298.30   27.21
  -1  -9  -3  244.36   23.02
  -1   9  -3  260.29   17.90
   1  -9  -3  288.64   29.08
   1  -9  -3  278.12   20.10
  -1  -9  -1  347.77   27.12
   1   9  -1  358.33   24.31
   1   9  -1  280.74   21.88
  -1   9  -1  360.11   30.40
  -1   9  -1  387.16   25.04
   1  -9  -1  344.70   27.21
   1  -9  -1  375.06   29.85
  -1  -9  -1  425.61   30.87
  -1  -9   1  249.46   27.71
  -1   9   1  321.41   27.93
  -1   9   1  328.61   18.33
  -1   9   1  356.75   27.13
  -1  -9   1  337.70   31.10
   1  -9   1  332.67   25.72
   1  -9   1  368.44   33.85
  -1  -9   1  319.82   22.72
   1   9   1  357.69   23.38
   1  -9   1  397.92   34.73
   1   9   1  344.10   23.58
   1   9   3  307.61   24.02
   1   9   3  260.66   20.39
  -1   9   3  317.32   31.17
  -1  -9   3  293.11   29.81
   1  -9   3  225.92   33.00
   1   9   3  283.18   30.32
  -1   9   3  285.93   26.56
   1  -9   3  265.61   28.94
   1   9   5  202.41   21.47
  -1  -9   5  209.09   26.93
   1  -9   5  247.99   28.06
   1   9   5  200.77   18.70
   1   9   5  221.71   27.63
  -1   9   5  225.00   25.49
  -1   9   5  218.19   26.33
   1  -9   5  245.28   27.90
  -1  -9   7  161.06   23.83
   1  -9   7  165.33   25.01
   1  -9   7  203.64   25.00
  -1  -9   7  271.54   53.06
   1  -9   7  219.14   45.10
  -1   9   7  171.94   24.39
   1   9   7  199.15   26.78
   1  10  -8   53.77   14.75
   1 -10  -8   43.99   14.64
   1 -10  -8   38.20   13.35
  -1 -10  -8   13.55   12.24
   1 -10  -6   85.13   18.50
   1 -10  -6   80.14   18.99
  -1 -10  -6   75.38   18.75
  -1  10  -6   57.65   16.21
   1  10  -6   67.60   14.12
  -1 -10  -4  195.83   26.67
   1 -10  -4  166.73   25.43
  -1  10  -4  180.52   24.29
  -1  10  -4  180.60   12.81
   1  10  -4  137.83   18.64
   1 -10  -4  153.47   24.02
  -1 -10  -4  158.79   19.18
  -1 -10  -2  226.15   28.29
  -1  10  -2  264.99   19.75
  -1 -10  -2  241.61   24.70
   1 -10  -2  270.91   24.02
   1 -10  -2  218.11   28.14
   1  10  -2  228.25   21.29
  -1  10  -2  250.73   27.30
  -1 -10   0  193.77   27.19
   1 -10   0  209.05   28.01
  -1  10   0  174.28   22.15
   1  10   0  207.17   19.10
  -1 -10   0  207.74   21.33
   1 -10   0  173.92   21.20
  -1 -10   0  200.98   24.90
   1 -10   0  208.61   25.65
  -1  10   0  191.44   11.47
   1  10   0  158.04   17.02
  -1  10   0  196.99   19.44
  -1  10   2  225.46   17.10
  -1 -10   2  224.63   28.84
  -1  10   2  229.78   24.62
   1  10   2  284.87   31.62
  -1  10   2  265.19   24.78
   1  10   2  250.82   20.74
   1 -10   2  269.85   34.11
   1 -10   2  231.04   29.24
   1  10   2  221.04   20.34
   1  10   4  188.09   26.01
  -1 -10   4  178.43   26.40
  -1  10   4  199.08   26.93
   1 -10   4  190.13   27.61
   1 -10   4  171.24   25.59
   1  10   4  170.59   17.55
   1  10   4  171.33   19.89
  -1  10   4  181.43   22.98
  -1 -10   6   82.95   20.62
   1 -10   6  109.44   21.46
   1  10   6   62.15   14.65
   1 -10   6   69.34   20.18
   1  10   6   49.33   15.96
  -1  10   6   93.62   20.67
   1  11  -7   55.83   14.75
   1 -11  -5   83.53   18.44
  -1  11  -5   54.80   17.23
   1  11  -5   57.72   13.91
   1 -11  -3   99.71   20.39
  -1 -11  -3   85.91   20.28
   1 -11  -3  113.00   22.39
  -1  11  -3   92.18   17.88
   1  11  -3   89.71   14.58
   1  11  -1  107.69   14.76
  -1  11  -1  122.27   15.63
  -1  11  -1  102.24   18.17
   1  11  -1  131.95   15.94
  -1  11   1  118.34   19.15
  -1  11   1  116.20   16.50
   1 -11   1  131.26   24.60
   1  11   1  106.28   15.02
   1  11   1  110.40   15.76
  -1 -11   1   91.02   22.69
   1 -11   1  125.54   25.03
   1 -11   3   73.66   19.60
  -1 -11   3   99.28   22.44
   1 -11   3  125.69   24.65
   1  11   3   94.07   15.22
  -1  11   3   95.69   13.24
   1  11   3   78.43   19.95
  -1  11   3  119.23   19.02
   1  11   3   68.51   12.32
  -1  11   3   72.38   15.67
   1 -11   5   80.77   22.95
   1  11   5   63.42   15.14
  -1  11   5   78.10   14.92
  -1 -11   5   60.44   19.55
   1 -11   5  111.91   22.83
  -1  12  -4   48.73   15.45
  -1  12  -2   49.86   15.87
  -1  12   0   45.47   14.91
  -1  12   2   57.38   15.46
   1  12   4   57.51   13.64
  -1  12   4   57.30   15.22
   2   0 -12   74.71   16.90
  -2   0 -12   68.29   25.23
  -2   0 -10  302.57   31.08
   2   0 -10  278.46   23.32
  -2   0 -10  305.27   41.26
   2   0 -10  270.48   26.32
  -2   0 -10  279.82   39.10
  -2   0  -8  851.19   48.57
   2   0  -8  925.68   71.24
  -2   0  -8  927.43   63.00
  -2   0  -8  902.32   41.29
   2   0  -8  903.74   45.07
  -2   0  -8  886.62   25.21
  -2   0  -8  838.73   24.82
   2   0  -8  872.01   40.11
  -2   0  -6 1433.69   69.57
   2   0  -6 1396.51   50.95
   2   0  -6 1298.42   52.24
  -2   0  -6 1332.87   57.00
  -2   0  -6 1393.31   42.87
   2   0  -6 1413.17   43.47
   2   0  -4 2217.33   62.46
  -2   0  -4 2168.74   76.20
   2   0  -4 2214.05   65.90
   2   0  -4 2086.44   79.40
   2   0  -4 2077.56   63.55
  -2   0  -4 2044.30   69.40
  -2   0  -4 2204.42   62.07
   2   0  -2 2720.92   76.80
   2   0  -2 2559.26   88.97
  -2   0  -2 2784.85   72.05
  -2   0  -2 2752.92   76.73
   2   0   0 4931.48  127.26
   2   0   0 5084.98  127.11
  -2   0   0 5005.69  123.37
   2   0   0 5362.42  124.58
  -2   0   0 5203.94  127.96
  -2   0   0 5095.44  126.53
  -2   0   2 3094.20   84.89
  -2   0   2 3224.31   87.36
  -2   0   2 2961.86  100.52
   2   0   2 3213.52   82.76
  -2   0   2 3103.10   90.23
  -2   0   2 3269.26   87.97
   2   0   2 3157.46   84.00
  -2   0   2 3253.03   83.93
  -2   0   2 3273.97   92.92
   2   0   2 3219.68   85.82
  -2   0   4 2117.16   70.10
   2   0   4 2109.65   63.03
  -2   0   4 2177.08   66.83
  -2   0   4 2264.58   95.20
   2   0   4 2271.70   60.29
  -2   0   4 2143.41   73.34
  -2   0   4 2132.58   62.29
   2   0   4 2219.60   69.91
  -2   0   4 2162.62   78.84
   2   0   6 1252.08   41.91
  -2   0   6 1438.08   83.94
   2   0   6 1332.56   56.07
  -2   0   6 1270.63   48.00
  -2   0   6 1329.72   55.36
  -2   0   6 1204.63   61.64
  -2   0   6 1307.74   41.30
   2   0   6 1348.99   48.12
  -2   0   8  863.13   48.21
  -2   0   8  835.41   46.29
  -2   0   8  935.52   75.48
  -2   0   8  807.50   24.25
   2   0   8  753.65   45.50
  -2   0   8  852.15   38.91
   2   0   8  823.08   40.43
  -2   0   8  737.23   50.84
  -2   0   8  787.03   24.35
  -2   0  10  289.36   28.86
  -2   0  10  297.77   35.64
   2   0  10  258.63   24.60
  -2   0  12   94.55   23.66
   2   0  12  109.13   17.40
  -2   0  12   86.37   18.91
   2  -1 -13   63.09   16.45
   2   1 -11  159.46   16.74
  -2   1 -11  171.58   25.74
   2   1 -11  171.16   22.62
   2  -1 -11  157.65   20.93
  -2   1 -11  191.34   33.99
  -2  -1 -11  129.75   31.06
   2   1  -9  506.36   34.42
  -2  -1  -9  443.43   45.62
  -2  -1  -9  426.07   46.80
  -2  -1  -9  438.77   30.60
   2  -1  -9  410.27   28.59
   2   1  -9  416.96   25.62
  -2   1  -9  456.76   37.35
  -2  -1  -9  452.06   35.28
  -2   1  -9  454.49   28.04
   2  -1  -9  425.70   30.29
   2  -1  -7  764.59   50.48
  -2  -1  -7  751.03   41.24
  -2  -1  -7  708.16   52.29
  -2   1  -7  644.50   51.79
  -2  -1  -7  683.04   35.76
  -2  -1  -7  775.12   26.91
  -2   1  -7  743.41   43.42
  -2   1  -7  677.50   50.35
  -2   1  -7  760.78   26.33
  -2  -1  -7  737.35   26.73
   2  -1  -7  689.80   36.08
   2   1  -7  733.05   32.92
   2  -1  -7  695.10   26.32
   2   1  -7  746.50   40.15
   2  -1  -7  694.42   35.84
   2  -1  -5 2124.92   61.44
  -2   1  -5 1972.80   80.74
   2   1  -5 2181.01   64.01
  -2  -1  -5 2107.46   84.79
  -2   1  -5 2112.38   75.30
  -2  -1  -5 2048.79   70.27
   2  -1  -5 2196.37   70.87
   2   1  -5 2192.36   70.76
   2  -1  -5 2165.60   65.05
  -2   1  -5 2148.36   61.79
  -2   1  -5 2167.44   62.15
   2  -1  -5 1984.25   80.71
  -2  -1  -5 2140.91   62.42
   2   1  -3 2873.83   81.36
  -2   1  -3 3047.01   80.86
  -2  -1  -3 3044.01   81.75
   2  -1  -3 2872.36  102.28
  -2  -1  -3 2974.80   81.19
  -2   1  -3 3009.44   88.66
   2  -1  -3 2981.79   84.51
   2  -1  -3 2918.77   91.53
   2  -1  -3 2871.82   84.39
   2  -1  -3 2777.81   79.84
  -2   1  -1 3269.36   79.60
   2  -1  -1 3102.20   82.95
  -2  -1  -1 2994.44   83.03
   2  -1  -1 3160.44   91.12
  -2   1  -1 3085.80   85.56
   2   1  -1 3109.53   87.99
  -2  -1  -1 3213.71   76.32
  -2  -1  -1 3245.63   79.11
   2   1  -1 3185.02   75.32
   2   1   1 3411.33   90.35
  -2  -1   1 3449.04   90.32
  -2   1   1 3474.64   91.80
  -2   1   1 3615.53   96.27
   2   1   1 3476.50   83.29
  -2  -1   1 3477.29   93.12
   2   1   1 3442.63   92.74
   2  -1   1 3466.01   92.42
  -2  -1   1 3423.22   94.34
  -2  -1   1 3422.21   97.00
   2  -1   1 3490.15   87.45
  -2  -1   3 3107.79   88.04
  -2   1   3 2920.11   85.68
  -2  -1   3 3119.48   81.94
  -2  -1   3 2999.88   82.80
  -2  -1   3 3022.21  111.43
   2  -1   3 2829.42   83.87
   2   1   3 3069.54   82.14
   2   1   3 3002.44   82.79
  -2  -1   3 2958.33   70.78
  -2  -1   3 3051.89   88.75
  -2   1   3 2915.82   81.21
  -2   1   3 2961.67   81.35
  -2   1   3 3127.43  104.74
  -2  -1   3 3139.74   84.12
  -2  -1   3 2944.71   89.99
  -2   1   3 3055.24   88.47
  -2  -1   3 2905.90   97.19
   2  -1   3 3058.13   82.41
  -2   1   3 3043.61   92.34
  -2   1   3 2983.16   71.46
  -2  -1   5 2077.70   73.24
  -2   1   5 2125.80   57.37
   2  -1   5 2157.60   63.03
  -2  -1   5 2182.45   63.25
  -2  -1   5 2205.68  104.88
  -2   1   5 2002.89   69.29
   2  -1   5 2194.11   80.47
  -2   1   5 2138.65   96.32
  -2   1   5 2145.42   61.40
   2   1   5 2126.90   70.37
  -2  -1   5 2143.33   72.16
   2  -1   5 2185.65   74.63
  -2  -1   5 2118.39   82.33
  -2   1   5 1921.36   73.27
  -2   1   5 2040.66   62.03
  -2  -1   5 2180.77   86.16
  -2   1   5 2251.08   81.31
  -2  -1   5 2082.29   62.01
   2  -1   7  687.25   38.55
  -2  -1   7  683.05   25.74
  -2   1   7  633.93   37.10
  -2  -1   7  653.63   49.47
  -2  -1   7  717.54   64.53
   2  -1   7  647.76   40.57
  -2  -1   7  656.26   25.08
   2   1   7  627.50   37.87
  -2   1   7  648.47   38.94
  -2   1   7  611.92   27.70
   2  -1   7  636.69   26.37
  -2  -1   7  672.07   39.83
  -2   1   7  739.91   36.54
   2   1   7  677.53   31.44
  -2   1   7  658.48   25.49
  -2  -1   7  643.65   30.15
  -2   1   9  453.49   33.25
  -2   1   9  380.55   23.97
  -2  -1   9  467.43   58.76
   2   1   9  442.45   35.49
  -2   1   9  443.99   29.66
  -2  -1   9  432.56   35.40
   2  -1   9  442.70   33.86
  -2  -1   9  385.45   40.36
  -2   1   9  416.54   38.67
  -2  -1  11  174.48   31.13
   2  -1  11  110.64   19.67
  -2   1  11  174.64   18.18
  -2  -1  11  175.24   25.41
  -2   1  11  178.63   23.69
   2   1  11  192.33   20.20
   2  -1  13   72.66   16.48
   2   2 -12   92.17   18.60
   2  -2 -12   79.03   16.28
  -2   2 -10  215.87   19.20
   2  -2 -10  204.48   21.07
  -2  -2 -10  156.19   30.38
   2   2 -10  238.50   25.32
  -2   2 -10  195.76   25.94
   2   2 -10  167.42   15.25
  -2  -2  -8  766.18   26.24
  -2   2  -8  723.30   25.38
  -2  -2  -8  693.02   57.32
   2  -2  -8  738.27   26.62
   2  -2  -8  766.75   40.68
  -2   2  -8  764.19   46.68
   2   2  -8  743.38   31.32
  -2  -2  -8  743.90   26.72
   2  -2  -8  759.94   37.38
   2   2  -8  706.95   42.08
  -2  -2  -8  789.91   40.79
  -2   2  -8  782.52   58.03
   2  -2  -8  638.61   49.03
   2  -2  -6 1606.06   71.47
  -2  -2  -6 1648.30   51.16
  -2   2  -6 1477.28   64.29
  -2  -2  -6 1513.51   76.04
   2  -2  -6 1505.14   51.85
  -2   2  -6 1545.85   48.30
   2  -2  -6 1554.13   59.61
  -2  -2  -6 1523.95   48.94
   2   2  -6 1598.95   62.70
  -2   2  -6 1409.87   75.82
  -2  -2  -6 1597.06   59.70
   2   2  -6 1469.65   47.25
   2  -2  -6 1492.49   48.61
   2  -2  -4 2723.56   80.71
  -2   2  -4 2710.24   75.28
   2  -2  -4 2558.67  103.11
  -2  -2  -4 2734.56   76.70
  -2   2  -4 2738.33   87.70
  -2  -2  -4 2651.44   75.96
   2  -2  -4 2385.70   80.18
   2   2  -4 2418.78   80.47
   2  -2  -4 2558.93   67.62
   2  -2  -4 2707.32   75.42
  -2   2  -4 2797.12   76.31
  -2   2  -4 2439.63   95.40
  -2  -2  -4 2700.57   76.99
  -2  -2  -4 2522.82   70.02
   2  -2  -4 2521.64   87.82
   2  -2  -2 1634.39   55.37
   2  -2  -2 1595.17   50.81
   2  -2  -2 1600.44   44.17
   2  -2  -2 1550.54   62.92
  -2  -2  -2 1570.21   43.52
   2   2  -2 1614.95   45.26
  -2   2  -2 1663.10   56.73
  -2   2  -2 1622.07   52.65
  -2  -2  -2 1553.82   51.93
  -2  -2   0 2249.58   65.44
  -2  -2   0 2211.66   60.11
   2  -2   0 2257.70   67.10
   2   2   0 2310.72   61.39
  -2   2   0 2236.79   66.48
  -2  -2   0 2237.77   67.40
  -2   2   0 2050.49   68.20
  -2   2   0 2238.89   60.60
  -2   2   0 2381.44   68.16
   2   2   0 2224.83   65.65
   2   2   2 1775.25   54.53
  -2  -2   2 1811.85   50.68
  -2   2   2 1759.62   54.99
  -2  -2   2 1648.70   55.06
  -2  -2   2 1798.71   56.55
   2  -2   2 1663.08   54.84
  -2  -2   2 1700.76   56.64
   2   2   2 1746.27   46.56
  -2   2   2 1660.58   42.80
  -2  -2   2 1788.42   47.76
   2  -2   2 1820.22   47.35
  -2   2   2 1694.36   59.54
  -2   2   2 1853.31   56.91
  -2  -2   2 1684.19   58.11
  -2  -2   4 2577.44   68.85
  -2  -2   4 2670.86   76.60
  -2  -2   4 2558.91  112.46
  -2   2   4 2567.20   74.21
   2  -2   4 2749.96   89.17
  -2  -2   4 2615.80   75.95
   2   2   4 2519.09   75.47
  -2  -2   4 2671.47   79.84
  -2   2   4 2715.90   70.15
   2  -2   4 2482.14   75.16
  -2  -2   4 2630.12   89.31
  -2   2   4 2604.39   75.57
  -2   2   4 2610.49   83.38
  -2  -2   4 2639.19   85.19
  -2  -2   4 2598.25   97.01
  -2  -2   4 2646.56   70.33
  -2  -2   6 1537.60   63.54
  -2  -2   6 1625.76   51.40
  -2   2   6 1510.03   49.24
  -2  -2   6 1792.93  100.93
   2  -2   6 1595.22   74.53
  -2   2   6 1608.93   60.24
  -2  -2   6 1547.67   47.12
  -2   2   6 1525.14   60.56
   2   2   6 1533.88   45.78
  -2  -2   6 1586.46   62.35
   2   2   6 1464.02   58.15
  -2  -2   6 1534.16   49.87
  -2   2   6 1574.13   50.12
  -2  -2   6 1540.34   75.75
  -2  -2   6 1593.30   77.55
   2  -2   6 1460.64   50.62
   2   2   8  753.57   31.43
  -2  -2   8  750.07   72.96
  -2   2   8  720.56   32.79
   2  -2   8  794.46   57.48
   2  -2   8  700.56   45.18
   2  -2   8  732.23   46.44
   2  -2   8  707.50   27.61
  -2   2   8  652.79   38.47
  -2   2   8  703.46   25.83
   2   2   8  711.54   42.35
  -2   2   8  598.02   37.22
  -2  -2   8  663.34   26.12
  -2  -2   8  697.43   25.61
  -2   2   8  703.81   42.93
  -2  -2   8  649.96   42.46
  -2  -2   8  673.27   55.57
  -2  -2  10  259.87   35.65
  -2  -2  10  211.98   27.27
   2   2  10  223.29   18.12
  -2   2  10  205.57   18.46
  -2   2  10  231.53   24.70
   2  -2  10  190.78   25.32
  -2  -2  12   56.98   17.75
  -2   2  12   52.77   15.27
   2   2  12   65.29   16.85
   2  -2  12   48.81   15.34
  -2   3 -11  207.09   28.71
   2  -3 -11  166.63   19.32
   2   3 -11  162.87   23.64
  -2  -3 -11  133.49   31.49
  -2  -3  -9  306.87   15.65
   2   3  -9  305.61   29.58
  -2   3  -9  304.58   14.61
   2   3  -9  330.45   16.89
  -2  -3  -9  282.25   40.94
  -2   3  -9  291.74   20.51
   2  -3  -9  308.02   23.53
  -2   3  -9  342.70   40.33
  -2  -3  -9  325.82   15.85
   2  -3  -9  330.33   15.58
  -2   3  -9  311.61   31.84
  -2  -3  -7  528.53   26.00
   2  -3  -7  501.39   24.43
   2  -3  -7  466.36   31.50
   2   3  -7  466.01   33.29
  -2  -3  -7  440.90   43.47
  -2  -3  -7  533.86   32.55
  -2   3  -7  463.61   22.87
  -2  -3  -7  527.50   24.43
   2  -3  -7  457.82   24.82
  -2   3  -7  456.02   42.46
  -2  -3  -7  447.21   29.72
   2  -3  -7  460.82   37.61
  -2   3  -7  528.77   37.56
   2  -3  -5 1755.81   63.64
   2  -3  -5 1852.16   89.66
  -2  -3  -5 1780.66   63.39
   2  -3  -5 1895.53   73.68
   2  -3  -5 1755.54   58.05
  -2   3  -5 1738.31   70.33
  -2  -3  -5 1718.32   58.02
   2  -3  -5 1687.22   65.26
  -2   3  -5 1796.26   57.28
   2  -3  -5 1853.19   50.41
  -2   3  -5 1700.86   80.57
  -2  -3  -5 1724.58   57.25
  -2  -3  -5 1754.95   59.14
  -2   3  -3 2754.19   88.07
  -2  -3  -3 2470.06   78.14
   2  -3  -3 2596.44   77.60
   2  -3  -3 2628.22   78.15
  -2  -3  -3 2693.58   79.89
   2  -3  -3 2679.77   72.08
   2  -3  -3 2627.24   83.18
  -2   3  -3 2757.13   78.87
  -2   3  -3 2699.98   94.96
   2  -3  -3 2586.49   85.43
  -2   3  -1 1927.75   47.61
   2   3  -1 1939.74   56.99
  -2   3  -1 1908.99   64.46
  -2  -3  -1 1953.66   50.42
   2  -3  -1 1930.52   64.52
   2  -3  -1 1954.90   58.67
  -2   3  -1 1876.14   63.10
  -2   3  -1 1883.23   63.34
  -2  -3   1 2003.83   58.05
  -2  -3   1 1965.57   63.43
  -2  -3   1 1938.44   63.57
  -2  -3   1 2063.59   51.30
  -2   3   1 2054.90   63.94
  -2   3   1 1885.02   47.60
   2  -3   1 1970.67   63.62
  -2  -3   1 1949.17   61.66
   2  -3   3 2585.11   62.56
   2  -3   3 2634.87   77.51
  -2  -3   3 2641.95   74.52
  -2  -3   3 2564.42   76.23
   2  -3   3 2537.42   80.97
  -2   3   3 2604.12   72.13
   2   3   3 2546.22   67.17
  -2   3   3 2523.46   82.27
  -2  -3   3 2505.25   82.60
  -2   3   3 2451.38   75.45
  -2  -3   3 2560.94   69.93
  -2  -3   3 2569.34   76.29
  -2  -3   3 2537.35   79.82
  -2  -3   5 1837.35   46.66
   2   3   5 1791.12   67.33
  -2   3   5 1801.87   64.74
  -2  -3   5 2067.93   60.71
  -2  -3   5 1803.05  100.65
   2  -3   5 1835.00   80.24
  -2  -3   5 1746.83   59.26
  -2   3   5 1762.38   68.12
   2   3   5 1796.05   60.98
  -2  -3   5 1789.75   65.81
  -2   3   5 1791.72   59.45
   2  -3   5 1906.54   71.40
   2  -3   5 1762.41   60.25
  -2   3   5 1859.44   58.12
  -2  -3   5 1849.32   79.04
  -2  -3   5 1787.21   68.29
  -2  -3   5 1821.12   84.51
  -2  -3   5 1827.52   60.63
  -2  -3   7  428.07   42.50
  -2   3   7  452.56   30.06
  -2  -3   7  462.55   54.16
   2  -3   7  557.85   47.60
  -2  -3   7  413.93   23.34
  -2   3   7  457.23   25.21
  -2  -3   7  442.40   23.30
   2   3   7  461.01   30.42
  -2   3   7  450.14   23.52
   2   3   7  399.54   30.44
  -2   3   7  442.84   31.60
  -2  -3   7  450.49   45.86
  -2  -3   7  496.45   35.80
   2  -3   7  494.11   25.68
   2   3   7  433.21   17.18
  -2  -3   7  467.57   33.49
   2   3   9  293.52   16.59
  -2   3   9  270.32   25.04
   2   3   9  270.84   27.16
  -2   3   9  305.67   15.73
   2  -3   9  329.89   17.64
  -2  -3   9  280.56   15.48
  -2   3   9  277.02   21.29
  -2   3   9  335.42   28.58
   2   3   9  307.43   28.78
  -2  -3   9  312.33   16.33
   2  -3   9  334.70   34.33
   2  -3   9  332.83   42.78
  -2  -3   9  275.54   37.30
  -2  -3  11  164.22   31.83
   2   3  11  178.66   14.84
  -2   3  11  175.12   18.93
  -2  -3  11  165.83   26.28
   2   3  11  144.04   22.42
  -2   3  11  149.61   21.88
   2  -3  11  152.19   25.18
  -2  -4 -12   47.13   24.14
   2  -4 -10  135.00    9.37
  -2   4 -10  135.43   14.23
   2  -4 -10  138.35   16.22
  -2  -4 -10  137.55   10.27
  -2   4 -10  133.52   23.40
   2   4 -10  153.56   23.41
  -2   4 -10  136.22   27.25
   2  -4  -8  524.17   26.18
  -2  -4  -8  486.70   26.62
  -2  -4  -8  524.08   52.31
  -2   4  -8  453.82   37.48
  -2   4  -8  498.26   24.42
  -2  -4  -8  533.33   26.07
   2   4  -8  467.96   36.04
   2  -4  -8  462.42   25.63
  -2   4  -8  495.70   45.16
  -2  -4  -8  450.71   33.10
   2  -4  -6 1043.59   50.92
   2  -4  -6 1122.58   73.40
  -2  -4  -6 1062.19   43.18
  -2   4  -6 1031.66   54.88
  -2  -4  -6 1122.03   49.93
  -2   4  -6 1123.05   42.43
   2  -4  -6 1046.43   42.54
   2   4  -6 1097.45   48.17
  -2  -4  -6 1071.80   44.37
  -2   4  -6 1172.02   64.86
   2  -4  -6 1090.38   57.17
   2  -4  -6 1069.94   34.82
   2  -4  -6 1029.01   46.81
  -2  -4  -6 1088.96   45.90
   2  -4  -4 1682.22   58.73
  -2  -4  -4 1735.64   61.16
   2  -4  -4 1742.27   68.93
  -2   4  -4 1758.59   69.91
  -2  -4  -4 1836.42   63.20
   2  -4  -4 1656.34   64.96
  -2   4  -4 1702.04   58.65
   2   4  -4 1700.87   57.20
  -2   4  -4 1752.13   73.91
   2  -4  -4 1747.09   60.08
   2  -4  -4 1737.59   55.69
  -2  -4  -4 1630.63   59.76
  -2  -4  -2 1234.87   31.18
   2  -4  -2 1223.11   45.74
   2  -4  -2 1140.50   46.26
   2   4  -2 1244.44   44.99
   2  -4  -2 1103.04   48.02
  -2   4  -2 1232.91   51.60
  -2  -4  -2 1232.01   45.50
  -2   4  -2 1238.58   47.43
   2   4  -2 1179.07   37.49
  -2   4  -2 1224.85   46.98
   2  -4  -2 1253.27   44.05
  -2   4  -2 1163.27   49.60
   2   4  -2 1194.00   48.13
  -2   4   0 1575.56   56.51
  -2  -4   0 1570.10   57.40
   2  -4   0 1621.32   57.36
   2   4   0 1641.75   54.55
   2  -4   0 1700.31   58.39
  -2  -4   0 1622.86   54.37
   2  -4   0 1660.50   59.19
  -2   4   0 1561.31   57.81
  -2   4   0 1491.72   46.59
  -2  -4   0 1659.80   54.47
  -2   4   0 1593.62   44.84
   2  -4   0 1517.56   57.46
   2   4   0 1625.41   54.35
   2  -4   2 1211.67   48.37
  -2  -4   2 1184.89   40.40
   2   4   2 1174.91   32.06
  -2   4   2 1212.80   47.12
  -2  -4   2 1219.39   43.18
  -2  -4   2 1196.36   49.02
  -2  -4   2 1232.42   46.73
  -2  -4   2 1218.98   48.26
  -2   4   2 1206.80   45.21
   2   4   4 1710.16   52.89
  -2  -4   4 1737.19   60.64
   2  -4   4 1600.00   43.74
  -2   4   4 1698.89   57.86
   2  -4   4 1686.24   65.78
   2   4   4 1744.14   64.22
   2  -4   4 1689.57   61.46
  -2   4   4 1567.24   64.57
  -2  -4   4 1752.65   56.71
  -2  -4   4 1645.56   59.68
  -2  -4   4 1771.07   61.45
  -2   4   4 1759.47   60.20
  -2  -4   4 1697.13   70.90
  -2  -4   4 1684.36   62.24
   2  -4   6 1097.39   46.57
  -2  -4   6 1240.58   87.92
   2  -4   6 1118.10   68.03
  -2   4   6 1049.73   43.52
   2  -4   6  993.41   53.43
   2   4   6 1158.08   53.83
  -2   4   6 1121.99   45.01
  -2  -4   6 1114.30   52.50
  -2   4   6 1043.27   52.32
   2   4   6 1097.48   46.31
  -2  -4   6 1228.54   69.03
  -2  -4   6 1116.57   51.58
  -2  -4   6 1219.67   48.23
  -2  -4   6 1201.32   46.88
  -2  -4   6 1062.93   44.55
  -2  -4   8  508.25   27.48
  -2   4   8  471.43   32.61
  -2   4   8  471.19   25.26
   2  -4   8  487.19   50.08
   2   4   8  484.20   35.51
  -2   4   8  461.47   28.41
  -2  -4   8  537.10   32.71
  -2  -4   8  471.89   36.95
  -2   4   8  444.36   34.49
   2   4   8  496.12   33.74
  -2  -4   8  491.56   26.23
   2  -4   8  465.49   26.96
  -2  -4   8  555.42   39.33
  -2   4  10  150.30   20.23
   2  -4  10  152.18   32.70
   2   4  10  125.19   19.79
  -2   4  10  136.49   16.83
   2  -4  10  154.39   26.37
  -2  -4  10  160.15   30.68
  -2   4  12   71.10   16.11
   2  -4  12   58.69   18.11
  -2   5  -9  231.31   16.99
  -2  -5  -9  215.79   18.08
  -2   5  -9  229.60   16.17
  -2  -5  -9  249.30   18.58
   2  -5  -9  238.42   17.17
   2  -5  -9  196.53   16.74
   2   5  -9  207.82   25.59
  -2   5  -9  255.63   33.10
  -2   5  -7  323.68   21.87
   2  -5  -7  342.25   26.12
  -2  -5  -7  333.09   23.05
   2  -5  -7  313.25   22.66
   2   5  -7  355.32   27.10
  -2  -5  -7  377.47   25.57
   2  -5  -7  336.10   16.36
  -2   5  -7  340.65   34.19
  -2  -5  -7  400.88   27.93
  -2  -5  -5  930.93   45.53
  -2  -5  -5  913.14   43.48
   2  -5  -5  969.75   42.80
   2   5  -5  932.31   41.29
   2  -5  -5  934.41   40.12
  -2  -5  -5  951.04   43.04
   2  -5  -5  961.77   43.09
   2  -5  -5  900.73   47.42
  -2   5  -5  964.73   40.83
  -2   5  -5  962.54   41.70
  -2   5  -5 1027.17   55.97
   2  -5  -5  967.93   51.61
  -2  -5  -5  981.79   42.09
  -2   5  -3 1398.54   51.68
   2  -5  -3 1418.11   51.69
   2  -5  -3 1301.57   48.87
  -2  -5  -3 1464.85   56.28
  -2  -5  -3 1349.72   52.69
   2  -5  -3 1364.22   57.07
  -2   5  -3 1364.61   52.74
  -2   5  -3 1323.42   57.11
   2  -5  -3 1290.70   52.87
   2   5  -3 1277.18   45.14
   2  -5  -3 1331.87   54.62
  -2   5  -1 1310.17   51.62
  -2  -5  -1 1343.65   52.12
   2  -5  -1 1303.91   53.74
   2  -5  -1 1425.02   52.67
   2   5  -1 1290.89   37.25
  -2   5  -1 1253.28   46.36
   2   5  -1 1254.43   50.74
   2   5  -1 1354.92   50.55
  -2  -5  -1 1352.29   47.49
   2   5   1 1319.89   49.94
  -2  -5   1 1480.43   52.31
  -2  -5   1 1398.01   50.95
   2  -5   1 1409.61   56.10
  -2  -5   1 1511.05   57.80
   2  -5   1 1370.15   56.65
   2   5   1 1337.81   34.01
  -2  -5   1 1460.15   44.14
  -2   5   1 1446.51   54.95
   2   5   1 1401.96   34.00
  -2   5   1 1384.69   56.27
   2  -5   1 1447.54   57.87
   2   5   3 1467.09   54.26
   2  -5   3 1340.30   55.96
  -2  -5   3 1458.82   51.91
  -2   5   3 1433.05   55.32
  -2  -5   3 1395.96   50.58
   2   5   3 1355.71   41.40
  -2   5   3 1370.97   54.39
  -2  -5   3 1333.49   60.43
   2  -5   3 1427.32   58.00
  -2  -5   3 1474.83   56.89
  -2  -5   3 1486.22   54.57
  -2  -5   3 1347.06   35.54
   2   5   5  961.20   38.74
   2  -5   5  925.41   26.76
  -2  -5   5  974.07   42.75
  -2  -5   5  994.78   45.14
   2  -5   5  858.77   47.92
   2   5   5 1035.29   49.70
  -2   5   5  958.09   43.27
   2  -5   5  977.92   45.73
  -2  -5   5  952.71   44.13
  -2   5   5  875.58   48.36
  -2  -5   5  976.26   57.30
  -2   5   5 1021.09   44.66
  -2  -5   5  965.01   46.70
  -2  -5   5  936.63   44.87
  -2  -5   7  378.74   27.54
  -2   5   7  335.22   29.66
  -2  -5   7  359.58   25.08
  -2  -5   7  399.09   53.09
   2  -5   7  300.28   40.01
   2   5   7  284.96   26.98
  -2   5   7  286.08   22.59
  -2  -5   7  270.62   27.20
  -2   5   7  318.42   23.01
  -2  -5   7  291.29   22.65
   2  -5   7  287.34   23.30
   2   5   7  314.29   24.69
  -2  -5   7  335.65   27.60
   2  -5   9  300.22   44.54
  -2   5   9  193.18   19.95
   2   5   9  250.51   27.04
  -2   5   9  229.84   26.99
   2   5   9  237.82   24.90
  -2  -5   9  237.30   24.14
  -2  -5   9  195.01   17.91
   2  -5   9  257.23   20.53
   2  -5  11  140.08   35.00
   2  -5  11  104.96   25.14
   2   6 -10   95.94   20.50
  -2   6  -8  295.28   21.97
  -2  -6  -8  283.49   22.74
   2  -6  -8  269.89   21.94
  -2   6  -8  266.54   19.26
   2   6  -8  262.24   25.15
   2  -6  -8  271.65   13.59
  -2  -6  -8  277.25   23.37
  -2  -6  -8  267.07   26.16
   2  -6  -6  484.42   30.67
  -2  -6  -6  446.85   30.29
   2  -6  -6  433.26   28.48
   2   6  -6  420.81   28.44
  -2   6  -6  414.62   26.94
  -2  -6  -6  449.82   29.86
  -2   6  -6  411.19   35.70
  -2   6  -6  436.69   24.96
  -2  -6  -6  415.27   28.38
  -2  -6  -4  610.56   35.91
   2  -6  -4  637.93   33.15
   2  -6  -4  636.96   33.26
   2  -6  -4  626.18   35.95
  -2  -6  -4  671.85   37.40
  -2   6  -4  666.91   35.31
   2  -6  -4  626.38   38.76
  -2   6  -4  658.22   32.31
   2   6  -4  533.08   28.95
  -2   6  -4  581.52   38.33
   2  -6  -4  668.45   38.10
  -2   6  -4  531.05   37.94
   2   6  -2  914.85   43.18
  -2  -6  -2  900.40   40.16
   2  -6  -2  743.39   38.56
   2   6  -2  885.68   42.50
   2  -6  -2  829.43   42.91
  -2   6  -2  845.80   46.07
  -2  -6  -2  852.43   43.90
  -2  -6  -2  887.52   43.75
  -2   6  -2  968.00   43.62
  -2   6  -2  843.89   39.64
   2   6  -2  846.86   31.75
   2  -6  -2  986.96   46.41
  -2   6  -2  825.59   39.73
   2  -6  -2  861.98   44.71
   2   6  -2  905.75   41.66
   2  -6   0 1564.87   61.71
   2   6   0 1478.32   59.30
   2  -6   0 1441.07   60.61
  -2  -6   0 1426.18   50.62
   2   6   0 1615.04   60.85
  -2  -6   0 1489.11   61.81
   2   6   0 1348.04   39.87
  -2   6   0 1600.90   60.42
  -2  -6   0 1612.08   59.68
   2  -6   0 1577.19   63.69
  -2   6   0 1633.17   60.66
  -2   6   0 1566.69   62.41
   2  -6   0 1437.94   59.06
   2   6   0 1432.08   54.31
  -2  -6   0 1489.32   58.09
   2   6   2 1000.17   43.05
  -2  -6   2  982.25   41.58
   2   6   2  990.26   46.43
   2  -6   2 1006.03   48.45
  -2  -6   2  956.16   46.80
   2   6   2  953.09   29.18
  -2   6   2  963.70   47.43
  -2   6   2  995.00   47.07
  -2  -6   2  919.62   32.50
  -2   6   2  944.23   45.45
  -2  -6   2  930.57   47.16
   2   6   2  961.30   29.32
  -2  -6   2  986.77   43.18
   2  -6   2  998.47   49.28
   2   6   4  611.91   35.01
  -2  -6   4  617.08   34.14
   2  -6   4  679.26   39.17
   2   6   4  711.47   41.03
  -2   6   4  733.55   39.68
  -2   6   4  656.80   36.64
  -2  -6   4  653.80   38.02
   2   6   4  648.43   27.58
  -2  -6   4  637.76   34.92
   2  -6   4  644.85   39.57
  -2  -6   4  641.46   34.25
  -2  -6   6  448.80   31.41
  -2  -6   6  477.79   59.47
   2  -6   6  381.37   45.50
   2   6   6  439.05   33.60
  -2   6   6  413.45   28.35
  -2  -6   6  471.12   33.63
   2  -6   6  397.50   30.00
  -2   6   6  499.62   36.94
  -2  -6   6  452.70   30.64
  -2  -6   6  486.94   31.49
  -2  -6   6  432.53   29.42
   2   6   6  440.14   26.50
  -2   6   6  391.21   29.04
  -2  -6   8  268.24   23.61
  -2   6   8  285.44   23.07
   2  -6   8  243.96   23.16
  -2  -6   8  323.96   28.27
   2   6   8  229.68   26.62
   2  -6   8  298.38   44.06
   2   6   8  278.80   24.62
  -2   6   8  257.24   28.99
  -2  -6   8  339.66   26.59
  -2   6   8  269.84   24.59
  -2  -6   8  271.32   25.86
   2  -6  10  135.88   34.50
   2   6  10  119.48   21.07
  -2   6  10  118.66   17.12
  -2  -6  10  137.06   44.71
  -2  -6  10  137.10   32.73
  -2  -7  -9  143.01   17.93
  -2   7  -9   82.22   22.95
  -2   7  -9  159.97   25.06
   2  -7  -9  134.77   16.78
   2  -7  -7  197.08   20.55
  -2   7  -7  195.94   19.82
   2  -7  -7  234.80   22.87
  -2   7  -7  243.89   28.90
  -2  -7  -7  197.88   21.80
  -2   7  -7  197.36   15.64
   2   7  -7  192.15   20.99
  -2   7  -7  175.35   25.56
  -2  -7  -7  222.72   23.29
  -2  -7  -7  219.62   22.58
   2  -7  -5  408.32   27.93
   2  -7  -5  478.31   30.93
  -2   7  -5  470.93   30.98
  -2  -7  -5  476.72   33.44
  -2   7  -5  444.07   25.81
   2   7  -5  484.41   28.94
   2  -7  -5  474.74   32.27
  -2   7  -5  476.36   35.85
  -2   7  -5  504.49   38.36
   2  -7  -5  475.20   34.12
   2  -7  -3  633.45   39.42
  -2  -7  -3  573.46   20.44
  -2  -7  -3  590.47   37.81
   2  -7  -3  544.59   35.48
  -2   7  -3  627.52   41.67
   2  -7  -3  589.26   34.75
  -2  -7  -3  599.47   35.27
  -2   7  -3  566.09   31.08
   2  -7  -3  599.78   38.58
   2   7  -3  586.38   28.07
   2  -7  -3  573.65   32.88
  -2  -7  -3  610.18   37.95
  -2   7  -3  581.59   35.19
  -2   7  -3  650.42   36.50
   2   7  -1  593.48   24.54
   2   7  -1  653.28   38.70
  -2  -7  -1  624.27   32.94
  -2   7  -1  647.65   40.35
   2  -7  -1  700.63   39.61
   2  -7  -1  632.38   37.99
  -2   7  -1  704.11   33.12
  -2  -7  -1  661.43   37.76
   2   7  -1  651.22   34.56
  -2   7  -1  665.70   35.72
  -2   7   1  731.94   40.35
   2   7   1  671.11   39.76
   2   7   1  679.61   39.48
   2  -7   1  657.89   40.67
  -2  -7   1  702.30   38.12
  -2  -7   1  719.89   42.04
  -2  -7   1  691.13   30.70
  -2   7   1  730.18   40.45
   2  -7   1  673.24   40.98
  -2  -7   1  693.51   39.93
   2  -7   1  648.17   41.49
   2   7   1  652.34   23.56
   2   7   1  672.50   34.78
   2   7   3  626.26   24.29
  -2   7   3  612.79   36.79
   2   7   3  698.85   36.81
  -2  -7   3  622.71   32.42
  -2  -7   3  581.07   34.66
   2   7   3  590.68   36.57
   2  -7   3  539.93   37.23
  -2  -7   3  608.23   41.95
  -2  -7   3  647.96   39.37
  -2   7   3  493.60   35.77
  -2  -7   3  557.93   18.95
   2  -7   3  624.14   40.35
  -2   7   3  623.97   39.10
   2   7   5  443.79   31.48
  -2   7   5  493.12   34.93
   2   7   5  543.75   38.25
   2  -7   5  506.24   35.72
   2   7   5  472.77   25.57
  -2  -7   5  465.72   31.89
  -2  -7   5  472.52   32.33
  -2   7   5  513.84   33.79
  -2  -7   5  490.24   34.71
   2  -7   5  500.17   36.15
  -2  -7   5  484.27   30.36
  -2  -7   7  242.77   25.31
   2   7   7  230.53   26.40
  -2   7   7  212.20   23.08
  -2   7   7  225.96   22.95
   2  -7   7  207.18   23.63
  -2   7   7  159.66   23.72
  -2  -7   7  216.54   24.60
  -2  -7   7  209.37   24.73
  -2  -7   7  236.74   22.43
   2   7   7  194.72   18.90
  -2  -7   7  223.73   24.45
  -2  -7   9  142.12   39.26
   2  -7   9  115.73   33.97
  -2   7   9  134.81   18.80
  -2   7   9  138.19   23.51
   2   7   9  108.14   20.46
   2  -7  11    7.59   23.65
   2  -8  -8  117.93   17.60
  -2  -8  -8  102.11   17.88
  -2   8  -8  120.13   22.26
   2   8  -8  124.63   18.45
  -2   8  -8  114.78   23.48
   2   8  -6  198.49   20.35
   2  -8  -6  192.77   20.23
  -2  -8  -6  181.54   23.35
   2  -8  -6  232.11   24.27
  -2   8  -6  251.65   28.88
  -2   8  -6  196.32   15.61
  -2   8  -6  260.36   28.52
  -2  -8  -6  223.51   23.77
  -2   8  -4  316.39   27.80
   2   8  -4  317.18   22.35
   2  -8  -4  319.63   25.04
   2  -8  -4  296.15   25.39
  -2   8  -4  351.55   22.85
   2  -8  -4  300.55   28.33
  -2  -8  -4  326.95   29.35
  -2   8  -4  315.03   31.20
   2  -8  -4  334.74   30.45
  -2   8  -2  410.84   33.65
   2  -8  -2  404.42   31.89
   2  -8  -2  358.27   28.93
  -2  -8  -2  351.13   30.87
  -2  -8  -2  411.85   29.09
  -2   8  -2  383.73   26.12
   2   8  -2  347.93   20.31
   2  -8  -2  399.68   31.59
  -2   8  -2  390.95   27.30
   2  -8  -2  357.93   31.37
   2   8  -2  387.47   27.44
  -2   8   0  609.99   37.51
   2   8   0  567.57   36.53
   2  -8   0  514.33   36.92
  -2  -8   0  528.04   34.70
   2  -8   0  496.80   34.09
   2  -8   0  525.12   36.40
  -2   8   0  510.51   36.41
   2   8   0  561.96   38.07
  -2  -8   0  546.23   37.87
   2   8   0  514.62   21.45
  -2   8   0  493.35   32.13
  -2  -8   0  498.33   28.53
  -2  -8   0  531.96   34.74
   2  -8   0  477.98   36.51
  -2   8   0  488.10   14.76
   2   8   0  506.03   30.78
  -2   8   0  437.86   13.69
   2   8   2  392.41   27.34
   2  -8   2  411.97   33.31
   2   8   2  392.31   18.43
  -2  -8   2  408.30   29.82
  -2  -8   2  395.15   32.68
  -2  -8   2  382.93   20.48
  -2  -8   2  354.99   31.70
   2  -8   2  391.07   33.52
  -2   8   2  341.59   29.00
   2   8   4  315.64   25.81
  -2  -8   4  288.70   22.23
  -2   8   4  328.30   29.77
   2   8   4  262.11   28.10
  -2   8   4  315.43   29.61
  -2  -8   4  328.84   30.69
   2  -8   4  235.40   27.23
   2   8   4  294.56   17.48
  -2  -8   4  311.17   26.55
   2  -8   4  264.19   27.38
  -2  -8   6  201.23   20.11
   2   8   6  237.94   24.78
   2   8   6  259.45   28.75
  -2  -8   6  242.26   24.99
   2  -8   6  199.55   24.02
  -2   8   6  225.25   24.83
   2   8   6  200.29   17.99
  -2  -8   6  228.29   26.73
  -2  -8   8  137.43   21.05
  -2   8   8  140.90   20.95
  -2  -8   8  220.80   47.82
   2  -8   8  172.04   37.88
   2   8   8  229.12   28.07
  -2   8   8  144.15   23.71
   2  -8   8  154.55   22.46
   2  -8  10   30.58   22.74
   2   9  -9   61.33   15.25
  -2  -9  -7   65.42   16.76
   2  -9  -7   96.43   18.55
  -2   9  -7   82.47   19.18
   2   9  -7   71.83   14.27
  -2   9  -7   62.91   17.32
  -2  -9  -5  195.71   25.76
   2  -9  -5  201.82   25.86
   2  -9  -5  195.29   24.06
  -2   9  -5  242.96   28.84
  -2   9  -5  189.89   15.78
   2   9  -5  190.71   19.04
  -2   9  -5  229.42   25.29
   2  -9  -3  268.72   24.65
   2  -9  -3  283.11   28.64
  -2   9  -3  253.83   29.18
  -2   9  -3  260.88   20.95
  -2  -9  -3  306.93   31.17
   2   9  -3  272.09   19.79
  -2   9  -3  342.92   27.73
   2  -9  -3  266.36   29.30
   2   9  -1  288.58   28.43
  -2   9  -1  265.70   23.54
  -2  -9  -1  260.28   22.95
   2   9  -1  233.76   15.73
   2  -9  -1  243.74   26.02
  -2  -9  -1  217.82   24.36
  -2   9  -1  295.82   28.91
   2   9  -1  230.45   22.20
  -2   9   1  268.49   13.76
  -2  -9   1  225.55   18.84
   2  -9   1  202.28   25.65
   2  -9   1  255.75   28.77
   2   9   1  241.55   27.19
   2   9   1  248.00   14.68
  -2   9   1  291.18   26.38
  -2  -9   1  262.83   28.83
  -2   9   1  255.64   27.14
   2   9   1  308.65   24.70
   2   9   3  318.53   26.32
   2  -9   3  274.87   30.19
   2   9   3  291.56   16.96
  -2   9   3  264.61   27.11
   2   9   3  286.94   16.14
   2  -9   3  291.79   30.86
  -2  -9   3  281.67   29.52
   2   9   5  195.92   23.17
  -2  -9   5  219.64   27.27
   2  -9   5  172.94   25.21
  -2   9   5  282.98   30.01
   2   9   5  265.72   29.98
  -2   9   5  200.78   25.99
   2  -9   5  223.88   26.94
   2   9   5  187.86   15.82
   2  -9   7   69.20   18.04
  -2  -9   7   57.09   17.86
   2   9   7   94.08   18.93
  -2  -9   7   80.66   33.73
   2  -9   7   98.79   31.15
  -2   9   7   61.32   15.84
   2   9   7   55.03   15.58
   2  -9   9   45.89   26.92
  -2   9   9   55.23   15.97
   2 -10  -8   39.71   15.58
  -2 -10  -8   56.12   16.92
  -2 -10  -6   84.58   20.39
  -2  10  -6  105.63   19.43
   2 -10  -6  111.33   20.72
  -2  10  -6   96.39   20.83
   2  10  -6   98.59   15.78
  -2 -10  -4  138.81   23.91
   2 -10  -4  177.56   25.46
   2 -10  -4  114.64   20.33
  -2  10  -4  137.21   14.61
   2  10  -4  131.49   15.76
  -2  10  -4  141.08   24.47
  -2 -10  -2  157.24   24.85
   2  10  -2  114.89   17.12
   2 -10  -2  140.38   23.94
   2 -10  -2  143.03   22.70
   2  10  -2  135.17   13.43
  -2  10  -2  137.65   23.14
  -2  10  -2  113.87   15.79
  -2  10   0  125.57   20.92
  -2 -10   0  153.97   24.29
   2  10   0  132.36   17.78
   2 -10   0  145.62   23.61
   2 -10   0  121.72   22.66
   2  10   0  127.89   21.74
   2  10   0  138.95   11.74
  -2  10   0  113.24   17.16
  -2 -10   2  134.93   23.16
   2  10   2  144.24   18.32
   2 -10   2  114.57   22.54
   2 -10   2  140.17   24.28
  -2  10   2  117.99   19.22
   2  10   2  109.39   10.61
  -2  10   2  133.13   20.80
  -2  10   2  135.76   11.97
  -2 -10   4  151.81   25.18
  -2  10   4  133.29   21.62
   2  10   4   97.72   17.69
   2 -10   4  114.85   22.59
   2 -10   4  101.53   21.05
   2  10   4  126.03   12.05
   2  10   4  175.42   25.80
  -2 -10   6   87.09   20.00
   2  10   6  101.09   18.99
   2 -10   6  106.27   22.55
  -2  10   6   95.63   20.21
   2 -10   8   92.19   37.58
   2 -11  -3   63.60   19.16
   2 -11  -3   72.21   18.85
  -2  11  -3   96.80   13.90
  -2  11  -3   87.70   19.37
   2  11  -1   99.41   16.60
  -2  11  -1   90.70   15.39
  -2  11  -1   58.20   16.47
  -2  11   1  100.28   17.39
  -2 -11   1  128.18   24.92
   2  11   1   76.73   15.76
   2 -11   1   83.27   21.17
   2 -11   1  117.18   23.23
   2  11   1  120.03   22.62
  -2  11   1  137.55   22.00
  -2 -11   3   92.93   22.13
   2  11   3  107.48   17.49
   2 -11   3   65.23   22.04
   2 -11   3  115.31   23.56
  -2  11   3  108.36   19.66
  -2  11   3   90.66   19.17
   2  11   5   57.80   14.99
  -2  12  -2   61.99   17.48
  -2  12   0  102.74   20.32
  -2  12   0  105.53   17.32
  -2  12   2   41.48   13.82
   2  12   2   59.11   15.02
  -2  12   2   38.05   14.01
   2  12   4   33.97   13.12
   3   0 -12   76.59   15.51
  -3   0 -10  172.22   33.34
  -3   0 -10  276.67   38.84
   3   0 -10  224.37   21.55
   3   0 -10  192.03   21.29
  -3   0 -10  200.71   26.19
  -3   0  -8  332.24   37.18
   3   0  -8  385.04   26.39
  -3   0  -8  321.20   29.83
  -3   0  -8  335.17   19.06
   3   0  -8  391.49   27.16
  -3   0  -8  363.60   20.02
   3   0  -6 1009.24   68.24
  -3   0  -6  911.70   51.61
  -3   0  -6  891.74   37.12
  -3   0  -6  962.67   47.77
   3   0  -6  951.03   42.10
   3   0  -6  876.43   37.46
   3   0  -4 1408.29   73.71
  -3   0  -4 1451.77   54.95
   3   0  -4 1498.08   53.06
  -3   0  -4 1579.13   58.52
  -3   0  -4 1437.54   52.09
  -3   0  -2 2494.57   62.70
  -3   0  -2 2622.99   76.66
  -3   0  -2 2406.51   75.66
   3   0  -2 2332.58   81.25
   3   0   0 1688.22   51.89
  -3   0   0 1609.89   54.58
   3   0   0 1712.24   58.51
  -3   0   0 1724.10   58.48
   3   0   0 1794.96   58.79
   3   0   0 1703.13   54.26
  -3   0   2 2662.78   83.82
  -3   0   2 2744.11   80.05
  -3   0   2 2511.87   92.64
   3   0   2 2551.29   79.11
  -3   0   2 2626.73   81.39
  -3   0   2 2489.97   78.17
   3   0   2 2559.88   63.30
   3   0   2 2664.42   75.70
  -3   0   4 1479.37   57.42
   3   0   4 1466.20   51.57
  -3   0   4 1570.25   81.79
   3   0   4 1491.18   54.33
   3   0   4 1492.59   54.49
  -3   0   4 1542.64   57.96
  -3   0   4 1451.43   53.16
  -3   0   4 1589.73   57.70
  -3   0   4 1659.11   63.82
  -3   0   4 1616.08   67.24
  -3   0   6  729.19   62.34
   3   0   6  887.79   43.40
  -3   0   6  780.64   39.08
  -3   0   6  783.86   35.19
  -3   0   6  816.09   41.91
  -3   0   6  818.12   22.73
   3   0   6  743.61   35.18
  -3   0   6  874.55   49.48
  -3   0   6  782.37   50.21
   3   0   6  842.01   28.93
  -3   0   8  408.01   32.42
  -3   0   8  378.17   17.35
  -3   0   8  311.45   45.84
   3   0   8  427.36   33.22
  -3   0   8  350.54   25.31
  -3   0   8  363.78   30.80
  -3   0   8  375.67   20.85
  -3   0   8  304.04   35.18
  -3   0   8  379.56   22.00
  -3   0   8  356.25   36.76
   3   0   8  408.19   22.48
  -3   0  10  215.94   31.28
  -3   0  10  230.13   27.48
  -3   0  10  266.77   23.35
   3   0  12   82.16   15.18
  -3   1 -11  135.85   23.75
   3   1 -11  106.54   17.76
   3  -1 -11  121.94   17.38
  -3  -1 -11   94.46   28.41
  -3   1  -9  316.78   31.42
  -3  -1  -9  274.11   36.62
  -3  -1  -9  277.58   15.95
   3  -1  -9  297.71   25.22
  -3   1  -9  299.84   15.80
  -3  -1  -9  257.24   26.78
  -3  -1  -9  284.36   15.90
   3   1  -9  290.22   25.80
   3  -1  -9  273.82   23.12
  -3   1  -9  234.75   37.22
  -3  -1  -9  294.64   16.37
   3   1  -9  280.21   21.69
   3  -1  -7  797.13   64.36
  -3  -1  -7  716.77   51.88
  -3  -1  -7  773.56   34.18
  -3   1  -7  756.93   32.49
  -3   1  -7  795.62   46.61
   3  -1  -7  715.51   32.38
   3  -1  -7  774.36   40.11
  -3  -1  -7  687.94   40.86
   3   1  -7  794.04   36.03
  -3  -1  -7  701.97   31.89
   3   1  -7  771.18   40.84
   3  -1  -7  798.17   35.96
  -3   1  -7  789.23   33.30
   3  -1  -7  755.41   52.40
   3   1  -5  862.75   38.11
   3  -1  -5  904.86   60.61
   3  -1  -5  920.48   38.40
  -3  -1  -5  828.50   47.47
  -3  -1  -5  973.09   39.70
  -3   1  -5  919.52   46.50
  -3  -1  -5  912.88   42.52
   3  -1  -5  843.70   41.40
  -3   1  -5  919.89   38.16
  -3  -1  -3 1623.18   57.68
   3  -1  -3 1629.14   57.71
   3  -1  -3 1636.74   56.84
   3  -1  -3 1660.02   73.11
  -3   1  -3 1601.29   60.95
  -3  -1  -3 1618.78   54.80
  -3   1  -3 1719.98   57.39
   3  -1  -3 1611.96   59.37
   3   1  -3 1553.03   56.22
   3  -1  -3 1545.09   63.95
  -3   1  -1 2537.32   71.29
   3   1  -1 2539.74   74.49
   3  -1  -1 2461.94   80.61
  -3   1  -1 2500.63   76.79
  -3  -1  -1 2607.40   70.27
   3   1  -1 2517.72   63.78
   3   1  -1 2515.63   80.97
   3  -1  -1 2557.76   78.44
  -3  -1  -1 2579.21   65.67
   3  -1   1 2596.14   79.23
   3   1   1 2505.27   68.40
  -3  -1   1 2587.48   79.79
  -3  -1   1 2523.31   74.52
  -3  -1   1 2630.27   92.26
   3   1   1 2472.34   78.40
  -3   1   1 2484.97   81.60
  -3   1   1 2437.57   77.20
  -3   1   1 2641.17   78.51
   3  -1   1 2587.32   74.88
  -3  -1   1 2607.30   79.74
  -3  -1   1 2476.87   78.84
   3   1   1 2638.31   77.35
   3  -1   1 2653.18   70.75
   3  -1   3 1784.75   54.73
  -3  -1   3 1668.26   59.40
   3   1   3 1679.58   57.56
   3  -1   3 1713.92   59.86
  -3  -1   3 1654.65   60.35
  -3   1   3 1781.54   62.73
  -3  -1   3 1720.53   82.72
  -3   1   3 1901.03   78.47
   3  -1   3 1671.35   58.62
   3   1   3 1648.09   53.77
  -3   1   3 1761.72   59.33
  -3   1   3 1793.95   64.86
  -3  -1   3 1769.73   59.49
  -3  -1   3 1915.99   61.88
  -3   1   3 1716.50   54.63
   3   1   3 1723.21   60.30
  -3  -1   3 1826.32   66.57
  -3  -1   3 1830.71   71.35
  -3   1   3 1711.69   66.59
  -3  -1   5  782.78   41.91
   3  -1   5  926.66   39.75
  -3  -1   5  991.05   68.79
  -3   1   5  904.82   61.14
   3  -1   5  845.14   41.79
  -3   1   5  881.91   23.11
   3   1   5  801.75   38.20
  -3   1   5  861.66   37.27
  -3   1   5  928.85   44.25
  -3  -1   5  848.98   37.92
  -3  -1   5  913.44   41.26
  -3  -1   5  927.90   47.84
  -3   1   5  833.31   42.53
  -3  -1   5  993.31   49.87
  -3  -1   5  896.15   38.31
  -3  -1   5  894.86   52.62
  -3   1   5  840.39   48.21
   3   1   5  850.02   38.28
   3  -1   7  734.46   43.43
  -3   1   7  754.36   42.75
  -3   1   7  690.43   38.96
  -3  -1   7  734.89   32.84
  -3  -1   7  703.86   67.33
  -3   1   7  733.83   32.50
  -3   1   7  722.12   33.82
   3   1   7  786.30   42.17
  -3  -1   7  704.87   34.20
   3  -1   7  702.16   33.76
  -3  -1   7  773.28   42.69
  -3   1   7  740.66   41.83
  -3  -1   7  755.25   33.89
  -3  -1   7  781.11   53.85
  -3   1   7  751.20   25.52
   3  -1   7  771.10   36.05
  -3  -1   7  695.84   51.26
  -3   1   7  665.46   48.24
  -3  -1   9  282.32   29.65
  -3   1   9  235.20   26.07
  -3  -1   9  254.03   15.56
  -3  -1   9  255.99   46.24
  -3  -1   9  274.48   21.15
  -3   1   9  248.74   23.75
  -3   1   9  305.10   17.11
  -3   1   9  287.15   16.56
  -3  -1   9  229.58   34.41
  -3  -1   9  247.79   16.23
   3  -1   9  294.20   23.40
  -3  -1   9  267.26   15.70
  -3  -1  11  184.19   31.51
   3  -1  11  129.26   17.09
  -3   1  11  169.45   29.77
   3   1  11  107.18   15.10
  -3  -1  11  136.80   22.87
  -3   1  11   87.13   19.14
  -3  -1  11  215.04   45.82
   3   2 -12  101.06   19.69
  -3  -2 -10  179.42   10.85
  -3   2 -10  184.04    9.89
  -3  -2 -10  166.99   10.19
   3   2 -10  230.73   25.30
   3  -2 -10  180.81   18.47
  -3   2 -10  150.79   24.85
  -3   2 -10  198.21   35.47
  -3  -2 -10  188.22   11.12
  -3  -2  -8  406.04   42.10
   3  -2  -8  321.60   20.10
  -3   2  -8  351.60   32.65
  -3  -2  -8  265.17   18.90
  -3  -2  -8  359.18   28.88
  -3   2  -8  334.65   19.41
   3   2  -8  340.04   28.62
   3  -2  -8  335.98   22.04
   3  -2  -8  356.92   28.42
  -3  -2  -8  312.25   19.98
  -3   2  -8  307.41   39.21
  -3  -2  -6  869.85   38.35
   3  -2  -6  818.91   36.47
   3  -2  -6  777.92   60.57
  -3   2  -6  885.17   37.39
  -3  -2  -6  847.88   38.16
  -3  -2  -6  815.48   53.20
  -3   2  -6  865.01   48.73
   3  -2  -6  838.19   43.17
  -3  -2  -6  873.90   41.59
  -3   2  -6  943.32   38.59
  -3   2  -6  735.39   56.33
   3  -2  -6  827.33   51.77
   3  -2  -4 1425.33   56.73
  -3  -2  -4 1565.15   57.14
   3  -2  -4 1642.78   79.08
  -3   2  -4 1622.16   56.19
   3  -2  -4 1509.33   59.60
  -3   2  -4 1590.44   64.59
  -3   2  -4 1632.34   56.97
   3  -2  -4 1486.69   54.94
  -3  -2  -4 1472.68   51.79
   3  -2  -2 1998.88   64.84
   3   2  -2 2062.50   54.58
  -3  -2  -2 2033.79   51.79
   3  -2  -2 2030.49   77.98
  -3  -2  -2 2088.16   69.27
   3  -2  -2 2044.64   54.70
  -3   2  -2 2098.46   71.37
  -3   2  -2 2020.88   67.32
  -3  -2  -2 2020.60   56.88
   3   2  -2 2109.99   73.25
   3  -2  -2 1921.18   66.67
   3  -2  -2 2072.17   71.25
   3   2   0 1052.02   44.63
  -3  -2   0 1098.93   43.56
  -3   2   0 1143.45   48.35
  -3  -2   0 1130.15   37.99
   3  -2   0 1148.67   40.51
   3   2   0 1125.12   37.18
  -3  -2   0  983.73   43.80
  -3   2   0 1022.67   43.26
   3  -2   0 1059.48   43.91
  -3  -2   0 1059.92   42.33
   3   2   0 1161.38   45.40
  -3   2   0 1149.00   39.58
   3   2   2 1929.88   64.60
   3   2   2 2141.06   54.28
  -3  -2   2 2035.63   65.85
   3   2   2 1851.29   66.69
   3  -2   2 2023.97   67.86
  -3  -2   2 2054.07   69.02
  -3   2   2 1954.11   66.46
  -3   2   2 2112.07   73.36
  -3  -2   2 1964.51   58.15
  -3   2   2 1966.23   67.18
  -3  -2   2 2066.13   76.42
   3  -2   2 1999.92   59.66
  -3  -2   2 2091.43   71.27
  -3  -2   4 1535.29   55.17
  -3  -2   4 1559.68   41.11
   3  -2   4 1555.86   49.04
  -3  -2   4 1481.88   59.01
   3   2   4 1541.21   56.30
   3   2   4 1504.48   39.49
   3   2   4 1477.34   50.53
  -3  -2   4 1535.29   56.64
  -3  -2   4 1422.96   83.54
  -3   2   4 1560.41   55.91
  -3   2   4 1498.62   62.37
  -3  -2   4 1602.11   52.78
   3  -2   4 1570.61   59.71
  -3   2   4 1396.13   49.99
  -3  -2   4 1660.06   63.78
  -3  -2   4 1521.56   61.99
  -3   2   4 1549.31   56.42
  -3  -2   4 1611.02   72.74
   3  -2   4 1482.83   55.74
  -3  -2   6  714.03   35.47
  -3  -2   6  857.41   45.92
   3  -2   6  747.32   36.60
  -3   2   6  773.73   42.02
  -3  -2   6  686.45   63.73
  -3   2   6  713.71   34.70
  -3  -2   6  821.92   36.95
  -3   2   6  806.65   27.85
  -3  -2   6  811.65   27.33
   3   2   6  833.03   39.35
  -3  -2   6  792.50   33.19
  -3   2   6  818.46   44.08
  -3  -2   6  799.95   41.24
  -3  -2   6  858.28   51.89
  -3   2   6  783.50   36.71
  -3  -2   6  861.19   48.24
  -3  -2   6  850.89   56.11
   3  -2   6  816.85   43.95
   3   2   8  304.46   17.41
  -3   2   8  344.71   29.36
   3  -2   8  309.14   21.39
  -3  -2   8  363.18   53.38
  -3   2   8  335.10   18.21
  -3  -2   8  378.30   20.47
   3   2   8  381.39   29.75
  -3  -2   8  305.25   19.58
  -3   2   8  319.34   27.81
  -3  -2   8  290.40   28.17
  -3  -2   8  309.36   20.19
  -3   2   8  353.83   21.57
  -3  -2   8  337.58   21.37
  -3  -2   8  366.48   41.64
   3  -2   8  368.07   29.70
  -3  -2   8  331.11   37.44
   3   2  10  185.84   14.96
  -3  -2  10  167.47   24.70
  -3   2  10  160.99   22.31
  -3   2  10  139.23   19.78
   3  -2  10  196.08   23.18
   3   3 -11  112.71   20.04
   3  -3 -11   67.45   12.01
  -3  -3  -9  184.85   33.47
   3  -3  -9  197.25   15.01
   3  -3  -9  193.22   16.44
  -3   3  -9  187.50   14.25
   3   3  -9  193.94   23.87
  -3  -3  -9  193.54   15.74
  -3   3  -9  206.15   28.09
  -3   3  -9  197.65   34.61
  -3  -3  -9  188.13   14.68
  -3  -3  -7  559.04   30.08
   3  -3  -7  545.14   29.53
  -3  -3  -7  576.55   30.94
   3  -3  -7  564.86   54.78
  -3  -3  -7  553.95   48.31
  -3   3  -7  679.61   45.03
   3  -3  -7  610.76   37.54
  -3   3  -7  567.33   28.88
  -3   3  -7  524.66   48.98
   3  -3  -7  515.06   42.19
   3  -3  -5  942.30   44.66
   3  -3  -5 1006.23   64.90
  -3  -3  -5 1023.22   44.12
  -3  -3  -5 1010.57   43.71
  -3   3  -5 1017.12   52.70
   3  -3  -5 1069.97   49.30
  -3   3  -5  918.73   41.18
  -3   3  -5  864.78   58.47
   3  -3  -5  931.36   41.36
  -3  -3  -5  853.38   29.42
   3  -3  -5  952.76   52.46
   3  -3  -3 1469.38   54.56
  -3  -3  -3 1403.14   56.92
   3  -3  -3 1421.25   70.57
  -3   3  -3 1524.71   56.17
   3  -3  -3 1470.30   44.62
  -3   3  -3 1469.54   61.89
  -3  -3  -3 1382.49   55.67
  -3  -3  -3 1553.05   44.10
   3  -3  -3 1488.06   56.00
  -3   3  -3 1591.33   58.10
  -3   3  -1 1496.23   43.41
  -3  -3  -1 1531.87   54.14
  -3  -3  -1 1472.54   43.00
  -3   3  -1 1405.72   56.65
   3  -3  -1 1471.31   52.91
   3  -3  -1 1533.79   59.82
   3  -3  -1 1427.04   49.45
   3   3  -1 1444.58   46.69
  -3  -3   1 1387.25   53.13
  -3  -3   1 1326.35   47.69
  -3  -3   1 1387.02   55.19
  -3   3   1 1320.75   51.77
  -3  -3   1 1353.53   53.39
  -3  -3   1 1387.34   38.38
  -3   3   1 1441.03   58.00
   3  -3   1 1364.91   53.52
  -3  -3   1 1349.07   44.80
  -3   3   1 1376.39   53.91
  -3   3   1 1353.56   48.56
   3   3   1 1428.16   48.77
   3   3   1 1309.63   50.10
  -3  -3   3 1483.28   56.12
   3   3   3 1457.30   54.03
   3  -3   3 1472.67   50.98
  -3  -3   3 1376.57   54.98
  -3   3   3 1375.88   53.40
   3   3   3 1407.65   54.18
  -3  -3   3 1387.18   43.57
   3   3   3 1385.93   41.46
  -3  -3   3 1432.73   55.29
  -3   3   3 1356.43   59.62
  -3  -3   3 1443.00   48.70
  -3  -3   3 1456.17   47.40
   3  -3   3 1386.08   54.92
  -3  -3   3 1436.68   56.84
  -3   3   3 1463.03   55.58
  -3  -3   3 1231.47   64.51
  -3  -3   3 1492.07   58.77
   3  -3   3 1406.74   43.52
  -3  -3   5  912.49   46.57
   3  -3   5  961.87   34.63
  -3   3   5  935.70   46.73
  -3  -3   5  908.45   71.66
   3  -3   5  953.87   47.57
  -3  -3   5  894.23   41.35
  -3  -3   5  890.77   41.51
  -3  -3   5  959.96   32.67
  -3   3   5  979.24   34.58
  -3   3   5  903.47   48.33
  -3  -3   5  941.32   33.30
  -3  -3   5  979.16   43.81
   3   3   5  881.88   37.41
  -3  -3   5  990.65   52.47
  -3   3   5  835.46   40.39
   3  -3   5  854.59   41.15
  -3  -3   5  847.24   46.44
  -3  -3   5  895.72   58.08
  -3  -3   7  654.80   28.07
   3  -3   7  563.51   32.01
  -3  -3   7  593.61   40.12
  -3  -3   7  600.71   31.96
  -3   3   7  636.58   39.81
  -3  -3   7  516.74   61.06
   3  -3   7  598.08   44.40
  -3  -3   7  643.64   32.65
   3  -3   7  611.82   41.06
   3   3   7  561.91   37.58
   3   3   7  579.10   34.08
  -3  -3   7  588.86   24.22
  -3   3   7  575.99   39.09
  -3  -3   7  626.34   38.99
  -3   3   7  630.58   32.17
  -3   3   7  593.41   26.97
  -3  -3   7  682.86   53.02
  -3  -3   7  642.03   42.93
  -3  -3   7  665.33   53.39
   3   3   9  176.38    9.04
  -3   3   9  192.81   24.06
  -3   3   9  167.72   14.57
   3  -3   9  185.45   16.45
   3   3   9  178.63   23.64
  -3  -3   9  223.38   46.17
  -3  -3   9  187.42   15.36
  -3   3   9  174.26   22.67
   3   3   9  189.13   22.50
   3  -3   9  177.35   24.53
  -3  -3   9  182.27   30.83
  -3   3  11   76.54   17.60
   3   3  11  105.68   20.44
  -3   3  11   60.93   15.73
   3  -3  11  115.22   20.83
   3  -4 -10  115.95   11.86
  -3  -4 -10  121.58   12.34
  -3   4 -10  136.95   24.24
   3   4 -10  118.74   21.04
  -3   4 -10  108.14   26.67
  -3  -4  -8  267.45   21.50
  -3  -4  -8  251.89   19.86
  -3   4  -8  266.69   29.97
  -3   4  -8  249.86   18.96
  -3  -4  -8  264.87   37.33
  -3   4  -8  265.98   36.21
   3  -4  -8  217.79   18.72
  -3   4  -6  621.40   43.00
   3  -4  -6  565.03   35.36
   3  -4  -6  604.29   55.08
  -3  -4  -6  679.70   35.53
  -3  -4  -6  613.56   34.57
  -3  -4  -6  584.93   36.39
   3  -4  -6  581.71   37.92
  -3   4  -6  556.38   31.03
   3  -4  -6  612.21   33.13
  -3   4  -6  667.79   52.25
  -3  -4  -6  572.88   27.56
   3  -4  -6  634.36   44.83
   3  -4  -4 1140.42   48.31
   3  -4  -4 1074.29   65.18
  -3  -4  -4 1177.85   50.82
   3  -4  -4 1101.61   39.41
  -3   4  -4 1081.82   55.47
  -3  -4  -4 1099.27   48.94
   3  -4  -4 1170.11   48.85
  -3   4  -4 1135.93   48.14
  -3   4  -4 1049.35   60.96
   3  -4  -2 1376.45   52.17
   3  -4  -2 1254.56   45.70
   3   4  -2 1317.78   46.75
  -3   4  -2 1274.34   56.93
   3  -4  -2 1315.26   53.53
  -3   4  -2 1355.01   56.72
   3  -4  -2 1274.75   56.06
  -3   4  -2 1410.86   55.08
  -3  -4  -2 1311.40   53.85
  -3   4  -2 1275.30   58.22
   3   4  -2 1278.27   55.24
  -3  -4   0  729.64   29.94
  -3  -4   0  764.93   36.18
  -3  -4   0  661.42   37.06
   3   4   0  763.70   33.41
   3  -4   0  733.60   36.01
   3  -4   0  731.38   37.88
  -3  -4   0  654.56   31.97
  -3   4   0  735.51   37.73
  -3   4   0  648.21   30.20
  -3  -4   0  732.65   37.46
  -3   4   0  708.63   27.26
  -3  -4   2 1240.94   50.04
   3  -4   2 1304.59   54.28
  -3  -4   2 1326.84   55.01
   3   4   2 1352.18   51.88
  -3  -4   2 1243.56   40.84
  -3   4   2 1247.87   56.96
  -3  -4   2 1259.64   52.37
  -3   4   2 1318.92   53.83
  -3  -4   2 1276.81   53.04
  -3  -4   2 1340.64   45.68
  -3  -4   2 1304.89   53.59
  -3  -4   4 1039.90   49.18
   3   4   4 1205.85   50.10
   3  -4   4 1166.83   55.05
  -3  -4   4 1093.84   48.75
  -3  -4   4 1038.71   38.76
  -3   4   4 1057.79   41.52
  -3  -4   4 1090.35   48.27
   3   4   4 1080.46   36.75
  -3   4   4 1126.48   55.07
  -3  -4   4 1082.21   35.33
   3  -4   4 1171.28   50.69
  -3   4   4 1065.02   47.73
  -3  -4   4 1080.77   44.81
  -3  -4   4 1081.44   54.07
  -3  -4   4 1047.62   49.97
   3  -4   4 1110.97   34.34
  -3  -4   6  512.50   36.24
   3  -4   6  571.54   24.59
  -3  -4   6  581.25   33.30
  -3  -4   6  513.21   59.50
   3  -4   6  625.97   44.04
   3   4   6  602.69   37.80
  -3  -4   6  522.13   31.82
  -3  -4   6  576.51   27.06
  -3   4   6  588.05   28.59
   3   4   6  602.20   30.52
  -3  -4   6  537.96   16.98
  -3  -4   6  551.46   35.32
  -3   4   6  580.18   39.99
  -3   4   6  498.11   30.44
  -3  -4   6  570.30   44.81
   3  -4   6  563.75   33.29
  -3  -4   6  543.35   36.59
  -3  -4   6  727.34   54.84
  -3  -4   8  197.81   25.76
  -3  -4   8  247.95   20.76
  -3  -4   8  296.75   50.61
  -3   4   8  235.60   18.18
  -3  -4   8  250.00   19.07
  -3  -4   8  235.12   19.76
   3   4   8  255.47   23.71
  -3   4   8  223.75   26.17
  -3  -4   8  234.02   25.72
  -3   4   8  255.85   20.45
   3  -4   8  230.73   32.28
   3   4   8  258.65   26.45
  -3  -4   8  311.77   39.83
   3  -4   8  270.94   22.17
   3   4  10  123.39   20.89
  -3  -4  10  128.68   40.62
  -3   4  10  112.53   19.87
   3  -4  10  152.94   26.25
  -3  -5  -9  159.60   17.00
  -3  -5  -9  120.67   15.38
  -3   5  -9  143.32   15.15
  -3   5  -9  121.72   22.01
  -3   5  -9  142.55   28.86
   3  -5  -9  126.36   14.55
   3  -5  -7  301.46   26.87
  -3  -5  -7  334.29   26.33
  -3   5  -7  337.53   34.01
  -3   5  -7  346.60   24.27
   3  -5  -7  374.48   26.36
  -3   5  -7  297.79   36.24
  -3  -5  -7  308.84   22.90
  -3  -5  -7  335.66   25.87
   3  -5  -5  487.02   31.14
   3  -5  -5  496.44   47.51
   3  -5  -5  442.63   24.77
  -3  -5  -5  479.58   31.68
  -3   5  -5  483.97   37.94
  -3  -5  -5  460.95   31.48
   3  -5  -5  430.53   29.37
  -3   5  -5  482.15   29.65
  -3   5  -5  474.27   31.02
  -3  -5  -5  419.86   29.74
  -3   5  -5  447.56   39.37
   3  -5  -5  552.03   39.28
  -3  -5  -5  438.19   23.80
   3  -5  -3  837.82   40.12
  -3  -5  -3  850.55   43.92
  -3   5  -3  859.38   48.68
  -3  -5  -3  843.90   40.73
  -3   5  -3  751.57   41.01
   3  -5  -3  835.57   44.72
  -3   5  -3  847.98   41.95
  -3   5  -3  808.79   46.56
   3   5  -3  838.63   44.29
  -3  -5  -3  753.62   41.11
   3  -5  -3  845.84   42.59
   3  -5  -3  797.49   35.31
  -3  -5  -1 1169.85   38.70
  -3   5  -1 1210.78   31.35
  -3   5  -1 1149.17   54.43
   3  -5  -1 1205.77   48.83
   3   5  -1 1218.63   47.78
  -3   5  -1 1136.15   52.91
   3  -5  -1 1169.52   54.16
  -3   5  -1 1057.52   45.60
   3   5  -1 1264.87   52.92
  -3  -5   1 1166.15   49.47
  -3  -5   1 1150.79   45.95
   3   5   1 1172.32   48.73
   3  -5   1 1285.80   54.36
   3  -5   1 1202.66   53.29
  -3   5   1 1066.46   52.84
  -3  -5   1 1173.23   53.29
  -3   5   1 1156.34   51.23
  -3   5   1 1089.85   41.30
  -3  -5   1 1103.62   50.14
   3   5   1 1143.47   48.82
  -3  -5   3  909.84   45.19
   3   5   3  846.30   42.99
  -3  -5   3  841.22   36.21
  -3  -5   3  857.29   35.52
   3  -5   3  890.31   45.51
  -3   5   3  801.97   46.67
  -3   5   3  823.74   42.21
  -3  -5   3  851.06   45.38
  -3  -5   3  797.71   41.89
  -3  -5   3  901.25   44.01
  -3  -5   5  431.03   24.81
  -3  -5   5  563.07   61.35
   3  -5   5  458.82   38.86
  -3  -5   5  448.35   30.81
  -3   5   5  421.64   26.34
   3   5   5  422.15   21.77
  -3  -5   5  417.88   28.61
  -3   5   5  460.07   35.55
   3  -5   5  448.37   31.56
  -3   5   5  457.19   30.16
  -3  -5   5  442.83   30.73
  -3  -5   5  483.05   38.47
   3  -5   5  426.68   15.51
  -3  -5   5  430.19   31.26
   3  -5   7  335.40   17.56
   3  -5   7  355.91   39.69
  -3  -5   7  399.32   56.70
   3   5   7  355.49   30.57
  -3  -5   7  370.68   24.14
  -3   5   7  337.33   23.76
  -3  -5   7  352.88   26.88
  -3  -5   7  340.51   26.94
   3   5   7  353.28   24.62
  -3  -5   7  365.09   30.74
  -3   5   7  258.95   28.99
  -3   5   7  309.42   25.03
   3  -5   7  365.59   28.19
  -3  -5   7  344.47   42.97
  -3  -5   7  335.63   29.54
  -3  -5   9  119.12   22.27
  -3  -5   9  122.91   41.36
   3  -5   9  147.63   29.15
   3   5   9  144.76   21.69
  -3   5   9  102.97   13.85
  -3   5   9  132.00   22.48
   3   5   9  143.12   19.65
   3  -5   9  145.68   17.64
  -3  -5   9  137.47   31.06
   3  -5  11   61.20   18.84
  -3  -6  -8  144.10   18.27
  -3  -6  -8  163.32   19.64
  -3   6  -8  155.49   17.44
  -3   6  -8  168.97   17.88
   3  -6  -8  162.29   18.13
  -3   6  -8  173.55   26.23
  -3   6  -8  142.83   27.11
   3  -6  -6  275.00   25.21
  -3   6  -6  306.91   32.15
   3  -6  -6  368.13   27.86
  -3   6  -6  343.60   25.75
  -3   6  -6  394.87   27.67
  -3  -6  -6  303.82   26.71
  -3   6  -6  315.96   33.15
  -3  -6  -6  305.84   22.51
  -3  -6  -6  301.22   26.21
   3  -6  -4  527.77   32.36
   3  -6  -4  454.37   27.23
  -3  -6  -4  543.65   35.85
  -3  -6  -4  470.86   32.18
   3  -6  -4  404.36   30.47
  -3   6  -4  529.39   32.69
  -3   6  -4  497.40   32.47
   3  -6  -4  525.31   36.72
  -3   6  -4  477.77   36.11
  -3  -6  -4  470.21   33.57
   3  -6  -4  589.76   40.06
  -3  -6  -2  683.40   39.57
  -3  -6  -2  679.41   22.92
   3  -6  -2  758.56   38.77
   3  -6  -2  670.33   35.50
  -3  -6  -2  712.97   42.10
   3   6  -2  723.07   37.26
   3  -6  -2  747.38   41.46
  -3  -6  -2  748.77   37.10
  -3   6  -2  656.87   38.88
   3  -6  -2  668.83   40.56
  -3   6  -2  748.38   40.63
  -3   6  -2  607.69   35.20
   3   6  -2  764.05   41.56
  -3  -6   0  580.48   36.12
  -3  -6   0  576.82   33.34
  -3   6   0  642.41   37.75
  -3  -6   0  543.29   36.74
   3   6   0  661.22   36.01
   3  -6   0  641.44   37.55
   3  -6   0  565.74   36.96
  -3  -6   0  601.26   29.66
  -3   6   0  558.05   36.55
  -3   6   0  598.00   25.14
  -3   6   0  598.68   21.15
   3   6   0  613.39   35.19
   3   6   2  748.52   39.39
  -3  -6   2  697.71   40.16
  -3  -6   2  788.78   40.02
  -3  -6   2  744.63   36.50
   3   6   2  798.97   41.83
  -3  -6   2  673.11   41.32
   3  -6   2  741.43   43.17
   3  -6   2  774.26   43.91
  -3  -6   2  719.43   28.66
  -3   6   2  700.80   43.40
  -3   6   2  725.90   40.93
   3   6   4  607.91   35.88
  -3  -6   4  509.25   28.87
  -3  -6   4  525.23   35.13
  -3  -6   4  515.07   29.73
   3   6   4  497.53   18.90
   3  -6   4  509.03   35.37
  -3   6   4  483.44   33.02
  -3  -6   4  559.79   39.56
  -3  -6   4  462.30   32.94
  -3  -6   4  514.08   33.65
   3  -6   6  322.19   38.34
  -3  -6   6  302.53   49.22
  -3  -6   6  335.09   27.74
   3   6   6  385.41   31.79
  -3  -6   6  345.48   24.04
  -3   6   6  274.11   23.67
  -3  -6   6  309.97   27.41
   3   6   6  275.82   19.15
  -3   6   6  370.98   33.83
  -3   6   6  298.38   26.08
   3  -6   6  323.77   28.28
  -3  -6   6  359.89   29.26
  -3  -6   6  288.89   26.22
  -3  -6   8  152.11   19.94
  -3  -6   8  119.11   35.03
   3  -6   8  146.70   29.27
   3   6   8  169.57   23.08
  -3   6   8  140.05   17.05
   3   6   8  153.93   17.93
  -3   6   8  188.25   25.93
   3  -6   8  179.31   21.65
  -3  -6   8  172.95   33.81
   3  -6  10   94.19   26.12
  -3  -7  -9   89.34   17.16
   3  -7  -9   54.13   12.00
  -3  -7  -7  161.58   21.66
  -3   7  -7  187.55   18.57
   3  -7  -7  192.75   21.80
  -3   7  -7  174.92   27.07
  -3   7  -5  195.67   21.83
   3  -7  -5  206.27   19.34
  -3  -7  -5  254.68   25.61
   3  -7  -5  272.83   25.27
  -3   7  -5  242.71   21.86
  -3   7  -5  190.60   24.29
  -3  -7  -5  223.05   24.31
  -3  -7  -3  334.04   28.94
   3  -7  -3  340.87   26.67
   3  -7  -3  370.42   26.42
  -3  -7  -3  354.32   30.47
   3  -7  -3  356.64   29.36
  -3  -7  -3  343.06   27.30
  -3   7  -3  402.97   30.66
  -3   7  -3  394.33   28.74
   3  -7  -3  356.59   30.86
  -3   7  -3  338.31   26.67
   3   7  -3  318.93   27.77
  -3  -7  -1  600.19   36.85
  -3   7  -1  588.35   40.79
   3   7  -1  582.10   36.05
  -3  -7  -1  573.92   31.89
  -3   7  -1  611.96   38.16
   3  -7  -1  654.30   40.77
  -3   7  -1  553.21   28.79
   3   7  -1  580.65   36.20
   3  -7  -1  658.37   37.98
  -3  -7   1  574.29   34.45
   3   7   1  592.42   37.08
  -3  -7   1  615.14   40.61
   3  -7   1  530.53   37.69
  -3  -7   1  612.94   28.88
  -3   7   1  612.96   39.80
  -3   7   1  641.22   39.11
  -3  -7   1  590.81   37.23
  -3   7   1  584.67   25.83
   3   7   1  545.58   34.17
   3  -7   1  606.75   39.62
   3   7   3  405.56   29.42
  -3  -7   3  383.30   28.45
  -3  -7   3  330.94   28.90
  -3  -7   3  391.09   26.92
   3   7   3  378.30   30.55
  -3  -7   3  426.77   33.39
   3  -7   3  393.95   32.50
  -3  -7   3  349.31   16.48
  -3   7   3  386.66   32.55
  -3   7   3  400.18   31.22
   3  -7   3  377.64   32.49
  -3  -7   5  243.65   23.46
   3   7   5  245.01   24.44
  -3  -7   5  232.97   21.36
  -3  -7   5  211.49   20.67
  -3   7   5  213.21   22.38
   3   7   5  204.78   13.07
   3  -7   5  240.58   26.34
  -3   7   5  206.31   23.05
  -3  -7   5  226.76   25.15
  -3  -7   5  230.21   24.89
   3   7   7  166.26   22.54
  -3  -7   7  144.86   40.26
   3  -7   7  235.01   37.73
   3   7   7  220.52   27.04
  -3   7   7  159.83   19.54
   3   7   7  215.50   18.17
  -3  -7   7  205.98   23.49
   3  -7   7  164.07   22.20
  -3   7   7  196.71   27.00
   3  -7   9   97.58   27.59
  -3  -8  -8   84.62   17.22
   3  -8  -8   49.21   13.66
  -3   8  -8   97.27   21.74
  -3  -8  -6  169.38   23.47
   3  -8  -6  155.45   21.15
  -3   8  -6  137.28   16.91
  -3   8  -6  181.75   27.62
  -3   8  -6  144.34   22.50
   3  -8  -4  263.91   26.71
  -3   8  -4  276.37   31.31
  -3  -8  -4  214.88   26.09
  -3   8  -4  251.27   22.29
   3  -8  -4  223.40   22.41
  -3   8  -4  223.51   24.53
  -3  -8  -2  305.19   16.39
   3  -8  -2  355.27   31.78
  -3   8  -2  356.75   33.73
   3   8  -2  350.51   29.34
  -3  -8  -2  334.89   31.03
  -3  -8  -2  331.12   26.27
  -3   8  -2  300.06   26.26
   3  -8  -2  329.85   27.21
  -3   8  -2  304.43   23.87
   3   8  -2  333.73   28.59
  -3  -8   0  236.42   23.75
  -3   8   0  334.86   31.39
   3  -8   0  318.40   30.47
   3   8   0  286.51   26.83
  -3  -8   0  259.68   28.42
  -3  -8   0  226.60   19.65
  -3   8   0  255.68   25.42
   3   8   0  245.42   24.01
  -3  -8   2  343.87   27.16
   3   8   2  374.59   31.35
   3  -8   2  273.09   28.56
  -3  -8   2  306.11   30.16
  -3   8   2  304.24   29.46
  -3  -8   2  291.23   18.52
   3   8   2  310.69   26.23
   3   8   4  312.86   27.57
  -3  -8   4  282.81   25.44
  -3  -8   4  221.48   22.28
   3  -8   4  211.97   25.88
  -3   8   4  272.54   29.48
  -3  -8   4  288.15   29.23
  -3  -8   6  129.54   21.16
   3   8   6  138.39   20.69
   3  -8   6  172.61   34.07
   3   8   6  157.56   23.45
   3  -8   6  163.07   23.04
  -3   8   6  141.16   19.54
  -3  -8   8   97.87   19.13
   3  -8   8   83.32   17.97
  -3   8   8   90.81   16.13
  -3  -9  -7   84.55   19.19
   3  -9  -7   92.37   18.15
  -3   9  -7   76.50   19.04
  -3  -9  -5  154.24   25.71
   3  -9  -5  101.90   18.65
  -3   9  -5  145.74   17.26
  -3   9  -5  145.88   25.12
  -3   9  -5  117.45   19.21
  -3  -9  -3  198.31   26.83
   3  -9  -3  167.27   23.74
  -3   9  -3  161.39   19.57
  -3   9  -3  186.71   26.84
  -3   9  -3  136.28   17.93
   3   9  -1  153.75   20.44
   3   9  -1  146.35   20.94
  -3  -9  -1  176.64   19.33
  -3   9  -1  210.76   23.17
  -3   9  -1  146.74   23.51
  -3   9   1  176.27    8.78
  -3  -9   1  133.81   22.46
   3  -9   1  193.22   25.25
   3   9   1  184.46   23.55
  -3   9   1  171.41   22.29
  -3   9   1  148.54   23.28
  -3   9   1  168.23    9.76
   3   9   1  194.00   22.00
  -3  -9   3  145.00   23.62
   3   9   3  148.55   20.00
   3  -9   3  126.02   22.38
   3   9   3  159.49   23.19
  -3   9   3  137.17   21.48
  -3  -9   5  105.41   21.35
   3   9   5  117.29   19.21
   3  -9   5  128.93   21.68
  -3   9   5  136.40   23.20
  -3  -9   7  109.64   22.21
   3  -9   7  131.87   31.85
  -3   9   7   88.45   17.03
   3  -9   7   83.33   18.92
  -3 -10  -6   44.67   19.01
   3 -10  -6   60.54   16.88
  -3  10  -6   63.79   15.71
  -3 -10  -4  106.38   22.21
   3 -10  -4   86.86   19.25
  -3  10  -4  104.18   15.24
  -3  10  -4  112.60   24.54
  -3  10  -4  104.07   17.61
  -3 -10  -2   87.52   20.15
   3  10  -2  122.48   18.76
   3 -10  -2  117.92   21.94
  -3  10  -2   97.62   16.10
  -3  10  -2  121.37   22.88
  -3 -10   0  134.08   23.86
   3  10   0  113.91   18.88
   3 -10   0   72.85   18.50
   3  10   0   82.58   17.58
  -3  10   0   50.19   14.84
  -3  10   0   79.91   19.87
  -3  10   2   98.35    9.26
  -3 -10   2   76.45   20.15
   3  10   2  143.68   20.02
   3 -10   2   85.28   19.91
   3  10   2  162.94   23.85
  -3  10   2  153.00   23.62
  -3  10   2  119.23   20.29
  -3 -10   4   59.76   19.62
   3  10   4  136.05   20.74
   3 -10   4  123.77   23.19
   3  10   4   99.54   20.02
  -3  10   4  114.49   21.47
  -3 -10   6   62.58   18.89
   3 -10   6   92.20   30.36
   3 -10   6   61.01   18.63
  -3  11  -3   60.91   13.38
   3  11  -1   63.94   15.92
  -3  11  -1   65.81   15.06
  -3  11  -1   87.95   21.01
   3  11   1   44.45   13.79
  -3  11   1   83.92   17.86
  -3  11   1   48.51   17.58
   3  11   3   53.72   14.27
  -3  12   0   35.30   13.43
   3  12   2   43.63   15.10
  -4   0 -10  165.22   14.06
   4   0 -10  147.04   18.36
  -4   0 -10  132.81   23.23
  -4   0  -8  286.61   29.48
  -4   0  -8  339.12   34.36
  -4   0  -8  343.77   22.73
  -4   0  -6  369.88   28.91
  -4   0  -6  350.21   28.97
  -4   0  -6  378.54   25.37
   4   0  -6  336.86   24.36
  -4   0  -4  553.50   25.11
   4   0  -4  612.79   34.20
  -4   0  -4  593.95   35.11
  -4   0  -4  645.89   34.64
   4   0  -4  529.26   39.68
   4   0  -2 1139.55   46.66
   4   0  -2 1146.50   28.71
   4   0  -2 1086.54   48.45
  -4   0  -2 1147.54   47.51
  -4   0  -2 1085.23   48.56
   4   0  -2 1089.54   52.05
  -4   0   0 2359.35   74.21
   4   0   0 2136.35   67.92
  -4   0   0 2191.27   71.74
   4   0   0 2223.77   76.81
  -4   0   0 2240.63   77.08
   4   0   0 2202.73   76.57
   4   0   0 2238.84   71.96
   4   0   2 1186.63   41.76
  -4   0   2 1098.81   48.38
  -4   0   2 1206.06   60.10
   4   0   2 1139.10   49.57
  -4   0   2 1168.44   51.68
  -4   0   2 1133.84   49.14
   4   0   2 1108.40   35.39
  -4   0   2 1086.24   49.72
   4   0   2 1087.63   45.77
  -4   0   2 1079.33   49.78
   4   0   4  541.48   29.75
  -4   0   4  571.80   34.51
  -4   0   4  631.67   51.86
   4   0   4  544.52   32.78
  -4   0   4  563.41   34.60
  -4   0   4  510.71   31.16
  -4   0   4  536.82   30.83
  -4   0   4  577.87   39.54
   4   0   6  418.01   27.29
  -4   0   6  406.60   31.03
  -4   0   6  456.18   50.71
   4   0   6  396.48   28.34
  -4   0   6  422.67   30.13
  -4   0   6  388.60   26.87
  -4   0   6  442.15   30.18
   4   0   6  382.24   27.50
  -4   0   6  357.66   30.99
  -4   0   6  427.57   35.93
  -4   0   6  408.78   37.64
   4   0   8  277.19   24.14
   4   0   8  300.15   23.62
  -4   0   8  358.52   24.60
   4   0   8  326.90   29.49
  -4   0   8  316.95   26.15
  -4   0   8  358.78   50.42
  -4   0   8  266.95   34.25
  -4   0   8  312.53   36.24
  -4   0  10  150.22   28.85
  -4   0  10  106.24   20.14
  -4   0  10  154.54   18.98
  -4   1 -11   65.64   18.83
  -4  -1 -11   62.77   16.78
  -4  -1  -9  201.03   17.73
  -4  -1  -9  193.49   17.06
  -4  -1  -9  237.69   26.75
  -4   1  -9  184.15   16.19
  -4   1  -9  207.96   27.39
  -4   1  -9  134.21   30.94
  -4  -1  -7  310.78   32.36
   4  -1  -7  238.59   37.39
  -4   1  -7  289.85   22.07
  -4   1  -7  346.24   31.14
   4  -1  -7  311.53   22.60
  -4  -1  -7  329.90   27.69
   4  -1  -7  332.54   27.13
  -4  -1  -7  290.42   22.33
  -4   1  -7  285.51   22.22
   4  -1  -5  656.57   38.17
   4  -1  -5  624.29   52.63
  -4  -1  -5  655.21   39.23
   4  -1  -5  612.19   34.36
  -4   1  -5  710.17   42.37
  -4   1  -5  626.70   34.43
  -4  -1  -5  619.01   35.48
  -4  -1  -5  679.06   36.27
   4  -1  -5  682.67   46.37
   4   1  -5  666.12   36.11
   4  -1  -3  983.65   57.18
   4  -1  -3  940.83   44.96
  -4   1  -3  989.35   47.46
  -4  -1  -3  994.12   42.61
  -4   1  -3 1046.61   45.97
   4   1  -3  939.49   44.71
   4  -1  -3 1008.17   51.96
  -4  -1  -3  949.74   45.49
   4   1  -1 1268.96   47.71
  -4   1  -1 1222.11   45.68
  -4  -1  -1 1233.56   48.61
   4  -1  -1 1192.80   46.77
   4   1  -1 1190.06   36.67
  -4   1  -1 1166.02   49.29
  -4  -1  -1 1162.46   44.09
   4   1  -1 1312.28   55.51
   4  -1  -1 1331.37   52.88
   4   1   1 1243.87   43.48
   4  -1   1 1257.36   46.68
  -4  -1   1 1241.51   49.43
   4  -1   1 1298.62   54.09
  -4  -1   1 1257.52   61.14
   4   1   1 1201.66   52.57
  -4   1   1 1201.85   55.04
  -4   1   1 1252.25   52.39
   4  -1   1 1335.46   51.75
   4   1   1 1242.17   51.76
   4  -1   1 1313.46   45.78
  -4   1   1 1260.60   51.23
  -4  -1   1 1281.62   51.00
  -4  -1   1 1244.57   53.76
  -4  -1   3  966.69   44.28
   4   1   3  921.42   33.49
  -4   1   3  935.75   46.11
   4  -1   3  966.63   45.34
  -4  -1   3  853.53   59.71
  -4   1   3 1017.67   57.34
  -4   1   3  928.28   46.94
  -4   1   3  916.50   43.54
  -4  -1   3 1008.74   45.09
   4   1   3  867.77   43.22
  -4  -1   3 1016.20   42.61
  -4   1   3  964.93   37.50
  -4   1   3  879.59   45.49
  -4  -1   3  899.64   46.30
  -4  -1   3  897.21   43.76
  -4  -1   3 1025.50   51.49
   4  -1   3  942.09   30.71
   4  -1   3  949.48   40.38
   4   1   3  867.02   40.90
   4  -1   5  690.62   33.35
   4   1   5  630.43   34.77
  -4  -1   5  653.48   38.90
  -4   1   5  597.75   37.82
  -4  -1   5  672.51   59.11
   4  -1   5  605.70   35.40
   4  -1   5  597.84   35.26
   4   1   5  664.04   33.38
  -4   1   5  574.73   34.22
  -4   1   5  659.74   40.17
  -4  -1   5  650.70   35.64
  -4  -1   5  654.95   35.18
  -4  -1   5  654.15   39.68
  -4   1   5  643.06   35.58
  -4   1   5  642.22   41.66
  -4  -1   5  619.46   35.12
  -4  -1   5  674.23   42.75
   4   1   5  610.88   35.73
   4  -1   5  643.98   23.57
  -4  -1   5  602.76   44.31
  -4   1   5  653.17   44.43
  -4  -1   7  243.06   25.61
   4  -1   7  290.51   22.35
   4   1   7  274.25   24.06
  -4  -1   7  267.95   43.88
  -4   1   7  291.23   22.63
   4  -1   7  277.33   25.70
   4   1   7  298.92   24.92
  -4  -1   7  306.92   23.53
  -4   1   7  283.87   26.38
   4  -1   7  262.02   22.78
  -4  -1   7  317.85   27.04
  -4   1   7  288.65   26.39
  -4  -1   7  277.80   22.53
  -4  -1   7  266.91   32.78
  -4   1   7  295.95   31.12
  -4   1   7  265.07   23.28
   4  -1   7  288.70   15.08
  -4  -1   7  352.67   36.88
  -4   1   7  320.11   34.45
  -4  -1   9  190.18   30.28
  -4   1   9  183.87   29.18
   4  -1   9  181.32   20.03
  -4   1   9  195.46   25.49
  -4  -1   9  202.33   17.23
  -4  -1   9  211.73   45.64
  -4  -1   9  198.63   19.31
  -4   1   9  193.50   22.54
  -4  -1   9  187.24   32.20
   4  -1   9  198.99   14.03
   4  -1   9  207.00   18.52
  -4   1  11   89.45   16.13
  -4  -2 -10  117.59   13.34
  -4   2 -10  115.46   22.12
  -4   2 -10  100.41   28.42
  -4  -2  -8  263.49   21.67
  -4  -2  -8  194.77   30.08
   4  -2  -8  195.48   18.27
  -4   2  -8  296.35   30.92
  -4  -2  -8  241.37   24.39
  -4  -2  -8  269.12   21.18
  -4   2  -8  219.94   19.29
  -4   2  -8  171.37   33.84
   4  -2  -6  331.68   28.22
   4  -2  -6  323.11   39.73
   4  -2  -6  345.30   25.36
  -4  -2  -6  329.54   33.03
  -4   2  -6  374.32   25.47
  -4   2  -6  319.14   30.81
  -4  -2  -6  378.99   26.62
   4  -2  -6  363.40   28.80
  -4   2  -6  380.89   26.72
  -4  -2  -6  373.66   26.48
  -4  -2  -4  698.15   38.19
   4  -2  -4  733.33   38.64
   4  -2  -4  705.33   38.07
   4  -2  -4  648.48   49.01
  -4   2  -4  707.42   37.23
  -4   2  -4  753.81   44.50
  -4  -2  -4  618.59   31.47
   4  -2  -4  766.53   46.07
  -4  -2  -2  972.71   47.10
   4  -2  -2  991.78   51.87
   4   2  -2 1018.21   31.84
   4  -2  -2 1021.42   32.55
  -4   2  -2 1016.16   48.43
  -4  -2  -2 1001.86   37.41
  -4   2  -2 1146.54   48.74
   4   2  -2 1043.45   51.42
   4  -2  -2  977.13   48.27
   4   2  -2  985.03   46.73
   4  -2  -2 1020.28   47.26
   4   2   0 1635.37   54.25
   4  -2   0 1570.48   56.92
  -4  -2   0 1566.86   54.17
  -4  -2   0 1556.63   63.15
   4   2   0 1640.29   50.97
  -4  -2   0 1570.52   48.89
  -4   2   0 1511.83   60.12
  -4   2   0 1619.78   66.73
   4   2   0 1586.95   62.31
   4   2   0 1570.00   62.87
  -4  -2   0 1563.60   56.21
   4  -2   0 1670.71   58.81
   4  -2   0 1627.21   63.20
  -4   2   0 1604.43   55.49
   4   2   2  985.98   34.59
  -4  -2   2  899.62   41.55
  -4  -2   2  952.81   46.48
  -4  -2   2 1003.09   62.28
   4   2   2  972.52   40.83
  -4   2   2  991.63   45.52
  -4   2   2  937.24   48.68
  -4   2   2  953.98   44.39
   4  -2   2 1008.99   41.38
  -4  -2   2  987.83   50.18
  -4  -2   2  969.66   47.00
   4   2   2  939.36   45.55
   4   2   2 1013.69   44.48
   4  -2   2 1025.98   47.22
   4   2   4  627.61   35.11
  -4  -2   4  633.11   36.21
   4  -2   4  644.57   36.63
  -4  -2   4  674.82   37.97
   4   2   4  636.45   22.89
  -4   2   4  648.33   39.20
  -4  -2   4  724.48   59.21
   4   2   4  663.36   29.28
  -4   2   4  654.64   35.85
  -4   2   4  559.32   38.04
  -4  -2   4  683.16   34.96
  -4  -2   4  654.88   32.01
  -4  -2   4  654.90   37.25
  -4   2   4  599.86   28.88
  -4   2   4  670.75   39.76
  -4  -2   4  606.81   38.55
  -4  -2   4  621.58   44.34
   4  -2   4  626.99   30.68
   4  -2   6  400.61   24.54
  -4  -2   6  408.02   31.91
   4   2   6  361.48   27.62
   4   2   6  386.85   15.99
   4  -2   6  367.48   27.56
  -4  -2   6  394.18   51.19
  -4   2   6  412.77   28.17
   4  -2   6  358.82   28.62
   4   2   6  398.56   25.89
  -4   2   6  388.95   32.89
  -4  -2   6  410.50   25.25
  -4  -2   6  387.99   28.45
  -4  -2   6  436.71   36.90
  -4   2   6  381.74   28.61
  -4   2   6  348.89   26.97
  -4  -2   6  403.99   34.59
  -4  -2   6  430.16   28.49
  -4  -2   6  486.88   42.04
  -4  -2   8  248.39   33.99
  -4  -2   8  276.17   28.61
   4  -2   8  271.46   21.78
   4   2   8  258.26   24.59
  -4   2   8  274.09   27.98
  -4  -2   8  227.44   19.97
   4   2   8  239.52   23.25
  -4  -2   8  183.15   40.96
   4  -2   8  274.54   23.51
  -4  -2   8  232.16   18.71
  -4   2   8  270.51   27.14
  -4  -2   8  242.74   20.96
  -4   2   8  287.78   23.21
  -4  -2   8  233.41   35.26
   4  -2   8  290.43   21.89
   4  -2  10  120.09   14.83
  -4  -2  10   94.14   24.33
  -4   2  10  122.45   22.03
   4  -2  10  137.60   17.90
  -4  -2  10   79.99   33.51
  -4   2  10   99.18   18.37
  -4  -3  -9  162.78   17.06
   4  -3  -9  151.03   15.76
  -4   3  -9  162.70   16.42
  -4  -3  -9  134.21   15.59
  -4   3  -9  176.69   25.73
  -4   3  -9  117.61   30.87
   4  -3  -7  259.32   22.03
  -4  -3  -7  298.08   35.52
  -4  -3  -7  306.17   24.85
  -4   3  -7  259.12   29.41
  -4  -3  -7  279.19   23.35
  -4   3  -7  277.10   22.62
  -4   3  -7  285.32   38.87
  -4  -3  -7  254.09   22.53
   4  -3  -5  602.85   37.14
  -4  -3  -5  640.20   37.02
   4  -3  -5  625.49   51.99
  -4  -3  -5  658.98   38.86
  -4   3  -5  705.21   37.25
  -4   3  -5  662.41   43.96
   4  -3  -5  662.25   40.52
  -4  -3  -5  628.20   30.79
  -4   3  -5  630.55   36.23
   4  -3  -5  649.49   45.28
   4  -3  -5  637.29   36.49
   4  -3  -3  858.38   41.64
   4  -3  -3  862.79   53.25
  -4  -3  -3  839.57   43.90
  -4   3  -3  922.85   44.35
   4  -3  -3  901.51   29.80
  -4   3  -3  852.51   47.66
  -4  -3  -3  812.46   30.17
  -4   3  -3  846.93   43.83
   4  -3  -3  888.22   44.06
   4  -3  -3  787.90   45.67
  -4   3  -1  728.66   29.67
  -4  -3  -1  759.98   37.90
   4  -3  -1  725.17   39.55
  -4   3  -1  712.17   40.04
   4   3  -1  737.17   29.60
   4  -3  -1  712.18   31.54
  -4  -3  -1  670.90   21.66
   4   3  -1  735.57   40.99
  -4  -3  -1  674.12   31.93
   4  -3  -1  723.91   38.24
  -4  -3   1  686.14   38.19
  -4  -3   1  638.33   31.92
   4  -3   1  686.83   24.38
  -4  -3   1  619.97   37.21
   4   3   1  694.94   32.44
  -4   3   1  757.22   39.10
  -4   3   1  724.19   42.67
  -4  -3   1  719.04   24.64
   4  -3   1  708.35   39.07
  -4  -3   1  630.56   38.43
  -4   3   1  675.07   38.59
  -4   3   1  657.13   33.48
   4   3   1  665.96   36.46
   4   3   3  734.72   38.95
  -4  -3   3  769.20   39.76
  -4  -3   3  824.40   63.77
  -4  -3   3  743.62   41.00
  -4   3   3  782.01   40.61
   4   3   3  776.45   38.76
  -4   3   3  743.51   44.52
  -4  -3   3  779.15   32.96
  -4  -3   3  766.30   36.53
  -4  -3   3  774.69   40.28
  -4   3   3  733.94   25.63
  -4   3   3  764.52   40.40
  -4   3   3  774.36   41.87
   4  -3   3  757.18   41.13
   4  -3   3  793.80   33.83
  -4  -3   3  715.96   47.33
  -4  -3   3  822.63   43.96
   4   3   5  630.10   37.56
  -4  -3   5  650.63   39.62
  -4  -3   5  630.93   36.93
  -4  -3   5  712.65   65.51
  -4  -3   5  689.50   38.32
  -4   3   5  673.14   37.22
  -4  -3   5  602.11   20.92
   4   3   5  585.78   36.75
  -4   3   5  765.20   46.32
  -4  -3   5  639.57   30.85
  -4  -3   5  603.29   33.79
  -4  -3   5  651.03   42.01
  -4   3   5  688.57   38.61
  -4  -3   5  618.47   40.11
  -4  -3   5  633.41   49.27
   4  -3   5  642.77   38.13
   4  -3   5  654.29   29.91
   4   3   5  621.22   29.12
   4  -3   7  304.80   20.88
  -4  -3   7  293.43   28.69
   4   3   7  328.78   27.55
   4  -3   7  272.05   24.22
  -4   3   7  272.66   27.86
  -4  -3   7  254.04   22.31
  -4  -3   7  273.67   11.29
   4   3   7  288.78   22.82
  -4  -3   7  235.45   16.77
  -4   3   7  257.81   29.02
  -4  -3   7  234.18   23.99
  -4   3   7  280.29   23.81
  -4  -3   7  216.57   44.36
  -4  -3   7  257.15   32.64
  -4  -3   7  245.77   22.30
  -4  -3   7  245.18   33.36
  -4  -3   9  163.94   31.13
   4  -3   9  166.38   17.46
  -4  -3   9  131.70   23.21
  -4   3   9  146.04   23.45
   4   3   9  135.15   20.72
  -4  -3   9  138.34   39.10
  -4  -3   9  149.00   16.59
   4  -3   9  152.83   17.72
   4   3   9  119.50   20.49
  -4   3   9  148.80   23.48
   4  -3   9  129.34   19.18
  -4   3  11   37.45   13.56
  -4  -4  -8  199.80   20.81
  -4  -4  -8  143.56   18.05
   4  -4  -8  145.81   17.25
  -4  -4  -8  180.53   31.87
  -4   4  -8  158.90   17.47
  -4   4  -8  186.87   26.95
  -4   4  -8  157.80   31.58
  -4  -4  -6  219.99   22.35
  -4  -4  -6  207.47   22.39
   4  -4  -6  236.69   36.75
  -4   4  -6  220.14   27.37
  -4   4  -6  241.91   22.23
  -4   4  -6  196.45   32.16
   4  -4  -6  243.59   22.44
   4  -4  -4  513.79   32.46
   4  -4  -4  493.19   43.76
  -4  -4  -4  552.00   35.97
  -4  -4  -4  470.11   32.47
   4  -4  -4  504.54   22.78
  -4   4  -4  437.26   36.30
  -4   4  -4  525.60   33.71
   4  -4  -4  494.55   32.60
  -4   4  -4  499.89   43.94
   4  -4  -4  471.84   36.71
   4  -4  -2  758.20   38.69
  -4   4  -2  732.67   40.50
   4  -4  -2  784.08   48.31
  -4  -4  -2  806.92   45.03
   4  -4  -2  739.55   32.30
  -4   4  -2  815.67   46.16
   4   4  -2  745.23   32.42
  -4  -4  -2  835.62   43.91
  -4   4  -2  786.79   45.40
   4  -4  -2  779.47   42.22
  -4   4  -2  793.06   43.64
  -4   4  -2  744.74   46.30
   4  -4  -2  757.55   42.82
  -4  -4   0 1199.23   52.02
  -4  -4   0 1067.33   41.29
  -4  -4   0 1180.64   55.74
  -4   4   0 1159.22   53.01
   4  -4   0 1160.09   48.77
   4   4   0 1086.33   43.63
   4  -4   0 1175.40   48.64
  -4  -4   0 1124.25   52.81
   4  -4   0 1063.53   51.60
  -4   4   0 1151.37   53.33
  -4   4   0 1144.96   40.79
  -4  -4   2  770.43   42.65
  -4  -4   2  782.90   38.36
  -4   4   2  694.59   39.35
  -4  -4   2  687.80   41.03
   4   4   2  724.56   36.38
  -4  -4   2  705.24   40.75
  -4  -4   2  745.84   27.83
  -4   4   2  742.87   45.49
  -4  -4   2  666.80   38.41
   4  -4   2  657.87   39.85
  -4   4   2  666.29   39.80
  -4   4   2  795.91   38.17
  -4  -4   2  737.44   47.15
   4   4   2  688.09   38.45
   4   4   4  450.12   30.88
  -4  -4   4  423.07   30.73
  -4  -4   4  435.87   21.15
  -4  -4   4  473.23   53.93
   4  -4   4  472.17   23.88
  -4  -4   4  450.43   32.24
   4   4   4  455.84   30.87
  -4  -4   4  524.24   33.95
  -4  -4   4  476.17   27.13
  -4   4   4  394.96   34.52
  -4  -4   4  456.15   24.48
  -4  -4   4  437.75   32.71
  -4   4   4  439.15   31.68
   4  -4   4  458.16   32.20
  -4   4   4  494.30   32.99
   4  -4   4  384.66   21.23
  -4  -4   4  409.61   39.58
  -4  -4   4  552.04   36.15
  -4  -4   6  260.10   26.18
   4   4   6  263.82   25.03
  -4  -4   6  235.96   22.77
   4  -4   6  228.19   21.13
  -4  -4   6  243.07   43.64
  -4  -4   6  287.35   24.81
   4   4   6  255.65   18.51
  -4   4   6  281.78   30.00
  -4  -4   6  235.55   22.54
  -4  -4   6  210.71   14.07
  -4   4   6  253.71   23.88
  -4  -4   6  331.18   38.59
   4  -4   6  257.69   24.02
   4  -4   6  256.32   17.21
  -4  -4   6  257.61   14.34
   4  -4   8  178.19   16.14
  -4  -4   8  147.28   22.99
   4   4   8  145.80   21.18
   4  -4   8  154.07   19.16
  -4  -4   8  223.35   45.48
  -4  -4   8  201.04   20.04
   4   4   8  171.84   18.24
   4   4   8  129.24   20.43
  -4   4   8  173.01   25.17
  -4  -4   8  165.99   30.49
  -4   4  10  100.33   20.96
   4  -4  10   87.57   18.11
  -4  -5  -9   99.03   15.66
   4  -5  -9  102.33   15.15
  -4   5  -9   96.61   21.60
  -4   5  -9   93.34   25.80
  -4   5  -7  153.89   19.13
  -4  -5  -7  174.72   20.90
  -4  -5  -7  165.38   20.58
  -4   5  -7  165.41   25.67
  -4   5  -7  172.25   31.24
   4  -5  -7  184.39   20.53
   4  -5  -5  401.86   43.52
   4  -5  -5  378.65   21.32
  -4  -5  -5  344.85   30.03
  -4  -5  -5  377.72   29.91
  -4   5  -5  348.53   34.12
  -4   5  -5  372.05   30.49
  -4   5  -5  402.31   29.65
   4  -5  -5  338.99   28.25
  -4   5  -5  367.65   37.73
  -4  -5  -5  346.94   16.48
   4  -5  -3  522.82   32.62
   4  -5  -3  510.70   42.72
  -4  -5  -3  510.12   36.34
   4  -5  -3  487.19   25.67
  -4   5  -3  495.44   38.40
  -4  -5  -3  505.72   35.23
  -4   5  -3  472.45   35.62
   4  -5  -3  518.10   36.79
   4  -5  -3  437.73   32.03
  -4   5  -3  488.32   33.70
  -4   5  -3  431.50   37.18
   4   5  -3  510.83   36.57
   4  -5  -3  459.25   35.41
  -4   5  -1  500.56   20.37
  -4  -5  -1  479.07   22.47
   4  -5  -1  569.94   33.65
  -4   5  -1  525.80   37.40
   4   5  -1  530.20   29.14
   4  -5  -1  517.69   30.00
  -4   5  -1  510.39   37.01
  -4   5  -1  490.85   31.57
   4   5  -1  544.29   36.15
  -4  -5   1  573.21   35.13
  -4  -5   1  521.59   29.19
  -4  -5   1  569.39   37.93
   4   5   1  494.37   29.98
   4  -5   1  532.84   33.90
  -4  -5   1  496.52   34.32
   4  -5   1  500.16   35.02
  -4   5   1  472.19   33.17
  -4   5   1  467.76   18.50
  -4   5   1  495.26   26.63
  -4  -5   3  454.26   33.29
  -4  -5   3  476.87   31.52
  -4  -5   3  447.02   25.02
  -4  -5   3  483.83   34.66
   4   5   3  478.61   31.79
  -4  -5   3  469.97   23.68
  -4  -5   3  438.50   32.69
  -4   5   3  454.88   36.68
   4  -5   3  512.76   35.51
  -4  -5   3  525.30   34.89
  -4   5   3  478.61   33.40
  -4   5   3  479.57   30.81
  -4  -5   5  417.99   32.62
   4   5   5  412.07   31.10
  -4  -5   5  458.73   57.63
  -4  -5   5  371.71   20.84
   4  -5   5  332.88   27.22
  -4  -5   5  307.23   28.04
   4   5   5  402.64   31.30
   4   5   5  373.22   17.65
  -4  -5   5  391.39   30.82
  -4  -5   5  358.99   26.22
  -4   5   5  383.76   35.29
  -4  -5   5  348.82   17.04
  -4   5   5  391.55   30.73
   4  -5   5  412.30   32.18
   4  -5   5  367.37   17.24
  -4  -5   5  411.37   43.11
  -4  -5   5  350.09   30.47
   4   5   7  193.31   23.60
  -4   5   7  121.79   18.88
  -4  -5   7  153.73   22.13
  -4  -5   7  189.86   22.19
  -4  -5   7  144.71   37.21
   4  -5   7  158.82   22.94
  -4  -5   7  188.63   21.89
   4   5   7  160.57   15.70
  -4   5   7  215.83   27.40
  -4  -5   7  165.73   21.78
   4  -5   7  199.17   22.04
   4  -5   7  177.53   13.50
  -4  -5   7  211.10   35.10
  -4  -5   9  136.17   24.24
   4   5   9   88.13   18.67
  -4  -5   9  120.65   37.09
   4   5   9  114.75   21.36
  -4   5   9  134.25   24.33
  -4  -5   9   86.69   25.01
   4  -6  -8  119.38   16.94
  -4  -6  -8  110.82   17.96
  -4   6  -8   96.50   16.90
  -4   6  -8  119.96   23.70
  -4   6  -8  113.26   27.57
  -4  -6  -6  149.86   20.78
  -4   6  -6  170.05   21.19
  -4   6  -6  188.91   27.00
   4  -6  -6  126.97   18.69
  -4   6  -6  124.02   24.18
   4  -6  -4  206.78   17.50
   4  -6  -4  219.12   32.07
  -4  -6  -4  229.39   25.94
  -4   6  -4  236.17   28.35
  -4  -6  -4  203.48   23.11
  -4   6  -4  304.16   27.43
  -4   6  -4  235.35   24.48
   4  -6  -4  215.65   23.35
  -4   6  -4  234.05   27.39
   4  -6  -2  347.45   27.48
  -4  -6  -2  416.22   34.08
   4  -6  -2  362.29   25.17
  -4   6  -2  382.10   33.86
   4   6  -2  466.14   28.45
  -4   6  -2  404.11   32.82
   4  -6  -2  349.25   29.86
  -4  -6  -2  375.76   31.14
  -4   6  -2  447.55   33.63
  -4   6  -2  380.82   28.69
   4   6  -2  384.31   32.84
  -4  -6   0  609.95   30.37
  -4  -6   0  700.84   44.38
  -4   6   0  673.44   44.18
   4   6   0  647.34   36.25
   4  -6   0  664.63   38.89
  -4   6   0  672.68   44.32
   4  -6   0  650.10   42.03
  -4   6   0  726.36   42.83
  -4  -6   0  633.94   40.09
  -4   6   0  625.47   26.98
   4   6   0  717.55   41.59
  -4   6   0  630.98   24.73
  -4  -6   2  391.10   27.52
  -4  -6   2  467.22   33.03
  -4  -6   2  371.64   25.18
  -4  -6   2  422.30   33.66
   4   6   2  407.79   29.71
   4  -6   2  360.94   30.70
   4  -6   2  372.86   31.78
  -4  -6   2  353.73   29.69
  -4   6   2  390.01   31.25
  -4  -6   2  427.27   32.03
  -4   6   2  404.64   25.47
   4   6   2  412.21   30.13
  -4  -6   4  261.57   26.24
  -4  -6   4  209.75   22.03
   4  -6   4  221.82   26.31
  -4  -6   4  230.78   18.33
  -4  -6   4  197.45   24.33
   4   6   4  260.03   25.50
  -4  -6   4  216.22   17.63
  -4  -6   4  225.79   12.81
  -4   6   4  218.55   27.42
  -4  -6   4  241.23   25.03
  -4  -6   4  202.67   13.29
  -4   6   4  245.45   25.79
   4  -6   4  204.27   24.27
  -4  -6   6  129.04   19.54
  -4  -6   6  110.83   18.59
  -4  -6   6  203.04   45.91
   4  -6   6  133.52   21.83
   4   6   6  149.98   11.78
   4   6   6  180.66   23.30
  -4   6   6  146.84   24.09
  -4  -6   6  131.73   17.96
   4  -6   6  155.76   21.43
  -4  -6   6  160.76   32.79
  -4  -6   8  128.23   18.62
  -4  -6   8  124.90   22.01
   4   6   8  118.59   20.38
  -4  -6   8  108.77   35.23
   4  -6   8  100.82   21.59
   4   6   8  152.51   22.91
  -4   6   8  128.54   24.11
   4  -6   8  104.47   18.74
  -4  -6   8  126.75   30.67
   4  -7  -9   66.93   13.55
  -4  -7  -9   74.56   17.06
  -4  -7  -7   84.56   17.96
  -4   7  -7   83.80   15.35
  -4   7  -7   93.28   21.07
   4  -7  -7   85.92   16.43
  -4   7  -7   91.74   21.90
  -4  -7  -5  165.39   23.57
   4  -7  -5  140.55   16.18
   4  -7  -5  162.38   21.40
  -4   7  -5  158.23   20.52
  -4   7  -5  204.52   28.72
  -4   7  -5  159.55   23.49
   4  -7  -3  232.95   20.66
  -4  -7  -3  250.34   28.90
  -4   7  -3  187.36   23.78
   4  -7  -3  238.24   25.64
  -4   7  -3  299.12   25.90
   4   7  -3  258.34   27.28
  -4  -7  -1  299.85   17.62
   4  -7  -1  258.93   23.91
   4   7  -1  308.95   25.42
  -4  -7  -1  290.66   23.50
  -4   7  -1  284.81   28.50
  -4   7  -1  290.65   20.63
   4   7  -1  304.83   28.57
  -4  -7   1  304.33   23.12
  -4  -7   1  243.69   22.74
  -4  -7   1  293.98   29.60
   4   7   1  308.80   26.53
   4  -7   1  289.22   28.45
  -4  -7   1  333.80   21.92
   4  -7   1  266.08   28.38
  -4   7   1  317.29   31.25
  -4   7   1  318.90   18.41
   4   7   1  323.22   27.87
  -4  -7   3  193.22   20.84
  -4  -7   3  256.78   21.72
   4   7   3  269.56   26.05
  -4  -7   3  205.19   25.65
  -4  -7   3  232.90   15.02
  -4   7   3  250.83   28.68
   4  -7   3  264.75   28.06
  -4   7   3  247.89   21.78
   4   7   3  223.08   23.81
  -4  -7   5  173.61   23.20
  -4  -7   5  140.96   20.23
   4   7   5  147.52   21.35
   4  -7   5  183.91   27.96
  -4  -7   5  163.88   16.67
   4   7   5  151.62   21.95
   4  -7   5  176.96   23.71
  -4   7   5  134.13   23.84
  -4  -7   7   90.43   18.43
  -4  -7   7   64.29   16.13
  -4  -7   7   90.44   34.06
   4  -7   7  101.97   22.25
  -4   7   7   83.37   20.24
   4  -7   7   96.87   18.65
  -4  -7   7  100.87   27.86
  -4  -8  -8   82.59   18.94
   4  -8  -8   33.01   11.74
  -4  -8  -6   78.15   19.72
   4  -8  -6   88.49   18.12
  -4   8  -6   90.57   16.20
  -4   8  -6  102.72   20.15
  -4  -8  -4  115.41   21.68
   4  -8  -4  119.55   20.51
  -4   8  -4   86.83   16.67
  -4   8  -4  121.04   18.91
  -4  -8  -2  145.54   23.84
   4   8  -2  144.50   22.26
   4   8  -2  139.43   19.38
   4  -8  -2  183.16   24.02
  -4  -8  -2  124.72   17.35
  -4   8  -2  133.61   20.39
  -4   8  -2  134.29   16.29
  -4  -8   0  200.87   27.16
  -4  -8   0  204.00   17.67
   4   8   0  213.30   23.31
  -4  -8   0  218.28   19.93
   4  -8   0  200.56   25.26
  -4   8   0  217.06   26.42
  -4   8   0  197.06   26.69
   4   8   0  216.90   24.55
  -4  -8   2  164.01   18.60
  -4  -8   2  163.96   23.93
   4   8   2  150.32   20.97
   4   8   2  173.52   22.14
  -4  -8   2   93.87   15.01
   4  -8   2  146.18   23.24
  -4   8   2  160.58   24.15
  -4   8   2  172.67   15.94
  -4  -8   4   83.29   18.68
  -4  -8   4  103.63   16.72
   4   8   4   99.47   18.05
  -4  -8   4   96.00   14.58
   4   8   4  114.89   19.59
   4  -8   4  113.62   21.09
  -4   8   4  113.74   21.90
  -4  -8   6  115.72   21.69
  -4  -8   6   87.96   17.42
   4   8   6  115.53   20.46
  -4  -8   6  119.04   38.56
   4  -8   6   98.86   24.67
   4   8   6   94.34   19.73
   4  -8   6   87.36   18.90
  -4  -9  -7   21.29   14.59
   4  -9  -7   28.87   12.45
  -4   9  -7   42.26   18.85
  -4  -9  -5   77.58   19.51
   4  -9  -5   63.82   16.47
  -4   9  -5   62.70   13.88
  -4   9  -5   65.55   15.85
  -4  -9  -3  125.94   23.24
   4  -9  -3   99.89   19.84
  -4   9  -3  110.28   18.12
  -4   9  -3  123.30   23.88
  -4   9  -3  120.99   17.07
   4   9  -1  126.29   20.98
   4   9  -1  128.34   20.03
  -4   9  -1  132.42   21.55
  -4   9  -1  107.09   21.39
  -4  -9   1  122.24   21.89
  -4  -9   1  116.23   15.66
   4   9   1  135.43   20.93
   4  -9   1  106.16   20.38
   4   9   1  150.47   21.60
  -4   9   1   96.58   19.83
  -4   9   1  117.27   22.38
  -4  -9   3  113.47   21.87
  -4  -9   3   88.80   15.49
   4   9   3   88.03   17.69
   4   9   3  117.06   20.66
   4  -9   3   88.57   19.34
  -4   9   3  132.36   23.17
  -4  -9   5  105.45   21.71
  -4  -9   5   58.37   14.41
   4   9   5   51.32   16.59
   4  -9   5   57.43   17.17
  -4  -9   7   55.21   18.04
   4  -9   7   46.12   17.28
  -4  10  -4   64.77   15.13
   4  10  -2  100.34   19.86
  -4  10  -2   60.20   15.05
  -4  10  -2   63.37   19.41
  -4 -10   0   93.07   21.88
   4  10   0   84.09   17.77
   4 -10   0   95.19   20.51
   4  10   0   62.94   16.53
  -4  10   0   67.08   17.22
  -4  10   0  134.33   25.36
   4  10   2   71.38   16.58
   4  10   2   63.65   15.89
  -4  10   2   51.61   18.25
  -4  10   2   66.64   19.11
  -4 -10   4   30.18   12.07
  -4  11  -3   31.15   12.76
   4  11  -1   32.12   13.48
  -4  11  -1   52.21   15.31
   4  11   1   37.28   14.54
  -5   0 -10   74.30   17.75
  -5   0  -8  136.89   17.05
  -5   0  -8  153.86   22.81
  -5   0  -6  229.70   25.37
  -5   0  -6  240.62   23.60
   5   0  -6  256.29   23.39
   5   0  -4  340.79   27.62
  -5   0  -4  320.61   27.29
   5   0  -4  324.55   26.96
  -5   0  -4  361.27   28.64
   5   0  -2  689.55   37.23
   5   0  -2  672.35   19.99
  -5   0  -2  618.94   36.45
   5   0  -2  686.89   40.66
  -5   0  -2  707.56   40.82
   5   0  -2  683.24   42.55
  -5   0   0  715.20   38.38
   5   0   0  680.89   34.18
  -5   0   0  728.30   35.30
   5   0   0  701.54   41.79
  -5   0   0  741.19   42.24
   5   0   0  849.30   45.39
   5   0   0  715.95   37.44
   5   0   2  646.09   31.30
  -5   0   2  632.66   45.55
   5   0   2  643.32   39.88
  -5   0   2  745.90   43.24
  -5   0   2  634.00   39.17
   5   0   2  667.29   38.12
  -5   0   2  730.95   41.59
  -5   0   4  332.46   28.52
   5   0   4  322.27   20.75
  -5   0   4  343.92   38.82
   5   0   4  320.67   27.27
  -5   0   4  359.09   29.35
  -5   0   4  334.86   27.70
  -5   0   4  367.70   25.97
  -5   0   4  342.62   30.27
   5   0   4  333.06   25.37
  -5   0   4  335.32   31.64
   5   0   6  228.17   21.49
  -5   0   6  182.83   26.77
  -5   0   6  193.76   23.47
  -5   0   6  162.99   32.84
  -5   0   6  219.86   23.22
  -5   0   6  220.43   23.64
  -5   0   6  176.84   20.61
   5   0   6  186.17   21.36
  -5   0   6  155.44   21.62
  -5   0   8  139.08   25.83
  -5   0   8  141.09   21.49
   5   0   8  131.78   18.31
   5   0   8  143.37   18.93
  -5   0   8  108.69   17.78
   5   0  10   72.54   15.83
  -5  -1 -11   53.06   15.63
   5  -1  -9   93.69   14.49
  -5   1  -9  129.39   22.74
  -5  -1  -9   97.85   18.48
  -5  -1  -9   95.96   16.08
  -5   1  -7  265.68   24.10
  -5   1  -7  214.86   26.17
  -5  -1  -7  223.75   24.15
  -5  -1  -7  219.35   22.04
   5  -1  -7  208.12   21.37
  -5  -1  -5  276.73   20.80
   5  -1  -5  259.66   24.02
  -5   1  -5  262.32   26.81
  -5   1  -5  227.09   22.83
  -5  -1  -5  251.01   23.16
  -5  -1  -5  282.54   25.81
   5   1  -5  294.29   25.56
   5  -1  -5  206.81   28.17
   5  -1  -3  378.28   28.14
   5  -1  -3  415.44   30.71
  -5   1  -3  359.65   29.56
  -5  -1  -3  373.27   27.05
  -5   1  -3  390.45   29.59
   5   1  -3  452.45   31.82
  -5  -1  -3  366.84   29.20
   5  -1  -3  399.63   33.92
   5   1  -1  673.41   34.66
  -5   1  -1  595.63   32.32
  -5  -1  -1  604.90   35.15
   5  -1  -1  640.75   34.13
  -5  -1  -1  498.55   31.17
   5   1  -1  626.54   24.12
  -5   1  -1  597.98   36.07
  -5  -1  -1  591.95   32.08
   5   1  -1  616.77   40.19
   5  -1  -1  592.54   36.63
   5   1   1  536.46   28.45
   5  -1   1  572.32   30.92
  -5  -1   1  554.97   40.85
   5  -1   1  610.19   38.35
  -5   1   1  610.51   40.44
  -5   1   1  528.53   35.17
   5   1   1  563.88   36.87
   5  -1   1  568.48   35.53
  -5  -1   1  671.76   39.91
   5   1   1  615.86   37.52
   5  -1   1  651.24   32.12
  -5   1   1  502.25   32.83
  -5  -1   1  525.60   32.32
  -5  -1   1  567.23   36.02
   5   1   3  367.60   21.14
  -5  -1   3  396.11   29.51
   5  -1   3  382.95   24.41
  -5  -1   3  344.18   38.81
   5  -1   3  431.79   31.38
  -5   1   3  388.38   30.17
  -5   1   3  392.15   32.20
  -5  -1   3  330.77   27.68
  -5  -1   3  431.39   27.75
  -5   1   3  424.29   24.60
   5   1   3  413.77   31.08
  -5  -1   3  386.77   30.16
   5  -1   3  380.68   18.63
  -5   1   3  448.07   32.10
   5  -1   3  426.87   28.50
  -5  -1   3  339.68   29.98
   5   1   3  393.94   28.20
   5   1   5  251.79   23.16
  -5  -1   5  274.92   26.18
   5   1   5  262.58   16.72
  -5   1   5  245.69   25.70
  -5  -1   5  266.02   39.63
   5  -1   5  232.80   23.88
  -5   1   5  267.01   25.33
  -5   1   5  257.71   26.18
  -5  -1   5  289.79   25.69
  -5  -1   5  268.86   22.75
  -5  -1   5  286.11   25.54
  -5   1   5  275.99   23.28
  -5  -1   5  304.17   26.26
   5   1   5  287.44   26.23
  -5   1   5  305.98   29.74
  -5  -1   5  217.01   28.18
   5  -1   5  280.17   22.63
  -5  -1   7  229.74   31.80
   5  -1   7  236.68   22.49
   5   1   7  252.20   24.53
  -5  -1   7  213.34   25.25
  -5   1   7  219.40   26.13
   5   1   7  258.05   16.74
  -5  -1   7  236.64   43.42
   5   1   7  269.49   23.57
  -5   1   7  270.47   25.35
  -5   1   7  233.54   25.69
  -5  -1   7  230.68   22.30
   5  -1   7  247.15   24.83
  -5  -1   7  266.21   24.99
  -5  -1   7  199.75   28.88
  -5   1   7  188.76   25.56
  -5  -1   9   87.44   23.79
  -5  -1   9   89.17   18.58
  -5   1   9   94.48   20.20
   5  -1   9  101.25   17.30
   5   1   9   85.32   16.97
  -5  -1   9  159.55   41.81
  -5  -1   9   93.81   14.93
  -5   1   9  128.87   19.70
  -5   2 -10   60.01   17.30
  -5  -2 -10   31.38   12.89
  -5   2  -8  129.87   16.95
  -5   2  -8  118.07   16.97
   5  -2  -8  107.20   15.35
  -5  -2  -8  107.49   16.27
  -5   2  -8   88.45   18.80
  -5  -2  -8  109.69   17.71
  -5   2  -8  100.54   28.86
  -5  -2  -8  107.84   17.37
  -5  -2  -6  211.85   25.95
   5  -2  -6  257.24   38.06
   5  -2  -6  237.33   23.20
  -5   2  -6  246.07   23.50
  -5   2  -6  263.22   29.02
  -5  -2  -6  198.31   20.40
  -5  -2  -6  267.75   25.38
  -5   2  -6  213.34   22.81
   5   2  -4  327.02   28.06
   5  -2  -4  408.35   30.75
   5  -2  -4  355.44   37.43
  -5   2  -4  381.85   29.36
  -5   2  -4  378.40   32.57
  -5  -2  -4  333.32   23.46
   5  -2  -4  326.62   32.47
  -5  -2  -4  376.37   30.46
  -5  -2  -2  501.39   35.14
   5  -2  -2  557.05   32.88
   5  -2  -2  535.01   35.88
   5   2  -2  511.16   20.37
   5  -2  -2  529.71   21.13
  -5   2  -2  530.23   36.25
  -5  -2  -2  544.72   28.29
  -5   2  -2  533.30   35.35
   5   2  -2  561.66   39.50
   5  -2  -2  434.24   33.44
   5   2  -2  529.54   35.55
  -5   2   0  464.24   28.54
   5   2   0  460.55   27.16
  -5  -2   0  455.75   33.27
   5  -2   0  472.35   33.92
   5  -2   0  477.02   29.25
  -5  -2   0  523.93   40.25
   5   2   0  464.99   23.67
  -5  -2   0  457.64   24.89
  -5   2   0  480.88   32.96
  -5   2   0  509.99   37.76
   5   2   0  523.71   35.60
   5   2   0  452.35   32.76
   5  -2   0  503.34   31.03
  -5  -2   0  459.65   27.16
  -5  -2   2  472.98   34.63
   5   2   2  544.62   26.21
   5  -2   2  502.80   35.11
  -5  -2   2  472.95   31.24
   5  -2   2  520.75   30.49
  -5  -2   2  530.09   46.05
   5   2   2  512.81   29.60
  -5   2   2  485.95   33.88
  -5   2   2  501.70   37.41
  -5  -2   2  555.86   35.64
   5  -2   2  520.21   32.48
  -5   2   2  547.73   34.50
   5   2   2  488.10   33.07
  -5  -2   2  457.78   33.76
   5  -2   2  532.45   27.73
   5   2   2  517.12   35.06
   5   2   4  382.94   18.92
   5   2   4  373.18   30.29
  -5  -2   4  354.55   28.84
   5  -2   4  318.60   28.07
  -5  -2   4  484.59   50.02
  -5   2   4  446.50   32.09
  -5   2   4  419.86   34.67
  -5  -2   4  409.56   28.72
  -5  -2   4  377.86   24.43
  -5  -2   4  412.23   29.94
  -5   2   4  366.66   22.86
  -5   2   4  379.73   30.86
   5  -2   4  317.25   24.23
  -5  -2   4  333.02   32.89
  -5  -2   4  369.66   31.29
  -5  -2   4  358.72   29.06
   5  -2   4  380.33   19.32
   5   2   4  327.40   27.03
  -5  -2   6  205.63   28.85
   5   2   6  192.64   21.80
   5   2   6  244.44   12.81
  -5  -2   6  260.12   26.66
  -5   2   6  233.71   26.49
   5  -2   6  238.61   24.56
  -5  -2   6  246.59   42.56
  -5   2   6  249.41   24.84
  -5   2   6  264.50   29.03
  -5  -2   6  236.94   21.22
  -5  -2   6  208.16   21.17
  -5  -2   6  253.07   28.60
  -5  -2   6  224.01   23.75
  -5   2   6  161.34   20.00
   5  -2   6  236.15   14.63
  -5   2   6  216.07   24.19
   5  -2   6  245.07   20.48
  -5  -2   8   89.31   21.87
  -5  -2   8  108.02   19.61
  -5   2   8  114.77   20.82
   5  -2   8  115.04   15.91
   5   2   8  134.56   20.24
  -5  -2   8   63.04   26.75
   5  -2   8  124.37   18.19
  -5  -2   8  126.08   15.38
  -5   2   8  130.25   21.66
   5   2   8  107.11   16.25
  -5  -2   8  126.49   17.07
  -5   2  10   61.21   16.39
   5  -3  -9   79.42   13.32
  -5   3  -9   86.06   21.16
  -5   3  -9   55.10   24.47
  -5  -3  -9   63.98   14.03
  -5   3  -7  159.55   20.23
  -5  -3  -7  155.32   17.62
   5  -3  -7  155.87   19.19
  -5   3  -7  198.31   27.14
  -5   3  -7  121.65   30.06
  -5  -3  -7  172.36   21.49
  -5  -3  -5  254.70   25.22
   5  -3  -5  248.16   25.43
  -5  -3  -5  244.40   26.54
  -5   3  -5  275.17   25.26
   5  -3  -5  175.25   28.78
  -5  -3  -5  243.69   18.61
  -5   3  -5  212.05   26.70
  -5   3  -5  295.26   26.88
   5  -3  -3  382.67   30.40
   5  -3  -3  342.44   27.27
  -5  -3  -3  371.53   30.45
   5  -3  -3  375.54   34.74
   5  -3  -3  399.47   16.89
  -5   3  -3  392.72   30.28
  -5   3  -3  392.71   33.59
  -5  -3  -3  383.72   19.66
  -5   3  -3  367.95   30.29
   5  -3  -3  354.26   31.99
  -5   3  -1  549.91   27.75
   5  -3  -1  441.96   29.66
   5  -3  -1  514.55   32.71
   5   3  -1  513.72   24.76
  -5   3  -1  492.65   35.68
   5  -3  -1  500.34   26.17
  -5  -3  -1  490.90   20.95
   5   3  -1  566.45   38.92
  -5  -3  -1  456.62   24.78
   5  -3  -1  500.52   33.70
  -5  -3   1  434.43   32.75
  -5  -3   1  452.33   29.15
   5  -3   1  498.62   30.70
  -5  -3   1  448.69   33.89
   5   3   1  444.31   25.99
  -5   3   1  454.65   33.29
  -5   3   1  444.33   36.36
  -5  -3   1  447.05   20.07
   5   3   1  432.77   31.88
  -5  -3   1  482.93   32.69
  -5   3   1  424.66   28.00
   5  -3   1  529.88   30.50
   5  -3   1  491.05   34.98
   5  -3   3  340.37   29.21
  -5  -3   3  382.57   30.53
  -5  -3   3  324.56   26.40
  -5  -3   3  442.19   47.11
   5   3   3  387.45   26.87
  -5   3   3  283.57   26.89
  -5   3   3  387.10   34.16
  -5  -3   3  398.64   27.89
  -5  -3   3  298.07   20.05
  -5  -3   3  373.35   28.95
  -5   3   3  324.77   17.50
   5  -3   3  345.44   24.35
  -5   3   3  337.22   27.45
  -5   3   3  335.15   29.37
  -5  -3   3  344.66   32.52
   5   3   3  333.96   27.64
  -5  -3   3  349.15   30.23
  -5  -3   5  215.26   28.94
   5   3   5  184.45   21.71
  -5  -3   5  229.32   24.16
  -5  -3   5  200.37   22.73
   5  -3   5  271.05   25.89
  -5   3   5  197.44   24.56
  -5  -3   5  222.79   23.43
  -5   3   5  238.88   24.61
  -5  -3   5  210.66   38.48
   5   3   5  233.65   24.06
  -5   3   5  207.97   25.93
  -5  -3   5  215.81   20.08
  -5  -3   5  208.42   19.47
  -5  -3   5  239.89   26.32
  -5   3   5  201.34   16.44
  -5   3   5  209.16   25.28
   5  -3   5  239.46   19.86
  -5  -3   7  168.31   29.07
  -5  -3   7  167.47   22.93
  -5   3   7  152.39   21.11
   5   3   7  173.64   22.30
   5   3   7  182.47   23.47
  -5  -3   7  204.65   43.49
   5   3   7  170.88   17.56
  -5  -3   7  169.56   16.31
  -5  -3   7  183.60   21.27
  -5   3   7  157.00   23.52
   5  -3   7  151.92   21.42
  -5  -3   7  178.03   21.39
  -5  -3   7  148.74   19.90
   5  -3   7  164.75   17.80
  -5  -3   9  110.43   26.73
  -5  -3   9   78.48   19.74
   5   3   9   70.93   16.49
  -5  -3   9   62.44   31.41
  -5   3   9   47.49   15.25
   5  -4  -8   70.54   14.32
  -5   4  -8   75.27   19.45
  -5   4  -8  100.56   28.33
  -5  -4  -8   92.17   17.68
   5  -4  -6  153.27   20.19
  -5  -4  -6  197.49   23.86
  -5   4  -6  231.32   29.14
  -5   4  -6  225.99   34.96
  -5  -4  -4  283.29   27.42
   5  -4  -4  264.68   32.74
  -5   4  -4  277.65   26.72
  -5  -4  -4  339.44   31.04
   5  -4  -4  278.36   15.06
  -5   4  -4  346.76   33.47
  -5   4  -4  265.74   29.27
  -5   4  -4  330.29   29.27
  -5   4  -4  257.00   33.55
   5  -4  -4  335.66   28.94
   5  -4  -2  349.51   26.73
  -5  -4  -2  361.01   30.29
   5  -4  -2  328.79   30.82
  -5  -4  -2  362.71   32.52
  -5   4  -2  343.60   29.10
   5  -4  -2  356.35   20.84
  -5   4  -2  351.97   31.83
   5   4  -2  373.80   21.24
  -5   4  -2  374.61   33.43
  -5   4  -2  307.58   28.67
   5  -4  -2  256.89   26.53
  -5  -4  -2  345.21   19.40
   5  -4  -2  309.27   28.57
  -5   4   0  264.75   19.51
  -5  -4   0  281.43   25.98
  -5  -4   0  252.34   19.62
   5  -4   0  261.75   23.11
   5  -4   0  230.99   18.84
  -5  -4   0  305.12   29.45
  -5  -4   0  236.33   25.22
  -5   4   0  304.66   27.13
  -5   4   0  229.08   25.88
   5   4   0  292.75   20.65
   5  -4   0  288.00   22.73
  -5   4   0  257.46   26.06
   5  -4   0  239.37   24.88
   5   4   0  237.93   24.71
  -5  -4   0  295.80   24.91
   5  -4   0  264.64   23.80
  -5  -4   2  338.71   29.97
  -5  -4   2  326.43   24.96
  -5  -4   2  367.88   30.94
  -5  -4   2  341.18   30.84
  -5   4   2  350.32   29.32
   5   4   2  335.71   25.03
  -5  -4   2  360.41   17.82
  -5   4   2  295.16   30.58
  -5  -4   2  356.77   29.56
  -5   4   2  331.69   15.01
  -5   4   2  390.45   31.99
   5  -4   2  279.20   27.45
  -5  -4   2  319.73   30.82
  -5   4   2  324.55   25.15
   5   4   2  332.55   28.10
  -5  -4   4  300.59   26.58
  -5  -4   4  262.28   27.04
  -5   4   4  310.69   28.09
  -5  -4   4  272.71   27.12
  -5  -4   4  224.22   41.03
   5   4   4  311.93   26.40
  -5  -4   4  326.10   22.24
  -5   4   4  284.11   30.57
  -5  -4   4  258.80   21.20
  -5   4   4  319.92   30.40
   5  -4   4  275.54   20.73
  -5   4   4  241.76   25.57
  -5  -4   4  304.34   34.11
   5  -4   4  276.98   27.80
   5   4   4  305.22   27.71
   5   4   6  208.47   24.31
   5  -4   6  175.88   22.47
  -5  -4   6  211.96   25.00
  -5  -4   6  161.52   37.36
   5   4   6  196.13   23.32
  -5  -4   6  186.15   20.82
  -5  -4   6  135.00   13.90
  -5   4   6  154.93   23.90
   5  -4   6  179.55   16.61
  -5  -4   6  169.21   21.52
  -5  -4   6  232.18   33.16
  -5  -4   8   95.63   25.55
  -5  -4   8   84.04   17.90
   5   4   8   80.00   17.30
  -5  -4   8  104.17   37.44
   5   4   8   89.79   17.45
   5  -4   8   88.45   16.90
  -5   4   8  112.80   22.34
  -5  -4   8   73.07   15.10
  -5  -5  -9   54.03   14.25
   5  -5  -9   57.07   13.09
  -5  -5  -7  111.34   20.10
   5  -5  -7  104.78   17.40
  -5   5  -7  154.17   22.80
  -5   5  -7  144.40   24.89
  -5   5  -7  109.69   28.24
   5  -5  -5  134.58   19.40
   5  -5  -5  141.45   27.41
  -5   5  -5  115.41   19.89
  -5   5  -5  134.38   23.46
  -5   5  -5  148.29   28.60
  -5  -5  -5  160.69   23.63
   5  -5  -3  205.12   28.91
   5  -5  -3  219.27   16.33
  -5   5  -3  207.53   25.52
  -5   5  -3  200.50   26.53
  -5   5  -3  243.52   29.30
   5  -5  -3  217.41   24.06
  -5  -5  -3  190.70   13.41
  -5  -5  -3  191.44   24.73
  -5   5  -1  300.03   17.83
   5  -5  -1  341.92   29.95
  -5   5  -1  284.45   29.60
   5   5  -1  347.31   23.52
   5  -5  -1  347.40   24.51
  -5   5  -1  279.33   30.09
  -5   5  -1  305.64   27.93
  -5  -5  -1  324.74   25.75
   5  -5  -1  351.65   29.98
  -5  -5   1  268.88   21.58
   5  -5   1  330.12   21.27
  -5  -5   1  286.99   29.98
   5   5   1  322.43   23.96
   5  -5   1  317.88   26.75
  -5   5   1  285.30   17.53
   5  -5   1  321.39   30.08
  -5  -5   1  316.09   30.04
  -5   5   1  295.62   21.43
  -5  -5   3  219.58   22.24
  -5  -5   3  236.49   26.43
   5   5   3  218.32   21.77
  -5  -5   3  188.77   14.04
  -5  -5   3  198.46   18.78
  -5   5   3  193.69   26.82
   5  -5   3  203.49   24.23
  -5   5   3  201.43   21.02
   5   5   3  181.68   22.74
  -5  -5   3  215.71   28.35
   5  -5   5  127.89   20.26
  -5  -5   5  108.43   17.63
   5   5   5  109.03   18.47
  -5  -5   5  156.40   39.08
   5   5   5  133.74   18.83
  -5  -5   5  109.03   12.25
  -5   5   5  139.43   23.43
   5  -5   5  144.19   12.82
  -5  -5   5  124.20   20.53
  -5  -5   5  170.01   29.39
  -5  -5   7   86.03   18.23
   5  -5   7  117.99   19.79
   5   5   7  122.81   20.96
  -5  -5   7   85.02   32.06
   5   5   7  123.50   20.34
  -5   5   7   89.30   20.56
  -5  -5   7  112.01   28.41
  -5  -5   7  136.21   19.81
  -5  -6  -8   83.37   17.35
   5  -6  -8   31.46   12.71
  -5   6  -8   39.42   13.53
  -5   6  -8   42.55   21.34
  -5  -6  -6   89.14   18.23
  -5   6  -6   95.32   18.70
  -5   6  -6   58.12   16.79
  -5   6  -6   90.90   22.05
   5  -6  -6   94.10   17.30
   5  -6  -4  117.44   25.41
   5  -6  -4  115.17   12.86
  -5   6  -4  152.74   22.35
  -5   6  -4  181.01   26.52
  -5   6  -4  140.39   23.75
   5  -6  -4  139.57   20.70
  -5  -6  -4  128.43   21.39
   5   6  -2  135.73   22.19
  -5  -6  -2  249.96   28.34
   5  -6  -2  209.17   27.81
   5  -6  -2  211.54   19.10
  -5   6  -2  260.71   29.82
   5   6  -2  243.37   20.85
  -5   6  -2  236.55   28.01
   5  -6  -2  235.47   26.18
  -5   6  -2  242.54   24.94
  -5   6   0  229.18   15.65
  -5  -6   0  213.32   17.46
   5  -6   0  183.83   22.55
  -5  -6   0  307.41   31.60
  -5   6   0  206.84   26.48
   5   6   0  222.89   20.93
   5  -6   0  230.29   22.58
  -5   6   0  222.50   28.38
   5  -6   0  226.35   25.85
  -5   6   0  256.21   17.77
   5   6   0  221.75   25.78
  -5  -6   2  238.58   21.86
  -5  -6   2  266.13   29.05
   5   6   2  234.13   23.40
   5  -6   2  241.02   25.54
   5  -6   2  205.56   26.08
  -5   6   2  220.00   19.75
  -5  -6   2  211.51   27.72
  -5   6   4  144.96   19.28
  -5  -6   4  154.86   20.23
   5  -6   4  102.72   10.35
  -5  -6   4  149.23   37.02
   5   6   4  159.64   21.34
  -5  -6   4  126.51   13.51
  -5   6   4  125.14   23.04
   5  -6   4  140.73   22.86
  -5  -6   4  156.33   27.22
  -5  -6   4  144.61   22.48
  -5  -6   6   87.07   19.55
  -5  -6   6   64.09   15.14
   5   6   6   93.88   18.41
  -5  -6   6   77.39   30.29
   5   6   6   78.89   16.83
  -5   6   6   58.42   17.24
   5  -6   6   77.26   17.30
  -5  -6   6   98.46   24.41
  -5  -6   8   39.94   13.52
   5  -6   8   57.60   15.59
   5  -7  -7   84.23   17.59
  -5  -7  -7   76.18   19.93
  -5   7  -7   62.53   15.21
  -5   7  -7   85.79   21.75
  -5  -7  -5   81.47   19.38
  -5   7  -5   63.15   15.35
  -5   7  -5  111.99   23.24
   5  -7  -5   59.89   16.61
  -5   7  -5   85.45   18.89
  -5  -7  -3   94.30   20.61
   5  -7  -3   64.43   19.78
   5  -7  -3  131.71   15.32
  -5   7  -3   95.49   19.75
  -5   7  -3   93.38   20.88
   5  -7  -3   87.24   18.05
  -5   7  -3   88.35   16.47
  -5  -7  -1  140.36   12.26
   5   7  -1  142.76   21.91
   5  -7  -1  104.49   20.20
   5  -7  -1  135.55   17.89
   5   7  -1  125.78   17.49
  -5  -7  -1  133.91   17.78
  -5   7  -1  106.59   20.33
  -5   7  -1   96.44   20.15
  -5   7  -1  129.15   14.85
  -5  -7   1  150.81   16.70
   5   7   1  115.32   19.58
   5   7   1  126.11   17.88
  -5   7   1  108.26   21.29
  -5   7   1  118.95   22.09
   5  -7   1  158.27   22.97
  -5   7   1  128.32   13.05
  -5  -7   1  169.87   25.01
  -5  -7   3   93.84   21.11
  -5   7   3   91.82   15.29
  -5  -7   3  103.53   16.58
   5   7   3   89.53   17.99
   5   7   3  114.89   18.61
   5  -7   3  118.35   21.37
  -5  -7   3   98.90   23.32
  -5  -7   5   71.70   18.07
  -5  -7   5   84.05   16.10
  -5  -7   5   97.75   36.45
   5   7   5   79.34   16.73
  -5   7   5  115.31   23.00
   5  -7   5   83.65   19.21
  -5  -7   5   57.84   19.85
  -5  -7   7  104.11   20.89
  -5  -7   7   70.17   17.05
   5  -7   7   62.84   15.99
  -5  -8  -6   38.67   16.61
  -5   8  -6   19.04   12.80
  -5   8  -6   45.17   16.35
   5  -8  -6   39.02   16.47
  -5  -8  -4   71.42   19.23
  -5   8  -4   43.92   13.82
   5  -8  -4   64.96   16.50
  -5   8  -4   73.97   19.36
  -5   8  -4   64.71   15.92
  -5  -8  -2   96.88   21.92
   5   8  -2   97.68   19.77
   5  -8  -2  116.53   23.76
   5   8  -2  114.34   17.05
  -5   8  -2   91.29   19.52
   5  -8  -2  104.53   19.64
  -5   8  -2   73.13   19.26
  -5  -8   0  114.11   22.68
   5   8   0  135.32   21.94
   5   8   0  121.66   18.41
   5  -8   0  114.66   20.83
  -5   8   0  127.92   23.40
  -5  -8   2  107.90   22.72
  -5  -8   2  115.13   16.17
   5   8   2   82.00   17.34
   5   8   2   85.64   16.12
  -5   8   2   78.32   19.61
   5  -8   2   78.07   18.44
  -5  -8   4   65.31   18.73
  -5  -8   4   54.08   13.35
   5   8   4   74.17   17.91
   5   8   4   63.61   15.68
  -5   8   4   56.23   17.68
   5  -8   4   89.47   19.46
  -5  -8   4   83.88   24.18
  -5  -8   6   27.87   13.98
  -5  -8   6   31.43   12.03
   5  -8   6   37.38   15.33
  -5   9  -5   24.48   12.54
  -5   9  -3   53.80   16.43
   5   9  -1   44.45   17.46
   5   9  -1   64.30   15.16
  -5   9  -1   84.83   19.68
  -5  -9   1   72.84   19.99
   5   9   1   47.75   14.34
   5   9   1   38.55   13.73
   5  -9   1   24.99   14.27
  -5   9   1   63.28   17.83
  -5   9   1   66.20   19.05
   5   9   3   41.79   15.14
  -5  -9   5   21.65   11.39
  -5  10  -4   22.17   11.66
   5  10  -2   32.87   14.84
  -5  10  -2   36.83   15.01
   5  10   0   32.23   14.33
  -6   0  -8   68.46   16.61
   6   0  -6  144.71   20.18
  -6   0  -6  125.38   20.83
  -6   0  -4  204.37   23.11
   6   0  -4  173.19   22.11
   6   0  -2  169.28   19.71
   6   0  -2  169.61    7.77
   6   0  -2  169.97    8.38
   6   0  -2  194.78   23.15
  -6   0  -2  153.60   19.74
  -6   0   0  235.07   23.75
   6   0   0  250.57   21.59
   6   0   0  172.88   23.72
  -6   0   0  215.69   21.96
   6   0   0  177.51   23.08
   6   0   2  200.36   17.91
  -6   0   2  152.49   22.75
   6   0   2  204.86   24.10
  -6   0   2  160.70   23.08
   6   0   2  193.30   22.95
  -6   0   2  185.66   22.90
   6   0   4  183.89   16.36
  -6   0   4  122.74   20.51
  -6   0   4  201.42   31.85
   6   0   4  192.81   24.25
  -6   0   4  155.38   21.54
  -6   0   4  213.29   21.23
   6   0   4  188.87   21.95
   6   0   6  134.93   14.46
  -6   0   6  153.94   23.42
   6   0   6  131.40   18.61
  -6   0   6  119.38   28.43
   6   0   6  140.39   21.39
  -6   0   6  143.09   21.14
  -6   0   6  145.39   21.29
  -6   0   8   67.01   17.32
   6   0   8   83.50   16.85
  -6   0   8   58.41   14.60
   6   0   8   76.79   16.39
   6  -1  -9   29.12   10.37
  -6   1  -9   35.59   13.81
  -6  -1  -9   39.38   14.47
   6  -1  -7   45.10   12.88
  -6   1  -7   64.32   17.15
  -6  -1  -7   85.61   16.95
   6  -1  -5  131.70   19.94
  -6   1  -5  149.41   22.06
  -6  -1  -5  104.51   16.94
   6   1  -5  185.64   22.87
   6  -1  -3  242.06   26.00
  -6  -1  -3  185.58   20.58
  -6   1  -3  171.13   23.01
   6   1  -3  207.02   23.62
   6  -1  -3  179.64   25.06
   6   1  -1  245.66   22.65
   6  -1  -1  264.98   23.37
  -6   1  -1  289.87   24.26
  -6  -1  -1  267.75   25.33
  -6  -1  -1  246.83   19.36
   6   1  -1  265.97   15.19
  -6   1  -1  242.92   25.01
  -6  -1  -1  229.74   21.80
   6   1  -1  313.18   30.77
   6  -1  -1  309.10   28.08
  -6  -1   1  262.51   26.79
   6   1   1  306.57   22.50
   6  -1   1  324.45   24.25
  -6  -1   1  254.99   28.67
   6   1   1  270.01   20.02
   6  -1   1  255.29   26.88
  -6   1   1  295.76   31.40
  -6  -1   1  331.65   31.17
   6   1   1  288.17   28.28
   6  -1   1  324.69   29.51
   6   1   1  250.63   26.66
   6  -1   1  268.78   22.47
  -6   1   1  300.09   26.56
   6   1   3  226.06   18.02
   6  -1   3  224.56   19.47
  -6  -1   3  185.31   22.73
   6  -1   3  175.82   21.01
  -6  -1   3  170.52   28.42
   6  -1   3  227.80   25.43
  -6   1   3  251.73   28.08
  -6  -1   3  210.29   24.64
  -6  -1   3  207.96   21.28
  -6   1   3  226.58   19.44
   6   1   3  242.79   25.89
   6   1   3  177.01   21.66
  -6  -1   3  222.96   25.41
  -6  -1   5  136.50   23.09
   6   1   5  156.88   14.11
   6   1   5  121.78   20.35
   6  -1   5  137.40   15.66
   6  -1   5  103.86   16.68
  -6  -1   5  119.41   19.91
   6   1   5  125.53   18.89
   6  -1   5  152.89   22.51
  -6  -1   5  151.30   32.17
  -6   1   5  143.91   21.92
  -6  -1   5  143.33   19.70
  -6  -1   5  110.37   16.12
  -6  -1   5  140.58   20.27
  -6   1   5  116.06   17.11
  -6  -1   7   86.82   21.70
  -6  -1   7   61.87   16.01
  -6   1   7   66.06   16.80
   6  -1   7   69.03   13.85
   6   1   7   75.67   15.98
  -6  -1   7   48.07   25.87
  -6   1   7   81.70   18.06
  -6  -1   7   77.48   15.05
   6  -1   7   90.45   16.97
   6  -1   9   48.91   14.05
   6   1   9   23.62   13.31
  -6  -1   9   39.54   22.32
  -6   1   9   52.21   15.09
  -6   2  -8   54.24   17.69
  -6  -2  -8   77.92   17.35
   6  -2  -8   36.60   11.43
   6  -2  -6  130.62   19.89
  -6   2  -6  125.95   22.63
  -6  -2  -6  116.96   17.39
  -6  -2  -4  160.47   17.48
   6   2  -4  140.14   20.33
  -6   2  -4  162.60   23.15
   6  -2  -4  172.13   22.87
  -6  -2  -2  166.98   19.23
   6  -2  -2  201.82   24.33
   6   2  -2  165.02   10.35
   6  -2  -2  177.53   10.96
   6   2  -2  150.23   20.66
  -6  -2  -2  170.65   17.09
  -6   2  -2  181.81   25.32
  -6   2  -2  183.39   23.36
   6  -2  -2  128.94   21.58
  -6   2   0  207.84   20.17
   6  -2   0  159.55   18.54
   6  -2   0  200.51   24.32
  -6  -2   0  197.19   25.35
   6   2   0  193.43   15.44
  -6   2   0  210.47   24.43
  -6  -2   0  183.61   17.28
  -6   2   0  216.36   26.98
   6   2   0  253.80   27.37
   6  -2   0  179.52   20.88
   6   2   0  237.35   25.71
   6   2   2  155.31   15.42
   6  -2   2  157.73   17.63
  -6  -2   2  188.54   21.39
   6   2   2  119.83   19.68
  -6  -2   2  170.37   28.77
   6   2   2  174.22   17.76
  -6  -2   2  208.97   24.52
  -6   2   2  195.10   25.71
   6  -2   2  157.52   21.74
   6  -2   2  216.66   23.19
   6   2   2  183.03   22.04
   6  -2   2  166.83   16.57
  -6  -2   2  189.38   21.85
  -6   2   2  161.20   21.09
  -6  -2   4  146.56   23.38
   6   2   4  175.29   14.18
   6  -2   4  175.88   18.89
   6   2   4  163.11   21.55
  -6  -2   4  145.51   20.28
   6   2   4  183.38   20.52
  -6  -2   4  177.10   32.12
   6   2   4  167.22   22.39
  -6  -2   4  202.35   23.23
  -6  -2   4  149.31   16.61
  -6   2   4  191.01   25.93
  -6  -2   4  186.36   21.90
  -6   2   4  173.58   16.96
   6  -2   4  119.87   19.61
   6  -2   4  219.23   22.14
   6  -2   4  186.38   13.39
  -6  -2   6  146.93   25.32
   6   2   6  117.09   10.26
   6  -2   6  155.96   22.30
   6  -2   6  116.81   17.14
  -6  -2   6  135.05   22.11
   6   2   6  125.27   20.30
  -6  -2   6  120.84   31.67
  -6   2   6  101.54   19.51
  -6  -2   6  111.48   17.28
  -6  -2   6  138.85   17.94
  -6  -2   8   54.81   19.73
   6  -2   8   64.38   14.15
   6   2   8   67.37   16.48
  -6  -2   8  111.37   35.10
  -6   2   8   59.40   17.93
   6  -2   8   70.70   16.43
  -6  -2   8   64.59   14.78
   6  -3  -9   26.29   10.10
  -6  -3  -9   14.85   11.40
   6  -3  -7   43.19   12.90
  -6   3  -7   40.43   15.49
  -6   3  -7   45.43   24.48
  -6  -3  -7   68.64   17.66
   6  -3  -5  125.84   26.23
  -6  -3  -5  113.61   13.93
   6  -3  -5   93.99   18.01
  -6   3  -5  119.38   21.64
   6  -3  -3  171.62    9.25
   6  -3  -3  156.69   22.69
  -6  -3  -3  175.59   13.94
  -6   3  -3  180.23   26.04
  -6   3  -3  183.20   25.30
   6  -3  -3  175.19   24.46
   6  -3  -1  146.87   19.84
  -6   3  -1  163.88   17.01
   6   3  -1  172.50   24.40
   6   3  -1  159.14   13.54
   6  -3  -1  162.73   14.74
  -6  -3  -1  172.87   13.41
  -6   3  -1  159.11   24.29
  -6   3  -1  165.08   23.05
   6   3   1   93.95   19.01
  -6  -3   1  137.33   27.02
   6   3   1  139.34   15.28
   6  -3   1  171.62   22.22
  -6  -3   1  158.79   14.16
  -6   3   1  190.04   25.48
   6  -3   1  160.77   18.26
  -6  -3   1  148.69   18.61
  -6   3   1  200.93   20.85
  -6  -3   3  136.83   20.78
  -6  -3   3  175.88   21.21
  -6   3   3  151.50   20.36
   6   3   3  135.18   19.79
  -6  -3   3  161.23   31.12
   6   3   3  146.75   17.90
   6  -3   3  177.26   23.54
  -6  -3   3  189.22   21.95
  -6  -3   3  171.44   15.46
  -6   3   3  145.81   23.98
  -6   3   3  169.53   14.11
   6  -3   3  175.26   20.13
   6  -3   3  164.56   16.22
  -6  -3   5  114.48   22.66
   6  -3   5  130.33   17.34
  -6  -3   5  123.09   19.67
   6   3   5  127.49   20.20
  -6  -3   5  142.01   33.35
   6   3   5  123.12   18.57
   6  -3   5  115.58   19.77
  -6   3   5  160.84   24.75
  -6  -3   5  131.32   18.58
   6  -3   5  117.68   11.81
  -6  -3   7   44.27   17.68
   6  -3   7   57.65   15.36
  -6  -3   7   30.24   12.43
   6   3   7   49.57   14.45
  -6  -3   7   62.35   27.43
   6   3   7   52.19   14.20
  -6   3   7   71.63   18.45
  -6  -3   7   34.65   12.13
  -6  -4  -8   35.91   14.25
   6  -4  -8   54.85   14.86
   6  -4  -6   75.92   16.61
  -6   4  -6   78.93   20.37
  -6   4  -6   73.64   25.27
  -6  -4  -6   84.99   20.25
   6  -4  -4   83.53   20.61
   6  -4  -4   97.47   18.07
  -6   4  -4   87.01   19.74
  -6   4  -4  130.66   23.80
  -6   4  -4   67.68   21.51
  -6  -4  -4  120.96   22.09
   6  -4  -2  150.96   22.00
   6   4  -2  131.79   23.56
   6  -4  -2   93.44   17.87
   6  -4  -2  113.85   19.35
   6  -4  -2  132.06   12.49
   6   4  -2  118.28   12.00
  -6   4  -2  135.71   23.52
  -6   4  -2  149.68   23.65
  -6  -4  -2  146.03   24.18
   6  -4   0  117.68   18.12
  -6   4   0  195.81   18.17
   6   4   0  146.21   21.74
   6  -4   0  150.39   22.02
   6   4   0  157.77   15.63
   6  -4   0  188.71   18.95
  -6   4   0  160.59   23.65
  -6  -4   0  152.43   24.05
  -6  -4   0  143.51   17.16
  -6  -4   2  104.04   18.02
   6  -4   2  130.30   16.84
   6   4   2  123.46   20.20
  -6  -4   2  120.83   17.00
  -6   4   2   95.45   15.41
   6  -4   2  127.21   20.79
  -6  -4   2  109.62   27.39
   6   4   2  136.15   16.75
  -6   4   2  160.69   24.93
  -6  -4   2  124.73   21.30
  -6  -4   4  109.86   21.47
   6  -4   4  130.15   15.26
   6  -4   4   97.29   14.73
  -6  -4   4   91.80   16.84
   6   4   4   94.35   18.09
   6  -4   4  146.96   22.69
  -6  -4   4   96.25   29.03
   6   4   4  136.78   18.72
  -6   4   4  143.79   24.57
  -6  -4   4  124.03   17.17
  -6  -4   4  102.00   20.28
  -6  -4   6   85.51   21.33
  -6  -4   6   79.48   16.31
   6   4   6   76.59   17.35
  -6  -4   6   83.92   30.47
   6   4   6   68.38   15.72
   6  -4   6   81.39   19.07
  -6   4   6   46.75   15.93
  -6  -4   6   77.64   17.69
   6  -4   8   23.45   12.03
  -6  -4   8   43.95   13.00
   6  -5  -7   21.77   12.55
  -6   5  -7   45.42   16.44
  -6   5  -7   63.15   24.74
  -6  -5  -7   30.23   16.34
   6  -5  -5   85.56   18.86
  -6   5  -5  104.74   21.60
  -6   5  -5  100.84   22.25
  -6   5  -5   86.00   24.14
  -6  -5  -5   61.21   17.23
   6  -5  -3  110.93   19.89
   6  -5  -3   76.19   18.27
   6  -5  -3   97.02   10.61
  -6   5  -3   91.72   19.73
  -6   5  -3   79.97   20.03
  -6   5  -3  105.82   23.85
  -6  -5  -3  106.44   21.76
  -6  -5  -1  102.91   14.16
  -6   5  -1  116.19   12.76
   6  -5  -1  120.17   17.62
   6  -5  -1  126.14   15.35
   6   5  -1  114.49   14.06
  -6   5  -1  111.22   22.09
  -6   5  -1   80.85   17.51
   6  -5   1  137.20   18.82
   6  -5   1  104.37   19.28
   6   5   1  123.53   20.52
  -6  -5   1  113.33   15.20
  -6   5   1  103.37   14.75
   6   5   1   95.43   14.25
   6  -5   1  119.62   17.20
  -6  -5   1   85.77   19.26
  -6  -5   1   93.58   16.91
   6  -5   3  110.60   19.84
  -6   5   3   97.35   16.93
  -6  -5   3  127.25   18.03
   6   5   3  118.64   19.83
  -6  -5   3  102.65   31.60
   6   5   3  108.94   16.30
  -6   5   3   91.79   20.84
  -6  -5   3  112.75   17.16
  -6  -5   3  106.35   21.73
  -6  -5   3  102.71   20.74
  -6  -5   5   71.83   15.07
   6   5   5   67.31   15.86
   6  -5   5   79.23   18.17
  -6  -5   5  123.19   38.32
   6   5   5   49.63   12.83
  -6   5   5   37.62   16.26
  -6  -5   5   61.17   16.48
  -6  -5   5   62.58   18.44
  -6  -5   7   39.38   17.94
  -6  -5   7   53.04   26.29
   6  -5   7   46.86   15.84
  -6  -5   7   37.77   13.92
  -6  -6  -8   44.77   17.53
   6  -6  -8   24.41   11.98
   6  -6  -6   73.28   17.02
  -6   6  -6   37.37   14.32
  -6   6  -6   65.11   22.00
  -6  -6  -6   35.98   16.30
   6  -6  -4   57.38   14.51
   6  -6  -4   44.05   17.69
  -6   6  -4   28.04   14.77
  -6   6  -4   32.00   15.53
  -6   6  -4   79.28   19.49
  -6  -6  -4   51.17   17.88
   6   6  -2   53.84   18.23
   6  -6  -2   82.91   18.31
   6  -6  -2   69.90   11.36
   6   6  -2   68.51   11.69
  -6   6  -2   29.05   14.95
  -6   6  -2   67.48   18.70
  -6   6  -2   73.87   17.33
  -6  -6  -2   87.24   20.80
   6  -6  -2   83.32   17.71
   6   6   0   86.20   18.40
  -6  -6   0   65.98   11.33
  -6   6   0   97.80   11.92
   6  -6   0  106.18   15.46
   6   6   0   85.99   13.40
   6  -6   0   92.11   15.27
  -6   6   0  112.24   22.87
  -6   6   0   68.11   17.93
   6  -6   0   95.38   19.00
  -6  -6   0   66.20   17.74
  -6  -6   0  107.69   17.32
  -6  -6   2   83.10   14.96
  -6   6   2   70.65   13.25
   6   6   2   69.45   14.65
  -6  -6   2   57.12   17.08
   6  -6   2   62.74   15.91
  -6  -6   2   94.90   18.78
   6  -6   4   53.75   15.52
  -6  -6   4   59.43   14.21
   6   6   4   69.84   17.17
  -6  -6   4   57.26   27.75
   6   6   4   38.18   12.02
  -6   6   4   54.46   17.95
  -6  -6   4   56.93   16.86
  -6  -6   4   86.21   21.52
   6  -6   6   33.33   14.72
  -6  -6   6   22.75   12.28
  -6  -6   6   53.77   27.95
   6   6   6   55.94   15.43
  -6  -6   6   73.69   21.68
  -6  -6   6   41.50   15.79
   6  -7  -5   25.17   13.56
  -6   7  -5   30.34   14.19
  -6   7  -3   72.02   18.88
  -6   7  -3   41.15   17.33
   6  -7  -3   48.19   14.21
  -6  -7  -3   50.90   18.12
   6   7  -1   80.09   19.13
   6   7  -1   64.07   13.12
  -6   7  -1   59.96   19.02
  -6   7  -1   61.94   18.96
   6   7   1   74.85   18.39
   6   7   1  116.20   17.40
  -6   7   1   65.88   19.35
  -6   7   1   88.80   21.23
   6  -7   1   61.89   17.78
  -6  -7   1   88.50   18.63
  -6  -7   1   46.76   16.99
  -6  -7   3   56.02   13.03
   6   7   3   43.56   14.37
   6   7   3   53.48   14.60
   6  -7   3   42.39   15.61
  -6  -7   3   31.76   14.96
  -6  -7   3   58.62   18.93
  -6  -7   5   48.81   17.05
   6  -7   5   28.37   13.77
  -6  -7   5   26.69   12.82
  -6  -7   5   65.25   29.07
  -6  -7   5   48.28   19.27
  -6   8  -4   27.35   16.40
   6   8  -2   31.40   10.61
  -6   8  -2   10.96   14.57
   6   8   0   33.51   13.77
   6   8   0   70.86   14.76
  -6   8   0   34.77   16.67
   6   8   2   36.42   13.19
  -6  -8   2   30.80   13.56
  -6  -8   4   38.02   18.44
   6   9  -1   17.40   10.19
   6   9   1   32.58   13.76
  -7   0  -6   53.53   14.56
   7   0  -6   42.73   14.70
   7   0  -4   42.40   14.29
  -7   0  -4   83.94   16.69
  -7   0  -2   80.19   16.36
   7   0  -2   68.33   16.85
   7   0   0   97.93   20.46
   7   0   0   95.47   11.42
   7   0   0   72.22   16.56
  -7   0   0  108.76   21.10
  -7   0   0   92.42   16.56
   7   0   2  122.22   20.74
   7   0   2   89.49   14.11
  -7   0   2   81.10   19.42
   7   0   2   71.96   17.00
   7   0   4   69.56   18.12
   7   0   4   40.23   14.53
   7   0   4   55.16   10.85
  -7   0   4   54.53   16.00
   7   0   6   49.39   15.29
  -7   0   6   45.45   15.10
   7   0   6   38.13   14.04
   7   0   8   34.42   13.88
   7  -1  -7   57.86   14.68
  -7   1  -7   23.94   14.76
   7   1  -5   56.11   16.45
   7  -1  -5   44.64   14.83
  -7   1  -5   29.08   13.61
  -7  -1  -5   43.58   12.91
   7  -1  -3   84.44   19.33
  -7   1  -3   79.96   18.33
  -7  -1  -3   55.42   13.10
   7   1  -3   49.12   15.60
   7  -1  -1   76.74    8.58
   7   1  -1  103.13    9.52
  -7   1  -1  108.68   21.81
  -7   1  -1  105.62   18.89
  -7  -1  -1   99.32   16.42
   7  -1   1  128.77   20.87
   7   1   1   92.63   19.79
   7   1   1  110.19   15.73
   7  -1   1  101.89   19.27
  -7  -1   1   87.05   17.14
   7   1   1   75.16   11.33
   7   1   1   99.82   19.77
  -7   1   1   93.96   17.73
  -7   1   1   89.84   20.08
  -7  -1   1   82.21   18.04
  -7  -1   1   87.05   15.44
   7  -1   3   83.69   18.38
   7   1   3   73.29   16.84
   7   1   3   76.67   12.68
   7  -1   3   66.98   16.78
  -7  -1   3   70.28   19.89
  -7   1   3  109.86   21.71
  -7  -1   3   90.36   18.83
   7   1   3   72.32   17.32
   7  -1   5   70.47   15.92
   7   1   5   51.97   15.90
  -7  -1   5   54.93   17.50
   7   1   5   67.15   17.05
  -7  -1   5   82.63   24.32
   7  -1   5   57.59   15.68
  -7   1   5   69.54   17.93
  -7  -1   5   46.41   13.96
   7  -1   7   24.94   12.19
   7   1   7   24.91   11.93
   7  -1   7    9.46   10.28
  -7  -1   7   40.02   20.80
  -7   1   7   31.87   14.99
  -7  -1   7   24.08   11.26
   7  -2  -8    7.93    9.63
  -7  -2  -8   34.74   17.06
   7  -2  -6   47.09   14.92
  -7   2  -6   32.47   14.42
   7  -2  -4   59.15   15.55
  -7   2  -4   72.30   18.36
   7  -2  -2   47.57   14.96
   7  -2  -2   60.30    5.76
   7   2  -2   51.35    5.46
   7   2  -2   50.10   15.62
   7  -2  -2   57.62    5.68
  -7   2  -2   38.37   15.77
  -7   2  -2   61.76   16.21
  -7  -2  -2   56.85   11.85
   7  -2  -2   64.54   16.64
   7   2   0   65.73   17.52
  -7  -2   0   37.36   13.33
   7   2   0   67.98   10.30
  -7   2   0   56.35   16.23
   7   2   0   75.41   17.02
  -7   2   0   60.94   15.48
  -7  -2   0   54.62   11.55
   7  -2   0   76.90   17.09
   7  -2   0   50.07   13.32
   7  -2   2   59.13   15.02
   7   2   2   60.03   16.27
   7   2   2   79.57   12.60
  -7  -2   2   65.13   19.57
   7   2   2   69.32   12.60
  -7   2   2   54.55   17.15
  -7  -2   2   84.93   19.44
   7   2   2   60.28   15.85
   7  -2   2   77.31   17.46
   7  -2   2   64.32   12.00
  -7  -2   4   64.29   15.76
   7  -2   4   62.71   14.97
   7  -2   4   61.78   16.80
   7   2   4   73.99   16.97
  -7  -2   4   59.93   16.48
  -7  -2   4   54.23   19.79
   7   2   4   68.69   13.85
  -7   2   4   63.98   17.42
  -7  -2   4   56.32   14.07
  -7  -2   6   39.37   15.28
   7  -2   6   33.56   12.97
   7   2   6   34.35   13.75
  -7  -2   6   38.84   14.62
  -7  -2   6   40.04   25.88
   7  -2   6   29.23   13.68
   7   2   6   50.05   14.34
  -7   2   6   69.82   17.99
  -7  -2   6   40.66   12.89
   7  -3  -7   23.14   11.22
  -7  -3  -7    9.95   12.86
   7  -3  -5   37.01   14.22
  -7   3  -5   33.90   15.45
  -7   3  -3   70.41   19.51
  -7   3  -3   64.75   19.19
   7  -3  -3   72.78   17.91
   7   3  -1   83.07   19.87
  -7   3  -1   86.08   15.09
   7   3  -1   76.59   10.07
   7  -3  -1   90.34   11.29
  -7   3  -1   89.14   20.03
  -7   3  -1   53.69   15.87
   7  -3  -1   86.47   17.68
  -7  -3   1   68.74   13.79
   7   3   1   73.28   17.53
  -7  -3   1   92.81   23.12
   7   3   1   70.78   11.93
   7  -3   1   52.23   15.42
  -7   3   1   68.84   18.74
  -7   3   1   52.76   15.57
   7  -3   1   89.17   15.64
  -7  -3   3   77.74   16.53
   7  -3   3   48.45   14.11
   7   3   3   50.80   15.96
  -7  -3   3   66.25   15.85
  -7  -3   3   73.62   25.25
   7   3   3   71.84   13.85
  -7   3   3   75.41   19.14
  -7  -3   3   64.46   16.30
   7  -3   3   79.15   18.13
  -7  -3   5   47.45   16.11
   7   3   5   44.87   14.63
  -7  -3   5   21.22   11.42
  -7  -3   5   19.66   20.44
   7   3   5   18.06   11.65
  -7   3   5   18.55   12.59
  -7  -3   5   56.88   15.08
   7  -3   5   39.87   14.99
   7  -3   7   26.28   13.82
  -7  -3   7   31.19   25.40
  -7  -3   7   22.70   13.08
  -7   4  -6    5.66   18.45
   7  -4  -6   33.83   14.17
  -7  -4  -6   41.70   16.67
   7  -4  -4   47.72   15.87
  -7   4  -4   43.83   17.20
  -7   4  -4   58.96   18.87
  -7  -4  -4   61.67   18.71
   7   4  -2   33.43    7.41
   7  -4  -2   87.47   18.04
  -7   4  -2   35.71   15.85
  -7   4  -2   52.35   17.25
  -7  -4  -2   51.94   16.75
   7  -4   0   25.52   10.76
   7   4   0   33.80   14.92
  -7   4   0   37.45   11.88
  -7  -4   0   30.63   16.47
   7  -4   0   19.88   10.81
   7   4   0   43.96    9.17
   7  -4   0   37.14   10.19
  -7   4   0   43.62   16.27
  -7   4   0   39.14   14.60
  -7  -4   0   37.27   16.07
   7  -4   2   40.69   11.37
  -7  -4   2   51.89   14.67
   7   4   2   53.47   16.23
  -7  -4   2   58.38   21.77
   7   4   2   43.56   10.88
   7  -4   2   43.98   13.54
  -7   4   2   55.51   17.51
  -7  -4   2   63.63   15.18
  -7  -4   2   57.34   17.86
  -7  -4   4   61.36   17.29
   7   4   4   62.51   16.66
  -7  -4   4   36.51   13.76
  -7  -4   4   45.22   26.49
   7   4   4   54.75   13.66
   7  -4   4   54.83   15.82
  -7   4   4   66.38   19.45
  -7  -4   4   55.98   13.77
  -7  -4   4   33.24   14.02
  -7  -4   6   12.42   12.91
  -7  -4   6   30.87   21.77
   7  -4   6   16.99   13.18
  -7  -4   6   24.18   13.33
  -7   5  -5   24.13   18.72
   7  -5  -3   29.51   12.72
  -7   5  -3   39.95   16.81
  -7   5  -3   44.82   17.56
  -7  -5  -3   11.29   13.71
   7   5  -1   42.80   16.80
   7   5  -1   41.81    9.55
  -7   5  -1   72.94   20.89
  -7   5  -1   69.26   19.17
   7   5   1   46.48   17.12
   7  -5   1   31.21   13.08
  -7  -5   1   34.91   21.21
   7   5   1   66.25   12.75
  -7   5   1   41.18   16.45
  -7   5   1   38.17   15.25
  -7  -5   1   48.79   18.69
  -7  -5   3   38.36   13.79
  -7  -5   3   43.50   13.62
  -7  -5   3   40.07   25.90
   7  -5   3   67.33   18.56
   7   5   3   22.55    9.27
  -7  -5   3   29.72   11.89
  -7  -5   3   24.74   14.88
  -7  -5   5   31.57   15.31
  -7  -5   5   37.59   13.61
  -7  -5   5   31.03   23.07
   7   5   5   37.85   13.47
   7   6   0   36.98    9.55
  -7   6   0   28.52   13.83
  -7  -6   2   36.59   25.75
   7   6   2   30.93   11.01
  -7  -6   4   22.78   11.84
  -7  -6   4   26.54   11.71
  -7  -6   4   40.52   27.47
   7   6   4   15.68    9.53
   7   7   1   15.54   10.01
  -7  -7   3   43.76   28.50
   7   7   3   10.34   10.02
   8   0  -2   17.64   11.50
   8   0   0   78.27   19.24
  -8   0   0   41.69   17.56
  -8   0   0   39.97   12.34
   8   0   2   13.29   12.11
   8   0   2   14.22   12.06
   8   0   2   19.20    8.05
  -8   0   2   23.30   14.14
  -8   0   2   22.23   11.69
   8   0   4   15.61   13.13
  -8   0   4   14.46   12.26
  -8   1  -3   37.30   14.28
  -8  -1  -1   51.41   17.58
  -8   1  -1   36.03   13.80
   8   1   1   21.29   13.35
   8   1   1   24.60   15.85
   8   1   1   25.31    7.38
   8  -1   1   32.32   15.84
  -8   1   1   32.74   15.87
  -8  -1   1   23.85   14.48
  -8   1   1   31.02   13.05
   8  -1   3   24.98   14.69
   8   1   3   13.12   13.10
   8   1   3   30.61    9.80
  -8   1   3   38.80   15.91
  -8  -1   3   35.62   15.72
   8  -1   5   29.52   15.21
   8   1   5   25.72   11.09
  -8  -1   5   19.52   13.69
  -8   2  -4    7.51   11.70
  -8   2  -2   25.64   14.21
   8   2   0   25.77   15.10
  -8  -2   0   37.02   15.48
  -8   2   0   31.09   13.79
   8   2   2   38.18   16.33
   8   2   2   24.50    8.41
  -8   2   2   30.53   14.62
  -8  -2   2   21.69   13.60
   8   2   4   30.28   11.60
  -8  -2   4   28.71   13.76
  -8   3  -3   28.09   15.56
  -8   3  -1   15.36   13.02
   8   3   1   26.13    8.57
  -8  -3   1   15.10   11.24
  -8   3   1   44.19   16.97
   8   3   3   12.49    8.53
  -8  -3   3   25.68   12.44
  -8   4   0   20.00   15.04
   8   4   2    7.64    7.41
  -8  -4   2    9.88   11.58
   8   4   4   21.65   10.13
  -8  -5   1   17.39   12.24
   8   5   3   27.21   11.09
   0   0   0    0.00    0.00

;
_shelx_hkl_checksum              21252
loop_
_space_group_symop_operation_xyz
'x, y, z'
'-x, -y, z'
'x, -y, z'
'-x, y, z'
'x, y+1/2, z+1/2'
'-x, -y+1/2, z+1/2'
'x, -y+1/2, z+1/2'
'-x, y+1/2, z+1/2'
loop_
_atom_site_label
_atom_site_type_symbol
_atom_site_fract_x
_atom_site_fract_y
_atom_site_fract_z
_atom_site_U_iso_or_equiv
_atom_site_adp_type
_atom_site_occupancy
_atom_site_site_symmetry_order
_atom_site_calc_flag
_atom_site_refinement_flags_posn
_atom_site_refinement_flags_adp
_atom_site_refinement_flags_occupancy
_atom_site_disorder_assembly
_atom_site_disorder_group
F1 F 0.5000 0.5000 0.6959(7) 0.072(2) Uani 1 4 d DS T P . .
Re1 Re 0.0000 1.0000 -0.0273(4) 0.04490(12) Uani 1 4 d S T P . .
O2 O 0.0000 0.8424(8) 0.0797(9) 0.077(2) Uani 1 2 d S T P . .
O1 O 0.2284(16) 1.0000 -0.1306(9) 0.095(3) Uani 1 2 d S T P . .
N1 N 0.5000 0.5000 1.1094(15) 0.070(6) Uani 1 4 d DS TU P . .
H1A H 0.5000 0.5000 1.2055 0.083 Uiso 1 4 d R U P . .
C1 C 0.587(3) 0.3604(15) 0.8996(16) 0.061(4) Uani 0.5 1 d D U P . .
H1B H 0.7302 0.3434 0.8655 0.074 Uiso 0.5 1 d R U P . .
H1C H 0.5167 0.2816 0.8619 0.074 Uiso 0.5 1 d R U P . .
C2 C 0.575(4) 0.3565(19) 1.0642(18) 0.078(7) Uani 0.5 1 d D U P . .
H2A H 0.7167 0.3346 1.0996 0.093 Uiso 0.5 1 d R U P . .
H2B H 0.4791 0.2788 1.0963 0.093 Uiso 0.5 1 d R U P . .
C3 C 0.754(3) 0.5000 0.892(2) 0.072(6) Uani 0.5 2 d DS TU P . .
H3A H 0.8274 0.5883 0.8571 0.087 Uiso 0.25 1 d R U P . .
H3B H 0.8274 0.4117 0.8571 0.087 Uiso 0.25 1 d R U P . .
C4 C 0.751(3) 0.5000 1.056(2) 0.085(7) Uani 0.5 2 d DS TU P . .
H4A H 0.8235 0.5881 1.0914 0.101 Uiso 0.25 1 d R U P . .
H4B H 0.8235 0.4119 1.0914 0.101 Uiso 0.25 1 d R U P . .
C5 C 0.5000 0.5000 0.8443(15) 0.049(5) Uani 1 4 d DS TU P . .
loop_
_atom_site_aniso_label
_atom_site_aniso_U_11
_atom_site_aniso_U_22
_atom_site_aniso_U_33
_atom_site_aniso_U_23
_atom_site_aniso_U_13
_atom_site_aniso_U_12
F1 0.110(7) 0.076(5) 0.031(3) 0.000 0.000 0.000
Re1 0.0581(2) 0.04052(17) 0.03607(17) 0.000 0.000 0.000
O2 0.096(5) 0.054(4) 0.081(5) 0.018(4) 0.000 0.000
O1 0.101(7) 0.111(7) 0.072(5) 0.000 0.037(5) 0.000
N1 0.134(16) 0.048(11) 0.027(8) 0.000 0.000 0.000
C1 0.090(11) 0.042(7) 0.052(7) -0.016(6) 0.001(8) 0.034(6)
C2 0.13(2) 0.064(10) 0.042(6) 0.000(7) -0.007(9) 0.013(9)
C3 0.044(10) 0.113(17) 0.060(8) 0.000 0.003(9) 0.000
C4 0.092(15) 0.100(16) 0.061(9) 0.000 -0.034(12) 0.000
C5 0.071(11) 0.041(11) 0.034(9) 0.000 0.000 0.000
loop_
_atom_type_symbol
_atom_type_description
_atom_type_scat_dispersion_real
_atom_type_scat_dispersion_imag
_atom_type_scat_source
C C 0.0033 0.0016 'International Tables Vol C Tables 4.2.6.8 and 6.1.1.4'
H H 0.0000 0.0000 'International Tables Vol C Tables 4.2.6.8 and 6.1.1.4'
N N 0.0061 0.0033 'International Tables Vol C Tables 4.2.6.8 and 6.1.1.4'
O O 0.0106 0.0060 'International Tables Vol C Tables 4.2.6.8 and 6.1.1.4'
F F 0.0171 0.0103 'International Tables Vol C Tables 4.2.6.8 and 6.1.1.4'
Re Re -1.0185 7.2310 'International Tables Vol C Tables 4.2.6.8 and 6.1.1.4'
loop_
_geom_angle_atom_site_label_1
_geom_angle_atom_site_label_2
_geom_angle_atom_site_label_3
_geom_angle
_geom_angle_site_symmetry_1
_geom_angle_site_symmetry_3
_geom_angle_publ_flag
O1 Re1 O1 111.0(7) . 2_575 ?
O1 Re1 O2 109.3(2) . 2_575 ?
O1 Re1 O2 109.3(2) 2_575 2_575 ?
O1 Re1 O2 109.3(2) . . ?
O1 Re1 O2 109.3(2) 2_575 . ?
O2 Re1 O2 108.6(6) 2_575 . ?
C2 N1 C2 38(2) . 4_655 ?
C2 N1 C2 127.3(18) . 3_565 ?
C2 N1 C2 145.2(16) 4_655 3_565 ?
C2 N1 C2 145.2(16) . 2_665 ?
C2 N1 C2 127.3(18) 4_655 2_665 ?
C2 N1 C2 38(2) 3_565 2_665 ?
C2 N1 C4 102.7(11) . 2_665 ?
C2 N1 C4 66.1(10) 4_655 2_665 ?
C2 N1 C4 102.7(11) 3_565 2_665 ?
C2 N1 C4 66.1(10) 2_665 2_665 ?
C2 N1 C4 66.1(10) . . ?
C2 N1 C4 102.7(11) 4_655 . ?
C2 N1 C4 66.1(10) 3_565 . ?
C2 N1 C4 102.7(11) 2_665 . ?
C4 N1 C4 143.9(15) 2_665 . ?
C1 C1 C5 68.2(8) 4_655 . ?
C1 C1 C2 87.4(16) 4_655 . ?
C5 C1 C2 111.1(14) . . ?
C1 C1 C3 129.9(7) 4_655 . ?
C5 C1 C3 64.3(9) . . ?
C2 C1 C3 95.2(16) . . ?
C1 C1 C2 57.0(6) 4_655 4_655 ?
C5 C1 C2 96.6(10) . 4_655 ?
C2 C1 C2 30.4(19) . 4_655 ?
C3 C1 C2 113.6(12) . 4_655 ?
C2 C2 N1 70.8(10) 4_655 . ?
C2 C2 C1 92.6(16) 4_655 . ?
N1 C2 C1 107.1(14) . . ?
C2 C2 C4 130.4(8) 4_655 . ?
N1 C2 C4 63.1(11) . . ?
C1 C2 C4 84.5(16) . . ?
C2 C2 C1 57.0(6) 4_655 4_655 ?
N1 C2 C1 93.2(12) . 4_655 ?
C1 C2 C1 35.6(16) . 4_655 ?
C4 C2 C1 107.4(12) . 4_655 ?
C4 C3 C1 87.0(12) . . ?
C4 C3 C1 87.0(12) . 3_565 ?
C1 C3 C1 100.0(13) . 3_565 ?
C4 C3 C5 105.1(15) . . ?
C1 C3 C5 52.8(7) . . ?
C1 C3 C5 52.8(7) 3_565 . ?
C3 C4 N1 108.8(15) . . ?
C3 C4 C2 93.3(12) . . ?
N1 C4 C2 50.8(9) . . ?
C3 C4 C2 93.3(12) . 3_565 ?
N1 C4 C2 50.8(9) . 3_565 ?
C2 C4 C2 98.9(17) . 3_565 ?
F1 C5 C1 111.0(7) . 3_565 ?
F1 C5 C1 111.0(7) . 4_655 ?
C1 C5 C1 137.9(14) 3_565 4_655 ?
F1 C5 C1 111.0(7) . 2_665 ?
C1 C5 C1 43.6(17) 3_565 2_665 ?
C1 C5 C1 117.8(16) 4_655 2_665 ?
F1 C5 C1 111.0(7) . . ?
C1 C5 C1 117.8(16) 3_565 . ?
C1 C5 C1 43.6(17) 4_655 . ?
C1 C5 C1 137.9(14) 2_665 . ?
F1 C5 C3 105.9(8) . . ?
C1 C5 C3 62.9(9) 3_565 . ?
C1 C5 C3 105.0(9) 4_655 . ?
C1 C5 C3 105.0(9) 2_665 . ?
C1 C5 C3 62.9(9) . . ?
F1 C5 C3 105.9(8) . 2_665 ?
C1 C5 C3 105.0(9) 3_565 2_665 ?
C1 C5 C3 62.9(9) 4_655 2_665 ?
C1 C5 C3 62.9(9) 2_665 2_665 ?
C1 C5 C3 105.0(9) . 2_665 ?
C3 C5 C3 148.2(15) . 2_665 ?
loop_
_geom_bond_atom_site_label_1
_geom_bond_atom_site_label_2
_geom_bond_distance
_geom_bond_site_symmetry_2
_geom_bond_publ_flag
F1 C5 1.388(16) . ?
Re1 O1 1.706(8) . ?
Re1 O1 1.706(8) 2_575 ?
Re1 O2 1.714(7) 2_575 ?
Re1 O2 1.714(7) . ?
N1 C2 1.415(18) . ?
N1 C2 1.415(18) 4_655 ?
N1 C2 1.415(18) 3_565 ?
N1 C2 1.415(18) 2_665 ?
N1 C4 1.63(2) 2_665 ?
N1 C4 1.63(2) . ?
C1 C1 1.07(4) 4_655 ?
C1 C5 1.440(14) . ?
C1 C2 1.541(13) . ?
C1 C3 1.610(19) . ?
C1 C2 1.836(15) 4_655 ?
C2 C2 0.93(5) 4_655 ?
C2 C4 1.67(2) . ?
C2 C1 1.836(15) 4_655 ?
C3 C4 1.530(16) . ?
C3 C1 1.610(19) 3_565 ?
C3 C5 1.629(16) . ?
C4 C2 1.67(2) 3_565 ?
C5 C1 1.440(14) 3_565 ?
C5 C1 1.440(14) 4_655 ?
C5 C1 1.440(14) 2_665 ?
C5 C3 1.629(16) 2_665 ?
loop_
_geom_torsion_atom_site_label_1
_geom_torsion_atom_site_label_2
_geom_torsion_atom_site_label_3
_geom_torsion_atom_site_label_4
_geom_torsion
_geom_torsion_site_symmetry_1
_geom_torsion_site_symmetry_2
_geom_torsion_site_symmetry_3
_geom_torsion_site_symmetry_4
_geom_torsion_publ_flag
C2 N1 C2 C2 -135(2) 3_565 . . 4_655 ?
C2 N1 C2 C2 -83.7(4) 2_665 . . 4_655 ?
C4 N1 C2 C2 -17.5(7) 2_665 . . 4_655 ?
C4 N1 C2 C2 -161.3(8) . . . 4_655 ?
C2 N1 C2 C1 87(2) 4_655 . . . ?
C2 N1 C2 C1 -48(4) 3_565 . . . ?
C2 N1 C2 C1 3.0(17) 2_665 . . . ?
C4 N1 C2 C1 69(2) 2_665 . . . ?
C4 N1 C2 C1 -74(2) . . . . ?
C2 N1 C2 C4 161.3(8) 4_655 . . . ?
C2 N1 C2 C4 27(2) 3_565 . . . ?
C2 N1 C2 C4 77.5(9) 2_665 . . . ?
C4 N1 C2 C4 143.7(15) 2_665 . . . ?
C2 N1 C2 C1 53.4(8) 4_655 . . 4_655 ?
C2 N1 C2 C1 -81(2) 3_565 . . 4_655 ?
C2 N1 C2 C1 -30.4(5) 2_665 . . 4_655 ?
C4 N1 C2 C1 35.8(10) 2_665 . . 4_655 ?
C4 N1 C2 C1 -107.9(11) . . . 4_655 ?
C1 C1 C2 C2 0.001(9) 4_655 . . 4_655 ?
C5 C1 C2 C2 65.4(15) . . . 4_655 ?
C3 C1 C2 C2 129.8(7) . . . 4_655 ?
C1 C1 C2 N1 -70.7(16) 4_655 . . . ?
C5 C1 C2 N1 -5(3) . . . . ?
C3 C1 C2 N1 59(2) . . . . ?
C2 C1 C2 N1 -70.7(16) 4_655 . . . ?
C1 C1 C2 C4 -130.4(8) 4_655 . . . ?
C5 C1 C2 C4 -65.0(18) . . . . ?
C3 C1 C2 C4 -0.6(13) . . . . ?
C2 C1 C2 C4 -130.4(8) 4_655 . . . ?
C5 C1 C2 C1 65.4(15) . . . 4_655 ?
C3 C1 C2 C1 129.8(7) . . . 4_655 ?
C2 C1 C2 C1 -0.001(18) 4_655 . . 4_655 ?
C1 C1 C3 C4 91.5(11) 4_655 . . . ?
C5 C1 C3 C4 111.6(11) . . . . ?
C2 C1 C3 C4 0.6(15) . . . . ?
C2 C1 C3 C4 25.7(14) 4_655 . . . ?
C1 C1 C3 C1 5.1(18) 4_655 . . 3_565 ?
C5 C1 C3 C1 25.2(13) . . . 3_565 ?
C2 C1 C3 C1 -85.8(18) . . . 3_565 ?
C2 C1 C3 C1 -60.7(15) 4_655 . . 3_565 ?
C1 C1 C3 C5 -20.1(10) 4_655 . . . ?
C2 C1 C3 C5 -111.0(16) . . . . ?
C2 C1 C3 C5 -85.9(11) 4_655 . . . ?
C1 C3 C4 N1 -50.1(6) . . . . ?
C1 C3 C4 N1 50.1(6) 3_565 . . . ?
C5 C3 C4 N1 0.000(4) . . . . ?
C1 C3 C4 C2 -0.6(13) . . . . ?
C1 C3 C4 C2 99.6(7) 3_565 . . . ?
C5 C3 C4 C2 49.5(9) . . . . ?
C1 C3 C4 C2 -99.6(8) . . . 3_565 ?
C1 C3 C4 C2 0.6(14) 3_565 . . 3_565 ?
C5 C3 C4 C2 -49.5(9) . . . 3_565 ?
C2 N1 C4 C3 78.5(9) . . . . ?
C2 N1 C4 C3 66.7(9) 4_655 . . . ?
C2 N1 C4 C3 -78.5(9) 3_565 . . . ?
C2 N1 C4 C3 -66.7(9) 2_665 . . . ?
C4 N1 C4 C3 0.000(10) 2_665 . . . ?
C2 N1 C4 C2 -11.8(8) 4_655 . . . ?
C2 N1 C4 C2 -157.0(18) 3_565 . . . ?
C2 N1 C4 C2 -145.2(16) 2_665 . . . ?
C4 N1 C4 C2 -78.5(9) 2_665 . . . ?
C2 N1 C4 C2 157.0(18) . . . 3_565 ?
C2 N1 C4 C2 145.2(16) 4_655 . . 3_565 ?
C2 N1 C4 C2 11.8(8) 2_665 . . 3_565 ?
C4 N1 C4 C2 78.5(9) 2_665 . . 3_565 ?
C2 C2 C4 C3 -88.2(13) 4_655 . . . ?
N1 C2 C4 C3 -111.7(12) . . . . ?
C1 C2 C4 C3 0.6(14) . . . . ?
C1 C2 C4 C3 -27.1(14) 4_655 . . . ?
C2 C2 C4 N1 23.5(11) 4_655 . . . ?
C1 C2 C4 N1 112.3(16) . . . . ?
C1 C2 C4 N1 84.6(12) 4_655 . . . ?
C2 C2 C4 C2 5.6(19) 4_655 . . 3_565 ?
N1 C2 C4 C2 -17.9(14) . . . 3_565 ?
C1 C2 C4 C2 94.4(16) . . . 3_565 ?
C1 C2 C4 C2 66.7(16) 4_655 . . 3_565 ?
C1 C1 C5 F1 -98.9(5) 4_655 . . . ?
C2 C1 C5 F1 -176.9(17) . . . . ?
C3 C1 C5 F1 97.6(9) . . . . ?
C2 C1 C5 F1 -149.3(6) 4_655 . . . ?
C1 C1 C5 C1 131.6(15) 4_655 . . 3_565 ?
C2 C1 C5 C1 54(3) . . . 3_565 ?
C3 C1 C5 C1 -32.0(17) . . . 3_565 ?
C2 C1 C5 C1 81.1(16) 4_655 . . 3_565 ?
C2 C1 C5 C1 -78(2) . . . 4_655 ?
C3 C1 C5 C1 -163.5(8) . . . 4_655 ?
C2 C1 C5 C1 -50.5(8) 4_655 . . 4_655 ?
C1 C1 C5 C1 81.1(5) 4_655 . . 2_665 ?
C2 C1 C5 C1 3.1(17) . . . 2_665 ?
C3 C1 C5 C1 -82.4(9) . . . 2_665 ?
C2 C1 C5 C1 30.7(6) 4_655 . . 2_665 ?
C1 C1 C5 C3 163.5(8) 4_655 . . . ?
C2 C1 C5 C3 86(2) . . . . ?
C2 C1 C5 C3 113.1(12) 4_655 . . . ?
C1 C1 C5 C3 15.1(7) 4_655 . . 2_665 ?
C2 C1 C5 C3 -63(2) . . . 2_665 ?
C3 C1 C5 C3 -148.4(15) . . . 2_665 ?
C2 C1 C5 C3 -35.3(11) 4_655 . . 2_665 ?
C4 C3 C5 F1 180.000(4) . . . . ?
C1 C3 C5 F1 -105.9(8) . . . . ?
C1 C3 C5 F1 105.9(8) 3_565 . . . ?
C4 C3 C5 C1 74.1(8) . . . 3_565 ?
C1 C3 C5 C1 148.2(16) . . . 3_565 ?
C4 C3 C5 C1 -62.4(8) . . . 4_655 ?
C1 C3 C5 C1 11.7(7) . . . 4_655 ?
C1 C3 C5 C1 -136.6(14) 3_565 . . 4_655 ?
C4 C3 C5 C1 62.4(8) . . . 2_665 ?
C1 C3 C5 C1 136.6(14) . . . 2_665 ?
C1 C3 C5 C1 -11.7(7) 3_565 . . 2_665 ?
C4 C3 C5 C1 -74.1(8) . . . . ?
C1 C3 C5 C1 -148.2(16) 3_565 . . . ?
C4 C3 C5 C3 0.000(7) . . . 2_665 ?
C1 C3 C5 C3 74.1(8) . . . 2_665 ?
C1 C3 C5 C3 -74.1(8) 3_565 . . 2_665 ?
