#------------------------------------------------------------------------------
#$Date: 2021-02-04 02:28:33 +0200 (Thu, 04 Feb 2021) $
#$Revision: 261435 $
#$URL: file:///home/coder/svn-repositories/cod/cif/4/13/55/4135556.cif $
#------------------------------------------------------------------------------
#
# This file is available in the Crystallography Open Database (COD),
# http://www.crystallography.net/
#
# All data on this site have been placed in the public domain by the
# contributors.
#
data_4135556
loop_
_publ_author_name
'Zheng, Yin'
'Qin, Tianzhu'
'Zi, Weiwei'
_publ_section_title
;
 Enantioselective Inverse Electron Demand (3 + 2) Cycloaddition of
 Palladium-Oxyallyl Enabled by a Hydrogen-Bond-Donating Ligand.
;
_journal_issue                   2
_journal_name_full               'Journal of the American Chemical Society'
_journal_page_first              1038
_journal_page_last               1045
_journal_paper_doi               10.1021/jacs.0c11504
_journal_volume                  143
_journal_year                    2021
_chemical_absolute_configuration rm
_chemical_formula_moiety         'C19 H16 F N O3'
_chemical_formula_sum            'C19 H16 F N O3'
_chemical_formula_weight         325.33
_space_group_crystal_system      monoclinic
_space_group_IT_number           4
_space_group_name_Hall           'P 2yb'
_space_group_name_H-M_alt        'P 1 21 1'
_atom_sites_solution_hydrogens   geom
_atom_sites_solution_primary     dual
_audit_creation_date             2019-12-11
_audit_creation_method
;
Olex2 1.3
(compiled 2019.09.11 svn.r3662 for OlexSys, GUI svn.r5935)
;
_cell_angle_alpha                90
_cell_angle_beta                 105.9668(7)
_cell_angle_gamma                90
_cell_formula_units_Z            2
_cell_length_a                   10.38073(7)
_cell_length_b                   6.43018(5)
_cell_length_c                   12.80016(10)
_cell_measurement_reflns_used    8437
_cell_measurement_temperature    291.15
_cell_measurement_theta_max      78.7040
_cell_measurement_theta_min      3.6000
_cell_volume                     821.448(11)
_computing_cell_refinement       'CrysAlisPro 1.171.39.46 (Rigaku OD, 2018)'
_computing_data_collection       'CrysAlisPro 1.171.39.46 (Rigaku OD, 2018)'
_computing_data_reduction        'CrysAlisPro 1.171.39.46 (Rigaku OD, 2018)'
_computing_molecular_graphics    'Olex2 1.3 (Dolomanov et al., 2009)'
_computing_publication_material  'Olex2 1.3 (Dolomanov et al., 2009)'
_computing_structure_refinement  'ShelXL 2018/3 (Sheldrick, 2015)'
_computing_structure_solution    'SHELXT 2018/2 (Sheldrick, 2018)'
_diffrn_ambient_temperature      291.15
_diffrn_detector                 PILT
_diffrn_measured_fraction_theta_full 1.000
_diffrn_measured_fraction_theta_max 0.985
_diffrn_measurement_details
;
List of Runs (angles in degrees, time in seconds):

  # Type    Start    End  Width  t~exp~   \w     \q     \k     \f   Frames
--------------------------------------------------------------------------
  1  \w   -140.00 -17.00   0.50    0.50    --  -50.10 -72.00  90.00  246
  2  \w    -80.00  39.00   0.50    0.50    --  -50.10  57.00 -90.00  238
  3  \w    -80.00  39.00   0.50    0.50    --  -50.10  57.00  90.00  238
  4  \w   -143.00 -21.00   0.50    2.00    -- -110.00  72.00-120.00  244
  5  \w   -143.00 -21.00   0.50    2.00    -- -110.00  72.00  60.00  244
  6  \w   -141.00 -21.00   0.50    2.00    -- -110.00  38.00 -90.00  240
  7  \w   -143.00 -21.00   0.50    2.00    -- -110.00  72.00-150.00  244
  8  \w   -199.00 -81.00   0.50    2.00    -- -110.00 -57.00 -90.00  236
  9  \w   -199.00 -81.00   0.50    2.00    -- -110.00 -57.00 120.00  236
 10  \w   -141.00 -21.00   0.50    2.00    -- -110.00  38.00 -60.00  240
 11  \w   -199.00 -79.00   0.50    2.00    -- -110.00 -38.00   0.00  240
 12  \w    -26.00  94.00   0.50    0.50    --    5.00  38.00-150.00  240
 13  \w    -24.00  94.00   0.50    0.50    --    5.00  57.00   0.00  236
 14  \w   -140.00 -17.00   0.50    0.50    --  -50.10 -72.00 -30.00  246
 15  \w   -199.00-155.00   0.50    2.00    -- -110.00 -19.00  90.00   88
 16  \w   -199.00 -59.00   0.50    2.00    -- -110.00 -19.00 -90.00  280
 17  \w   -199.00 -79.00   0.50    2.00    -- -110.00 -38.00-180.00  240
;
_diffrn_measurement_device       'four-circle diffractometer'
_diffrn_measurement_device_type  'XtaLAB AFC12 (RCD3): Kappa single'
_diffrn_measurement_method       '\w scans'
_diffrn_orient_matrix_type
'CrysAlisPro convention (1999,Acta A55,543-557)'
_diffrn_orient_matrix_UB_11      0.0251564000
_diffrn_orient_matrix_UB_12      0.2173443000
_diffrn_orient_matrix_UB_13      -0.0410888000
_diffrn_orient_matrix_UB_21      -0.1504318000
_diffrn_orient_matrix_UB_22      0.0208656000
_diffrn_orient_matrix_UB_23      -0.0583413000
_diffrn_orient_matrix_UB_31      -0.0235374000
_diffrn_orient_matrix_UB_32      0.0987617000
_diffrn_orient_matrix_UB_33      0.1028681000
_diffrn_radiation_monochromator  mirror
_diffrn_radiation_probe          x-ray
_diffrn_radiation_type           'Cu K\a'
_diffrn_radiation_wavelength     1.54184
_diffrn_reflns_av_R_equivalents  0.0206
_diffrn_reflns_av_unetI/netI     0.0177
_diffrn_reflns_Laue_measured_fraction_full 1.000
_diffrn_reflns_Laue_measured_fraction_max 0.985
_diffrn_reflns_limit_h_max       13
_diffrn_reflns_limit_h_min       -12
_diffrn_reflns_limit_k_max       7
_diffrn_reflns_limit_k_min       -8
_diffrn_reflns_limit_l_max       16
_diffrn_reflns_limit_l_min       -14
_diffrn_reflns_number            10938
_diffrn_reflns_point_group_measured_fraction_full 0.971
_diffrn_reflns_point_group_measured_fraction_max 0.934
_diffrn_reflns_theta_full        67.684
_diffrn_reflns_theta_max         79.211
_diffrn_reflns_theta_min         3.592
_diffrn_source                   'Rotating-anode X-ray tube'
_diffrn_source_type              'Rigaku (Cu) X-ray Source'
_exptl_absorpt_coefficient_mu    0.804
_exptl_absorpt_correction_T_max  1.00000
_exptl_absorpt_correction_T_min  0.05790
_exptl_absorpt_correction_type   multi-scan
_exptl_absorpt_process_details
;
CrysAlisPro 1.171.39.46 (Rigaku Oxford Diffraction, 2018)
Empirical absorption correction using spherical harmonics,
 implemented in SCALE3 ABSPACK scaling algorithm.
;
_exptl_crystal_colour            colourless
_exptl_crystal_colour_primary    colourless
_exptl_crystal_density_diffrn    1.315
_exptl_crystal_description       block
_exptl_crystal_F_000             340
_exptl_crystal_size_max          0.2
_exptl_crystal_size_mid          0.18
_exptl_crystal_size_min          0.14
_refine_diff_density_max         0.212
_refine_diff_density_min         -0.127
_refine_diff_density_rms         0.028
_refine_ls_abs_structure_details
;
 Flack x determined using 1323 quotients [(I+)-(I-)]/[(I+)+(I-)]
 (Parsons, Flack and Wagner, Acta Cryst. B69 (2013) 249-259).
;
_refine_ls_abs_structure_Flack   -0.01(6)
_refine_ls_extinction_coef       0.0044(13)
_refine_ls_extinction_expression Fc^*^=kFc[1+0.001xFc^2^\l^3^/sin(2\q)]^-1/4^
_refine_ls_extinction_method     'SHELXL-2018/3 (Sheldrick 2018)'
_refine_ls_goodness_of_fit_ref   1.044
_refine_ls_hydrogen_treatment    constr
_refine_ls_matrix_type           full
_refine_ls_number_parameters     218
_refine_ls_number_reflns         3331
_refine_ls_number_restraints     1
_refine_ls_restrained_S_all      1.044
_refine_ls_R_factor_all          0.0358
_refine_ls_R_factor_gt           0.0351
_refine_ls_shift/su_max          0.000
_refine_ls_shift/su_mean         0.000
_refine_ls_structure_factor_coef Fsqd
_refine_ls_weighting_details
'w=1/[\s^2^(Fo^2^)+(0.0562P)^2^+0.0958P] where P=(Fo^2^+2Fc^2^)/3'
_refine_ls_weighting_scheme      calc
_refine_ls_wR_factor_gt          0.0995
_refine_ls_wR_factor_ref         0.1003
_reflns_Friedel_coverage         0.739
_reflns_Friedel_fraction_full    0.936
_reflns_Friedel_fraction_max     0.873
_reflns_number_gt                3241
_reflns_number_total             3331
_reflns_threshold_expression     'I > 2\s(I)'
_cod_data_source_file            ja0c11504_si_002.cif
_cod_data_source_block           p20191211b
_cod_database_code               4135556
_shelx_shelxl_version_number     2018/3
_chemical_oxdiff_formula         C19H16NO3F
_shelx_space_group_comment
;
The symmetry employed for this shelxl refinement is uniquely defined
by the following loop, which should always be used as a source of
symmetry information in preference to the above space-group names.
They are only intended as comments.
;
_reflns_odcompleteness_completeness 100.00
_reflns_odcompleteness_iscentric 1
_reflns_odcompleteness_theta     74.33
_olex2_refinement_description
;
1. Fixed Uiso
 At 1.2 times of:
  All C(H) groups, All C(H,H) groups
2.a Ternary CH refined with riding coordinates:
 C3(H3), C4(H4)
2.b Secondary CH2 refined with riding coordinates:
 C5(H5A,H5B)
2.c Aromatic/amide H refined with riding coordinates:
 C6(H6), C9(H9), C10(H10), C11(H11), C12(H12), C13(H13), C16(H16), C17(H17),
 C18(H18), C19(H19)
2.d X=CH2 refined with riding coordinates:
 C7(H7A,H7B)
;
_shelx_res_file
;
TITL p20191211b_a.res in P2(1)
    p20191211b.res
    created by SHELXL-2018/3 at 13:44:55 on 11-Dec-2019
REM Old TITL P20191211b in P2(1)
REM SHELXT solution in P2(1): R1 0.147, Rweak 0.050, Alpha 0.004
REM <I/s> 0.980 for 4 systematic absences, Orientation as input
REM Flack x = 0.160 ( 0.067 ) from 1323 Parsons' quotients
REM Formula found by SHELXT: C18 N O5
CELL 1.54184 10.380727 6.430181 12.800163 90 105.9668 90
ZERR 2 0.000072 0.000045 0.0001 0 0.0007 0
LATT -1
SYMM -X,0.5+Y,-Z
SFAC C H F N O
UNIT 38 32 2 2 6

L.S. 5
PLAN  5
TEMP 18
CONF
BOND $h
htab
fmap 2 53
acta
REM <olex2.extras>
REM <HklSrc "%.\\P20191211b.hkl">
REM </olex2.extras>

WGHT    0.056200    0.095800
EXTI    0.004438
FVAR       1.43264
F1    3    0.401150    0.877435    0.475961    11.00000    0.09722    0.06750 =
         0.07276   -0.01127    0.01673   -0.01877
O1    5    0.251505    0.122630    0.155298    11.00000    0.09636    0.04429 =
         0.08550   -0.01536    0.03406   -0.00546
O2    5    0.033299    0.458316    0.222597    11.00000    0.04920    0.09092 =
         0.07103   -0.00806    0.02323   -0.02003
O3    5    0.033376    0.791298    0.243109    11.00000    0.06675    0.09184 =
         0.10297   -0.00086    0.03759    0.03240
N1    4    0.088908    0.626954    0.236054    11.00000    0.04207    0.06874 =
         0.04561    0.00134    0.01765    0.00735
C1    1    0.271092    0.279664    0.207782    11.00000    0.05174    0.04082 =
         0.05927   -0.00352    0.02179   -0.00146
C2    1    0.272285    0.499641    0.161749    11.00000    0.03720    0.04256 =
         0.04337   -0.00198    0.01454    0.00057
C3    1    0.237509    0.631928    0.250199    11.00000    0.03619    0.04012 =
         0.04382   -0.00091    0.01386   -0.00046
AFIX  13
H3    2    0.269796    0.774971    0.249376    11.00000   -1.20000
AFIX   0
C4    1    0.308562    0.520942    0.358260    11.00000    0.04361    0.04678 =
         0.04354    0.00206    0.01225    0.00083
AFIX  13
H4    2    0.403298    0.560368    0.375746    11.00000   -1.20000
AFIX   0
C5    1    0.301446    0.289897    0.329724    11.00000    0.07289    0.04550 =
         0.06117    0.00940    0.02296    0.00463
AFIX  23
H5A   2    0.386076    0.222141    0.363770    11.00000   -1.20000
H5B   2    0.231335    0.222164    0.354041    11.00000   -1.20000
AFIX   0
C6    1    0.179896    0.516730    0.048528    11.00000    0.04513    0.06797 =
         0.04556   -0.00439    0.01298   -0.00066
AFIX  43
H6    2    0.161214    0.394313    0.008516    11.00000   -1.20000
AFIX   0
C7    1    0.124111    0.683762    0.001478    11.00000    0.06260    0.07487 =
         0.05778    0.00286    0.01205    0.00416
AFIX  93
H7A   2    0.139630    0.810196    0.038080    11.00000   -1.20000
H7B   2    0.068323    0.677903   -0.069089    11.00000   -1.20000
AFIX   0
C8    1    0.418475    0.541340    0.158481    11.00000    0.03678    0.05851 =
         0.04203    0.00575    0.01321    0.00335
C9    1    0.484224    0.390865    0.115200    11.00000    0.05318    0.09352 =
         0.05732   -0.01050    0.02424    0.00904
AFIX  43
H9    2    0.441717    0.265171    0.091810    11.00000   -1.20000
AFIX   0
C10   1    0.611699    0.424958    0.106355    11.00000    0.05623    0.13598 =
         0.06790    0.00450    0.03333    0.02381
AFIX  43
H10   2    0.654326    0.322061    0.077106    11.00000   -1.20000
AFIX   0
C11   1    0.675933    0.607248    0.139878    11.00000    0.04081    0.14629 =
         0.07388    0.04195    0.02576    0.01088
AFIX  43
H11   2    0.762175    0.628989    0.133859    11.00000   -1.20000
AFIX   0
C12   1    0.613030    0.758170    0.182428    11.00000    0.05161    0.09106 =
         0.10012    0.02790    0.01852   -0.01840
AFIX  43
H12   2    0.656936    0.883051    0.205314    11.00000   -1.20000
AFIX   0
C13   1    0.483198    0.727645    0.192130    11.00000    0.04738    0.05982 =
         0.08618    0.01221    0.02362   -0.00365
AFIX  43
H13   2    0.440925    0.831676    0.220927    11.00000   -1.20000
AFIX   0
C14   1    0.259242    0.585712    0.454156    11.00000    0.04818    0.06580 =
         0.03943    0.00211    0.00967    0.00427
C15   1    0.307298    0.766820    0.509453    11.00000    0.06271    0.07196 =
         0.04547   -0.00188    0.00628    0.00997
C16   1    0.267879    0.839701    0.596677    11.00000    0.09389    0.10983 =
         0.05407   -0.02296    0.00910    0.01914
AFIX  43
H16   2    0.303756    0.961642    0.631955    11.00000   -1.20000
AFIX   0
C17   1    0.174210    0.727874    0.630363    11.00000    0.08104    0.16306 =
         0.05049   -0.01647    0.01993    0.02553
AFIX  43
H17   2    0.145175    0.774961    0.688745    11.00000   -1.20000
AFIX   0
C18   1    0.123096    0.547238    0.578601    11.00000    0.07458    0.17026 =
         0.06361    0.00817    0.03453   -0.00345
AFIX  43
H18   2    0.060268    0.471478    0.602409    11.00000   -1.20000
AFIX   0
C19   1    0.164829    0.477107    0.490790    11.00000    0.06837    0.10392 =
         0.05744   -0.00130    0.02645   -0.01294
AFIX  43
H19   2    0.128813    0.354957    0.455831    11.00000   -1.20000
AFIX   0
HKLF 4




REM  p20191211b_a.res in P2(1)
REM wR2 = 0.1003, GooF = S = 1.044, Restrained GooF = 1.044 for all data
REM R1 = 0.0351 for 3241 Fo > 4sig(Fo) and 0.0358 for all 3331 data
REM 218 parameters refined using 1 restraints

END

WGHT      0.0562      0.0939

REM Instructions for potential hydrogen bonds
EQIV $1 x, y+1, z
HTAB C3 O1_$1
EQIV $2 x, y-1, z
HTAB C5 F1_$2

REM Highest difference peak  0.212,  deepest hole -0.127,  1-sigma level  0.028
Q1    1   0.1206  0.5190 -0.0331  11.00000  0.05    0.21
Q2    1   0.1962  0.6429  0.0598  11.00000  0.05    0.16
Q3    1   0.3168  0.8903  0.4707  11.00000  0.05    0.14
Q4    1   0.2415  0.7574  0.4801  11.00000  0.05    0.13
Q5    1   0.3330  0.5252  0.1604  11.00000  0.05    0.13
;
_shelx_res_checksum              29688
_shelx_hkl_file
;
   0  -8   0   45.12    1.27
   0  -8   0   42.11    1.22
   0  -8   1    0.75    0.19
   0  -8   2    4.77    0.30
   0  -8   3   16.20    0.57
   0  -7   0    0.15    0.47
   0  -7   1    0.62    0.52
   0  -7  -1    0.80    0.41
   0  -7  -2    7.16    0.56
   0  -7   2    7.10    0.73
   0  -7   4    4.82    0.60
   0  -7   5   27.69    1.12
   0  -7   6    3.26    0.38
   0  -7   7   11.37    0.47
   0  -6   0   40.77    1.78
   0  -6   0   42.53    3.11
   0  -6  -1   11.98    0.94
   0  -6   1   12.67    1.05
   0  -6  -1   13.07    1.93
   0  -6  -2  171.86    7.32
   0  -6  -2  168.06    4.85
   0  -6   2  164.80    5.01
   0  -6   3   37.72    1.74
   0  -6  -3   39.61    1.51
   0  -6  -3   36.97    3.15
   0  -6   4   40.81    1.73
   0  -6  -4   41.12    3.31
   0  -6   5    3.98    0.70
   0  -6   6   11.01    0.67
   0  -6   6   11.80    0.83
   0  -6   7   10.43    0.59
   0  -6   7   10.51    0.63
   0  -6   7   10.87    0.69
   0  -6   8    8.13    0.49
   0  -6   8    7.54    0.51
   0  -6   8    7.79    0.49
   0  -6   8    7.69    0.51
   0  -6   9   11.70    0.54
   0  -6   9   12.88    0.57
   0  -6  10    5.28    0.29
   0  -5   0    0.02    0.57
   0  -5   0    0.68    1.11
   0  -5   1   47.12    3.05
   0  -5  -1   46.35    1.90
   0  -5   1   48.52    2.00
   0  -5  -1   52.01    3.49
   0  -5  -2   31.22    1.43
   0  -5  -2   34.62    2.98
   0  -5  -3  111.24    5.69
   0  -5  -3  109.03    3.37
   0  -5   3  110.40    3.34
   0  -5   3  113.11    3.59
   0  -5   4   20.63    1.08
   0  -5   4   23.09    1.27
   0  -5   4   23.02    1.06
   0  -5  -5  260.57    9.87
   0  -5   5  250.95    6.79
   0  -5   5  245.67    6.95
   0  -5   5  250.86    6.75
   0  -5   5  244.88    6.86
   0  -5   6   16.48    0.95
   0  -5   6   16.16    1.00
   0  -5   6   15.70    0.99
   0  -5  -6   17.02    2.26
   0  -5   6   16.16    0.93
   0  -5   7  195.77    5.44
   0  -5  -7  191.80    7.99
   0  -5   7  191.95    5.52
   0  -5   7  190.50    5.40
   0  -5   7  195.54    5.45
   0  -5   8   77.46    2.53
   0  -5   8   77.84    2.56
   0  -5   9    1.33    0.45
   0  -5   9    1.71    0.46
   0  -5   9    1.78    0.57
   0  -5  10   20.44    1.04
   0  -5  10   23.37    1.04
   0  -5  10   22.49    1.01
   0  -5  11    2.40    0.38
   0  -5  11    2.85    0.40
   0  -5  11    1.94    0.40
   0  -5  12   10.01    0.46
   0  -5  12    8.72    0.46
   0  -5  12    9.52    0.45
   0  -4   0  260.32    8.64
   0  -4  -1  141.73    5.61
   0  -4   1  134.33    5.25
   0  -4  -2   78.06    3.96
   0  -4   2   70.27    3.34
   0  -4   3   51.71    1.91
   0  -4   3   47.61    1.70
   0  -4   4   30.93    1.23
   0  -4   4   30.77    1.41
   0  -4  -4   30.95    2.64
   0  -4   4   29.81    1.28
   0  -4   4   32.58    1.26
   0  -4  -5   85.72    4.55
   0  -4   5   81.91    2.56
   0  -4   5   78.74    3.39
   0  -4   5   77.62    2.54
   0  -4   5   78.67    2.61
   0  -4   5   83.35    2.69
   0  -4   6  138.13    4.11
   0  -4   6  139.76    4.09
   0  -4  -6  142.72    6.36
   0  -4   6  135.56    5.15
   0  -4   6  137.85    4.07
   0  -4   7  133.83    4.17
   0  -4   7  138.59    4.10
   0  -4  -7  150.14    6.61
   0  -4   7  142.78    5.49
   0  -4   7  144.74    4.22
   0  -4   7  141.91    4.09
   0  -4   7  144.70    4.21
   0  -4   8   81.96    2.69
   0  -4   8   78.91    2.56
   0  -4   8   79.74    2.66
   0  -4  -8   76.32    4.34
   0  -4   8   76.56    2.61
   0  -4   8   75.49    2.53
   0  -4   8   79.76    3.86
   0  -4   9   42.73    1.72
   0  -4   9   47.83    1.77
   0  -4   9   44.38    2.78
   0  -4   9   46.20    1.81
   0  -4   9   44.19    1.70
   0  -4   9   47.29    1.86
   0  -4  10   27.99    1.44
   0  -4  10   30.12    1.39
   0  -4  10   28.46    1.25
   0  -4  10   30.42    1.36
   0  -4  10   28.55    1.26
   0  -4  11    7.36    0.76
   0  -4  11    7.42    0.62
   0  -4  12    0.82    0.33
   0  -4  13    8.79    0.48
   0  -4  13    7.39    0.39
   0  -4  13    8.74    0.50
   0  -3   0   -0.17    0.68
   0  -3   0    0.65    0.40
   0  -3   0   -0.11    0.39
   0  -3   0    0.11    0.34
   0  -3  -1  183.00    5.61
   0  -3   1  189.02    5.79
   0  -3  -1  194.27    6.28
   0  -3   1  195.17    5.39
   0  -3  -1  185.41    5.96
   0  -3   1  195.87    6.08
   0  -3   1  178.72    5.92
   0  -3   1  183.44    6.05
   0  -3   2 1134.09   30.55
   0  -3  -2 1110.08   29.58
   0  -3  -2 1183.88   30.84
   0  -3   2 1167.90   30.76
   0  -3  -2 1201.33   30.53
   0  -3   2 1188.89   29.79
   0  -3  -3  127.26    4.64
   0  -3   3  125.22    4.17
   0  -3   3  128.49    4.23
   0  -3   3  127.68    4.87
   0  -3  -4   38.46    2.23
   0  -3   4   36.83    1.98
   0  -3   4   43.59    2.61
   0  -3  -4   40.71    2.50
   0  -3   5  123.28    5.29
   0  -3  -5  120.52    4.81
   0  -3  -5  125.32    5.09
   0  -3   5  119.91    4.50
   0  -3   6   22.18    2.29
   0  -3   6   20.45    1.01
   0  -3   6   21.02    1.04
   0  -3   6   21.28    1.77
   0  -3  -6   26.52    2.25
   0  -3   6   20.23    1.01
   0  -3   6   22.04    1.06
   0  -3   7  223.05    6.09
   0  -3   7  213.90    6.06
   0  -3   7  221.74    7.63
   0  -3   7  212.97    6.11
   0  -3   7  222.14    6.10
   0  -3  -7  236.68    8.25
   0  -3   7  222.70    6.10
   0  -3  -8   64.64    3.66
   0  -3   8   65.08    2.24
   0  -3   8   65.25    2.21
   0  -3   8   56.52    2.20
   0  -3   8   64.83    2.26
   0  -3   8   62.03    2.23
   0  -3   8   65.10    3.49
   0  -3   9  235.97    6.59
   0  -3   9  238.47    6.62
   0  -3   9  239.73    8.43
   0  -3   9  235.97    6.52
   0  -3  10   89.58    2.86
   0  -3  10   92.64    2.94
   0  -3  10   89.90    2.95
   0  -3  10   94.40    2.98
   0  -3  10   86.72    2.95
   0  -3  10   93.20    4.43
   0  -3  11    1.65    0.43
   0  -3  11    1.76    0.56
   0  -3  11    1.47    0.67
   0  -3  11    2.41    0.60
   0  -3  11    1.25    0.59
   0  -3  11    1.33    0.53
   0  -3  12   22.66    1.11
   0  -3  12   23.41    1.21
   0  -3  12   20.97    1.10
   0  -3  12   22.96    1.09
   0  -3  13   11.38    0.73
   0  -3  13   12.76    0.72
   0  -3  13   12.50    0.69
   0  -3  13   13.59    0.79
   0  -3  14    4.27    0.36
   0  -3  14    4.33    0.39
   0  -3  14    4.37    0.34
   0  -3  14    4.32    0.32
   0  -2   0   65.09    2.30
   0  -2   0   66.88    2.41
   0  -2   0   72.52    2.57
   0  -2   0   67.24    2.43
   0  -2   1  849.99   21.49
   0  -2  -1  782.91   20.77
   0  -2  -1  850.69   21.41
   0  -2   1  822.41   20.95
   0  -2   1  770.13   21.56
   0  -2  -1  847.27   21.12
   0  -2  -1  885.69   21.60
   0  -2   1  916.17   21.44
   0  -2   2 1345.77   35.86
   0  -2  -2 1422.29   35.65
   0  -2   2 1364.88   35.32
   0  -2  -2 1365.12   34.92
   0  -2   2 1496.33   35.39
   0  -2   2 1458.28   35.97
   0  -2  -3  220.79    6.25
   0  -2   3  231.36    6.87
   0  -2  -3  234.91    7.13
   0  -2   3  239.65    6.47
   0  -2  -4  584.93   16.59
   0  -2   4  598.64   16.47
   0  -2   4  659.04   17.29
   0  -2   4  645.00   16.99
   0  -2  -4  604.34   16.51
   0  -2   5  519.38   14.53
   0  -2   5  514.33   14.85
   0  -2  -5  513.28   14.50
   0  -2  -5  506.06   14.51
   0  -2  -6   39.95    2.32
   0  -2  -6   38.24    2.29
   0  -2   6   44.01    2.90
   0  -2   6   41.34    2.43
   0  -2   7  442.66   12.87
   0  -2   7  428.17   11.15
   0  -2  -7  436.91   12.59
   0  -2   7  417.82   11.14
   0  -2   7  424.56   11.12
   0  -2   8    8.65    0.73
   0  -2   8    7.70    0.76
   0  -2   8    8.49    1.51
   0  -2   8    9.44    0.89
   0  -2   8    8.32    0.68
   0  -2   8    8.35    0.70
   0  -2   9   23.09    1.19
   0  -2   9   23.26    1.11
   0  -2   9   21.98    1.22
   0  -2   9   24.56    2.22
   0  -2   9   23.15    1.17
   0  -2   9   22.82    1.31
   0  -2  10  431.54   11.22
   0  -2  10  425.06   10.95
   0  -2  10  408.12   11.07
   0  -2  10  408.09   11.08
   0  -2  10  415.33   13.18
   0  -2  11   17.88    1.03
   0  -2  11   16.25    1.13
   0  -2  11   17.03    0.99
   0  -2  11   17.01    1.10
   0  -2  12   10.85    0.94
   0  -2  12   12.75    0.84
   0  -2  12   11.96    0.92
   0  -2  12   13.06    0.83
   0  -2  12   12.21    0.90
   0  -2  13   35.26    1.34
   0  -2  13   36.19    1.38
   0  -2  13   37.26    1.46
   0  -2  13   36.71    1.43
   0  -2  14    1.94    0.32
   0  -2  14    2.01    0.38
   0  -2  14    2.18    0.31
   0  -1   0    0.04    0.27
   0  -1   0    0.46    0.24
   0  -1   0    0.12    0.11
   0  -1   1 7652.52  184.58
   0  -1  -1 7435.03  184.06
   0  -1  -1 7394.46  184.07
   0  -1   1 7575.73  184.24
   0  -1  -1 7238.72  184.36
   0  -1   2 2758.00   72.64
   0  -1   2 2972.87   72.08
   0  -1   2 2825.83   72.55
   0  -1  -2 2879.99   72.46
   0  -1   2 2980.33   72.85
   0  -1   3 3356.98   82.39
   0  -1  -3 3323.08   82.14
   0  -1  -3 3185.45   82.11
   0  -1   3 3340.74   82.41
   0  -1  -4  853.89   21.86
   0  -1   4  813.13   22.17
   0  -1   4  882.00   22.10
   0  -1  -4  828.06   21.74
   0  -1   5 1538.77   40.55
   0  -1   5 1640.48   40.10
   0  -1  -5 1531.83   39.65
   0  -1  -5 1549.75   39.91
   0  -1   6   81.72    3.25
   0  -1  -6   80.45    3.30
   0  -1   6   87.75    3.90
   0  -1  -6   79.72    3.01
   0  -1   7   49.95    2.97
   0  -1  -7   60.99    2.89
   0  -1   8   51.39    1.87
   0  -1   8   50.85    3.06
   0  -1   8   45.31    1.72
   0  -1   8   46.67    1.90
   0  -1   8   51.49    1.81
   0  -1   9  275.43    7.53
   0  -1   9  276.06    9.37
   0  -1   9  260.03    7.33
   0  -1   9  278.53    7.48
   0  -1   9  271.94    7.39
   0  -1  10   27.89    1.39
   0  -1  10   26.47    1.29
   0  -1  10   30.64    2.55
   0  -1  10   29.86    1.49
   0  -1  10   29.00    1.33
   0  -1  10   28.45    1.40
   0  -1  11   54.87    2.08
   0  -1  11   55.88    1.99
   0  -1  11   54.74    2.08
   0  -1  11   57.89    2.19
   0  -1  11   56.39    3.44
   0  -1  11   54.23    2.00
   0  -1  12    4.42    0.56
   0  -1  12    4.75    0.66
   0  -1  12    4.37    1.07
   0  -1  12    4.01    0.66
   0  -1  12    4.03    0.53
   0  -1  12    4.47    0.75
   0  -1  13    2.73    0.44
   0  -1  13    2.35    0.50
   0  -1  13    3.11    0.65
   0  -1  13    2.84    0.54
   0  -1  13    2.62    0.40
   0  -1  14   16.55    0.85
   0  -1  14   13.26    0.63
   0  -1  15    9.78    0.52
   0   0   1   55.20    1.63
   0   0   1   53.36    1.62
   0   0   2  883.27   22.17
   0   0  -2  865.90   21.77
   0   0   2  893.92   22.19
   0   0   2  887.31   21.93
   0   0  -2  856.22   21.94
   0   0   3 9929.85  245.95
   0   0   3 9964.90  245.57
   0   0  -3 9993.56  245.68
   0   0   3 9999.00  245.98
   0   0  -3 9836.02  245.35
   0   0   4  213.28    6.18
   0   0   4  207.35    5.66
   0   0   4  207.64    6.20
   0   0  -4  205.20    5.89
   0   0  -4  195.83    5.38
   0   0  -5  871.89   20.88
   0   0   5  826.06   21.11
   0   0  -5  756.55   19.89
   0   0   5  782.62   20.26
   0   0   5  812.36   21.01
   0   0   6  522.64   13.96
   0   0  -6  499.12   13.37
   0   0  -7  344.44   10.38
   0   0   7  351.18   10.72
   0   0   8  677.19   19.21
   0   0   9    1.89    0.48
   0   0   9    1.63    0.60
   0   0   9    1.69    1.03
   0   0   9    1.94    0.51
   0   0   9    1.59    0.61
   0   0  10   82.77    2.82
   0   0  10   82.08    2.79
   0   0  10   82.57    2.69
   0   0  10   89.42    4.37
   0   0  10   87.58    2.72
   0   0  11   32.48    1.34
   0   0  11   30.53    2.46
   0   0  11   30.85    1.45
   0   0  11   31.10    1.43
   0   0  12   36.90    1.57
   0   0  12   37.57    1.53
   0   0  12   33.71    2.48
   0   0  12   37.99    1.43
   0   0  13    5.73    0.59
   0   0  13    5.52    0.67
   0   0  14   -0.14    0.41
   0   0  15   10.09    0.48
   0   1   0    0.62    0.28
   0   1   0    0.20    0.25
   0   1   0   -0.11    0.24
   0   1  -1 7343.86  181.39
   0   1   1 7573.89  181.22
   0   1   1 7516.39  181.03
   0   1   1 7351.77  181.39
   0   1  -1 7608.04  181.19
   0   1   2 3037.17   71.46
   0   1  -2 2918.34   71.26
   0   1   2 2924.62   71.47
   0   1   2 2976.69   71.66
   0   1  -3 3268.07   83.00
   0   1   3 3323.12   82.79
   0   1   3 3373.58   82.72
   0   1  -3 3314.73   82.25
   0   1  -3 3289.01   82.67
   0   1  -4  864.19   22.31
   0   1  -4  820.86   21.80
   0   1   4  873.68   21.99
   0   1   4  829.96   21.80
   0   1  -5 1519.34   40.45
   0   1  -5 1634.43   41.16
   0   1   5 1634.58   40.70
   0   1   6   84.62    3.51
   0   1  -6   77.40    3.31
   0   1  -7   70.70    3.59
   0   1   7   62.62    3.12
   0   1   8   47.81    2.76
   0   1   9  256.97    8.56
   0   1   9  255.25    6.94
   0   1  10   28.45    1.28
   0   1  10   25.95    1.20
   0   1  10   27.33    2.19
   0   1  11   55.58    1.99
   0   1  11   54.56    1.91
   0   1  12    3.47    0.55
   0   1  13    2.40    0.46
   0   2   0   69.36    2.52
   0   2   0   67.07    2.66
   0   2   0   68.34    2.66
   0   2   1  879.91   23.45
   0   2  -1  876.13   23.76
   0   2  -1  850.77   23.50
   0   2   2 1325.97   34.92
   0   2  -2 1373.53   34.99
   0   2   2 1350.84   35.29
   0   2   2 1377.49   34.32
   0   2  -2 1454.97   35.51
   0   2   3  227.94    6.86
   0   2  -3  252.92    6.96
   0   2  -3  234.26    6.93
   0   2   3  252.40    7.32
   0   2   3  225.91    6.38
   0   2  -4  574.22   16.22
   0   2  -4  613.98   17.13
   0   2   4  594.02   16.54
   0   2   4  568.18   15.75
   0   2   5  514.03   14.38
   0   2  -5  550.63   15.45
   0   2   5  501.73   13.82
   0   2  -6   49.47    3.25
   0   2   6   43.66    2.15
   0   2   7  426.06   12.11
   0   2   8    7.51    0.71
   0   2   9   21.56    1.16
   0   2 -14    1.78    0.52
   0   3   0    0.52    0.45
   0   3   0   -0.10    0.58
   0   3   0    0.44    0.75
   0   3  -1  187.65    6.21
   0   3  -1  187.17    6.44
   0   3   1  193.31    6.55
   0   3   1  189.80    6.01
   0   3   1  188.24    6.21
   0   3  -2 1209.88   31.95
   0   3   2 1131.81   31.52
   0   3  -3  140.82    5.68
   0   3  -3  134.78    5.10
   0   3   3  130.42    5.15
   0   3  -4   46.51    2.69
   0   3  -4   45.04    3.12
   0   3   5  125.55    5.15
   0   3   6   22.74    1.19
   0   3   7  221.63    6.30
   0   3   8   69.94    2.54
   0   3   9  232.88    6.66
   0   3  10   86.73    2.96
   0   3  11    1.01    0.47
   0   3 -12   22.48    1.31
   0   3 -13   11.20    0.86
   0   3 -14    4.08    0.45
   0   4   0  244.97    8.57
   0   4   1  133.86    5.63
   0   4  -1  130.04    5.56
   0   4  -1  132.31    5.49
   0   4  -2   68.97    3.78
   0   4   3   47.58    3.22
   0   4  -3   51.69    1.92
   0   4  -3   50.81    1.86
   0   4  -3   52.51    3.28
   0   4   3   52.96    2.00
   0   4   4   30.30    1.48
   0   4   4   32.71    2.68
   0   4  -4   30.63    1.35
   0   4   4   30.32    1.39
   0   4  -4   29.83    1.40
   0   4   5   80.21    4.34
   0   4  -5   83.87    2.74
   0   4  -5   78.25    2.78
   0   4   5   82.59    2.77
   0   4  -6  142.27    4.38
   0   4   6  143.19    4.43
   0   4  -6  139.90    4.30
   0   4   7  142.91    4.51
   0   4  -7  147.92    4.46
   0   4  -7  139.21    4.46
   0   4   8   79.86    2.90
   0   4   9   44.32    1.94
   0   4 -10   29.39    1.54
   0   4  10   27.14    1.39
   0   4  11    6.70    0.66
   0   4 -11    7.55    0.83
   0   4 -12    1.16    0.54
   0   4  12    0.93    0.32
   0   4 -13    8.13    0.59
   0   5   0   -0.38    0.53
   0   5   0   -0.41    1.10
   0   5   0   -0.07    0.53
   0   5   0    0.45    0.44
   0   5  -1   46.93    1.93
   0   5   1   50.76    2.01
   0   5  -1   48.59    1.89
   0   5  -1   50.22    1.97
   0   5  -1   44.69    3.39
   0   5   1   50.80    3.61
   0   5   1   48.92    2.02
   0   5   2   32.72    1.60
   0   5   2   33.15    1.58
   0   5  -2   33.37    1.50
   0   5  -2   30.40    2.71
   0   5  -2   31.34    1.48
   0   5   2   30.18    2.82
   0   5   3  115.11    3.76
   0   5  -3  110.10    3.56
   0   5  -3  118.08    3.64
   0   5  -3  110.54    3.65
   0   5  -4   20.56    1.21
   0   5   4   22.68    1.37
   0   5   4   22.33    2.40
   0   5  -4   20.71    1.26
   0   5   4   22.90    1.31
   0   5  -5  245.23    7.11
   0   5   5  248.63    7.18
   0   5  -5  255.27    7.05
   0   5   5  243.64    7.08
   0   5  -6   15.78    1.10
   0   5  -6   16.00    1.16
   0   5  -7  202.82    5.81
   0   5   7  191.46    5.88
   0   5  -8   79.49    2.76
   0   5   8   70.62    2.71
   0   5   9    1.71    0.58
   0   5  -9    1.03    0.65
   0   5  10   20.91    1.09
   0   5  11    2.10    0.40
   0   5 -12   10.18    0.56
   0   6   0   42.83    1.86
   0   6   0   38.68    1.71
   0   6   1   13.44    1.06
   0   6  -1   12.61    1.00
   0   6  -1   13.65    0.92
   0   6   1   13.16    0.99
   0   6  -2  165.75    5.00
   0   6   2  170.15    5.08
   0   6  -2  171.47    4.96
   0   6   2  161.89    5.03
   0   6   3   40.63    1.84
   0   6  -3   41.19    1.77
   0   6  -3   39.74    1.72
   0   6   3   43.83    1.86
   0   6  -4   45.10    1.86
   0   6   4   43.44    1.94
   0   6   5    3.98    0.78
   0   6  -5    3.89    0.66
   0   6  -6   12.24    0.94
   0   6   6   13.55    1.06
   0   6  -7   11.68    0.89
   0   6  -8    9.14    0.75
   0   6  -9   13.93    0.82
   0   6   9   15.08    0.82
   0   6  10    6.63    0.45
   0   6 -10    7.08    0.50
   0   7   0    0.02    0.44
   0   7  -1    0.79    0.47
   0   7   2    6.27    0.60
   0   7  -2    6.45    0.59
   0   7   3    5.67    0.59
   0   7  -3    4.85    0.51
   0   7  -4    4.46    0.51
   0   7   4    4.93    0.59
   0   7  -5   23.93    1.00
   0   7   5   25.13    1.10
   0   7  -6    3.00    0.38
   0   7   6    3.28    0.45
   0   7  -7   11.84    0.55
   0   7   7   13.27    0.67
   0   7   8    9.51    0.45
  -1  -8   3    0.64    0.16
  -1  -8   2    3.76    0.27
  -1  -8   1   28.20    0.89
  -1  -8   1   27.05    0.85
   1  -8   0    1.70    0.19
  -1  -8   0    1.97    0.20
   1  -8   1   15.80    0.58
   1  -8   2   10.35    0.43
  -1  -7   7    1.55    0.26
  -1  -7   6   12.50    0.65
  -1  -7   5   10.63    0.69
  -1  -7   4   19.60    0.98
  -1  -7   2    0.65    0.51
   1  -7  -2    0.43    0.38
  -1  -7   1   36.89    1.42
   1  -7  -1   32.77    1.36
  -1  -7   0    4.35    0.54
   1  -7   0    4.96    0.62
  -1  -7  -1   24.71    1.05
   1  -7   1   24.77    1.19
  -1  -7  -2    8.37    0.53
   1  -7   2    7.49    0.72
  -1  -7  -3    1.88    0.35
   1  -7   4   15.10    0.85
   1  -7   5   19.27    0.88
   1  -7   6    5.81    0.41
  -1  -6  10    1.87    0.22
  -1  -6  10    1.70    0.25
  -1  -6   9   13.94    0.67
  -1  -6   9   13.63    0.63
  -1  -6   8    3.57    0.39
  -1  -6   8    2.96    0.41
  -1  -6   8    3.10    0.39
  -1  -6   7    9.74    0.68
  -1  -6   7   10.03    0.60
  -1  -6   7   10.35    0.66
  -1  -6   6    2.17    0.42
  -1  -6   6    3.32    0.56
  -1  -6   5   10.46    0.68
  -1  -6   5   10.57    0.91
  -1  -6   4   18.49    1.14
   1  -6  -4   17.58    2.24
   1  -6  -3  170.49    7.49
   1  -6  -3  179.46    5.08
   1  -6  -2   23.70    2.49
   1  -6  -2   21.85    1.19
  -1  -6   2   21.40    1.25
   1  -6  -1   78.79    2.77
   1  -6  -1   77.67    4.47
  -1  -6   1   81.99    2.80
  -1  -6   0   98.94    3.23
  -1  -6   0   96.20    4.97
   1  -6   0  102.18    3.34
   1  -6   1   69.23    2.62
  -1  -6  -1   76.36    4.44
  -1  -6  -1   71.73    2.46
  -1  -6  -2   47.56    3.55
  -1  -6  -2   44.33    1.71
   1  -6   3    9.08    0.94
  -1  -6  -3    7.77    1.74
   1  -6   4   13.60    1.05
   1  -6   5   11.83    0.91
   1  -6   6    2.40    0.55
   1  -6   7    0.54    0.28
   1  -6   7    0.05    0.36
   1  -6   7   -0.28    0.36
   1  -6   8    9.44    0.49
   1  -6   8    9.01    0.49
   1  -6   8    9.34    0.57
   1  -6   9    5.73    0.37
   1  -6   9    4.91    0.30
  -1  -5  12    3.78    0.35
  -1  -5  12    3.39    0.35
  -1  -5  12    4.02    0.35
  -1  -5  11    4.34    0.47
  -1  -5  11    4.91    0.48
  -1  -5  11    4.26    0.47
  -1  -5  10   15.61    0.88
  -1  -5  10   13.51    0.84
  -1  -5  10   15.54    0.85
  -1  -5   9   11.38    0.84
  -1  -5   9   12.32    0.82
  -1  -5   9   13.04    0.86
  -1  -5   8   18.44    1.03
  -1  -5   8   19.38    0.95
  -1  -5   8   18.43    1.08
  -1  -5   8   21.99    1.11
   1  -5  -7    3.47    1.36
  -1  -5   7    4.56    0.61
  -1  -5   7    3.54    0.56
  -1  -5   7    4.31    0.59
  -1  -5   7    3.95    0.65
  -1  -5   6  278.05    7.74
   1  -5  -6  297.93   10.84
  -1  -5   6  283.41    7.75
  -1  -5   6  288.73    7.69
   1  -5  -5   35.04    3.17
  -1  -5   5   39.20    1.51
  -1  -5   5   39.11    1.55
  -1  -5   5   37.86    1.67
  -1  -5   4  374.38    9.94
  -1  -5   4  379.28   10.13
   1  -5  -4  372.64   12.86
   1  -5  -3  108.51    5.40
   1  -5  -3  101.39    3.25
  -1  -5   3  102.42    3.11
  -1  -5   3  102.16    3.34
   1  -5  -2  120.77    3.78
   1  -5  -2  128.63    5.83
  -1  -5   2  121.88    3.81
  -1  -5   2  112.84    5.01
  -1  -5   1  257.73    9.12
  -1  -5   1  261.37    7.26
   1  -5  -1  256.21    7.28
   1  -5  -1  276.31    9.52
   1  -5   0  257.89    9.05
  -1  -5   0  250.42    7.06
  -1  -5   0  260.48    9.29
   1  -5   0  256.35    7.18
  -1  -5  -1   65.28    4.00
   1  -5   1   65.71    3.56
  -1  -5  -1   59.35    2.18
   1  -5   1   61.79    2.38
   1  -5   2    5.68    0.55
  -1  -5  -2    7.24    1.82
  -1  -5  -2    6.57    0.68
   1  -5   3    6.63    0.89
   1  -5   3    8.26    0.68
   1  -5   4   22.55    1.13
   1  -5   4   21.58    1.30
   1  -5   5    0.33    0.54
   1  -5   5    0.77    0.37
  -1  -5  -5    0.45    1.27
   1  -5   5    0.75    0.36
   1  -5   5    0.42    0.44
   1  -5   6  104.94    3.21
   1  -5   6  102.63    3.28
   1  -5   6  104.03    3.31
   1  -5   6  106.66    3.22
  -1  -5  -7   15.34    2.05
   1  -5   7   17.37    0.96
   1  -5   7   17.11    1.03
   1  -5   7   17.90    0.96
   1  -5   7   17.93    0.96
   1  -5   8    2.47    0.48
   1  -5   8    2.25    0.46
   1  -5   9   20.55    1.05
   1  -5   9   20.18    1.10
   1  -5   9   21.87    1.02
   1  -5   9   22.04    1.02
   1  -5  10   14.60    0.76
   1  -5  10   13.87    0.83
   1  -5  10   14.59    0.77
   1  -5  11   10.55    0.62
   1  -5  11   11.13    0.56
   1  -5  11   10.55    0.55
  -1  -4  13   28.18    1.02
  -1  -4  13   25.12    0.90
  -1  -4  13   28.46    1.00
  -1  -4  12    6.08    0.64
  -1  -4  12    4.92    0.53
  -1  -4  12    5.96    0.51
  -1  -4  12    5.23    0.55
  -1  -4  11    5.24    0.57
  -1  -4  11    4.35    0.69
  -1  -4  10   16.38    1.10
  -1  -4  10   18.01    1.04
  -1  -4  10   17.78    0.96
  -1  -4   9   18.72    1.14
  -1  -4   9   18.16    1.17
  -1  -4   9   19.16    1.01
  -1  -4   9   18.52    1.07
  -1  -4   9   18.98    1.03
  -1  -4   9   18.73    1.86
   1  -4  -8   69.84    4.10
  -1  -4   8   68.26    2.34
  -1  -4   8   64.73    3.49
  -1  -4   8   64.04    2.36
  -1  -4   8   65.46    2.32
  -1  -4   7   85.05    2.81
  -1  -4   7   85.39    2.80
  -1  -4   7   86.60    2.79
  -1  -4   7   85.02    2.74
  -1  -4   7   85.46    3.98
   1  -4  -7   89.59    4.78
  -1  -4   6   59.89    2.09
   1  -4  -6   64.81    3.92
  -1  -4   6   59.04    2.12
  -1  -4   6   57.99    2.07
  -1  -4   6   57.80    3.00
  -1  -4   5  392.81   11.52
  -1  -4   5  382.34   10.29
   1  -4  -5  408.06   12.83
  -1  -4   5  403.07   10.40
  -1  -4   5  383.86   10.27
  -1  -4   5  392.00   10.25
  -1  -4   4  144.21    4.08
  -1  -4   4  133.70    3.89
  -1  -4   4  132.73    4.75
  -1  -4   4  131.52    3.89
  -1  -4   4  134.70    3.85
  -1  -4   3    4.91    0.49
   1  -4  -3    7.03    1.44
  -1  -4   3    5.01    0.64
  -1  -4   3    4.51    0.99
   1  -4  -2  164.17    6.34
  -1  -4   2  164.12    5.98
  -1  -4   1  136.47    5.58
   1  -4  -1  148.02    5.67
  -1  -4   0   51.33    3.11
   1  -4   0   50.58    2.87
   1  -4   1  120.01    4.74
  -1  -4  -1  130.03    5.47
   1  -4   2  149.79    5.36
   1  -4   2  149.47    5.67
  -1  -4  -2  158.21    6.31
   1  -4   3   44.02    1.62
   1  -4   3   46.13    2.84
   1  -4   4   39.58    1.50
   1  -4   4   44.10    1.64
  -1  -4  -4   38.01    3.13
   1  -4   4   41.33    2.88
   1  -4   4   41.50    1.50
   1  -4   5    1.30    0.46
   1  -4   5    1.24    0.51
  -1  -4  -5    1.30    1.26
   1  -4   5    1.30    0.56
   1  -4   5    1.00    1.02
   1  -4   5    1.14    0.40
   1  -4   6  186.46    5.22
   1  -4   6  181.22    5.25
   1  -4   6  163.06    7.18
   1  -4   6  182.65    5.21
  -1  -4  -6  185.78    7.62
   1  -4   6  184.35    5.16
   1  -4   6  181.52    6.33
   1  -4   7   36.40    1.57
   1  -4   7   38.11    1.57
   1  -4   7   37.34    1.48
  -1  -4  -7   36.07    3.02
   1  -4   7   38.24    2.43
   1  -4   8    1.81    0.54
   1  -4   8    1.39    0.54
   1  -4   8    1.10    0.52
   1  -4   8    1.67    0.51
   1  -4   8    1.56    0.50
  -1  -4  -8    2.35    1.13
   1  -4   9   30.68    1.34
   1  -4   9   29.43    1.41
   1  -4   9   34.52    1.47
   1  -4   9   32.12    1.37
   1  -4   9   32.02    1.39
   1  -4  10    2.10    0.48
   1  -4  10    1.61    0.50
   1  -4  10    1.72    0.52
   1  -4  10    2.18    0.53
   1  -4  10    2.47    0.52
   1  -4  11    7.69    0.62
   1  -4  11    7.61    0.65
   1  -4  11    8.41    0.67
   1  -4  12   20.06    0.89
   1  -4  12   20.15    0.92
   1  -4  12   18.56    0.79
   1  -4  13    1.48    0.22
   1  -4  13    0.96    0.25
  -1  -3  14   22.93    0.85
  -1  -3  14   22.93    0.85
  -1  -3  14   22.44    0.89
  -1  -3  14   23.60    0.93
  -1  -3  13    2.16    0.50
  -1  -3  13    1.42    0.39
  -1  -3  13    2.57    0.44
  -1  -3  13    2.13    0.54
  -1  -3  12   32.39    1.38
  -1  -3  12   33.37    1.51
  -1  -3  12   33.82    1.40
  -1  -3  12   34.15    1.41
  -1  -3  11   33.45    1.46
  -1  -3  11   34.62    1.49
  -1  -3  11   30.20    2.40
  -1  -3  11   33.17    1.46
  -1  -3  11   32.07    1.45
  -1  -3  10   69.29    3.74
  -1  -3  10   67.66    2.28
  -1  -3  10   67.81    2.38
  -1  -3  10   66.43    2.37
  -1  -3  10   67.60    2.37
  -1  -3  10   70.12    2.39
  -1  -3   9  388.68   10.03
  -1  -3   9  387.54   10.05
  -1  -3   9  394.44   12.08
  -1  -3   9  388.64   10.11
  -1  -3   9  387.13   10.09
  -1  -3   8  113.89    3.49
   1  -3  -8  116.13    5.19
  -1  -3   8  114.14    3.49
  -1  -3   8  113.62    4.94
  -1  -3   8  113.73    3.46
  -1  -3   7   32.19    1.36
  -1  -3   7   34.78    2.37
  -1  -3   7   32.98    1.36
   1  -3  -7   32.81    2.51
  -1  -3   7   31.68    1.35
  -1  -3   7   31.68    1.36
  -1  -3   7   30.49    1.37
  -1  -3   6  200.42    6.64
  -1  -3   6  193.39    5.32
  -1  -3   6  190.43    5.32
  -1  -3   6  190.93    5.33
   1  -3  -6  196.46    7.11
   1  -3  -5  174.13    6.45
   1  -3  -5  169.07    6.05
  -1  -3   5  183.21    5.93
   1  -3  -4  528.08   14.94
  -1  -3   4  532.52   14.63
   1  -3  -4  548.61   15.41
  -1  -3   3  233.00    7.48
  -1  -3   3  247.26    7.27
  -1  -3   3  242.50    7.13
   1  -3  -3  244.67    7.46
  -1  -3   2  455.07   12.63
  -1  -3   2  444.81   12.65
   1  -3  -2  422.16   12.11
  -1  -3   2  443.12   12.08
   1  -3  -2  448.13   12.50
   1  -3  -1  191.96    6.07
   1  -3  -1  197.27    6.11
  -1  -3   1  195.07    6.16
   1  -3  -1  199.10    6.01
  -1  -3   1  179.37    5.98
   1  -3   0 1231.09   32.11
   1  -3   0 1200.39   31.92
  -1  -3   0 1204.37   31.55
   1  -3   0 1219.00   31.83
   1  -3   1  185.27    5.68
   1  -3   1  167.93    5.90
   1  -3   1  173.93    4.89
  -1  -3  -1  165.15    5.07
   1  -3   1  177.43    5.69
  -1  -3  -1  196.36    6.20
   1  -3   1  182.78    6.03
   1  -3   2  575.73   15.28
  -1  -3  -2  595.82   15.83
   1  -3   2  571.22   14.92
   1  -3   2  582.19   15.62
   1  -3   2  540.09   15.96
   1  -3   2  528.55   15.93
   1  -3   3  748.43   19.08
   1  -3   3  734.18   19.25
  -1  -3  -3  737.11   19.94
   1  -3   3  732.39   20.35
   1  -3   4  223.55    7.93
  -1  -3  -4  227.73    7.75
   1  -3   4  221.79    6.98
  -1  -3  -4  221.86    7.43
   1  -3   5   16.82    1.51
   1  -3   5   17.46    2.03
  -1  -3  -5   18.72    1.94
   1  -3   6  293.48   10.02
   1  -3   6  281.71    7.55
   1  -3   6  278.65    7.51
   1  -3   6  272.01    8.96
   1  -3   6  278.54    7.50
  -1  -3  -6  285.07    9.57
   1  -3   6  273.51    7.55
   1  -3   7   48.41    1.88
   1  -3   7   47.63    1.82
   1  -3   7   46.05    3.47
   1  -3   7   48.19    1.85
   1  -3   7   46.98    1.85
   1  -3   7   49.99    3.00
  -1  -3  -7   48.57    3.19
   1  -3   7   48.98    1.85
   1  -3   8   61.16    2.17
   1  -3   8   56.78    2.23
   1  -3   8   66.73    3.59
   1  -3   8   65.26    2.25
   1  -3   8   60.52    2.21
   1  -3   8   60.15    2.22
   1  -3   9  271.72    7.35
   1  -3   9  257.00    7.33
   1  -3   9  271.23    9.23
   1  -3   9  262.70    7.27
   1  -3   9  270.41    7.35
   1  -3  10   12.10    0.79
   1  -3  10   11.60    0.88
   1  -3  10   11.38    0.93
   1  -3  10   12.44    0.91
   1  -3  10   12.55    1.58
   1  -3  11   15.52    0.98
   1  -3  11   16.43    0.98
   1  -3  11   15.18    1.05
   1  -3  11   16.88    1.00
   1  -3  11   16.18    0.86
   1  -3  11   15.77    0.97
   1  -3  12    6.36    0.62
   1  -3  12    5.77    0.58
   1  -3  12    5.37    0.63
   1  -3  12    5.53    0.59
   1  -3  12    5.75    0.66
   1  -3  13    1.50    0.42
   1  -3  13    1.92    0.38
   1  -3  13    1.83    0.41
   1  -3  13    1.68    0.34
   1  -3  14    9.09    0.39
   1  -3  14    9.12    0.41
   1  -3  14    8.34    0.36
  -1  -2  15    6.64    0.35
  -1  -2  14    9.94    0.56
  -1  -2  14    9.85    0.66
  -1  -2  14    9.30    0.54
  -1  -2  13   17.17    0.90
  -1  -2  13   18.78    1.06
  -1  -2  13   19.52    0.92
  -1  -2  12   13.07    0.85
  -1  -2  12   13.94    1.00
  -1  -2  12   13.64    1.01
  -1  -2  12   14.11    0.95
  -1  -2  12   13.94    0.88
  -1  -2  11   81.64    2.87
  -1  -2  11   84.38    2.89
  -1  -2  11   81.97    2.73
  -1  -2  11   86.40    2.77
  -1  -2  10   80.58    2.67
  -1  -2  10   83.14    2.80
  -1  -2  10   78.69    2.81
  -1  -2  10   79.31    2.55
  -1  -2  10   82.66    2.71
  -1  -2   9  183.86    5.48
  -1  -2   9  185.01    7.18
  -1  -2   9  199.32    5.41
  -1  -2   9  198.52    5.61
  -1  -2   9  198.41    5.52
  -1  -2   9  195.17    5.49
  -1  -2   8  228.42    7.98
  -1  -2   8  235.26    6.31
  -1  -2   8  226.90    6.37
  -1  -2   8  232.77    6.39
  -1  -2   8  228.57    6.34
   1  -2  -8  230.25    7.68
  -1  -2   8  238.50    6.45
   1  -2  -7  112.71    4.55
  -1  -2   7  114.77    4.65
   1  -2  -7  112.89    4.60
   1  -2  -6   74.82    3.24
  -1  -2   6   70.25    3.27
   1  -2  -6   78.77    3.36
  -1  -2   5   86.04    3.42
  -1  -2   5   84.67    3.50
   1  -2  -5   83.79    3.30
  -1  -2   4   31.23    1.12
  -1  -2   4   30.10    1.90
   1  -2  -4   30.13    1.61
   1  -2  -4   29.43    1.44
  -1  -2   4   29.88    1.77
  -1  -2   4   31.36    1.65
   1  -2  -3   14.56    0.72
  -1  -2   3   14.71    1.04
  -1  -2   3   15.02    1.05
   1  -2  -3   15.09    1.06
  -1  -2   3   17.76    0.95
  -1  -2   3   13.91    1.13
   1  -2  -3   15.48    1.06
  -1  -2   2  944.58   23.93
  -1  -2   2  920.74   23.70
  -1  -2   2  928.39   24.05
   1  -2  -2  927.99   24.07
   1  -2  -2  884.44   23.69
   1  -2  -2  925.25   23.83
  -1  -2   2  980.59   23.89
  -1  -2   1  415.45   10.95
   1  -2  -1  417.21   11.11
   1  -2  -1  386.57   11.42
  -1  -2   1  411.58   11.20
  -1  -2   1  417.63   11.22
   1  -2  -1  417.39   11.26
   1  -2   0  896.98   23.85
  -1  -2   0  929.17   23.24
   1  -2   0  896.37   22.79
   1  -2   0  919.74   23.39
   1  -2   0  943.57   23.71
  -1  -2   0  881.93   23.45
  -1  -2   0  968.37   23.73
   1  -2   1 1146.01   29.38
   1  -2   1 1126.48   29.09
   1  -2   1 1137.73   28.42
  -1  -2  -1 1139.08   28.26
   1  -2   1 1167.75   28.76
   1  -2   2  284.11    8.49
   1  -2   2  260.56    8.12
   1  -2   2  292.11    7.73
  -1  -2  -2  249.21    7.98
   1  -2   3 1431.46   36.87
  -1  -2  -3 1387.29   36.20
   1  -2   3 1467.12   35.33
  -1  -2  -3 1444.63   36.16
   1  -2   3 1406.82   36.05
   1  -2   4  816.95   22.02
   1  -2   4  796.00   21.52
   1  -2   4  774.61   21.20
  -1  -2  -4  788.74   21.27
  -1  -2  -4  794.49   21.17
  -1  -2  -5  505.63   14.16
   1  -2   5  489.69   14.16
  -1  -2  -5  490.84   14.10
   1  -2   5  500.80   14.93
   1  -2   6   34.57    2.35
  -1  -2  -6   33.65    2.19
  -1  -2  -6   34.03    2.23
   1  -2   7  458.51   12.04
  -1  -2  -7  462.58   13.42
   1  -2   7  475.71   13.85
   1  -2   7  455.51   11.96
   1  -2   8  236.03    8.24
   1  -2   8  227.18    6.43
   1  -2   8  234.71    6.43
   1  -2   8  232.84    6.36
   1  -2   8  231.14    6.53
   1  -2   8  224.74    6.41
   1  -2   8  241.60    8.96
   1  -2   9  115.67    5.26
   1  -2   9  111.40    3.56
   1  -2   9  117.35    3.58
   1  -2   9  111.57    3.68
   1  -2   9  118.29    3.50
   1  -2   9  114.98    3.60
   1  -2  10  325.07   11.07
   1  -2  10  332.34    9.02
   1  -2  10  332.94    8.87
   1  -2  10  331.70    9.01
   1  -2  10  340.76    9.12
   1  -2  11   34.53    1.50
   1  -2  11   35.46    1.61
   1  -2  11   35.41    2.60
   1  -2  11   33.81    1.33
   1  -2  11   35.50    1.62
   1  -2  11   36.67    1.51
   1  -2  12    1.08    0.55
   1  -2  12    1.42    0.47
   1  -2  12    1.08    0.47
   1  -2  13   17.59    0.86
   1  -2  13   17.16    0.82
   1  -2  13   17.61    0.91
   1  -2  13   16.89    0.88
   1  -2  14   18.70    0.71
   1  -2  14   18.21    0.66
  -1  -1  15    9.74    0.57
  -1  -1  14    4.92    0.58
  -1  -1  14    4.18    0.48
  -1  -1  13    0.35    0.56
  -1  -1  13   -0.09    0.49
  -1  -1  13    0.48    0.36
  -1  -1  13    0.38    0.33
  -1  -1  12   86.22    2.74
  -1  -1  12   89.96    2.97
  -1  -1  12   88.14    2.88
  -1  -1  12   89.78    4.38
  -1  -1  12   87.34    2.89
  -1  -1  12   87.28    2.76
  -1  -1  11   29.85    1.40
  -1  -1  11   28.24    1.41
  -1  -1  11   31.96    2.53
  -1  -1  11   26.94    1.25
  -1  -1  11   29.12    1.47
  -1  -1  11   28.14    1.29
  -1  -1  10  195.05    5.55
  -1  -1  10  199.56    5.56
  -1  -1  10  202.21    5.73
  -1  -1  10  200.40    5.66
  -1  -1  10  193.34    5.63
  -1  -1  10  198.44    7.45
  -1  -1   9   90.56    2.97
  -1  -1   9   93.25    3.04
  -1  -1   9   92.80    2.92
  -1  -1   9   91.55    2.89
  -1  -1   9   97.48    3.01
  -1  -1   9   95.96    4.48
  -1  -1   8  644.45   16.52
  -1  -1   8  674.74   18.36
   1  -1  -8  612.68   18.06
  -1  -1   7  662.90   17.83
  -1  -1   7  619.88   17.11
   1  -1  -7  647.01   17.52
   1  -1  -7  624.54   16.87
   1  -1  -6  431.82   11.34
   1  -1  -6  457.67   12.01
   1  -1  -6  458.24   12.26
  -1  -1   6  455.31   12.17
   1  -1  -5  723.56   18.10
  -1  -1   5  727.31   18.20
  -1  -1   4 1068.83   26.48
   1  -1  -4 1000.15   26.26
   1  -1  -4 1028.69   25.79
   1  -1  -3 3772.68   91.76
  -1  -1   3 3690.62   91.93
  -1  -1   3 3742.56   91.34
  -1  -1   3 3746.76   91.99
   1  -1  -3 3580.98   91.35
  -1  -1   2 2089.35   52.27
  -1  -1   2 2081.97   52.38
   1  -1  -2 2202.53   52.35
  -1  -1   2 2013.36   52.41
  -1  -1   1 2091.87   51.94
  -1  -1   1 2084.69   52.05
   1  -1  -1 1953.42   52.05
  -1  -1   1 2151.66   51.99
   1  -1  -1 2117.99   51.88
  -1  -1   1 2112.79   52.01
   1  -1  -1 2043.04   52.29
  -1  -1   0 4770.94  110.61
  -1  -1   0 4702.06  110.72
   1  -1   0 4584.41  111.12
   1  -1   0 4856.21  110.50
   1  -1   0 4744.62  110.46
   1  -1   1 2512.44   59.42
  -1  -1  -1 2433.50   58.29
   1  -1   1 2427.67   58.75
   1  -1   2 2028.67   52.81
  -1  -1  -2 2142.30   52.74
   1  -1   2 2133.54   52.97
   1  -1   3  756.08   18.65
  -1  -1  -3  740.84   18.31
   1  -1   3  720.33   18.58
   1  -1   4 3232.25   83.14
  -1  -1  -4 3236.86   82.27
   1  -1   4 3408.73   82.72
   1  -1   4 3219.27   82.74
  -1  -1  -4 3332.32   82.42
   1  -1   5 2398.70   59.54
   1  -1   5 2431.81   60.28
  -1  -1  -5 2353.14   59.07
  -1  -1  -5 2415.04   59.38
   1  -1   6  682.26   19.37
  -1  -1  -6  664.03   18.01
   1  -1   6  687.03   18.48
  -1  -1  -6  683.97   18.53
   1  -1   7  572.54   16.94
   1  -1   8  366.52    9.96
   1  -1   8  402.25   12.43
   1  -1   8  390.88   10.09
   1  -1   8  351.18   11.83
   1  -1   9    9.50    0.77
   1  -1   9   11.59    0.95
   1  -1   9    8.80    0.96
   1  -1   9    9.56    0.81
   1  -1   9   10.68    1.62
   1  -1  10  166.00    4.92
   1  -1  10  162.85    4.83
   1  -1  10  166.66    5.00
   1  -1  10  163.88    6.76
   1  -1  10  169.68    4.85
   1  -1  11   27.37    1.30
   1  -1  11   28.60    2.44
   1  -1  11   28.05    1.27
   1  -1  11   29.31    1.47
   1  -1  11   25.96    1.32
   1  -1  11   27.40    1.39
   1  -1  12   18.28    0.98
   1  -1  12   19.90    1.04
   1  -1  12   18.65    1.08
   1  -1  12   19.69    1.15
   1  -1  12   18.92    0.96
   1  -1  13   11.53    0.75
   1  -1  13    9.92    0.65
   1  -1  13   11.29    0.68
   1  -1  13   10.13    0.62
   1  -1  13   11.34    0.81
   1  -1  14    1.81    0.41
   1  -1  14    1.30    0.25
   1  -1  15   15.38    0.56
  -1   0  15    9.11    0.52
  -1   0  14   35.34    1.35
  -1   0  13   23.96    1.18
  -1   0  12    0.26    0.48
  -1   0  12   -0.02    0.56
  -1   0  12    0.07    0.75
  -1   0  12    0.87    0.48
  -1   0  11  355.29    9.35
  -1   0  11  342.04    9.44
  -1   0  11  348.34    9.36
  -1   0  11  372.07   11.44
  -1   0  10   69.24    3.67
  -1   0  10   63.51    2.25
  -1   0  10   62.81    2.29
  -1   0  10   65.02    2.23
  -1   0   9  870.15   22.08
  -1   0   9  857.80   22.14
  -1   0   9  868.56   22.11
  -1   0   9  913.23   24.18
  -1   0   8   24.63    2.00
   1   0  -8   21.65    1.84
   1   0  -7  636.77   17.48
   1   0  -7  627.10   17.48
  -1   0   7  651.07   17.64
  -1   0   6 1597.56   39.56
   1   0  -6 1552.03   39.36
  -1   0   6 1499.90   38.77
   1   0  -5 2703.98   68.53
  -1   0   5 2624.36   68.67
  -1   0   5 2810.45   68.17
   1   0  -4 2980.90   72.45
  -1   0   4 2843.39   72.54
  -1   0   4 2880.92   72.21
  -1   0   3  361.54    9.28
  -1   0   3  360.16    9.07
  -1   0   3  351.89    9.48
   1   0  -3  354.67    9.40
  -1   0   2   41.84    1.32
   1   0  -2   43.35    1.39
  -1   0   2   45.74    1.45
  -1   0   2   44.32    1.36
  -1   0   2   40.82    1.23
  -1   0   1 3574.46   89.51
  -1   0   1 3600.27   89.45
  -1   0   1 3710.90   89.49
  -1   0   1 3563.90   89.49
   1   0   0  267.95    7.14
  -1   0  -1 6386.25  158.09
   1   0   1 6391.32  158.63
   1   0   2 1333.79   37.17
   1   0   2 1431.28   37.24
  -1   0  -2 1460.12   36.63
   1   0   3 7669.11  194.16
   1   0   3 8015.62  193.73
  -1   0  -3 7792.50  193.37
   1   0   3 7691.29  194.15
   1   0   4 4681.82  116.81
   1   0   4 4773.82  116.22
   1   0   4 4694.10  116.87
  -1   0  -4 4604.41  115.79
  -1   0  -5  206.47    5.58
   1   0   5  220.55    6.83
   1   0   5  210.91    6.86
   1   0   5  212.59    6.11
   1   0   6 1310.68   34.62
   1   0   6 1319.50   34.43
  -1   0  -6 1323.88   34.10
   1   0   6 1296.08   33.41
  -1   0  -7  987.22   26.76
   1   0   7 1000.92   27.02
   1   0   7 1007.33   27.22
   1   0   8  317.66    8.48
   1   0   8  305.01    8.35
   1   0   9  108.23    3.39
   1   0   9  113.27    3.51
   1   0   9  109.29    3.50
   1   0   9  114.57    5.24
   1   0  10    1.07    0.60
   1   0  10    1.51    0.64
   1   0  10    2.84    1.18
   1   0  10    1.33    0.50
   1   0  10    1.82    0.46
   1   0  11    9.48    1.50
   1   0  11   11.01    0.91
   1   0  11   10.58    0.79
   1   0  11   10.67    0.88
   1   0  12   16.55    1.02
   1   0  12   15.77    0.85
   1   0  12   15.57    0.93
   1   0  13    6.98    0.60
   1   0  13    7.11    0.51
   1   0  13    8.05    0.69
   1   0  14    1.33    0.39
  -1   1  14    4.68    0.46
  -1   1  13    0.12    0.41
  -1   1  12   86.63    2.76
  -1   1  11   27.21    1.27
  -1   1  10  190.79    5.39
  -1   1  10  197.27    6.85
  -1   1   9   99.10    4.13
  -1   1   9   92.72    2.89
  -1   1   8  651.41   17.99
  -1   1   7  642.99   17.58
   1   1  -7  652.18   18.39
  -1   1   6  454.02   12.46
   1   1  -6  450.98   13.06
   1   1  -6  453.68   12.60
   1   1  -5  690.87   18.82
   1   1  -5  718.24   18.43
  -1   1   5  674.74   18.28
  -1   1   5  714.07   18.20
  -1   1   4 1001.37   25.89
   1   1  -4 1043.16   26.08
  -1   1   4 1027.84   26.03
   1   1  -4 1006.48   26.41
   1   1  -3 3878.55   93.94
   1   1  -3 3808.07   94.26
  -1   1   3 3701.91   93.69
  -1   1   3 3761.10   93.98
  -1   1   2 2100.97   49.65
  -1   1   2 1937.19   49.38
  -1   1   2 1892.20   49.80
   1   1  -2 2104.34   49.74
  -1   1   1 2099.93   53.09
   1   1  -1 2182.31   53.02
   1   1  -1 2190.15   53.13
   1   1  -1 2124.78   53.22
  -1   1   1 2057.58   52.93
  -1   1   0 4715.74  118.39
   1   1   0 4757.64  118.28
  -1   1   0 4769.92  118.27
   1   1   0 4860.33  118.38
   1   1   0 4746.43  118.69
   1   1   1 2446.64   60.86
  -1   1  -1 2578.89   61.18
   1   1   1 2400.04   60.82
  -1   1  -1 2515.81   61.09
   1   1   1 2370.14   61.51
   1   1   2 2025.21    6.75
  -1   1  -2 2140.31    8.66
   1   1   2 1995.02   10.35
  -1   1  -2 2085.27    7.22
   1   1   3  774.13   19.82
  -1   1  -3  798.13   19.98
  -1   1  -3  726.84   19.00
   1   1   3  741.54   19.17
  -1   1  -4 3231.03   81.05
   1   1   4 3244.26   81.47
  -1   1  -4 3340.39   82.23
   1   1   4 3284.59   82.06
   1   1   5 2437.64   60.46
  -1   1  -5 2423.52   60.61
  -1   1  -5 2288.68   60.01
   1   1   6  705.48   19.54
   1   1   7  572.20   16.56
   1   1   8  378.45   10.14
   1   1   8  383.28   10.15
   1   1   9    9.35    0.82
   1   1   9    9.82    0.78
   1   1   9   12.06    1.60
   1   1  10  155.51    6.27
   1   1  10  163.22    4.64
   1   1  10  156.22    4.58
   1   1  11   26.39    1.24
   1   1  11   26.38    1.20
   1   1  11   26.52    2.14
   1   1  12   17.96    0.89
   1   1  12   17.11    0.94
   1   1  13    9.72    0.62
  -1   1 -14    1.31    0.60
   1   2 -13   19.57    1.30
  -1   2   8  218.35    6.05
  -1   2   6   69.20    2.55
   1   2  -6   68.75    3.62
  -1   2   6   73.94    3.08
  -1   2   5   83.12    3.34
   1   2  -5   85.25    3.81
   1   2  -5   83.90    3.27
  -1   2   5   82.41    2.66
  -1   2   4   29.95    1.75
  -1   2   4   29.26    1.07
  -1   2   4   27.10    1.48
  -1   2   3   15.40    1.23
   1   2  -3   15.76    1.35
  -1   2   3   14.75    1.01
   1   2  -3   16.09    1.15
   1   2  -2  933.32   23.92
  -1   2   2  895.38   23.56
  -1   2   2  914.59   23.83
   1   2  -2  943.20   23.72
   1   2  -2  897.39   23.96
   1   2  -1  401.65   11.59
   1   2  -1  418.63   11.38
   1   2  -1  417.60   11.47
  -1   2   1  441.14   11.33
   1   2   0  897.24   23.42
  -1   2   0  909.10   23.14
  -1   2   0  829.88   22.88
   1   2   0  861.28   22.90
   1   2   1 1137.69   29.58
  -1   2  -1 1230.17   30.55
  -1   2  -1 1178.29   29.96
  -1   2  -1 1168.89   29.85
   1   2   2  270.64    3.81
  -1   2  -2  291.47    3.97
   1   2   2  245.35    4.76
  -1   2  -2  300.43    5.32
  -1   2  -2  282.51    4.02
   1   2   2  262.35    3.95
   1   2   3 1435.56   35.93
  -1   2  -3 1424.75   35.69
   1   2   3 1318.83   35.87
  -1   2  -3 1371.92   35.85
   1   2   3 1475.05   36.48
  -1   2  -4  804.91   21.36
   1   2   4  763.07   20.27
  -1   2  -4  749.45   19.93
  -1   2  -5  459.02   13.80
   1   2   5  450.28   12.77
   1   2   6   31.91    2.04
  -1   2  -6   35.30    2.58
   1   2   7  459.93   13.75
   1   2   7  482.10   12.52
   1   2   8  241.44    7.99
   1   2   8  241.07    6.76
   1   2   9  120.55    3.78
   1   2  10  321.18    8.76
  -1   2 -14   18.84    1.01
   1   3 -14   18.32    0.93
   1   3 -13    1.51    0.57
   1   3 -12   33.04    1.67
  -1   3  11   31.91    1.43
   1   3 -11   33.48    1.74
  -1   3  10   65.36    2.39
  -1   3   9  379.41   10.25
  -1   3   8  110.53    3.53
  -1   3   7   35.55    1.54
  -1   3   7   31.04    2.29
  -1   3   6  192.93    5.44
  -1   3   6  185.14    6.79
  -1   3   5  172.11    6.24
   1   3  -4  550.13   15.30
  -1   3   4  498.20   15.11
   1   3  -4  531.51   15.72
   1   3  -3  234.18    8.11
  -1   3   3  233.96    7.42
  -1   3   3  246.14    7.92
   1   3  -2  470.52   13.29
   1   3  -2  444.57   12.70
   1   3  -2  451.12   13.07
  -1   3   2  432.04   12.44
   1   3  -1  189.16    6.34
  -1   3   1  205.55    6.64
   1   3  -1  203.75    6.60
  -1   3   1  199.21    6.31
   1   3  -1  198.00    6.83
  -1   3   0 1264.94   32.68
   1   3   0 1283.84   32.52
   1   3   0 1209.53   32.92
  -1   3   0 1231.16   32.39
  -1   3  -1  170.93    5.83
   1   3   1  178.97    6.39
  -1   3  -1  177.59    6.00
   1   3   1  167.02    5.81
  -1   3  -1  183.41    6.29
  -1   3  -2  564.21   15.05
  -1   3  -2  591.98   15.84
  -1   3  -3  723.43   20.15
  -1   3  -3  757.29   21.10
   1   3   3  761.34   20.95
  -1   3  -4  234.08    7.53
  -1   3  -6  283.23    7.75
   1   3   6  286.72    7.88
   1   3   7   52.39    2.09
   1   3   8   65.28    2.48
   1   3   9  273.80    7.70
   1   3  10   11.66    0.93
   1   3  11   13.79    0.92
  -1   3 -13    1.60    0.46
   1   4 -13   24.36    1.09
   1   4 -12    5.16    0.72
   1   4 -11    6.01    0.83
  -1   4  11    4.28    0.60
  -1   4  10   17.79    1.13
   1   4 -10   16.50    1.25
  -1   4   9   17.23    1.16
   1   4  -9   17.95    1.32
  -1   4   8   65.04    2.49
   1   4  -8   66.52    2.58
   1   4  -7   91.49    3.22
  -1   4   7   86.63    3.07
  -1   4   6   57.77    2.23
   1   4  -6   58.32    2.27
  -1   4   6   55.89    2.13
   1   4  -6   54.16    2.15
  -1   4   6   52.84    3.39
  -1   4   5  398.24   10.52
   1   4  -5  394.08   10.52
  -1   4   5  374.31   12.41
   1   4  -5  388.49   10.44
  -1   4   5  383.76   10.41
   1   4  -4  131.77    4.11
  -1   4   4  136.15    5.80
  -1   4   4  135.92    4.06
   1   4  -4  137.16    4.07
  -1   4   4  138.34    4.17
  -1   4   3    6.58    0.71
  -1   4   3    5.44    0.61
   1   4  -3    5.26    0.65
  -1   4   3    5.89    1.29
   1   4  -3    5.50    0.59
   1   4  -3    5.47    1.47
   1   4  -2  167.18    6.86
   1   4  -2  170.70    6.93
  -1   4   1  130.76    5.60
   1   4  -1  128.51    5.81
   1   4   0   39.35    2.89
  -1   4   0   43.39    2.79
  -1   4  -1  113.83    4.97
   1   4   1  115.01    5.31
   1   4   2  151.75    4.33
  -1   4  -2  141.08    5.76
  -1   4  -3   48.00    1.71
  -1   4  -3   45.52    1.74
  -1   4  -3   43.43    2.79
  -1   4  -3   45.03    1.67
   1   4   3   43.69    1.79
   1   4   3   43.69    3.23
   1   4   3   45.09    1.89
  -1   4  -4   42.17    1.71
   1   4   4   42.78    1.84
  -1   4  -4   40.86    1.57
   1   4   4   41.48    1.74
  -1   4  -4   40.54    1.61
  -1   4  -5    1.41    0.54
  -1   4  -6  186.16    5.40
   1   4   6  179.80    5.51
   1   4   7   39.21    1.85
  -1   4  -7   35.20    1.64
   1   4   8    1.65    0.69
  -1   4  -8    1.62    0.55
   1   4   9   30.92    1.58
   1   4  10    1.99    0.63
   1   4  11    7.65    0.67
  -1   4 -11    7.91    0.80
  -1   4 -12   22.10    1.03
   1   4  12   17.12    0.76
  -1   4 -13    0.82    0.26
   1   5 -12    3.86    0.46
  -1   5  11    3.62    0.47
   1   5 -11    5.16    0.67
  -1   5  10   15.03    0.96
   1   5 -10   14.92    1.09
  -1   5   9   10.48    0.93
  -1   5   8   19.53    1.25
   1   5  -8   17.80    1.26
   1   5  -7    3.27    0.73
  -1   5   7    4.02    0.78
   1   5  -6  295.99    8.28
  -1   5   5   33.85    2.90
  -1   5   5   37.28    1.72
   1   5  -5   34.06    1.69
  -1   5   5   39.41    1.81
  -1   5   4  385.91   10.47
  -1   5   4  374.50   12.80
  -1   5   4  374.81   10.38
   1   5  -4  389.28   10.40
  -1   5   3  104.95    3.51
   1   5  -3  102.36    3.41
  -1   5   2  115.55    5.73
   1   5  -2  122.99    3.89
  -1   5   2  128.97    4.00
   1   5  -2  119.65    3.85
  -1   5   2  124.81    3.92
  -1   5   1  250.75    9.50
   1   5  -1  255.76    7.31
  -1   5   1  254.62    7.18
   1   5  -1  259.55    7.28
  -1   5   1  274.34    7.37
  -1   5   1  263.57    7.32
   1   5   0  237.90    9.66
  -1   5   0  252.28    7.03
   1   5   0  258.86    7.17
  -1   5   0  253.48    7.10
   1   5   0  251.59    7.05
  -1   5   0  260.39    7.12
  -1   5   0  228.67    9.20
  -1   5  -1   58.79    2.23
   1   5   1   62.50    2.23
   1   5   1   64.24    2.40
  -1   5  -1   60.99    3.84
  -1   5  -1   59.65    2.23
   1   5   1   62.27    2.38
  -1   5  -1   62.45    2.27
   1   5   2    5.56    0.66
  -1   5  -2    8.15    0.75
   1   5   2    6.83    0.84
  -1   5  -2    5.76    1.32
   1   5   2    6.31    0.79
  -1   5  -2    7.34    0.72
  -1   5  -3    8.49    0.77
  -1   5  -3    7.46    0.73
  -1   5  -3    8.18    0.82
   1   5   3    7.20    0.85
   1   5   3    7.68    0.90
   1   5   4   21.06    1.37
  -1   5  -4   23.01    1.21
  -1   5  -4   21.18    1.16
  -1   5  -4   22.18    1.28
   1   5   5   -0.05    0.61
  -1   5  -5    0.37    0.51
  -1   5  -5    0.88    0.57
  -1   5  -6  110.42    3.53
  -1   5  -6  108.66    3.60
   1   5   6  110.47    3.72
  -1   5  -7   16.59    1.11
  -1   5  -7   19.49    1.15
  -1   5  -8    2.25    0.55
  -1   5  -8    2.40    0.62
   1   5   8    2.77    0.70
   1   5   9   23.58    1.24
  -1   5  -9   21.42    1.19
  -1   5 -10   15.48    0.92
   1   5  10   13.51    0.85
  -1   5 -11   10.74    0.69
   1   5  11    9.59    0.57
   1   6 -10    2.50    0.46
  -1   6  10    2.11    0.35
  -1   6   9   15.31    0.86
   1   6  -9   15.30    0.91
  -1   6   8    3.23    0.63
   1   6  -8    3.25    0.66
   1   6  -7    8.92    0.87
  -1   6   6    2.88    0.73
   1   6  -6    2.57    0.66
   1   6  -5   10.22    0.94
  -1   6   5   11.12    0.98
  -1   6   4   18.53    1.23
  -1   6   4   18.95    1.25
   1   6  -4   19.02    1.20
   1   6  -3  177.10    5.37
  -1   6   3  187.51    5.42
  -1   6   2   25.79    1.42
   1   6  -2   22.13    1.27
   1   6  -2   23.44    1.33
  -1   6   2   22.65    2.41
  -1   6   2   23.36    1.34
  -1   6   1   82.18    2.82
   1   6  -1   76.59    2.74
  -1   6   1   73.76    4.49
   1   6  -1   79.35    2.82
  -1   6   1   82.26    2.89
  -1   6   0   97.77    3.24
   1   6   0   93.82    3.17
   1   6   0  102.85    3.37
  -1   6   0  103.62    3.34
  -1   6   0   89.20    5.06
  -1   6  -1   72.81    2.62
   1   6   1   72.00    2.68
  -1   6  -1   64.32    4.10
   1   6   1   72.93    2.48
   1   6   1   72.67    2.63
   1   6   2   45.10    1.95
   1   6   2   46.95    2.00
  -1   6  -2   45.98    1.88
  -1   6  -2   45.24    1.77
  -1   6  -3    9.16    0.78
   1   6   3    8.64    0.93
  -1   6  -3    9.25    0.81
  -1   6  -4   14.00    0.93
  -1   6  -4   14.21    0.96
   1   6   4   14.02    1.11
   1   6   5   12.63    1.04
  -1   6  -5   13.28    0.92
   1   6   6    1.95    0.64
  -1   6  -6    2.20    0.56
   1   6   7    0.49    0.55
  -1   6  -7   -0.10    0.45
  -1   6  -8   10.81    0.73
   1   6   9    6.91    0.55
  -1   6  -9    6.82    0.53
  -1   6 -10   16.37    0.64
   1   6  10   17.83    0.67
   1   7  -8   12.28    0.52
   1   7  -7    1.98    0.34
  -1   7   7    1.81    0.37
   1   7  -6   12.00    0.69
  -1   7   6   13.16    0.76
  -1   7   5   10.89    0.75
   1   7  -5    9.85    0.67
  -1   7   4   18.25    0.98
   1   7  -4   18.01    0.94
   1   7  -3    2.98    0.49
  -1   7   3    2.40    0.51
   1   7  -2    0.27    0.39
  -1   7   2    0.68    0.43
  -1   7   2    0.15    0.53
   1   7  -1   32.90    1.30
  -1   7   1   34.53    1.47
  -1   7   1   33.24    1.33
  -1   7   0    4.09    0.61
  -1   7  -1   23.96    1.15
  -1   7  -2    8.33    0.67
   1   7   2    8.22    0.64
   1   7   3    2.20    0.45
  -1   7  -3    2.34    0.42
   1   7   4   15.70    0.85
   1   7   5   17.73    0.88
   1   7   6    5.48    0.47
  -1   7  -6    4.07    0.32
   1   7   7    6.39    0.42
  -2  -8   3    3.28    0.21
  -2  -8   2   10.55    0.43
  -2  -8   1    2.83    0.22
  -2  -8   0   17.63    0.59
   2  -8   1    6.22    0.31
  -2  -7   7    8.52    0.45
  -2  -7   6    7.66    0.52
  -2  -7   5    4.97    0.54
  -2  -7   3   -0.14    0.43
   2  -7  -3    0.11    0.29
   2  -7  -2   25.72    1.10
  -2  -7   2   27.64    1.18
   2  -7  -1    1.68    0.48
  -2  -7   1    2.38    0.49
   2  -7   0    9.44    0.74
  -2  -7   0    9.51    0.65
   2  -7   1    6.11    0.70
  -2  -7  -1    7.54    0.54
  -2  -7  -2   12.78    0.71
  -2  -7  -3    3.52    0.39
   2  -7   3    3.66    0.55
   2  -7   4   20.72    0.95
   2  -7   5   -0.12    0.31
   2  -7   6    6.07    0.34
  -2  -6  10    5.79    0.36
  -2  -6  10    5.81    0.40
  -2  -6   9   27.31    1.00
  -2  -6   9   27.03    1.05
  -2  -6   8    2.37    0.43
  -2  -6   8    1.88    0.38
  -2  -6   8    2.09    0.37
  -2  -6   7    7.52    0.63
  -2  -6   7    7.29    0.60
  -2  -6   7    7.35    0.54
  -2  -6   6   31.89    1.30
  -2  -6   6   31.64    1.21
  -2  -6   6   32.56    1.38
  -2  -6   5   13.37    0.80
  -2  -6   5   14.42    0.98
  -2  -6   4   31.70    1.31
   2  -6  -4   32.71    2.89
  -2  -6   4   34.65    1.55
   2  -6  -3   44.74    1.78
   2  -6  -3   44.32    3.34
   2  -6  -2   17.27    1.10
   2  -6  -2   14.77    2.01
  -2  -6   2   15.61    1.08
  -2  -6   1   29.73    1.45
   2  -6  -1   30.20    2.64
   2  -6  -1   30.79    1.52
  -2  -6   0   84.81    4.58
   2  -6   0   87.16    3.06
  -2  -6   0   88.91    2.88
   2  -6   1   44.17    1.95
  -2  -6  -1   45.80    1.73
  -2  -6  -1   42.77    3.28
  -2  -6  -2   13.36    2.03
  -2  -6  -2   12.26    0.78
   2  -6   3   47.87    2.01
   2  -6   4   34.15    1.36
  -2  -6  -4   36.21    1.39
   2  -6   5   27.78    1.30
   2  -6   5   26.82    1.14
   2  -6   6   11.34    0.75
   2  -6   7    0.76    0.36
   2  -6   7    1.15    0.34
   2  -6   8    1.85    0.34
   2  -6   9    8.60    0.40
  -2  -5  12    7.60    0.51
  -2  -5  12    7.58    0.46
  -2  -5  12    8.36    0.48
  -2  -5  11    1.77    0.43
  -2  -5  11    1.66    0.41
  -2  -5  11    2.09    0.41
  -2  -5  10   17.67    0.92
  -2  -5  10   15.36    0.87
  -2  -5  10   17.50    0.94
  -2  -5   9    3.40    0.57
  -2  -5   9    3.79    0.57
  -2  -5   9    4.44    0.63
  -2  -5   8   16.93    0.99
  -2  -5   8   17.77    1.05
  -2  -5   8   16.93    0.98
  -2  -5   8   16.34    0.89
  -2  -5   7    9.92    0.79
  -2  -5   7    8.97    0.74
  -2  -5   7    8.76    0.76
   2  -5  -7   10.15    1.83
  -2  -5   7    8.82    0.74
   2  -5  -6   17.16    2.23
  -2  -5   6   19.71    1.12
  -2  -5   6   17.81    1.04
  -2  -5   6   19.03    1.02
  -2  -5   5   46.15    1.73
  -2  -5   5   46.88    1.79
  -2  -5   5   46.55    1.88
  -2  -5   4    7.99    0.64
  -2  -5   4    8.06    0.85
   2  -5  -4    9.92    1.80
  -2  -5   4    8.51    0.72
   2  -5  -3   74.70    4.38
  -2  -5   3   79.70    2.58
  -2  -5   2  188.89    5.48
   2  -5  -2  185.37    7.50
  -2  -5   2  175.84    6.96
  -2  -5   2  193.28    5.32
  -2  -5   1  235.05    6.71
  -2  -5   1  257.64    8.93
   2  -5  -1  249.19    8.86
  -2  -5   0   80.88    2.73
  -2  -5   0   88.60    4.70
   2  -5   0   84.43    4.29
  -2  -5  -1   54.29    2.01
   2  -5   1   59.84    3.30
  -2  -5  -1   60.53    3.99
  -2  -5  -2   42.67    3.46
   2  -5   2   41.86    1.55
  -2  -5  -2   40.11    1.59
  -2  -5  -3   40.31    3.38
   2  -5   3   40.58    1.84
   2  -5   3   38.86    1.56
  -2  -5  -4    3.33    1.49
   2  -5   4    1.69    0.68
   2  -5   4    1.66    0.45
  -2  -5  -5   54.75    3.84
   2  -5   5   50.01    1.78
  -2  -5  -5   55.32    1.89
   2  -5   5   52.52    1.94
   2  -5   5   50.04    1.79
   2  -5   5   52.88    2.07
   2  -5   6   11.34    0.75
   2  -5   6   12.32    0.88
   2  -5   6   12.97    0.76
   2  -5   6   13.07    0.89
  -2  -5  -6   10.13    1.81
   2  -5   7    0.40    0.43
   2  -5   7    0.38    0.38
   2  -5   7    0.63    0.50
   2  -5   7    0.22    0.37
   2  -5   8   15.56    0.87
   2  -5   8   15.77    0.83
   2  -5   9    7.94    0.63
   2  -5   9    7.17    0.56
   2  -5   9    7.67    0.57
   2  -5  10    5.28    0.42
   2  -5  10    5.47    0.43
   2  -5  10    4.77    0.54
   2  -5  11    1.43    0.20
   2  -5  11    1.02    0.21
   2  -5  11    0.98    0.27
  -2  -4  14   17.92    0.62
  -2  -4  14   18.26    0.62
  -2  -4  14   18.55    0.66
  -2  -4  13    9.13    0.49
  -2  -4  13    9.46    0.63
  -2  -4  13   10.47    0.58
  -2  -4  13   10.44    0.58
  -2  -4  12   10.38    0.70
  -2  -4  12   10.46    0.77
  -2  -4  12   11.50    0.73
  -2  -4  12   10.11    0.64
  -2  -4  11   44.43    1.71
  -2  -4  11   43.31    1.59
  -2  -4  11   44.53    1.75
  -2  -4  10   62.85    2.27
  -2  -4  10   66.78    2.19
  -2  -4  10   64.61    2.36
   2  -4  -9   12.98    1.76
  -2  -4   9   14.84    1.07
  -2  -4   9   14.38    0.88
  -2  -4   9   13.27    1.62
  -2  -4   9   14.39    0.97
  -2  -4   8   36.75    2.60
  -2  -4   8   36.46    1.59
   2  -4  -8   37.07    2.90
  -2  -4   8   36.63    1.65
  -2  -4   8   38.81    1.63
   2  -4  -7  341.20   11.83
  -2  -4   7  351.31   10.97
  -2  -4   7  352.50    9.35
  -2  -4   7  339.01    9.23
  -2  -4   7  348.15    9.36
  -2  -4   7  350.05    9.31
  -2  -4   6  123.82    3.77
  -2  -4   6  127.41    3.81
   2  -4  -6  123.91    5.81
  -2  -4   6  128.06    5.08
  -2  -4   6  128.26    3.82
  -2  -4   5  283.78    7.53
  -2  -4   5  275.33    7.40
  -2  -4   5  268.26    7.44
   2  -4  -5  266.12    9.70
  -2  -4   4   22.80    1.05
  -2  -4   4   23.14    1.20
  -2  -4   3    4.45    0.64
  -2  -4   3    1.94    0.40
  -2  -4   3    2.67    0.98
   2  -4  -3    2.09    1.13
  -2  -4   2  123.28    4.92
   2  -4  -2  113.38    4.92
  -2  -4   2  108.62    3.37
  -2  -4   1   31.13    1.32
   2  -4  -1   30.62    2.31
  -2  -4   0  247.87    8.48
   2  -4   0  223.93    7.82
   2  -4   1  319.73    9.82
  -2  -4  -1  343.45   10.83
   2  -4   2  128.24    5.45
   2  -4   2  124.31    4.68
   2  -4   2  126.59    3.71
   2  -4   3  118.16    5.46
   2  -4   3  129.17    3.78
   2  -4   4   12.70    0.73
   2  -4   4   12.08    1.86
   2  -4   4   11.54    0.76
  -2  -4  -4   11.01    1.92
   2  -4   4   13.40    0.89
  -2  -4  -5   59.83    3.91
   2  -4   5   56.48    3.78
   2  -4   5   61.11    2.19
   2  -4   5   58.06    2.01
   2  -4   5   59.49    2.09
   2  -4   6    4.20    0.62
   2  -4   6    4.62    0.57
   2  -4   6    3.86    0.61
   2  -4   6    2.98    1.35
   2  -4   6    3.98    0.66
  -2  -4  -6    4.93    1.50
   2  -4   7   16.16    2.10
   2  -4   7   17.38    0.99
   2  -4   7   17.21    0.95
   2  -4   7   16.58    1.01
  -2  -4  -7   17.21    2.10
   2  -4   7   16.73    1.00
   2  -4   8    7.80    0.68
   2  -4   8    7.91    0.77
   2  -4   8    7.06    0.71
   2  -4   8    6.56    0.69
   2  -4   8    8.11    0.76
   2  -4   9   16.03    0.93
   2  -4   9   15.65    0.90
   2  -4   9   15.01    0.94
   2  -4   9   15.50    0.96
   2  -4   9   16.01    0.99
   2  -4  10    1.78    0.50
   2  -4  10    1.53    0.47
   2  -4  10    1.54    0.45
   2  -4  10    1.90    0.52
   2  -4  10    2.08    0.45
   2  -4  11   14.87    0.78
   2  -4  11   15.12    0.88
   2  -4  11   14.50    0.73
   2  -4  11   14.96    0.79
   2  -4  11   13.36    0.70
   2  -4  12    8.99    0.49
   2  -4  12    8.72    0.55
  -2  -3  15    8.00    0.36
  -2  -3  14    0.44    0.35
  -2  -3  14    0.70    0.27
  -2  -3  14    0.48    0.28
  -2  -3  14    0.93    0.39
  -2  -3  13   87.98    2.66
  -2  -3  13   91.63    2.77
  -2  -3  13   86.77    2.69
  -2  -3  13   86.24    2.65
  -2  -3  12    7.32    0.69
  -2  -3  12    6.64    0.72
  -2  -3  12    5.91    0.66
  -2  -3  11   41.49    1.69
  -2  -3  11   39.26    2.75
  -2  -3  11   42.57    1.69
  -2  -3  11   41.55    1.71
  -2  -3  10    8.57    1.39
  -2  -3  10   10.58    0.82
  -2  -3  10   10.68    0.86
  -2  -3  10   10.04    0.90
  -2  -3  10    8.93    0.96
  -2  -3   9   18.91    1.03
  -2  -3   9   18.76    1.11
  -2  -3   9   18.48    1.09
  -2  -3   9   18.55    1.23
  -2  -3   9   18.43    1.10
  -2  -3   9   20.01    2.03
  -2  -3   9   19.70    1.10
  -2  -3   8  197.37    7.31
  -2  -3   8  205.66    5.72
  -2  -3   8  198.76    5.68
  -2  -3   8  205.12    5.67
  -2  -3   8  205.14    5.69
  -2  -3   8  205.34    5.87
   2  -3  -8  191.46    7.43
  -2  -3   7   21.03    1.04
  -2  -3   7   20.49    1.88
  -2  -3   7   22.08    1.08
   2  -3  -7   22.77    2.09
  -2  -3   7   21.33    1.06
  -2  -3   7   21.05    1.04
  -2  -3   6  192.44    5.53
  -2  -3   6  207.19    5.54
  -2  -3   6  203.42    5.55
  -2  -3   6  204.74    6.88
   2  -3  -6  205.97    7.34
   2  -3  -5  597.97   17.00
  -2  -3   5  642.38   17.14
   2  -3  -4   25.84    1.61
  -2  -3   4   23.10    1.39
  -2  -3   4   23.03    1.62
  -2  -3   4   24.17    1.62
   2  -3  -3  463.44   13.24
  -2  -3   3  435.88   12.37
   2  -3  -3  434.03   12.42
  -2  -3   3  454.09   12.69
  -2  -3   3  461.74   12.57
  -2  -3   2   97.03    3.71
   2  -3  -2   98.91    3.62
   2  -3  -2   99.70    3.71
   2  -3  -2  102.97    4.25
  -2  -3   2   89.81    3.58
  -2  -3   1 1138.88   30.92
   2  -3  -1 1171.98   31.13
   2  -3  -1 1194.50   30.87
   2  -3  -1 1164.90   31.58
  -2  -3   1 1172.02   30.63
   2  -3   0  680.09   19.82
  -2  -3   0  775.44   19.81
  -2  -3   0  701.97   19.22
  -2  -3   0  692.91   18.64
   2  -3   0  746.99   19.16
   2  -3   0  707.60   19.55
  -2  -3  -1  626.27   16.31
  -2  -3  -1  666.67   17.74
  -2  -3  -1  640.83   17.26
   2  -3   2  182.38    5.51
   2  -3   2  181.40    6.68
  -2  -3  -2  177.44    6.15
   2  -3   3  201.06    6.15
  -2  -3  -3  199.42    7.01
   2  -3   4   46.85    3.25
   2  -3   4   52.03    2.61
  -2  -3  -4   51.41    3.12
   2  -3   5  218.50    5.98
  -2  -3  -5  227.48    8.08
   2  -3   5  208.80    8.28
   2  -3   5  218.65    7.35
   2  -3   6  177.54    4.97
   2  -3   6  177.65    6.50
   2  -3   6  173.67    4.98
   2  -3   6  169.38    4.99
   2  -3   6  170.39    7.33
  -2  -3  -6  172.04    6.87
   2  -3   7   93.32    5.25
   2  -3   7   99.34    3.18
   2  -3   7   96.93    3.17
   2  -3   7   98.66    3.19
   2  -3   7  107.77    4.75
   2  -3   7   98.75    3.21
  -2  -3  -7   98.35    4.72
   2  -3   8  275.78    7.43
   2  -3   8  270.51    7.39
   2  -3   8  264.77    7.43
   2  -3   8  275.47    9.37
   2  -3   8  257.22    7.41
   2  -3   8  267.87    7.35
   2  -3   8  250.97   10.02
   2  -3   9   11.47    1.58
   2  -3   9   11.85    0.91
   2  -3   9   11.08    0.85
   2  -3   9   10.37    0.92
   2  -3   9   11.49    0.91
   2  -3  10   33.46    1.39
   2  -3  10   32.49    1.51
   2  -3  10   33.52    1.47
   2  -3  10   32.35    1.49
   2  -3  11   66.38    2.24
   2  -3  11   69.01    2.27
   2  -3  11   64.52    2.26
   2  -3  11   66.08    2.12
   2  -3  12   29.52    1.16
   2  -3  12   27.67    1.17
   2  -3  12   26.85    1.16
   2  -3  12   28.21    1.21
   2  -3  12   29.27    1.17
   2  -3  13    1.62    0.33
   2  -3  13    1.54    0.26
   2  -3  13    1.34    0.30
   2  -3  13    1.46    0.30
  -2  -2  15    1.71    0.31
  -2  -2  14    2.47    0.36
  -2  -2  14    2.84    0.37
  -2  -2  14    2.80    0.50
  -2  -2  13    4.08    0.49
  -2  -2  13    4.01    0.67
  -2  -2  13    4.05    0.52
  -2  -2  13    4.45    0.77
  -2  -2  12    6.38    1.27
  -2  -2  12    6.81    0.67
  -2  -2  12    7.16    0.84
  -2  -2  12    6.38    0.82
  -2  -2  12    6.55    0.67
  -2  -2  11    4.54    0.78
  -2  -2  11    4.15    0.77
  -2  -2  11    5.01    0.65
  -2  -2  11    5.49    0.75
  -2  -2  11    5.07    0.69
  -2  -2  11    6.25    1.38
  -2  -2  10  322.88    8.66
  -2  -2  10  321.76    8.76
  -2  -2  10  328.91    8.76
  -2  -2  10  309.80    8.61
  -2  -2   9   53.87    1.85
  -2  -2   9   53.68    1.95
  -2  -2   9   53.59    1.97
  -2  -2   9   52.48    2.04
  -2  -2   8  274.79    7.28
  -2  -2   8  263.99    8.85
  -2  -2   8  276.79    7.33
  -2  -2   8  265.78    7.28
   2  -2  -8  260.22    8.61
  -2  -2   8  268.01    7.18
  -2  -2   8  265.53    7.24
   2  -2  -7  109.20    4.47
  -2  -2   7  118.07    4.63
   2  -2  -6   34.38    1.94
  -2  -2   6   31.41    2.05
   2  -2  -6   33.13    1.86
   2  -2  -5  439.70   12.12
   2  -2  -5  434.29   12.31
  -2  -2   5  461.79   12.40
   2  -2  -5  435.77   11.26
  -2  -2   4  515.09   13.32
  -2  -2   4  511.29   13.90
   2  -2  -4  513.47   14.16
   2  -2  -4  468.60   13.32
   2  -2  -4  502.27   13.70
  -2  -2   3  330.83    9.11
  -2  -2   3  317.49    9.16
   2  -2  -3  291.48    8.88
  -2  -2   3  331.67    9.09
   2  -2  -3  318.57    9.57
  -2  -2   3  319.13    8.91
  -2  -2   2  120.90    3.86
   2  -2  -2  112.48    3.62
  -2  -2   2  118.07    3.82
   2  -2  -2  117.82    4.51
  -2  -2   2  114.21    3.76
  -2  -2   2  116.29    3.91
   2  -2  -1  453.91   11.65
   2  -2  -1  487.97   13.58
   2  -2  -1  477.28   12.37
  -2  -2   1  465.62   12.49
  -2  -2   1  467.44   12.36
   2  -2  -1  518.75   13.11
  -2  -2   1  494.26   12.81
   2  -2   0 1584.76   40.17
   2  -2   0 1529.50   41.67
   2  -2   0 1625.40   40.56
  -2  -2   0 1564.85   40.92
   2  -2   0 1664.44   41.19
  -2  -2   0 1626.64   40.73
  -2  -2   0 1610.34   40.30
   2  -2   1  162.36    5.53
  -2  -2  -1  162.20    4.61
  -2  -2  -1  175.58    5.29
   2  -2   1  165.90    4.95
   2  -2   1  161.33    5.96
  -2  -2  -2   64.73    2.70
  -2  -2  -2   61.73    2.83
   2  -2   2   63.99    2.61
   2  -2   2   62.07    3.31
   2  -2   3  945.80   24.26
  -2  -2  -3  925.46   24.35
   2  -2   3  919.99   25.07
   2  -2   3  865.70   24.38
   2  -2   4  297.32   10.10
   2  -2   4  309.21    9.44
  -2  -2  -4  311.84    9.42
   2  -2   5   31.07    2.23
  -2  -2  -5   30.38    2.07
  -2  -2  -5   32.49    2.18
   2  -2   6   89.65    4.19
   2  -2   6   86.15    2.72
   2  -2   6   83.51    2.75
  -2  -2  -6   83.79    3.80
   2  -2   7   78.80    2.68
   2  -2   7   91.97    2.80
   2  -2   7   82.91    2.79
   2  -2   7   78.82    4.82
  -2  -2  -7   84.03    3.72
   2  -2   7   85.57    4.31
   2  -2   8  100.73    3.25
   2  -2   8  100.19    5.32
   2  -2   8   98.57    4.79
   2  -2   8   99.14    3.14
   2  -2   9  121.42    4.03
   2  -2   9  127.12    3.98
   2  -2   9  126.10    5.70
   2  -2   9  125.16    3.96
   2  -2   9  132.16    3.84
   2  -2   9  130.35    3.97
   2  -2  10   69.26    2.59
   2  -2  10   70.17    2.50
   2  -2  10   69.67    3.99
   2  -2  10   68.83    2.51
   2  -2  10   71.06    2.34
   2  -2  10   68.70    2.46
   2  -2  11   73.89    2.49
   2  -2  11   74.56    2.48
   2  -2  11   69.89    2.55
   2  -2  11   72.38    2.28
   2  -2  12   40.35    1.52
   2  -2  12   39.11    1.54
   2  -2  12   42.49    1.57
   2  -2  13    9.15    0.55
   2  -2  13    9.96    0.65
   2  -2  13   10.04    0.57
   2  -2  13    9.62    0.60
   2  -2  14    9.73    0.42
  -2  -1  15    7.50    0.45
  -2  -1  15    9.45    0.59
  -2  -1  14   12.75    0.82
  -2  -1  14   10.59    0.73
  -2  -1  13    3.28    0.68
  -2  -1  13    2.81    0.42
  -2  -1  13    2.90    0.41
  -2  -1  13    1.90    0.59
  -2  -1  12   30.83    1.29
  -2  -1  12   31.28    1.44
  -2  -1  12   32.16    1.52
  -2  -1  12   29.67    1.26
  -2  -1  12   30.64    1.44
  -2  -1  12   32.64    2.52
  -2  -1  11  156.22    4.60
  -2  -1  11  151.14    4.52
  -2  -1  11  147.57    4.38
  -2  -1  11  147.16    6.19
  -2  -1  11  153.37    4.51
  -2  -1  11  152.49    4.38
  -2  -1  10    7.02    1.45
  -2  -1  10    5.30    0.78
  -2  -1  10    4.73    0.60
  -2  -1  10    6.44    0.64
  -2  -1  10    5.60    0.72
  -2  -1  10    4.46    0.72
  -2  -1   9  262.43    6.92
  -2  -1   9  261.93    6.91
  -2  -1   9  250.40    8.68
  -2  -1   9  264.14    6.99
  -2  -1   9  258.99    7.02
  -2  -1   8  140.31    5.38
  -2  -1   7   46.62    2.52
   2  -1  -7   46.07    2.27
   2  -1  -6  834.58   21.48
  -2  -1   6  856.13   21.61
  -2  -1   6  861.57   21.90
   2  -1  -5 1561.41   36.94
   2  -1  -5 1502.02   37.05
  -2  -1   5 1522.52   37.32
   2  -1  -4 1490.86   34.83
  -2  -1   4 1478.53   35.21
   2  -1  -4 1371.63   34.83
  -2  -1   4 1455.43   34.66
  -2  -1   4 1310.86   34.38
  -2  -1   3 1941.59   50.20
   2  -1  -3 2022.53   49.84
   2  -1  -3 1983.36   50.00
  -2  -1   3 2006.91   49.88
  -2  -1   3 2017.77   49.99
  -2  -1   2  898.80   23.86
  -2  -1   2  963.45   23.78
   2  -1  -2  919.13   24.22
   2  -1  -2  940.80   23.48
  -2  -1   2  945.77   23.65
  -2  -1   1  380.58    9.94
  -2  -1   1  384.69    9.96
  -2  -1   1  396.11   10.18
   2  -1  -1  369.33   10.73
   2  -1  -1  372.42    9.76
   2  -1   0 4803.01  120.46
  -2  -1   0 4803.00  119.16
  -2  -1   0 4992.13  119.40
   2  -1   0 4594.23  119.52
  -2  -1  -1 5850.25  141.40
   2  -1   1 5882.76  141.55
  -2  -1  -1 5919.35  141.21
  -2  -1  -2 6472.23  160.84
   2  -1   2 6369.28  161.09
  -2  -1  -2 6511.26  160.75
   2  -1   2 6502.52  161.16
   2  -1   3 1314.31   33.90
  -2  -1  -3 1344.22   33.65
   2  -1   3 1323.35   34.65
  -2  -1  -3 1376.85   33.66
   2  -1   4 1125.83   29.66
   2  -1   4 1051.15   29.03
   2  -1   4 1099.90   28.92
  -2  -1  -4 1134.09   28.59
   2  -1   5  437.23   13.42
   2  -1   5  437.56   12.66
  -2  -1  -5  464.11   12.32
   2  -1   5  420.07   12.90
   2  -1   6  212.62    7.75
  -2  -1  -6  211.06    7.00
  -2  -1  -6  216.47    6.44
   2  -1   7  282.91    9.65
   2  -1   7  269.03    7.36
   2  -1   8   18.35    2.20
   2  -1   8   17.96    1.13
   2  -1   8   17.12    1.02
   2  -1   8   16.65    0.92
   2  -1   9   14.78    1.07
   2  -1   9   12.95    0.94
   2  -1   9   12.44    1.88
   2  -1  10  106.04    5.26
   2  -1  10  110.96    3.52
   2  -1  10  114.85    3.62
   2  -1  10  112.08    3.53
   2  -1  10  112.80    3.67
   2  -1  11   25.77    1.24
   2  -1  11   27.77    1.44
   2  -1  11   25.63    1.34
   2  -1  11   27.16    2.36
   2  -1  11   26.63    1.28
   2  -1  11   26.08    1.26
   2  -1  12    5.87    0.57
   2  -1  12    5.07    0.70
   2  -1  12    6.03    0.61
   2  -1  12    5.57    0.57
   2  -1  12    5.92    0.69
   2  -1  13   16.01    0.72
   2  -1  13   16.67    0.81
   2  -1  13   16.49    0.89
   2  -1  13   17.61    0.86
   2  -1  14    2.36    0.35
   2  -1  14    1.88    0.22
  -2   0  15   16.75    0.76
  -2   0  14    7.94    0.67
  -2   0  13    4.47    0.58
  -2   0  13    4.64    0.68
  -2   0  12   47.79    1.84
  -2   0  12   50.15    3.01
  -2   0  12   48.36    1.89
  -2   0  11    5.10    0.69
  -2   0  11    5.61    1.20
  -2   0  11    5.62    0.67
  -2   0  11    5.01    0.75
  -2   0  10  411.88   11.08
  -2   0  10  429.87   11.06
  -2   0  10  413.45   11.01
  -2   0  10  432.60   12.90
  -2   0   9  341.13    9.14
  -2   0   9  339.45    9.07
  -2   0   9  351.85    9.12
  -2   0   9  342.01   10.69
  -2   0   8    4.51    1.01
  -2   0   7  589.32   15.61
   2   0  -7  577.98   15.47
   2   0  -7  575.02   15.53
  -2   0   6  698.57   18.34
   2   0  -6  715.31   18.67
   2   0  -6  688.97   18.82
  -2   0   6  734.03   18.84
   2   0  -5 1213.25   30.83
  -2   0   5 1261.78   30.84
  -2   0   5 1241.64   30.53
  -2   0   5 1174.94   30.05
   2   0  -4 1486.23   37.65
  -2   0   4 1494.07   37.43
  -2   0   4 1470.17   37.15
   2   0  -4 1495.65   37.31
  -2   0   4 1518.73   37.62
   2   0  -3 1892.89   48.57
  -2   0   3 1952.14   48.34
  -2   0   3 1918.76   48.48
  -2   0   3 1928.99   48.58
  -2   0   3 1938.61   48.51
   2   0  -3 1971.29   48.22
  -2   0   2  999.08   25.70
  -2   0   2 1036.37   25.66
  -2   0   2 1006.98   25.59
   2   0  -2 1037.03   25.72
   2   0  -1 2626.23   64.88
  -2   0   1 2577.77   64.57
   2   0   0 4262.70  107.02
  -2   0   0 4403.94  106.21
  -2   0   0 4143.44  106.31
   2   0   1  871.48   24.40
  -2   0  -1  952.74   23.52
   2   0   2 7301.64  182.96
   2   0   2 7379.55  182.37
  -2   0  -2 7336.45  181.92
   2   0   3  420.45   12.81
  -2   0  -3  452.51   11.84
   2   0   3  457.74   12.89
  -2   0  -4  291.02    7.64
   2   0   4  290.56    8.80
   2   0   4  288.16    8.86
   2   0   4  270.43    8.12
   2   0   5  537.97   14.40
  -2   0  -5  527.19   13.74
   2   0   5  551.40   15.28
   2   0   5  535.24   15.34
   2   0   6  815.26   21.53
  -2   0  -6  756.22   19.94
   2   0   6  808.22   21.63
  -2   0  -6  742.64   20.89
   2   0   7   52.84    3.13
   2   0   7   52.33    3.27
   2   0   8    1.09    0.60
   2   0   8    0.51    1.28
   2   0   8    0.95    0.48
   2   0   9  124.13    5.73
   2   0   9  121.79    3.83
   2   0   9  121.67    3.76
   2   0  10    1.18    0.70
   2   0  10    1.61    0.51
   2   0  10    1.15    0.50
   2   0  10    1.78    1.13
   2   0  10    1.74    0.64
   2   0  11    5.21    0.77
   2   0  11    3.92    1.11
   2   0  11    4.38    0.59
   2   0  11    4.14    0.68
   2   0  11    4.75    0.56
   2   0  12    1.83    0.44
   2   0  12    2.15    0.55
   2   0  12    1.49    0.59
   2   0  13    1.18    0.38
   2   0  13    1.88    0.48
   2   0  13    1.38    0.32
   2   0  14    1.52    0.27
  -2   1  14   10.00    0.62
  -2   1  13    2.41    0.51
  -2   1  12   29.88    1.32
  -2   1  11  148.39    4.33
  -2   1  10    5.48    0.67
  -2   1  10    4.74    1.00
  -2   1   9  252.20    6.81
  -2   1   9  252.43    8.02
  -2   1   8  136.85    4.72
   2   1  -8  124.25    5.36
   2   1  -7   41.15    2.47
  -2   1   7   41.75    2.06
   2   1  -7   47.33    2.30
  -2   1   6  829.45   21.58
  -2   1   6  837.56   21.40
   2   1  -6  803.71   22.25
   2   1  -6  835.72   21.80
  -2   1   5 1500.95   37.31
  -2   1   5 1481.48   37.33
   2   1  -5 1470.01   37.45
   2   1  -5 1427.45   37.95
  -2   1   4 1432.36   37.22
   2   1  -4 1502.58   37.25
  -2   1   4 1474.47   37.07
   2   1  -4 1507.13   37.75
  -2   1   3 2006.44   49.02
  -2   1   3 1966.54   48.67
   2   1  -3 2041.29   48.89
  -2   1   2  950.14   23.67
  -2   1   2  955.97   24.09
   2   1  -2  931.42   23.91
   2   1  -2  937.65   24.17
   2   1  -1  396.69   10.26
  -2   1   1  371.45   10.34
  -2   1   1  390.27   10.07
   2   1  -1  414.27   10.39
  -2   1   0 4753.83  121.64
  -2   1   0 4950.94  121.58
   2   1   0 5047.07  121.79
  -2   1   0 4900.43  121.46
   2   1   0 4706.06  121.51
   2   1   0 5091.30  121.64
   2   1   1 5989.11  148.53
  -2   1  -1 5915.20  148.63
   2   1   1 6148.18  149.12
  -2   1  -1 6038.05  148.75
   2   1   1 6046.58  148.87
  -2   1  -1 5913.35  148.76
   2   1   2 6113.73  155.77
  -2   1  -2 6372.74  156.09
  -2   1  -2 6515.90  155.90
   2   1   2 6106.54  156.88
   2   1   2 6198.55  156.33
  -2   1  -2 6384.69  156.25
   2   1   3 1360.75   34.09
  -2   1  -3 1320.48   34.21
  -2   1  -3 1390.84   34.48
   2   1   3 1415.65   35.60
   2   1   3 1307.42   34.76
   2   1   3 1438.05   34.50
  -2   1  -4 1129.33   27.55
   2   1   4 1098.29   28.02
   2   1   4 1058.91   27.04
   2   1   4 1168.38   28.84
   2   1   4 1050.06   27.25
  -2   1  -5  454.29   12.15
   2   1   5  448.41   13.39
   2   1   5  463.15   12.80
   2   1   6  224.03    7.04
   2   1   6  208.35    7.54
   2   1   7  268.80    9.30
   2   1   7  276.07    7.44
   2   1   8   17.94    1.05
   2   1   8   19.11    1.09
   2   1   8   16.93    0.99
   2   1   8   17.24    2.00
   2   1   9   13.10    0.89
   2   1   9   14.61    1.87
   2   1   9   14.16    0.94
   2   1   9   14.00    0.97
   2   1   9   12.82    0.94
   2   1  10  110.82    3.45
   2   1  10  111.96    3.47
   2   1  10  113.10    5.14
   2   1  10  111.34    3.43
   2   1  11   24.76    1.14
   2   1  11   25.49    1.19
   2   1  11   24.95    1.19
   2   1  12    6.12    0.58
   2   1  12    5.86    0.55
  -2   1 -14    1.65    0.55
   2   2 -13    5.39    0.86
   2   2 -12    7.34    1.02
  -2   2   7  106.52    4.03
  -2   2   6   31.70    1.84
   2   2  -6   33.20    2.31
   2   2  -5  442.84   12.49
  -2   2   5  452.14   12.51
   2   2  -5  446.71   13.15
  -2   2   4  485.26   13.49
   2   2  -4  502.53   13.49
  -2   2   4  491.74   13.11
  -2   2   3  299.47    8.93
  -2   2   3  319.98    8.64
   2   2  -3  315.06    9.35
   2   2  -3  323.58    8.94
   2   2  -2  116.27    3.89
  -2   2   2  117.72    4.00
  -2   2   2  117.10    3.72
   2   2  -2  116.95    4.08
   2   2  -1  473.06   12.86
   2   2  -1  472.60   12.84
  -2   2   1  481.68   12.65
   2   2   0 1595.19   40.23
  -2   2   0 1626.30   40.45
  -2   2   0 1626.36   40.23
   2   2   0 1603.63   40.38
   2   2   0 1545.01   39.82
   2   2   1  167.47    4.87
   2   2   1  163.74    5.22
  -2   2  -1  172.61    5.22
  -2   2  -1  170.31    5.12
   2   2   2   62.38    2.09
  -2   2  -2   64.90    2.52
  -2   2  -2   66.90    2.54
  -2   2  -3  910.83   23.86
   2   2   3  922.89   24.58
  -2   2  -3  921.15   24.09
  -2   2  -4  299.88    8.65
   2   2   4  304.60    9.35
   2   2   5   29.77    2.11
   2   2   6   81.67    3.89
   2   2   6   91.48    2.95
   2   2   7   84.39    4.09
   2   2   7   89.93    2.97
   2   2   7   86.66    2.80
   2   2   8   97.27    4.56
   2   2   8  102.17    3.21
   2   2   8  102.22    3.36
   2   2   9  128.99    4.04
   2   2  10   69.21    2.48
   2   2  11   68.37    2.33
  -2   2 -14    9.22    0.57
   2   3 -13   83.21    2.99
   2   3 -12    6.68    0.91
   2   3 -11   41.33    2.01
  -2   3  10    9.78    0.83
   2   3 -10   10.18    1.04
   2   3  -9   18.15    1.27
  -2   3   9   17.96    1.11
   2   3  -8  204.13    5.92
  -2   3   8  196.48    5.73
  -2   3   7   22.77    1.19
   2   3  -7   21.55    1.21
  -2   3   7   19.43    1.78
  -2   3   6  214.73    5.87
  -2   3   6  193.91    7.08
   2   3  -6  205.04    5.89
  -2   3   5  627.94   17.66
  -2   3   4   25.32    1.87
  -2   3   4   21.82    1.46
   2   3  -4   23.34    1.98
  -2   3   3  454.43   12.85
  -2   3   3  447.58   12.35
   2   3  -3  420.07   13.06
  -2   3   2  111.01    3.96
   2   3  -2  103.21    4.23
   2   3  -1 1191.04   31.09
  -2   3   1 1144.96   31.04
  -2   3   1 1221.81   30.86
   2   3  -1 1185.58   31.05
  -2   3   0  695.95   18.72
  -2   3   0  678.27   18.82
   2   3   0  710.73   18.70
  -2   3  -1  627.79   16.75
  -2   3  -1  609.19   16.82
   2   3   1  600.35   16.37
  -2   3  -2  186.31    6.14
   2   3   2  181.58    6.14
  -2   3  -3  193.28    6.49
   2   3   3  203.13    6.58
  -2   3  -4   45.98    2.40
   2   3   5  226.54    6.26
  -2   3  -5  224.92    6.25
  -2   3  -6  171.94    5.08
   2   3   6  181.41    5.33
   2   3   6  178.50    5.08
   2   3   7  103.20    3.24
  -2   3  -7   98.98    3.28
   2   3   7  108.41    3.52
   2   3   8  260.80    7.25
   2   3   8  271.40    7.60
   2   3   9   12.08    1.06
   2   3  10   30.51    1.49
   2   3  11   61.01    2.14
   2   3  12   22.04    0.93
  -2   3 -13    1.58    0.39
   2   4 -13    8.49    0.69
   2   4 -12   10.09    0.90
  -2   4  11   43.54    1.70
   2   4 -11   45.49    2.02
   2   4 -10   66.94    2.64
  -2   4  10   63.22    2.36
  -2   4   9   14.69    1.08
   2   4  -9   15.48    1.21
  -2   4   8   34.87    1.66
   2   4  -8   36.78    1.81
   2   4  -7  349.45    9.38
  -2   4   7  326.55    9.11
  -2   4   7  346.15    9.29
  -2   4   7  312.64   11.03
   2   4  -6  107.95    3.74
  -2   4   6  120.30    3.71
  -2   4   6  129.66    3.88
  -2   4   6  117.18    5.31
  -2   4   5  246.67    9.39
  -2   4   5  265.76    7.61
  -2   4   4   22.43    1.14
  -2   4   4   20.56    2.03
   2   4  -4   21.91    1.18
   2   4  -3    1.56    0.49
  -2   4   3    2.20    1.02
  -2   4   3    2.05    0.53
  -2   4   3    1.58    0.47
   2   4  -2  111.60    3.42
  -2   4   2  110.94    3.37
  -2   4   2  108.47    3.35
  -2   4   1   30.33    2.28
  -2   4   0  216.58    6.04
  -2   4   0  222.44    7.79
  -2   4   0  227.01    6.12
  -2   4  -1  297.72   10.07
   2   4   1  310.23    8.45
   2   4   1  317.18    8.55
  -2   4  -1  316.02    8.37
  -2   4  -1  316.79    8.39
  -2   4  -2  117.77    5.19
   2   4   2  126.14    4.02
   2   4   2  132.35    4.01
  -2   4  -2  129.96    3.81
   2   4   2  133.11    3.91
   2   4   3  123.04    4.03
  -2   4  -3  117.99    5.17
  -2   4  -3  127.45    3.76
  -2   4  -3  126.94    3.83
   2   4   3  133.60    3.89
   2   4   4   12.30    1.07
  -2   4  -4   12.48    0.90
   2   4   4   13.23    0.91
  -2   4  -4   12.49    0.80
   2   4   5   63.72    2.25
   2   4   5   63.43    2.50
  -2   4  -5   59.02    2.27
  -2   4  -5   60.89    2.15
  -2   4  -6    4.34    0.58
   2   4   6    5.06    0.62
  -2   4  -6    3.84    0.66
   2   4   7   17.36    1.25
  -2   4  -7   16.40    1.08
   2   4   8    7.61    0.91
  -2   4  -8    7.22    0.72
   2   4   9   18.10    1.18
   2   4  10    0.85    0.55
  -2   4 -10    1.82    0.61
   2   4  11   14.82    0.83
   2   4  12    5.84    0.36
   2   5 -12    7.65    0.60
   2   5 -11    1.55    0.58
  -2   5  11    1.60    0.40
   2   5 -10   16.03    1.14
  -2   5  10   17.14    1.01
   2   5  -9    4.10    0.80
  -2   5   9    3.87    0.70
  -2   5   8   18.11    1.23
  -2   5   7    9.09    0.97
  -2   5   6   18.83    1.18
  -2   5   6   18.96    1.28
   2   5  -6   20.35    1.31
  -2   5   6   18.20    2.13
  -2   5   5   45.84    1.96
   2   5  -5   47.41    2.03
  -2   5   5   42.81    3.25
  -2   5   4   10.43    0.95
   2   5  -4    9.16    0.93
  -2   5   4    7.76    1.52
  -2   5   4    9.80    0.98
  -2   5   3   84.06    2.95
   2   5  -3   78.58    2.89
  -2   5   3   80.63    2.85
  -2   5   2  181.94    5.28
  -2   5   2  195.77    5.54
  -2   5   2  173.56    7.34
   2   5  -2  174.75    5.41
   2   5  -2  197.97    5.55
  -2   5   1  235.04    8.97
  -2   5   1  253.34    6.92
   2   5  -1  241.46    6.96
   2   5  -1  246.85    6.97
  -2   5   1  246.42    6.92
  -2   5   1  241.40    6.79
  -2   5   0   89.10    2.93
   2   5   0   84.27    3.02
  -2   5   0   87.64    2.97
  -2   5   0   87.75    4.60
  -2   5   0   88.08    2.90
   2   5   0   90.03    3.00
  -2   5  -1   53.17    2.04
  -2   5  -1   56.44    2.06
   2   5   1   52.04    2.18
   2   5   1   52.06    2.18
  -2   5  -1   57.18    2.11
  -2   5  -1   50.01    3.40
   2   5   1   56.44    2.14
   2   5   2   42.90    1.77
   2   5   2   41.03    1.89
  -2   5  -2   39.44    1.69
  -2   5  -2   39.85    1.70
   2   5   3   39.64    1.70
   2   5   3   39.97    1.91
  -2   5  -3   38.35    1.64
  -2   5  -3   40.33    1.64
  -2   5  -4    1.62    0.56
  -2   5  -4    2.64    0.55
   2   5   4    2.75    0.58
  -2   5  -4    1.97    0.51
   2   5   4    2.92    0.79
   2   5   5   53.49    2.27
  -2   5  -5   53.15    2.02
  -2   5  -5   50.68    1.96
  -2   5  -5   52.42    2.11
   2   5   6   13.12    1.13
  -2   5  -6   13.28    1.03
  -2   5  -6   14.07    0.95
  -2   5  -7    0.60    0.52
  -2   5  -7   -0.06    0.46
  -2   5  -8   16.89    1.01
   2   5   8   15.87    1.07
  -2   5  -8   14.67    0.92
  -2   5  -9    7.83    0.70
   2   5   9    6.51    0.72
  -2   5 -10    5.49    0.53
   2   5  10    4.71    0.53
  -2   5 -11    0.95    0.27
   2   5  11    0.93    0.23
   2   6 -11    0.26    0.20
  -2   6  10    5.70    0.46
  -2   6   9   28.02    1.22
  -2   6   8    1.92    0.52
   2   6  -8    2.20    0.64
   2   6  -7    8.40    0.87
   2   6  -6   35.11    1.65
  -2   6   5   15.45    1.14
   2   6  -5   14.26    1.10
  -2   6   5   14.31    1.03
   2   6  -4   35.52    1.70
  -2   6   4   35.64    1.72
  -2   6   4   33.42    1.65
  -2   6   3   42.88    3.26
  -2   6   3   45.28    1.96
   2   6  -3   45.39    1.97
  -2   6   2   14.90    1.15
  -2   6   2   14.66    1.97
   2   6  -2   15.59    1.11
  -2   6   2   16.93    1.13
  -2   6   1   30.36    1.53
  -2   6   1   30.60    1.50
  -2   6   1   26.98    2.59
   2   6  -1   30.98    1.54
  -2   6   0   88.87    3.07
  -2   6   0   91.28    3.03
   2   6   0   90.44    3.03
  -2   6   0   80.43    4.61
   2   6   1   44.23    1.82
  -2   6  -1   47.08    1.84
   2   6   1   42.91    1.87
  -2   6  -1   44.69    1.83
  -2   6  -1   46.21    1.89
   2   6   2   11.49    0.98
  -2   6  -2   12.65    0.93
  -2   6  -2   12.42    0.94
   2   6   2   13.50    0.92
  -2   6  -3   44.58    1.77
   2   6   3   41.71    1.90
  -2   6  -4   37.75    1.56
   2   6   4   37.22    1.73
  -2   6  -4   36.73    1.51
  -2   6  -4   35.30    1.60
   2   6   5   28.29    1.42
  -2   6  -5   25.74    1.18
  -2   6  -5   26.01    1.23
  -2   6  -5   26.91    1.35
  -2   6  -6   12.17    0.80
   2   6   6   11.31    0.92
  -2   6  -7    1.22    0.40
   2   6   7    1.38    0.54
  -2   6  -8    1.89    0.38
  -2   6  -9    9.69    0.49
   2   6   9    9.95    0.58
   2   7  -8    2.75    0.29
  -2   7   7    9.85    0.62
   2   7  -7    8.52    0.57
   2   7  -6    7.13    0.60
  -2   7   6    7.11    0.59
   2   7  -5    4.29    0.54
  -2   7   5    4.41    0.57
  -2   7   4    8.30    0.70
   2   7  -4    7.56    0.69
   2   7  -3    0.19    0.45
  -2   7   3    0.53    0.46
   2   7  -2   26.14    1.18
  -2   7   2   24.73    1.14
  -2   7   2   26.73    1.25
  -2   7   1    2.10    0.43
   2   7  -1    1.57    0.46
  -2   7   1    2.04    0.55
  -2   7   0   10.08    0.78
   2   7   0    9.13    0.66
  -2   7  -1    7.44    0.67
  -2   7  -2   12.47    0.77
   2   7   3    3.45    0.44
  -2   7  -3    3.28    0.44
   2   7   4   18.77    0.87
   2   7   5    0.10    0.30
   2   7   6    6.10    0.42
  -3  -7   7    3.72    0.33
  -3  -7   6    2.15    0.36
  -3  -7   5    4.89    0.51
   3  -7  -3    3.93    0.42
  -3  -7   3    4.54    0.55
   3  -7  -2    6.37    0.57
  -3  -7   2    6.53    0.60
  -3  -7   1    0.22    0.38
   3  -7  -1    0.28    0.42
  -3  -7   0    0.42    0.34
   3  -7   0    0.53    0.48
   3  -7   1    1.19    0.50
  -3  -7  -1    1.18    0.31
  -3  -7  -1    1.36    0.39
  -3  -7  -2    0.04    0.28
  -3  -7  -3    0.22    0.24
   3  -7   3   -0.29    0.42
   3  -7   4    8.31    0.55
   3  -7   5    3.34    0.32
  -3  -6  10    7.60    0.45
  -3  -6  10    6.89    0.40
  -3  -6   9    4.34    0.45
  -3  -6   9    4.68    0.41
  -3  -6   8   10.49    0.62
  -3  -6   8   10.62    0.69
  -3  -6   8   10.55    0.61
  -3  -6   7   25.80    1.10
  -3  -6   7   24.98    1.11
  -3  -6   7   24.32    1.02
  -3  -6   6   18.60    1.00
  -3  -6   6   18.28    0.87
  -3  -6   6   18.73    0.96
  -3  -6   5   35.96    1.45
  -3  -6   5   37.47    1.58
   3  -6  -4   80.21    2.59
  -3  -6   4   78.42    2.54
  -3  -6   3    2.61    0.62
  -3  -6   3    2.81    0.46
   3  -6  -3    2.91    0.59
   3  -6  -3    1.33    1.02
   3  -6  -2   73.50    2.66
   3  -6  -2   78.84    4.34
  -3  -6   2   80.59    2.66
  -3  -6   1    8.51    0.77
   3  -6  -1    9.55    0.95
  -3  -6   0   38.34    1.56
   3  -6   0   37.59    1.77
  -3  -6   0   39.62    2.96
  -3  -6  -1   88.95    2.77
  -3  -6  -1   84.95    4.67
  -3  -6  -2    6.06    0.55
   3  -6   2    6.60    0.90
   3  -6   3    1.06    0.71
  -3  -6  -3    1.10    0.42
   3  -6   3    1.24    0.34
   3  -6   4   15.25    0.78
   3  -6   4   15.60    1.05
  -3  -6  -4   13.67    0.77
   3  -6   5    0.22    0.34
  -3  -6  -5    0.27    0.29
   3  -6   5    0.76    0.51
   3  -6   6    1.88    0.42
   3  -6   6    2.05    0.36
   3  -6   8    0.72    0.24
  -3  -5  12    6.22    0.40
  -3  -5  12    7.26    0.46
  -3  -5  11   11.46    0.66
  -3  -5  11   12.47    0.72
  -3  -5  10   14.08    0.84
  -3  -5  10   13.28    0.78
  -3  -5  10   13.73    0.87
  -3  -5   9    5.09    0.49
  -3  -5   9    5.83    0.69
  -3  -5   9    6.62    0.69
  -3  -5   9    4.92    0.60
  -3  -5   8   41.46    1.62
  -3  -5   8   39.41    1.53
  -3  -5   8   38.33    1.53
  -3  -5   8   42.98    1.70
  -3  -5   7   35.19    1.47
  -3  -5   7   35.33    1.55
  -3  -5   7   33.53    1.45
   3  -5  -7   32.74    2.88
  -3  -5   6   19.83    1.13
  -3  -5   6   20.39    1.09
   3  -5  -6   20.13    2.29
  -3  -5   6   20.63    1.14
  -3  -5   5   14.67    0.96
  -3  -5   5   15.79    0.93
  -3  -5   5   15.04    1.04
  -3  -5   4   55.04    2.08
  -3  -5   4   51.94    1.87
  -3  -5   4   51.94    1.96
   3  -5  -4   48.56    3.48
  -3  -5   3    4.04    0.56
   3  -5  -3    4.33    1.34
  -3  -5   2  235.13    8.64
  -3  -5   2  251.73    6.82
  -3  -5   2  247.88    6.91
   3  -5  -2  244.41    9.07
  -3  -5   1  117.05    3.74
  -3  -5   1  130.70    3.77
   3  -5  -1  121.10    5.51
  -3  -5   1  115.34    5.53
  -3  -5   0   38.64    3.19
  -3  -5   0   35.47    1.53
   3  -5   0   41.31    2.84
  -3  -5  -1    5.39    0.63
  -3  -5  -1    5.37    1.75
   3  -5   2  123.58    3.73
  -3  -5  -2  129.96    3.74
   3  -5   3   22.57    1.12
   3  -5   4   33.48    1.59
  -3  -5  -4   30.33    1.30
  -3  -5  -4   29.57    2.87
   3  -5   4   29.53    1.34
   3  -5   5   62.12    2.10
  -3  -5  -5   66.60    2.20
   3  -5   5   71.61    2.44
   3  -5   5   63.19    2.28
  -3  -5  -5   67.95    4.18
   3  -5   6   18.96    1.04
   3  -5   6   18.28    0.89
   3  -5   6   19.12    1.06
   3  -5   6   16.48    0.88
   3  -5   7    3.06    0.55
   3  -5   7    3.23    0.47
   3  -5   7    2.93    0.41
   3  -5   8    3.03    0.38
   3  -5   8    2.63    0.41
   3  -5   9    4.83    0.42
   3  -5   9    4.69    0.40
   3  -5   9    4.27    0.50
   3  -5  10    2.46    0.28
   3  -5  10    2.25    0.38
   3  -5  10    2.40    0.24
  -3  -4  14    3.00    0.22
  -3  -4  14    3.15    0.29
  -3  -4  14    3.27    0.24
  -3  -4  13    2.34    0.31
  -3  -4  13    2.45    0.37
  -3  -4  13    2.49    0.37
  -3  -4  13    2.24    0.43
  -3  -4  12   11.85    0.75
  -3  -4  12   11.15    0.81
  -3  -4  12   13.08    0.78
  -3  -4  12   11.55    0.68
  -3  -4  11    1.79    0.51
  -3  -4  11    1.93    0.48
  -3  -4  11    2.03    0.58
  -3  -4  10    3.86    0.56
  -3  -4  10    3.63    0.68
  -3  -4  10    3.15    0.68
  -3  -4   9   65.07    2.36
  -3  -4   9   64.11    2.18
  -3  -4   9   66.71    2.37
   3  -4  -9   63.92    3.87
  -3  -4   8  224.96    6.27
  -3  -4   8  218.27    6.09
   3  -4  -8  216.01    8.47
  -3  -4   8  226.38    6.27
  -3  -4   7  117.58    3.69
  -3  -4   7  122.04    3.65
  -3  -4   7  119.32    3.74
   3  -4  -7  122.71    5.76
  -3  -4   7  121.76    3.68
  -3  -4   6   33.72    1.47
  -3  -4   6   34.26    1.51
  -3  -4   6   34.44    1.45
   3  -4  -6   38.21    2.95
  -3  -4   6   36.38    1.53
  -3  -4   5   29.84    1.30
  -3  -4   5   30.02    1.37
  -3  -4   5   30.06    1.33
   3  -4  -5   31.12    2.69
  -3  -4   4   22.13    1.06
  -3  -4   4   23.91    1.18
  -3  -4   4   23.38    1.11
  -3  -4   3   18.95    0.92
  -3  -4   3   18.85    0.97
  -3  -4   3   19.36    1.81
  -3  -4   2   60.05    2.11
  -3  -4   2   62.63    2.07
  -3  -4   1   26.59    1.22
  -3  -4   1   31.07    2.57
  -3  -4   1   28.97    1.19
  -3  -4   0  165.03    4.80
  -3  -4   0  182.76    4.95
  -3  -4   0  184.58    7.03
   3  -4   0  158.22    6.73
  -3  -4  -1   15.99    0.87
   3  -4   1   17.06    0.87
  -3  -4  -1   18.62    2.22
   3  -4   1   16.66    2.00
   3  -4   2  230.42    8.85
   3  -4   2  232.04    6.36
   3  -4   3    1.78    1.32
   3  -4   3    6.66    0.65
  -3  -4  -3    2.95    1.48
  -3  -4  -4   20.69    2.36
  -3  -4  -4   18.65    0.95
   3  -4   4   17.60    0.96
   3  -4   4   18.47    1.06
   3  -4   5    7.73    1.81
  -3  -4  -5    9.85    0.71
   3  -4   5    9.37    0.69
   3  -4   5   10.45    0.85
  -3  -4  -5   10.28    1.88
   3  -4   5   10.11    0.78
   3  -4   6   57.55    4.12
   3  -4   6   64.55    2.17
  -3  -4  -6   63.11    3.95
   3  -4   6   60.76    2.23
   3  -4   6   62.97    2.28
   3  -4   6   64.47    2.34
   3  -4   6   62.72    2.23
  -3  -4  -7    9.79    1.55
   3  -4   7   11.44    1.94
   3  -4   7   10.49    0.75
   3  -4   7    9.93    0.75
   3  -4   7    9.89    0.83
   3  -4   7   10.92    0.86
   3  -4   8    2.83    0.56
   3  -4   8    3.03    0.60
   3  -4   8    2.80    0.52
   3  -4   8    3.46    0.66
   3  -4   8    2.74    0.58
   3  -4   9    2.35    0.49
   3  -4   9    3.09    0.55
   3  -4   9    2.99    0.53
   3  -4   9    2.92    0.46
   3  -4   9    3.01    0.57
   3  -4  10    7.39    0.60
   3  -4  10    7.94    0.64
   3  -4  10    6.80    0.59
   3  -4  10    8.36    0.63
   3  -4  10    8.87    0.59
   3  -4  11    9.44    0.57
   3  -4  11    7.81    0.48
   3  -4  11    9.39    0.55
   3  -4  11    9.34    0.64
   3  -4  11    8.94    0.50
   3  -4  12    7.00    0.36
   3  -4  12    6.87    0.34
   3  -4  12    6.15    0.35
  -3  -3  15   16.22    0.58
  -3  -3  15   16.22    0.60
  -3  -3  14   24.42    0.91
  -3  -3  14   23.88    0.89
  -3  -3  14   24.15    0.96
  -3  -3  14   24.63    1.01
  -3  -3  13    3.10    0.46
  -3  -3  13    2.76    0.53
  -3  -3  13    3.30    0.50
  -3  -3  12   30.74    1.33
  -3  -3  12   30.25    1.35
  -3  -3  12   29.08    1.30
  -3  -3  11   22.37    1.19
  -3  -3  11   24.14    2.16
  -3  -3  11   22.82    1.19
  -3  -3  11   23.75    1.34
  -3  -3  11   22.76    1.23
  -3  -3  10    4.64    0.69
  -3  -3  10    4.13    0.69
  -3  -3  10    4.12    0.66
  -3  -3  10    4.21    1.23
  -3  -3  10    4.39    0.84
  -3  -3   9  117.46    3.69
  -3  -3   9  113.34    3.52
  -3  -3   9  112.11    3.55
  -3  -3   9  112.92    5.16
  -3  -3   9  114.25    3.54
   3  -3  -9  106.90    5.03
   3  -3  -8   62.97    3.58
  -3  -3   8   62.25    2.24
  -3  -3   8   61.92    3.52
  -3  -3   8   62.88    2.19
  -3  -3   8   65.35    2.34
  -3  -3   7   15.45    0.84
  -3  -3   7   17.60    0.97
  -3  -3   7   14.92    0.99
  -3  -3   7   14.18    1.69
  -3  -3   7   16.70    0.92
  -3  -3   6  473.69   12.29
  -3  -3   6  475.44   12.36
  -3  -3   6  488.69   13.98
  -3  -3   6  474.61   12.34
  -3  -3   5   58.25    2.93
  -3  -3   4  831.75   22.34
  -3  -3   4  826.24   21.84
   3  -3  -4  846.27   23.60
   3  -3  -3  993.57   27.37
   3  -3  -3  986.61   25.56
  -3  -3   3  989.53   25.77
  -3  -3   3  939.43   25.72
   3  -3  -2  124.79    5.59
  -3  -3   2  124.61    4.63
   3  -3  -2  117.31    4.14
  -3  -3   2  109.90    4.19
   3  -3  -2  112.57    4.51
  -3  -3   1  675.00   18.65
   3  -3  -1  725.99   20.80
  -3  -3   1  683.07   19.03
  -3  -3   1  753.38   19.67
   3  -3  -1  726.10   18.94
   3  -3  -1  698.13   19.58
  -3  -3   0   80.09    3.78
  -3  -3   0   72.57    2.79
  -3  -3   0   79.00    3.32
   3  -3   0   78.92    4.33
   3  -3   1   15.44    2.05
  -3  -3  -1   15.59    1.74
  -3  -3  -1   14.76    1.37
   3  -3   2   59.02    2.54
   3  -3   2   57.47    3.65
  -3  -3  -2   54.53    3.18
  -3  -3  -2   59.51    3.01
   3  -3   3  129.37    6.06
   3  -3   3  136.92    4.90
  -3  -3  -3  136.49    5.64
   3  -3   4  149.69    5.48
  -3  -3  -4  152.41    6.10
   3  -3   4  140.93    4.09
  -3  -3  -4  144.07    4.05
   3  -3   4  146.45    6.57
   3  -3   5  147.16    5.73
   3  -3   5  147.95    4.24
   3  -3   5  137.63    6.61
   3  -3   5  144.19    4.30
  -3  -3  -5  141.24    6.09
  -3  -3  -5  146.54    4.14
  -3  -3  -6    5.32    1.30
   3  -3   6    7.03    1.30
   3  -3   6    7.60    0.80
   3  -3   6    6.52    0.75
   3  -3   6    5.99    0.65
   3  -3   6    5.81    1.75
   3  -3   7  160.33    4.66
   3  -3   7  158.97    4.71
   3  -3   7  155.38    4.69
   3  -3   7  159.29    6.38
  -3  -3  -7  152.87    6.18
   3  -3   8   14.48    1.76
   3  -3   8   11.86    2.11
   3  -3   8   13.56    0.99
   3  -3   8   14.33    1.00
   3  -3   8   13.25    0.96
   3  -3   8   12.60    1.01
   3  -3   9   53.81    2.14
   3  -3   9   57.22    2.07
   3  -3   9   54.07    2.06
   3  -3   9   55.04    2.02
   3  -3   9   56.98    3.37
   3  -3   9   47.92    2.03
   3  -3  10    0.22    0.56
   3  -3  10    0.82    0.52
   3  -3  10    1.13    0.54
   3  -3  10    1.07    0.46
   3  -3  11    2.00    0.50
   3  -3  11    1.98    0.50
   3  -3  11    2.01    0.49
   3  -3  11    1.77    0.37
   3  -3  11    2.65    0.55
   3  -3  11    2.50    0.61
   3  -3  12    7.91    0.53
   3  -3  12    7.96    0.53
   3  -3  12    8.43    0.58
   3  -3  12    7.03    0.55
   3  -3  13    3.00    0.22
   3  -3  13    3.33    0.24
   3  -3  13    2.95    0.24
  -3  -2  15    0.77    0.31
  -3  -2  14    6.51    0.47
  -3  -2  14    6.04    0.44
  -3  -2  14    6.47    0.62
  -3  -2  13   15.99    0.85
  -3  -2  13   15.46    1.02
  -3  -2  13   14.85    0.82
  -3  -2  13   14.09    1.00
  -3  -2  12   46.22    1.81
  -3  -2  12   51.42    1.86
  -3  -2  12   49.33    3.14
  -3  -2  12   50.28    1.98
  -3  -2  12   49.03    1.95
  -3  -2  11  138.97    4.21
  -3  -2  11  148.02    4.26
  -3  -2  11  132.22    5.91
  -3  -2  11  145.48    4.36
  -3  -2  11  141.02    4.36
  -3  -2  10   18.52    1.04
  -3  -2  10   18.63    1.16
  -3  -2  10   17.14    1.03
  -3  -2   9  122.47    3.67
  -3  -2   9  121.99    3.73
  -3  -2   9  120.26    3.65
  -3  -2   8   -0.21    0.53
  -3  -2   8    0.28    0.39
  -3  -2   8    1.10    0.41
   3  -2  -8    0.08    0.76
  -3  -2   8    0.63    0.56
  -3  -2   7   52.37    2.90
   3  -2  -7   54.96    3.13
  -3  -2   6  399.10   11.62
   3  -2  -6  393.93   12.03
   3  -2  -5  928.73   24.98
  -3  -2   5  982.34   24.61
  -3  -2   5  961.39   25.52
   3  -2  -5 1013.78   26.14
   3  -2  -5  951.89   24.80
  -3  -2   4  573.15   14.96
   3  -2  -4  545.53   15.63
   3  -2  -4  605.76   16.40
  -3  -2   4  587.23   15.57
   3  -2  -4  573.24   14.89
  -3  -2   4  565.69   15.18
   3  -2  -4  543.30   15.32
  -3  -2   3  695.05   18.06
  -3  -2   3  660.19   18.16
  -3  -2   3  693.15   18.04
   3  -2  -3  711.14   17.78
   3  -2  -3  658.59   18.45
   3  -2  -3  684.02   19.34
   3  -2  -2  433.74   11.28
   3  -2  -2  419.94   13.15
  -3  -2   2  426.78   11.77
  -3  -2   2  431.89   11.98
   3  -2  -2  441.44   11.53
  -3  -2   2  429.28   11.72
   3  -2  -2  438.89   12.38
  -3  -2   1  192.93    5.93
  -3  -2   1  208.82    6.50
  -3  -2   1  205.42    6.13
   3  -2  -1  204.64    5.88
   3  -2  -1  212.67    7.71
  -3  -2   0  302.52    8.87
   3  -2   0  314.25   10.49
  -3  -2   0  307.68    9.20
   3  -2   0  301.15    8.72
   3  -2   1  433.91   12.25
   3  -2   1  441.65   13.80
  -3  -2  -1  450.30   12.37
   3  -2   1  444.11   13.01
   3  -2   2  645.27   18.78
  -3  -2  -2  671.28   17.45
  -3  -2  -2  636.64   17.64
   3  -2   2  604.97   17.42
   3  -2   3  554.65   17.13
  -3  -2  -3  563.99   16.05
   3  -2   3  567.68   16.04
  -3  -2  -3  587.33   15.97
  -3  -2  -4 1059.90   27.56
  -3  -2  -4 1019.50   27.58
   3  -2   4  992.12   27.75
  -3  -2  -5  332.92   10.29
   3  -2   5  328.13   10.70
   3  -2   6   44.26    1.76
   3  -2   6   42.97    1.81
   3  -2   6   46.35    3.63
  -3  -2  -6   44.53    2.62
   3  -2   6   47.77    3.15
   3  -2   7   70.61    2.49
   3  -2   7   68.11    2.51
   3  -2   7   66.87    2.38
   3  -2   7   65.61    4.41
   3  -2   8   37.92    1.60
   3  -2   8   33.82    2.82
   3  -2   8   38.76    3.37
   3  -2   8   36.35    1.71
   3  -2   8   37.68    1.70
   3  -2   9   81.91    2.73
   3  -2   9   81.72    4.44
   3  -2   9   87.85    5.03
   3  -2   9   81.00    2.87
   3  -2  10   34.53    1.64
   3  -2  10   30.80    1.53
   3  -2  10   36.49    2.74
   3  -2  10   35.51    1.60
   3  -2  10   33.66    1.40
   3  -2  10   34.18    1.55
   3  -2  11   47.67    1.76
  -3  -2 -11   41.39    1.68
   3  -2  11   44.38    1.55
   3  -2  11   49.25    1.77
   3  -2  12   12.54    0.73
   3  -2  12   14.29    0.78
   3  -2  12   11.91    0.70
   3  -2  13   13.02    0.57
   3  -2  13   13.09    0.61
  -3  -1  16    1.48    0.21
  -3  -1  15   24.97    1.01
  -3  -1  15   23.44    0.92
  -3  -1  14    0.99    0.48
  -3  -1  14    0.69    0.52
  -3  -1  13   59.90    2.19
  -3  -1  13   64.02    2.27
  -3  -1  12    4.01    1.08
  -3  -1  12    3.44    0.50
  -3  -1  12    3.54    0.51
  -3  -1  12    4.55    0.77
  -3  -1  12    3.62    0.71
  -3  -1  11   29.77    1.31
  -3  -1  11   32.73    1.34
  -3  -1  11   34.72    2.64
  -3  -1  11   33.29    1.57
  -3  -1  11   30.54    1.49
  -3  -1  10    6.45    0.62
  -3  -1  10    6.95    1.43
  -3  -1  10    8.83    0.88
  -3  -1  10    8.45    0.70
  -3  -1  10    7.35    0.81
  -3  -1   9    7.07    1.34
  -3  -1   9    6.62    0.67
  -3  -1   9    6.04    0.59
  -3  -1   9    8.52    0.61
  -3  -1   9    6.26    0.75
  -3  -1   8   13.93    1.51
  -3  -1   8   14.39    0.86
  -3  -1   7  371.86   10.96
  -3  -1   6  536.09   14.67
  -3  -1   6  545.82   14.92
   3  -1  -6  524.28   14.21
   3  -1  -6  565.02   14.63
  -3  -1   5 2308.35   57.42
  -3  -1   5 2313.43   57.28
  -3  -1   5 2254.00   56.75
   3  -1  -5 2281.22   57.13
   3  -1  -5 2235.55   56.60
   3  -1  -4  178.36    5.45
  -3  -1   4  184.87    5.51
  -3  -1   4  175.05    4.98
  -3  -1   4  183.18    5.19
   3  -1  -4  192.40    4.80
   3  -1  -3  379.80   10.79
   3  -1  -3  420.74   11.40
  -3  -1   3  406.15   10.57
  -3  -1   3  390.66   10.35
  -3  -1   2  190.83    5.35
  -3  -1   2  183.24    5.34
   3  -1  -2  183.48    6.15
  -3  -1   2  178.67    5.06
  -3  -1   1  231.86    6.60
  -3  -1   1  228.10    6.35
   3  -1  -1  231.66    7.61
   3  -1   0 1086.72   29.97
  -3  -1   0 1204.77   29.49
   3  -1   1 2020.53   51.37
  -3  -1  -1 2013.85   50.66
  -3  -1  -1 1988.38   50.84
   3  -1   1 2023.32   51.37
   3  -1   2  874.56   23.92
   3  -1   2  842.70   24.66
  -3  -1  -2  890.11   23.24
  -3  -1  -2  877.95   23.28
  -3  -1  -3    6.03    0.86
   3  -1   3    7.64    1.62
  -3  -1  -3    6.03    0.80
   3  -1   3    5.95    1.28
   3  -1   4  376.73   12.04
  -3  -1  -4  386.46   10.69
  -3  -1  -4  382.49   10.96
   3  -1   4  365.97   11.47
   3  -1   4  361.86   11.13
   3  -1   5   26.78    2.52
   3  -1   5   25.57    2.25
  -3  -1  -5   29.54    1.69
  -3  -1  -5   28.24    1.92
   3  -1   6   18.01    2.18
   3  -1   6   16.51    2.01
   3  -1   7   71.05    2.50
   3  -1   7   73.02    4.33
   3  -1   7   68.85    4.10
   3  -1   8   13.46    1.00
   3  -1   8   12.59    1.08
   3  -1   8   13.47    2.05
   3  -1   9   99.96    3.28
   3  -1   9   98.94    3.35
   3  -1   9   98.39    3.09
   3  -1   9   99.09    5.23
   3  -1  10   32.53    2.67
   3  -1  10   30.92    1.49
   3  -1  10   31.90    1.53
   3  -1  10   30.16    1.59
  -3  -1 -10   27.78    1.31
   3  -1  10   28.99    1.41
   3  -1  11   72.86    2.53
   3  -1  11   74.34    2.61
   3  -1  11   73.21    2.49
   3  -1  11   67.22    2.29
   3  -1  11   74.91    2.45
   3  -1  12   25.49    1.11
   3  -1  12   24.05    1.15
   3  -1  12   23.05    1.18
   3  -1  12   23.96    1.03
   3  -1  13    0.74    0.40
   3  -1  13    0.67    0.23
   3  -1  13    0.56    0.29
   3  -1  13    0.41    0.33
   3  -1  14   25.54    0.80
  -3   0  15   14.21    0.71
  -3   0  14    0.62    0.49
  -3   0  14    0.70    0.39
  -3   0  13   46.77    1.79
  -3   0  13   44.82    1.72
  -3   0  12   66.01    2.35
  -3   0  12   65.18    3.53
  -3   0  12   69.47    2.40
  -3   0  11   23.40    1.21
  -3   0  11   23.06    1.23
  -3   0  10   30.21    2.23
  -3   0  10   31.55    1.42
  -3   0  10   31.51    1.45
  -3   0   9  244.68    6.70
  -3   0   9  246.45    8.06
  -3   0   9  241.03    6.62
  -3   0   9  252.58    6.73
  -3   0   8   27.60    1.88
   3   0  -7  639.30   17.87
  -3   0   7  665.92   17.71
   3   0  -6  116.94    4.21
  -3   0   6  115.74    3.79
  -3   0   6  121.08    4.08
   3   0  -6  109.76    3.66
   3   0  -6  123.78    3.70
   3   0  -5  375.31   10.40
  -3   0   5  387.78   10.29
  -3   0   5  362.56    9.73
   3   0  -5  360.36    9.70
   3   0  -5  380.66    9.70
   3   0  -4   22.23    1.25
  -3   0   4   24.50    1.08
  -3   0   4   24.68    1.23
  -3   0   4   25.64    1.33
   3   0  -4   23.21    0.78
   3   0  -4   22.42    0.79
   3   0  -3 1913.60   48.01
  -3   0   3 1890.46   47.77
  -3   0   3 1922.09   47.87
   3   0  -2 3792.10   98.92
  -3   0   2 4029.49   98.83
   3   0  -2 3975.33   99.32
  -3   0   2 4081.02   98.87
   3   0  -1 1021.79   27.39
  -3   0   1 1055.58   26.24
   3   0   0  658.45   18.11
  -3   0   0  641.98   16.94
  -3   0   0  668.06   16.77
  -3   0  -1   16.08    0.94
   3   0   1   17.57    1.79
  -3   0  -1   15.29    0.93
  -3   0  -2  766.63   19.67
  -3   0  -2  765.68   19.91
   3   0   2  759.50   21.16
  -3   0  -3   71.23    2.51
   3   0   3   69.35    3.52
  -3   0  -3   74.80    2.89
   3   0   4    2.94    0.65
   3   0   4    1.75    1.14
  -3   0  -4    4.26    0.53
   3   0   4    2.76    1.03
   3   0   5  296.19   10.05
  -3   0  -5  311.75    8.70
   3   0   5  292.96    9.81
  -3   0  -5  316.66    9.37
  -3   0  -5  301.83    8.30
   3   0   6    6.13    1.40
   3   0   6    7.03    1.43
   3   0   7    4.88    1.56
   3   0   7    5.53    0.78
   3   0   7    6.30    0.66
   3   0   7    5.18    1.44
   3   0   8   26.54    2.49
   3   0   8   27.37    1.45
   3   0   8   26.56    1.31
  -3   0  -8   27.53    1.20
   3   0   8   24.65    1.33
   3   0   8   26.70    2.64
   3   0   9    1.61    0.61
  -3   0  -9    2.61    0.48
   3   0   9    2.39    1.26
   3   0   9    2.38    0.73
   3   0  10    8.86    0.89
   3   0  10    9.74    0.83
  -3   0 -10    8.15    0.65
   3   0  10    8.74    0.92
   3   0  10    9.05    1.60
   3   0  11   40.40    1.70
   3   0  11   38.96    1.61
   3   0  11   39.79    1.68
   3   0  11   40.15    1.52
   3   0  12   82.30    2.56
   3   0  12   82.26    2.60
   3   0  12   84.10    2.62
   3   0  13    0.84    0.35
   3   0  13    0.71    0.25
   3   0  13    0.73    0.31
  -3   1  14    0.63    0.38
  -3   1  13   60.25    2.06
  -3   1  12    4.29    0.64
  -3   1  11   31.24    1.38
  -3   1  11   30.68    1.34
  -3   1  10    6.21    0.67
  -3   1  10    6.14    0.69
  -3   1   9    6.65    0.65
  -3   1   9    6.19    0.64
  -3   1   8   12.85    1.21
   3   1  -8   10.60    1.39
   3   1  -7  337.97   10.74
  -3   1   7  362.17   10.01
   3   1  -6  519.51   14.99
  -3   1   6  514.80   14.07
  -3   1   6  547.86   14.23
   3   1  -6  540.09   14.30
   3   1  -5 2243.54   57.69
  -3   1   5 2247.97   57.00
  -3   1   5 2293.06   56.94
   3   1  -5 2272.46   56.97
   3   1  -4  187.38    5.93
  -3   1   4  185.13    5.51
   3   1  -4  186.07    5.35
  -3   1   3  432.06   11.34
   3   1  -3  412.02   11.04
   3   1  -2  188.04    5.68
  -3   1   2  194.27    5.63
   3   1  -2  181.48    5.30
  -3   1   2  197.81    5.00
   3   1  -1  224.22    6.32
  -3   1   1  228.60    6.43
   3   1  -1  228.15    6.20
   3   1  -1  217.83    6.57
  -3   1   1  226.39    6.38
  -3   1   1  220.68    5.94
   3   1   0 1127.76   29.36
  -3   1   0 1145.81   29.55
  -3   1   0 1189.89   29.46
  -3   1   0 1166.99   29.23
   3   1   0 1155.61   29.46
   3   1   0 1181.23   30.19
   3   1   1 2018.96   50.41
   3   1   1 2092.15   51.65
  -3   1  -1 1980.32   50.50
  -3   1  -1 2063.29   50.71
  -3   1  -1 1967.44   50.53
   3   1   2  861.06   21.83
  -3   1  -2  846.18   21.92
   3   1   2  850.72   23.29
   3   1   2  866.46   22.88
  -3   1  -2  849.34   22.17
  -3   1  -2  869.30   22.23
   3   1   3    4.91    0.47
  -3   1  -3    5.44    0.66
   3   1   3    4.73    0.89
   3   1   3    5.96    1.29
   3   1   3    7.46    0.79
   3   1   4  383.28   10.13
  -3   1  -4  396.49   10.64
   3   1   4  381.42   11.17
   3   1   4  412.59   12.21
  -3   1  -4  375.38   10.20
   3   1   5   24.79    1.84
   3   1   5   27.11    2.37
  -3   1  -5   27.30    1.49
   3   1   6   16.08    1.98
   3   1   6   18.35    0.98
   3   1   6   17.53    1.04
   3   1   6   16.00    1.53
   3   1   7   67.48    2.47
   3   1   7   70.81    2.51
  -3   1  -7   73.60    2.29
   3   1   7   72.79    2.47
   3   1   7   66.83    3.97
   3   1   8   12.38    1.00
   3   1   8   13.02    0.96
  -3   1  -8   12.50    0.77
   3   1   8   13.31    1.97
   3   1   9  101.10    5.07
   3   1   9   96.43    3.20
   3   1   9   97.16    3.25
   3   1   9  103.28    3.28
  -3   1  -9   98.84    3.03
   3   1   9   97.49    3.20
   3   1  10   29.50    2.52
   3   1  10   30.38    1.42
   3   1  10   29.41    1.37
   3   1  10   31.41    1.43
   3   1  10   30.55    1.43
   3   1  11   70.93    2.36
   3   1  11   70.31    2.37
   3   1  11   73.25    2.37
   3   1  12   21.43    0.92
   3   1  12   23.40    0.95
   3   1  12   22.59    0.95
   3   2 -11  182.57    5.92
   3   2 -10   20.55    1.38
   3   2  -9  126.53    4.07
   3   2  -8    0.24    0.41
  -3   2   7   53.54    2.55
   3   2  -6  379.33   11.86
  -3   2   6  381.11   10.95
   3   2  -5  959.85   25.59
  -3   2   5  921.09   24.68
   3   2  -5  945.44   24.77
   3   2  -4  545.59   15.68
  -3   2   4  589.56   15.27
   3   2  -4  577.19   15.18
  -3   2   4  537.52   14.46
   3   2  -3  698.23   18.61
  -3   2   3  705.05   18.31
   3   2  -3  669.20   18.09
  -3   2   3  672.44   17.57
  -3   2   2  431.73   11.34
  -3   2   2  454.11   11.95
   3   2  -2  426.47   11.71
   3   2  -1  214.56    6.18
   3   2  -1  195.34    5.95
  -3   2   1  203.07    5.74
   3   2   0  306.26    8.67
  -3   2   0  321.24    8.84
   3   2   0  305.85    8.67
  -3   2   0  301.56    8.45
   3   2   0  293.65    8.68
   3   2   1  438.26   11.62
  -3   2  -1  429.45   11.91
  -3   2  -1  426.52   11.71
   3   2   1  426.22   11.95
   3   2   2  654.26   16.60
  -3   2  -2  647.44   17.08
  -3   2  -2  603.58   17.03
  -3   2  -3  564.37   15.44
   3   2   3  577.96   16.66
   3   2   4 1106.19   29.69
  -3   2  -4 1077.34   28.36
   3   2   5  326.93   10.58
   3   2   5  320.77    8.80
   3   2   6   43.66    2.96
   3   2   6   47.16    1.93
  -3   2  -6   44.81    1.68
  -3   2  -6   45.08    1.60
   3   2   6   44.07    1.77
  -3   2  -7   68.27    2.22
   3   2   7   68.50    2.54
  -3   2  -7   65.55    2.31
   3   2   7   66.29    3.77
   3   2   7   68.06    2.41
   3   2   8   39.10    2.86
   3   2   8   41.75    1.71
   3   2   8   38.07    1.78
  -3   2  -8   36.72    1.48
   3   2   9   77.85    2.61
   3   2   9   79.31    2.80
   3   2  10   34.11    1.55
   3   2  11   43.51    1.68
   3   3 -13    2.99    0.76
   3   3 -12   37.06    1.99
   3   3 -11   26.66    1.65
   3   3 -10    5.16    0.80
  -3   3   9  106.49    3.46
   3   3  -9  114.13    3.79
   3   3  -8   62.65    2.44
  -3   3   8   61.97    2.28
   3   3  -7   17.25    1.10
  -3   3   7   17.44    1.04
   3   3  -6  491.73   12.95
  -3   3   6  498.24   12.86
  -3   3   6  463.59   14.26
  -3   3   5   54.71    2.92
  -3   3   4  830.18   22.33
   3   3  -4  805.57   22.94
   3   3  -3  912.93   25.16
  -3   3   3  928.60   24.77
   3   3  -2  111.08    4.49
  -3   3   2  118.14    4.10
   3   3  -1  674.85   18.80
  -3   3   1  661.73   18.98
  -3   3   1  722.31   18.59
   3   3   0   70.88    3.06
  -3   3   0   78.00    3.36
  -3   3   0   77.46    3.12
  -3   3  -1   14.50    1.37
  -3   3  -2   57.06    2.90
   3   3   2   59.03    3.23
  -3   3  -3  138.43    5.22
   3   3   3  147.40    5.83
   3   3   4  149.51    4.39
  -3   3  -4  150.92    4.29
  -3   3  -4  144.85    5.39
   3   3   4  139.77    4.55
   3   3   4  154.45    5.92
  -3   3  -4  148.58    4.20
  -3   3  -5  150.18    4.31
   3   3   5  147.29    4.38
  -3   3  -5  140.68    4.15
   3   3   6    7.49    0.91
   3   3   6    6.68    0.75
  -3   3  -6    6.42    0.60
  -3   3  -6    6.68    0.70
  -3   3  -7  161.63    4.56
   3   3   7  159.21    4.71
  -3   3  -7  149.85    4.65
   3   3   7  158.81    4.96
   3   3   8   13.41    0.93
  -3   3  -8   12.29    0.90
   3   3   8   13.36    1.11
   3   3   9   55.65    2.22
   3   3  10    1.12    0.55
   3   3  11    1.86    0.45
  -3   3 -13    3.07    0.29
   3   4 -13    2.22    0.51
   3   4 -12   11.30    0.97
   3   4 -11    1.63    0.69
  -3   4  11    2.03    0.49
   3   4 -10    4.11    0.86
  -3   4  10    3.45    0.63
  -3   4   9   64.60    2.39
   3   4  -9   60.90    2.57
   3   4  -8  222.72    6.63
  -3   4   8  221.19    6.39
   3   4  -7  125.10    4.04
  -3   4   7  110.98    5.26
  -3   4   7  125.16    3.90
  -3   4   7  114.16    3.68
  -3   4   6   34.40    1.53
  -3   4   6   38.66    1.73
  -3   4   6   30.59    2.53
   3   4  -6   34.30    1.70
  -3   4   5   33.33    1.53
   3   4  -5   29.27    1.50
  -3   4   5   26.79    2.40
  -3   4   5   30.11    1.40
  -3   4   4   24.19    1.25
  -3   4   4   20.88    2.10
  -3   4   4   20.97    1.13
  -3   4   3   19.20    1.11
  -3   4   3   18.03    1.93
   3   4  -3   20.45    1.14
  -3   4   3   18.91    1.05
  -3   4   2   60.57    2.14
  -3   4   2   65.56    2.19
   3   4  -2   59.75    2.20
  -3   4   2   60.33    2.02
   3   4  -1   28.62    1.36
  -3   4   1   29.86    1.33
  -3   4   1   27.03    2.20
  -3   4   1   29.26    1.31
  -3   4   1   32.30    1.27
  -3   4   0  178.74    4.91
  -3   4   0  158.71    6.29
  -3   4   0  174.86    4.83
  -3   4   0  162.56    4.87
   3   4   0  172.47    5.00
  -3   4  -1   17.96    0.98
   3   4   1   16.49    1.10
  -3   4  -1   14.25    1.66
  -3   4  -1   18.25    0.94
   3   4   1   17.62    1.05
  -3   4  -2  241.18    6.56
   3   4   2  224.41    6.79
  -3   4  -2  231.18    8.17
   3   4   2  238.97    6.71
  -3   4  -2  246.09    6.56
   3   4   3    2.68    0.73
  -3   4  -3    2.27    0.50
   3   4   3    2.85    0.60
  -3   4  -3    2.52    0.56
  -3   4  -3    3.57    1.02
   3   4   4   16.82    1.29
  -3   4  -4   17.65    1.01
  -3   4  -4   18.21    1.08
   3   4   4   18.66    1.14
   3   4   5   10.29    1.08
  -3   4  -5   10.19    0.80
  -3   4  -5   11.05    0.90
   3   4   5   11.68    0.92
  -3   4  -6   61.82    2.20
   3   4   6   63.47    2.32
  -3   4  -6   62.17    2.33
  -3   4  -7   11.20    0.79
   3   4   7    9.60    1.06
   3   4   7   10.66    0.83
  -3   4  -7   11.40    0.89
   3   4   8    2.82    0.73
  -3   4  -8    2.92    0.56
   3   4   8    3.11    0.53
   3   4   9    2.63    0.64
  -3   4 -10    8.55    0.74
   3   4  10    7.80    0.70
   3   4  11    7.92    0.56
  -3   4 -11    9.92    0.63
  -3   4 -12    6.40    0.39
   3   5 -12    7.37    0.58
  -3   5  11   12.01    0.70
   3   5 -11   12.44    0.92
  -3   5  10   15.32    0.93
   3   5 -10   13.28    1.06
  -3   5   9    5.23    0.71
   3   5  -9    5.12    0.88
  -3   5   8   40.81    1.79
   3   5  -8   38.49    1.93
  -3   5   7   32.00    1.64
   3   5  -7   36.07    1.79
  -3   5   7   31.45    1.50
  -3   5   7   33.74    2.72
  -3   5   6   19.33    1.28
  -3   5   6   16.80    2.05
  -3   5   6   19.83    1.18
  -3   5   5   14.05    1.03
   3   5  -5   11.74    1.09
  -3   5   5   14.82    1.90
  -3   5   4   58.57    2.31
   3   5  -4   50.94    2.20
  -3   5   4   57.62    3.70
  -3   5   4   53.17    2.15
  -3   5   3    4.47    0.56
  -3   5   3    3.78    0.79
  -3   5   3    3.95    0.73
   3   5  -3    4.47    0.75
  -3   5   2  238.29    9.17
  -3   5   2  265.77    7.28
   3   5  -2  268.77    7.35
  -3   5   2  258.52    7.23
  -3   5   2  244.77    7.02
   3   5  -1  125.26    3.97
  -3   5   1  125.47    3.88
  -3   5   1  121.57    3.74
  -3   5   0   36.29    1.55
  -3   5   0   36.02    1.64
  -3   5   0   35.70    1.58
  -3   5   0   31.84    2.70
   3   5   0   37.46    1.73
   3   5   1    5.81    0.83
   3   5   1    5.69    0.77
  -3   5  -1    5.59    0.68
  -3   5  -1    5.42    1.26
  -3   5  -1    5.56    0.74
  -3   5  -1    6.78    0.72
  -3   5  -2  129.65    3.83
   3   5   2  122.34    4.11
  -3   5  -2  123.59    5.61
  -3   5  -2  123.83    3.88
   3   5   2  127.77    4.02
  -3   5  -2  124.84    3.87
   3   5   3   24.09    1.47
   3   5   3   25.40    1.33
  -3   5  -3   21.85    1.22
  -3   5  -4   32.45    1.41
   3   5   4   32.22    1.70
  -3   5  -4   30.80    1.44
   3   5   4   30.60    1.49
  -3   5  -4   30.78    1.47
   3   5   5   67.05    2.41
   3   5   5   69.90    2.69
  -3   5  -5   66.07    2.35
  -3   5  -5   67.26    2.46
  -3   5  -5   69.50    2.38
  -3   5  -6   17.31    1.02
   3   5   6   18.30    1.01
   3   5   6   18.21    1.27
  -3   5  -6   18.48    1.13
  -3   5  -6   17.69    0.99
  -3   5  -7    2.94    0.55
  -3   5  -7    3.36    0.60
   3   5   7    3.66    0.78
  -3   5  -8    2.39    0.48
  -3   5  -8    2.88    0.50
   3   5   9    4.22    0.57
  -3   5  -9    4.49    0.50
  -3   5 -10    2.14    0.32
   3   5  10    2.05    0.35
   3   6 -11    9.14    0.46
  -3   6  10    7.17    0.48
   3   6 -10    7.68    0.62
  -3   6   9    5.05    0.55
   3   6  -9    5.83    0.69
  -3   6   8   11.15    0.84
  -3   6   7   27.08    1.34
   3   6  -7   21.04    1.35
   3   6  -6   19.38    1.21
  -3   6   6   17.82    1.10
  -3   6   5   38.15    1.75
  -3   6   5   35.87    1.63
   3   6  -5   36.83    1.74
  -3   6   4   83.66    2.89
  -3   6   4   86.47    2.98
   3   6  -4   78.03    2.92
  -3   6   3    2.04    1.05
  -3   6   3    3.11    0.75
   3   6  -3    3.11    0.76
  -3   6   3    2.32    0.70
  -3   6   2   85.08    2.91
   3   6  -2   80.87    2.92
  -3   6   1    9.40    0.89
   3   6  -1    9.54    0.94
  -3   6   1    7.72    1.45
  -3   6   1    9.14    0.90
  -3   6   0   37.90    1.75
  -3   6   0   43.30    1.76
   3   6   0   40.94    1.82
  -3   6   0   40.36    1.67
  -3   6  -1   83.47    2.90
  -3   6  -1   91.76    2.95
   3   6   1   90.87    3.04
  -3   6  -1   90.27    3.01
   3   6   2    5.87    0.74
  -3   6  -2    6.22    0.73
  -3   6  -2    6.88    0.73
   3   6   2    6.18    0.73
   3   6   3    1.04    0.56
   3   6   3    1.29    0.51
  -3   6  -3    0.90    0.54
  -3   6  -4   14.60    0.91
   3   6   4   15.36    1.06
  -3   6  -4   15.02    0.99
   3   6   4   15.39    0.87
  -3   6  -5    0.21    0.49
  -3   6  -5    0.46    0.39
   3   6   5    0.58    0.51
  -3   6  -5    0.66    0.38
  -3   6  -6    1.60    0.45
   3   6   6    2.05    0.55
  -3   6  -6    2.01    0.39
  -3   6  -7    5.83    0.45
   3   6   7    7.08    0.63
   3   6   8    0.70    0.34
  -3   6  -8    0.67    0.20
  -3   7   8    6.51    0.38
   3   7  -8    6.71    0.41
   3   7  -7    4.03    0.44
  -3   7   6    1.88    0.43
   3   7  -6    2.16    0.45
  -3   7   5    5.23    0.56
   3   7  -5    4.99    0.58
  -3   7   4    4.16    0.56
   3   7  -4    3.80    0.57
  -3   7   4    4.86    0.59
  -3   7   3    4.21    0.56
   3   7  -3    4.18    0.58
  -3   7   2    5.75    0.56
   3   7  -2    4.67    0.61
  -3   7   1    0.31    0.48
  -3   7   1    0.40    0.36
   3   7  -1    0.05    0.42
  -3   7   0    0.42    0.31
   3   7   0    0.53    0.39
  -3   7   0    0.35    0.44
   3   7   1    1.70    0.40
  -3   7  -1    1.48    0.46
  -3   7  -2    0.19    0.36
  -3   7  -3    0.18    0.31
   3   7   4    6.75    0.42
  -3   7  -4    6.30    0.39
   3   7   5    2.68    0.26
  -4  -7   7    8.49    0.41
  -4  -7   6    8.56    0.48
  -4  -7   6    5.74    0.35
  -4  -7   5    3.35    0.44
  -4  -7   5    2.78    0.34
  -4  -7   4    2.87    0.46
  -4  -7   4    3.06    0.38
   4  -7  -3    5.70    0.46
  -4  -7   3    6.56    0.55
  -4  -7   3    6.01    0.51
   4  -7  -2    2.64    0.44
  -4  -7   2    3.29    0.44
  -4  -7   2    2.93    0.44
   4  -7  -1    2.61    0.48
  -4  -7   1    2.70    0.39
   4  -7   0   -0.12    0.41
  -4  -7   0    0.01    0.27
  -4  -7   0   -0.20    0.34
  -4  -7  -1    2.70    0.37
   4  -7   2    0.54    0.39
  -4  -7  -2    0.26    0.27
   4  -7   3   11.62    0.62
  -4  -7  -3   10.26    0.48
   4  -7   4    1.43    0.26
  -4  -6  10    4.72    0.37
  -4  -6  10    4.48    0.32
  -4  -6   9    4.13    0.38
  -4  -6   9    4.22    0.43
  -4  -6   9    3.54    0.32
  -4  -6   8    0.68    0.35
  -4  -6   8    0.59    0.31
  -4  -6   8    0.50    0.37
  -4  -6   7   11.30    0.73
  -4  -6   7   11.71    0.67
  -4  -6   7   11.11    0.73
  -4  -6   6    4.91    0.48
  -4  -6   6    5.14    0.55
  -4  -6   6    5.28    0.65
  -4  -6   5   23.94    1.13
  -4  -6   5   25.63    1.24
   4  -6  -4   30.26    1.35
  -4  -6   4   31.87    1.32
   4  -6  -3   32.01    1.46
  -4  -6   3   32.20    1.45
  -4  -6   3   32.44    1.34
   4  -6  -2    6.35    0.82
  -4  -6   2    6.20    0.75
  -4  -6   2    5.90    0.57
   4  -6  -1   39.76    1.78
  -4  -6   1   41.38    1.63
   4  -6   0   78.78    2.79
  -4  -6   0   78.22    2.52
  -4  -6  -1   28.30    1.30
  -4  -6  -1   27.24    1.16
  -4  -6  -2   24.67    1.14
   4  -6   2   24.42    1.37
   4  -6   3    0.54    0.65
  -4  -6  -3    0.08    0.37
   4  -6   3    0.33    0.28
   4  -6   4   31.65    1.39
  -4  -6  -4   30.34    1.17
   4  -6   4   29.66    1.13
   4  -6   5    7.83    0.63
  -4  -6  -5    6.19    0.45
   4  -6   5    6.98    0.50
   4  -6   6    0.30    0.28
   4  -6   6    0.74    0.28
  -4  -5  12    3.99    0.36
  -4  -5  12    4.11    0.37
  -4  -5  12    3.01    0.26
  -4  -5  11    7.91    0.58
  -4  -5  11    6.21    0.46
  -4  -5  10    0.16    0.42
  -4  -5  10   -0.03    0.33
  -4  -5   9   51.47    1.84
  -4  -5   9   45.62    1.66
  -4  -5   9   52.50    1.89
  -4  -5   9   48.99    1.65
  -4  -5   8   23.11    1.10
  -4  -5   8   24.38    1.19
  -4  -5   8   23.82    1.23
  -4  -5   7    3.11    0.59
  -4  -5   7    3.26    0.57
  -4  -5   7    3.29    0.64
   4  -5  -7    3.19    1.16
  -4  -5   6   55.63    2.02
  -4  -5   6   50.00    1.95
   4  -5  -6   49.34    3.52
  -4  -5   6   52.46    2.02
  -4  -5   5  149.85    4.39
  -4  -5   5  145.09    4.28
   4  -5  -5  134.24    6.37
  -4  -5   5  144.64    4.36
  -4  -5   4   36.13    1.48
  -4  -5   4   36.28    1.57
   4  -5  -4   33.72    2.85
  -4  -5   3   80.55    2.80
  -4  -5   3   83.91    2.65
  -4  -5   3   84.52    2.79
   4  -5  -3   87.94    4.58
  -4  -5   2  184.56    5.23
  -4  -5   2  179.44    5.20
   4  -5  -2  175.16    7.18
  -4  -5   2  180.68    6.94
  -4  -5   1   77.04    2.62
  -4  -5   1   78.54    2.62
   4  -5  -1   78.32    4.20
  -4  -5   1   80.65    4.35
  -4  -5   0    6.47    0.66
   4  -5   0    6.91    1.32
  -4  -5   0    5.48    0.65
  -4  -5   0    5.48    1.55
  -4  -5  -1   74.90    2.48
  -4  -5  -1   86.36    4.69
  -4  -5  -2   31.21    2.86
   4  -5   2   28.09    1.25
  -4  -5  -2   29.34    1.34
   4  -5   3   19.56    1.05
  -4  -5  -3   21.80    1.09
   4  -5   4   90.62    2.96
  -4  -5  -4   94.62    2.92
  -4  -5  -4   96.78    4.98
   4  -5   5   61.92    2.21
  -4  -5  -5   59.06    2.00
   4  -5   5   56.01    2.07
   4  -5   6   58.57    1.92
   4  -5   6   60.94    2.04
   4  -5   6   57.46    2.08
   4  -5   7    8.30    0.57
   4  -5   7    8.81    0.68
   4  -5   8    7.08    0.47
   4  -5   8    6.10    0.41
   4  -5   8    6.90    0.57
   4  -5   9    2.67    0.28
   4  -5  10    0.10    0.19
  -4  -4  14    4.65    0.27
  -4  -4  14    4.31    0.29
  -4  -4  13    9.11    0.54
  -4  -4  13    9.20    0.58
  -4  -4  13    8.56    0.46
  -4  -4  13    9.71    0.55
  -4  -4  12    2.86    0.42
  -4  -4  12    2.21    0.46
  -4  -4  12    2.40    0.46
  -4  -4  12    2.39    0.50
  -4  -4  11    4.38    0.53
  -4  -4  11    4.05    0.63
  -4  -4  11    4.48    0.59
  -4  -4  11    3.16    0.62
  -4  -4  10   10.03    0.84
  -4  -4  10    8.81    0.70
  -4  -4  10    8.40    0.82
  -4  -4   9   32.17    1.44
  -4  -4   9   32.82    1.46
  -4  -4   9   30.57    1.40
  -4  -4   9   26.87    1.23
   4  -4  -9   31.63    2.77
  -4  -4   9   25.93    1.16
  -4  -4   8   11.62    0.89
  -4  -4   8   11.58    0.81
  -4  -4   8   11.75    0.89
   4  -4  -8   10.83    1.71
  -4  -4   7  109.08    3.41
  -4  -4   7  110.80    3.37
   4  -4  -7  104.22    5.36
  -4  -4   7  106.92    3.32
  -4  -4   6    3.96    0.64
  -4  -4   6    3.02    0.62
  -4  -4   5   24.45    1.19
  -4  -4   5   24.44    1.23
  -4  -4   5   23.48    1.21
  -4  -4   4  108.22    3.32
  -4  -4   4  107.57    3.27
  -4  -4   4  108.21    3.34
  -4  -4   4  100.40    4.14
  -4  -4   3    1.40    0.95
  -4  -4   3    1.88    0.42
  -4  -4   3    2.43    0.50
  -4  -4   2   86.70    2.81
  -4  -4   2   89.79    2.74
  -4  -4   2   95.14    4.46
  -4  -4   2   89.15    2.82
  -4  -4   1   20.88    1.05
  -4  -4   1   21.76    1.05
   4  -4  -1   20.65    2.46
  -4  -4   1   21.28    2.22
  -4  -4   0   45.42    1.70
  -4  -4   0   48.45    1.81
  -4  -4   0   50.35    3.36
   4  -4   0   44.89    3.51
  -4  -4  -1  129.02    5.90
  -4  -4  -1  137.51    4.08
   4  -4   1  124.54    3.78
  -4  -4  -1  129.66    3.75
   4  -4   1  126.64    6.40
   4  -4   2  104.88    5.60
   4  -4   2   98.55    3.12
   4  -4   3   32.33    3.18
   4  -4   3   32.87    1.49
  -4  -4  -3   33.77    1.40
  -4  -4  -3   34.64    2.95
   4  -4   4   71.66    4.76
   4  -4   4   73.67    2.52
  -4  -4  -4   79.14    2.54
   4  -4   4   78.98    2.68
  -4  -4  -4   80.33    4.50
   4  -4   5   76.91    2.49
  -4  -4  -5   83.63    4.48
   4  -4   5   76.50    4.95
   4  -4   5   81.16    2.76
  -4  -4  -5   80.24    2.55
   4  -4   5   73.89    2.60
  -4  -4  -6    4.60    0.54
   4  -4   6    4.46    0.64
   4  -4   6    4.18    0.51
  -4  -4  -6    5.71    1.32
   4  -4   6    5.36    1.63
   4  -4   6    4.04    0.69
   4  -4   7   26.21    1.17
   4  -4   7   24.20    1.14
   4  -4   7   27.47    1.29
   4  -4   7   26.19    1.27
   4  -4   8   17.20    0.91
   4  -4   8   16.65    1.01
   4  -4   8   16.18    0.86
   4  -4   8   16.80    0.95
   4  -4   8   18.05    0.99
   4  -4   9    8.87    0.69
   4  -4   9    9.38    0.64
   4  -4   9    9.62    0.70
   4  -4   9    8.80    0.58
   4  -4   9    8.31    0.64
   4  -4  10    6.73    0.53
   4  -4  10    7.00    0.48
   4  -4  10    6.52    0.43
   4  -4  10    6.40    0.48
   4  -4  10    5.87    0.45
   4  -4  11    5.40    0.35
   4  -4  11    4.79    0.38
   4  -4  11    4.94    0.32
  -4  -3  15   10.32    0.45
  -4  -3  15    9.30    0.40
  -4  -3  14    6.36    0.43
  -4  -3  14    5.28    0.38
  -4  -3  14    5.91    0.48
  -4  -3  13    1.68    0.51
  -4  -3  13    1.47    0.39
  -4  -3  13    1.44    0.43
  -4  -3  13    1.39    0.58
  -4  -3  12   33.71    1.41
  -4  -3  12   33.58    1.52
  -4  -3  12   31.77    1.41
  -4  -3  12   31.37    1.36
  -4  -3  11  121.19    3.65
  -4  -3  11  115.42    3.60
  -4  -3  11  115.89    3.62
  -4  -3  11  118.05    3.75
  -4  -3  10   17.80    1.08
  -4  -3  10   17.47    1.19
  -4  -3  10   17.06    1.09
  -4  -3  10   18.30    2.06
  -4  -3  10   19.53    1.13
  -4  -3   9  109.71    3.55
  -4  -3   9  115.78    3.57
  -4  -3   9  114.11    5.26
   4  -3  -9  110.27    5.30
  -4  -3   9  112.79    3.52
  -4  -3   9  118.52    3.64
  -4  -3   8    2.41    0.59
  -4  -3   8    3.33    0.62
  -4  -3   8    2.10    0.56
  -4  -3   8    2.45    1.23
  -4  -3   8    2.13    0.62
  -4  -3   7   26.65    1.22
  -4  -3   7   27.95    1.27
  -4  -3   7   27.71    1.19
  -4  -3   7   26.74    1.27
  -4  -3   6   15.81    0.90
  -4  -3   6   15.78    0.92
  -4  -3   6   16.91    0.89
  -4  -3   6   15.82    0.91
  -4  -3   5  157.93    4.39
  -4  -3   5  160.05    4.38
   4  -3  -5  157.91    6.87
  -4  -3   4  102.13    3.85
   4  -3  -4  109.51    5.59
  -4  -3   4  105.51    4.05
   4  -3  -3  149.35    6.82
  -4  -3   3  140.49    5.02
  -4  -3   3  136.38    4.94
  -4  -3   2  483.04   13.39
   4  -3  -2  469.32   15.34
   4  -3  -1   14.48    2.34
  -4  -3   1   15.60    1.35
  -4  -3   1   16.21    1.75
   4  -3   0   44.12    3.62
  -4  -3   0   46.01    2.89
  -4  -3   0   48.45    2.55
   4  -3   1  164.68    7.49
  -4  -3  -2  140.51    3.99
   4  -3   2  139.39    6.82
  -4  -3  -2  145.04    5.77
   4  -3   3  254.34    8.24
  -4  -3  -3  256.34    8.88
  -4  -3  -3  252.69    6.80
   4  -3   3  255.14   10.09
  -4  -3  -4   68.26    2.23
   4  -3   4   72.57    3.59
   4  -3   4   68.52    2.27
   4  -3   4   68.21    2.38
   4  -3   4   64.04    4.55
  -4  -3  -4   69.09    3.84
   4  -3   5   59.73    4.43
   4  -3   5   62.65    3.46
  -4  -3  -5   61.10    2.06
   4  -3   5   58.75    2.11
   4  -3   5   60.32    2.24
  -4  -3  -5   57.40    3.52
  -4  -3  -6    4.31    0.53
   4  -3   6    4.28    0.59
   4  -3   6    4.14    1.17
   4  -3   6    4.71    0.75
   4  -3   6    4.89    0.72
  -4  -3  -6    4.43    1.21
   4  -3   6    1.90    1.60
   4  -3   7    3.48    0.68
   4  -3   7    3.78    0.61
   4  -3   7    3.32    0.70
   4  -3   7    3.93    1.15
   4  -3   8   37.24    2.72
   4  -3   8   37.14    1.60
   4  -3   8   37.36    1.66
   4  -3   8   38.10    1.67
   4  -3   8   37.49    1.67
   4  -3   9    2.24    0.67
   4  -3   9    2.71    0.63
   4  -3   9    3.32    0.58
   4  -3   9    2.98    0.60
   4  -3   9    3.25    0.61
   4  -3  10    1.72    0.56
   4  -3  10    1.66    0.45
   4  -3  10    0.80    0.47
   4  -3  10    1.71    0.45
   4  -3  11    4.43    0.50
   4  -3  11    4.18    0.45
   4  -3  11    4.32    0.38
   4  -3  11    4.40    0.46
   4  -3  11    5.11    0.54
   4  -3  11    5.05    0.54
  -4  -3 -11    3.99    0.43
   4  -3  12    1.19    0.26
   4  -3  12    1.17    0.23
   4  -3  12    1.38    0.25
   4  -3  12    0.95    0.19
  -4  -2  15    1.64    0.35
  -4  -2  14   12.03    0.61
  -4  -2  14   12.24    0.82
  -4  -2  14   11.96    0.77
  -4  -2  13   31.91    1.29
  -4  -2  13   32.32    1.46
  -4  -2  13   32.06    1.27
  -4  -2  13   34.65    1.50
  -4  -2  12    7.55    0.69
  -4  -2  12    6.99    0.83
  -4  -2  12    7.01    0.66
  -4  -2  12    6.55    0.83
  -4  -2  11  169.00    4.84
  -4  -2  11  164.82    4.80
  -4  -2  11  166.95    6.80
  -4  -2  11  166.15    4.95
  -4  -2  10  157.77    4.43
  -4  -2  10  158.66    4.51
  -4  -2  10  147.99    4.37
  -4  -2  10  147.83    6.24
  -4  -2   9   15.77    0.95
   4  -2  -9   13.36    2.10
  -4  -2   9   14.72    0.91
  -4  -2   9   13.93    1.85
  -4  -2   9   14.72    0.99
  -4  -2   9   13.96    1.06
  -4  -2   8  143.92    4.12
  -4  -2   8  134.17    4.10
   4  -2  -8  145.05    6.65
  -4  -2   8  144.04    4.16
  -4  -2   8  144.92    4.21
  -4  -2   7    7.86    0.63
   4  -2  -7    6.80    1.51
  -4  -2   7    7.19    0.59
  -4  -2   7    8.03    0.67
  -4  -2   7    7.79    0.71
  -4  -2   6  151.21    5.54
   4  -2  -6  148.19    6.32
   4  -2  -5  102.26    4.50
   4  -2  -5  100.33    4.85
  -4  -2   5   98.43    3.43
   4  -2  -4  125.92    5.14
  -4  -2   4  126.84    4.15
  -4  -2   4  120.37    4.05
   4  -2  -4  129.85    5.66
   4  -2  -3  178.18    6.99
  -4  -2   3  173.33    5.33
  -4  -2   3  158.54    5.08
  -4  -2   2   37.31    1.82
   4  -2  -2   38.97    3.13
   4  -2  -2   34.38    1.79
  -4  -2   2   38.96    2.03
  -4  -2   2   37.11    1.77
   4  -2  -2   40.97    2.40
   4  -2  -1  403.42   13.45
   4  -2  -1  396.60   11.33
  -4  -2   1  406.53   11.53
  -4  -2   1  392.97   11.11
   4  -2  -1  413.08   12.29
  -4  -2   0  127.82    4.48
   4  -2   0  134.62    6.40
   4  -2   0  131.21    4.74
   4  -2   1  195.85    8.30
   4  -2   1  200.72    6.72
  -4  -2  -1  196.55    6.70
  -4  -2  -1  201.69    6.48
   4  -2   2  370.53   11.35
  -4  -2  -2  369.52   11.17
   4  -2   2  385.89   13.04
  -4  -2  -2  376.10   11.08
  -4  -2  -3  501.52   13.98
  -4  -2  -3  483.29   13.97
  -4  -2  -4   66.81    3.35
   4  -2   4   65.45    3.65
   4  -2   5  289.06   11.11
   4  -2   5  293.65    7.99
   4  -2   5  288.45    8.08
  -4  -2  -5  295.70    7.79
  -4  -2  -5  293.86    9.34
   4  -2   5  303.47   10.28
   4  -2   6   82.62    4.45
   4  -2   6   76.76    2.64
  -4  -2  -6   70.17    3.38
   4  -2   6   81.04    5.01
   4  -2   6   76.33    2.73
  -4  -2  -6   73.38    2.41
   4  -2   7   31.05    2.80
   4  -2   7   28.74    1.45
   4  -2   7   27.75    1.52
   4  -2   7   30.18    3.17
   4  -2   8   13.09    1.06
   4  -2   8   14.10    1.10
   4  -2   8   13.14    0.96
   4  -2   8   13.78    1.94
   4  -2   8   11.36    2.11
   4  -2   9   14.09    1.84
   4  -2   9   13.26    0.99
   4  -2   9   12.83    1.04
   4  -2   9   11.24    1.91
   4  -2   9   13.40    0.91
   4  -2  10    8.59    0.96
   4  -2  10    8.59    0.83
   4  -2  10    9.56    0.71
   4  -2  10    8.52    0.82
   4  -2  11    7.44    0.65
   4  -2  11    8.13    0.74
  -4  -2 -11    7.41    0.61
   4  -2  11    7.93    0.51
   4  -2  11    8.22    0.64
   4  -2  11    8.90    0.68
   4  -2  12    1.07    0.31
   4  -2  12    1.30    0.34
   4  -2  13    4.01    0.25
  -4  -1  16    3.72    0.27
  -4  -1  15    1.30    0.39
  -4  -1  15    1.52    0.36
  -4  -1  14    5.26    0.69
  -4  -1  14    5.19    0.62
  -4  -1  13    7.94    0.79
  -4  -1  13    8.53    0.85
  -4  -1  12    6.73    0.60
  -4  -1  12    6.62    0.79
  -4  -1  12    8.02    0.86
  -4  -1  12    8.82    1.46
  -4  -1  11   26.43    1.19
  -4  -1  11   27.41    1.39
  -4  -1  11   28.83    2.43
  -4  -1  11   26.34    1.41
  -4  -1  10   15.65    0.89
  -4  -1  10   15.48    1.10
  -4  -1   9  250.82    6.89
  -4  -1   9  255.54    8.67
  -4  -1   9  264.05    7.08
  -4  -1   8  119.55    3.48
  -4  -1   8  126.62    4.94
  -4  -1   7  290.72    9.04
   4  -1  -6  189.34    6.37
  -4  -1   6  190.35    6.35
  -4  -1   6  191.48    5.67
   4  -1  -5  565.28   16.02
  -4  -1   5  532.37   15.61
  -4  -1   5  586.94   15.09
  -4  -1   5  608.25   15.42
  -4  -1   5  616.48   16.05
   4  -1  -5  578.10   16.65
  -4  -1   4  729.34   19.24
  -4  -1   4  713.23   18.82
   4  -1  -4  770.47   20.41
  -4  -1   4  748.39   19.04
   4  -1  -4  705.23   19.56
   4  -1  -3   14.87    1.22
   4  -1  -3   16.55    1.73
  -4  -1   3   14.68    0.76
  -4  -1   3   19.07    1.15
  -4  -1   2  508.56   13.18
  -4  -1   2  476.48   12.68
   4  -1  -2  494.41   14.65
  -4  -1   1 1016.05   26.21
  -4  -1   1 1013.56   25.89
   4  -1   0   46.22    2.64
  -4  -1   0   49.40    2.03
  -4  -1  -1   97.93    3.59
   4  -1   1   94.17    4.32
   4  -1   1   96.81    5.15
  -4  -1  -1  103.46    3.56
   4  -1   1   97.93    4.20
  -4  -1  -2  932.66   25.07
   4  -1   2  967.31   27.34
   4  -1   2  974.54   26.27
  -4  -1  -2  925.39   24.97
   4  -1   3  186.84    7.03
   4  -1   3  189.40    7.68
  -4  -1  -3  181.26    5.83
  -4  -1  -3  179.76    6.04
   4  -1   4  516.87   15.86
   4  -1   4  510.03   16.47
  -4  -1  -4  535.98   14.50
  -4  -1  -4  526.73   14.97
   4  -1   5  339.51   11.53
   4  -1   5  312.13    8.81
  -4  -1  -5  333.92    9.49
   4  -1   5  336.36   11.04
   4  -1   6   84.30    2.80
   4  -1   6   79.48    2.85
  -4  -1  -6   77.98    2.51
   4  -1   6   79.02    4.46
   4  -1   7   48.24    3.76
   4  -1   7   55.44    3.81
   4  -1   8   16.60    2.28
   4  -1   8   15.85    1.11
   4  -1   8   15.90    2.24
   4  -1   9   58.83    3.92
   4  -1   9   62.67    2.34
   4  -1   9   59.63    2.41
   4  -1   9   60.49    2.17
   4  -1  10    1.50    0.76
  -4  -1 -10    0.93    0.42
   4  -1  10    0.60    0.55
   4  -1  10    1.40    0.67
   4  -1  11   36.70    1.49
   4  -1  11   36.77    1.54
   4  -1  11   37.59    1.55
   4  -1  11   35.26    1.41
   4  -1  12   21.00    0.87
   4  -1  12   21.71    0.95
   4  -1  12   21.34    0.98
   4  -1  12   21.65    1.00
   4  -1  13    5.17    0.33
   4  -1  13    5.08    0.36
   4  -1  13    5.24    0.37
  -4   0  15    4.32    0.46
  -4   0  14   11.95    0.79
  -4   0  14   11.83    0.73
  -4   0  13    2.00    0.60
  -4   0  13    2.02    0.58
  -4   0  12    8.40    0.83
  -4   0  12   10.25    1.38
  -4   0  12    9.40    0.86
  -4   0  11   47.50    2.93
  -4   0  11   49.81    1.93
  -4   0  11   48.77    1.93
  -4   0  10    0.55    0.59
  -4   0  10    0.26    0.82
  -4   0  10    0.26    0.59
  -4   0   9    2.12    0.56
  -4   0   9    0.86    0.84
  -4   0   8  508.86   13.01
  -4   0   8  506.64   14.34
  -4   0   8  494.77   12.98
   4   0  -7  267.72    8.87
  -4   0   7  287.57    8.53
   4   0  -6  223.47    7.28
  -4   0   6  224.51    6.94
   4   0  -5   89.60    3.61
  -4   0   5   94.74    3.33
  -4   0   5   92.68    3.09
  -4   0   5   99.30    3.51
   4   0  -4    2.15    0.55
  -4   0   4    2.77    0.50
  -4   0   4    2.48    0.61
   4   0  -3 4466.54  110.76
  -4   0   3 4413.54  110.41
   4   0  -3 4432.16  111.26
  -4   0   3 4423.20  110.49
  -4   0   2 6884.20  173.09
   4   0  -2 7013.93  174.16
  -4   0   2 7031.74  173.12
   4   0  -1 1293.92   33.25
  -4   0   1 1321.96   33.11
  -4   0   1 1329.36   32.53
   4   0   0  409.10   12.54
  -4   0   0  396.13   10.88
  -4   0   0  400.54   10.61
   4   0   1  397.24   12.25
  -4   0  -1  372.81   10.18
  -4   0  -1  362.14   10.14
  -4   0  -2  573.68   15.07
   4   0   2  600.14   17.08
  -4   0  -2  562.04   14.85
  -4   0  -3  187.80    5.73
   4   0   3  189.02    7.37
  -4   0  -3  187.68    6.13
   4   0   3  207.80    6.90
  -4   0  -4   30.69    1.75
  -4   0  -4   27.62    1.48
   4   0   4   26.22    2.51
  -4   0  -4   30.95    1.95
  -4   0  -5  146.06    4.96
   4   0   5  146.19    6.11
   4   0   5  128.91    6.21
   4   0   6  522.92   14.12
   4   0   6  542.02   16.48
   4   0   6  558.81   14.08
  -4   0  -6  543.93   14.88
  -4   0  -6  523.03   13.78
   4   0   6  534.01   16.69
   4   0   7   71.59    2.74
  -4   0  -7   76.64    2.52
   4   0   7   78.99    2.70
   4   0   7   76.90    4.33
   4   0   7   71.74    4.46
   4   0   8   58.77    2.31
   4   0   8   58.80    2.38
  -4   0  -8   60.34    2.14
   4   0   8   61.73    2.30
   4   0   8   61.53    3.77
   4   0   8   58.26    4.04
   4   0   9    5.38    0.75
   4   0   9    5.17    0.86
  -4   0  -9    5.27    0.60
   4   0   9    5.31    1.45
   4   0   9    5.22    0.66
   4   0  10   62.76    2.28
   4   0  10   64.69    2.34
  -4   0 -10   59.20    2.10
   4   0  10   61.68    2.34
   4   0  11    4.74    0.66
   4   0  11    4.39    0.52
   4   0  11    4.41    0.59
   4   0  11    4.10    0.66
   4   0  12   28.28    1.14
   4   0  12   28.96    1.16
   4   0  13    5.10    0.28
   4   0  13    5.10    0.31
   4   0  13    5.13    0.32
  -4   1  14    5.30    0.52
  -4   1  13    9.07    0.74
  -4   1  13    8.61    0.66
  -4   1  12    6.96    0.74
  -4   1  12    7.51    0.70
  -4   1  11   25.71    1.27
  -4   1  11   26.14    1.27
  -4   1  10   16.91    1.01
  -4   1  10   16.16    1.01
  -4   1   9  254.49    8.01
  -4   1   9  251.74    6.91
  -4   1   9  258.95    6.94
  -4   1   8  130.58    4.66
  -4   1   8  127.78    3.74
  -4   1   8  130.27    3.74
   4   1  -7  267.70    9.09
  -4   1   7  278.51    8.19
   4   1  -6  190.37    6.61
  -4   1   6  187.38    5.78
   4   1  -5  606.84   15.85
  -4   1   5  599.92   15.07
   4   1  -4  720.65   18.83
  -4   1   4  746.80   18.45
  -4   1   3   14.29    1.12
   4   1  -3   13.68    0.77
   4   1  -2  485.35   12.96
  -4   1   2  501.66   12.99
   4   1  -2  471.84   12.44
   4   1  -1  984.60   26.04
  -4   1   1 1055.43   26.11
  -4   1   1  991.65   26.14
   4   1  -1 1023.39   26.95
  -4   1   1 1007.10   25.43
   4   1   0   49.87    2.05
   4   1   0   49.20    2.91
  -4   1   0   46.12    2.16
  -4   1   0   45.72    1.79
   4   1   1   97.10    3.34
  -4   1  -1   98.45    3.57
  -4   1  -1   98.69    3.40
  -4   1  -1   95.69    3.31
   4   1   2  926.28   24.00
  -4   1  -2  938.87   24.39
   4   1   2  953.03   25.64
  -4   1  -2  948.96   24.08
   4   1   2  908.33   25.83
  -4   1  -2  913.19   24.30
   4   1   3  183.19    5.46
  -4   1  -3  186.79    5.88
   4   1   3  184.50    6.65
   4   1   3  197.72    7.54
  -4   1  -3  183.85    5.52
   4   1   4  525.33   15.53
  -4   1  -4  535.61   14.80
  -4   1  -5  331.95    9.76
   4   1   5  334.31   10.47
   4   1   5  330.09    9.11
  -4   1  -5  339.81    8.84
   4   1   5  331.09    8.99
   4   1   5  354.32   11.68
   4   1   6   78.84    2.92
   4   1   6   89.62    2.89
   4   1   6   85.87    2.96
  -4   1  -6   89.74    2.71
  -4   1  -6   83.66    2.69
   4   1   6   87.69    4.81
   4   1   7   49.92    1.98
   4   1   7   46.29    2.01
   4   1   7   50.64    2.05
  -4   1  -7   49.08    1.79
  -4   1  -7   46.45    1.78
   4   1   7   45.99    3.52
   4   1   8   15.90    2.11
   4   1   8   15.60    1.14
   4   1   8   16.72    1.13
  -4   1  -8   18.51    0.98
   4   1   9   66.98    4.06
   4   1   9   61.62    2.31
   4   1   9   60.25    2.34
   4   1   9   64.76    2.40
  -4   1  -9   61.07    2.13
   4   1  10    1.06    0.55
   4   1  10    0.72    0.46
   4   1  10    1.48    0.54
   4   1  10    0.88    0.59
  -4   1 -10    1.16    0.37
   4   1  11   36.48    1.37
   4   1  11   34.16    1.34
   4   1  12   19.64    0.77
   4   1  12   19.38    0.77
  -4   2   7    6.94    1.00
  -4   2   6  152.80    5.31
  -4   2   5   98.72    3.87
   4   2  -4  122.43    4.79
  -4   2   4  126.37    4.53
   4   2  -4  118.90    4.27
   4   2  -3  173.34    5.89
  -4   2   3  179.01    5.75
   4   2  -3  160.84    5.32
   4   2  -2   37.49    2.06
   4   2  -2   35.50    2.00
  -4   2   2   41.87    2.15
  -4   2   2   36.80    1.50
   4   2  -2   35.98    1.82
   4   2  -1  359.19   10.52
   4   2  -1  367.44   10.96
  -4   2   1  387.67   10.17
   4   2  -1  375.22   10.68
   4   2   0  127.40    4.33
   4   2   0  131.27    4.83
  -4   2   0  131.11    4.55
  -4   2   0  126.16    4.08
   4   2   0  123.55    4.37
   4   2   1  178.86    5.76
  -4   2  -1  197.34    6.18
  -4   2  -1  195.88    5.85
  -4   2  -2  365.38   10.58
   4   2   2  366.00   11.95
  -4   2  -3  460.68   13.31
   4   2   3  503.76   15.14
  -4   2  -4   69.54    3.05
   4   2   4   67.94    4.16
   4   2   4   60.71    2.44
  -4   2  -4   64.13    2.13
  -4   2  -4   67.66    2.18
   4   2   4   71.89    2.35
   4   2   5  298.66    8.45
  -4   2  -5  300.89    8.04
  -4   2  -5  301.49    8.09
   4   2   5  317.11   10.83
   4   2   5  303.33    8.26
   4   2   6   79.18    4.42
  -4   2  -6   75.67    2.53
   4   2   6   76.86    2.67
   4   2   6   77.79    2.84
  -4   2  -6   74.37    2.46
   4   2   7   29.11    1.57
  -4   2  -7   25.73    1.28
  -4   2  -7   28.72    1.26
   4   2   7   28.86    1.44
   4   2   7   29.97    2.67
   4   2   8   13.44    0.99
   4   2   8   14.20    1.06
  -4   2  -8   11.94    0.79
   4   2   8   12.92    1.83
  -4   2  -8   11.45    0.84
   4   2   9   13.22    0.92
   4   2   9   14.47    1.05
  -4   2  -9   13.23    0.81
   4   2  10    9.50    0.68
   4   2  10    8.01    0.78
   4   2  11    7.83    0.62
  -4   2 -13    3.33    0.29
   4   3 -12   39.47    2.14
   4   3 -11  135.09    4.71
   4   3 -10   18.87    1.38
  -4   3   9  107.32    3.44
   4   3  -9  112.26    3.81
  -4   3   8    2.94    0.64
   4   3  -8    3.83    0.69
  -4   3   7   27.25    1.34
  -4   3   7   24.10    2.03
   4   3  -7   26.07    1.40
  -4   3   6   16.96    0.99
  -4   3   6   15.38    1.63
   4   3  -6   16.59    1.07
  -4   3   5  156.51    4.55
   4   3  -5  161.00    4.73
  -4   3   5  156.41    5.92
  -4   3   4  102.37    4.33
   4   3  -3  123.12    5.21
  -4   3   3  136.30    5.18
   4   3  -2  434.08   12.93
   4   3  -1   15.75    1.44
  -4   3   1   17.11    1.56
  -4   3   0   42.81    2.45
  -4   3  -1  169.73    6.01
  -4   3  -2  141.29    4.10
  -4   3  -2  143.29    4.07
   4   3   2  144.70    4.27
  -4   3  -2  148.19    5.43
   4   3   2  140.82    6.16
  -4   3  -2  140.89    4.34
  -4   3  -3  262.23    6.92
  -4   3  -3  261.35    8.38
   4   3   3  240.81    7.26
   4   3   3  255.36    7.11
  -4   3  -3  251.09    6.91
  -4   3  -4   69.79    2.37
  -4   3  -4   69.84    3.40
   4   3   4   70.15    2.71
   4   3   4   77.55    4.25
   4   3   4   68.87    2.52
  -4   3  -4   69.13    2.31
   4   3   5   62.29    2.55
  -4   3  -5   58.62    2.11
  -4   3  -5   63.00    2.21
   4   3   5   61.90    2.34
   4   3   6    4.13    0.69
  -4   3  -6    5.52    0.60
  -4   3  -6    4.59    0.66
  -4   3  -7    3.62    0.54
   4   3   7    1.80    0.67
   4   3   7    3.22    0.65
  -4   3  -7    3.66    0.57
  -4   3  -8   31.34    1.47
   4   3   8   35.36    1.75
  -4   3  -8   36.36    1.45
   4   3   8   36.32    1.58
   4   3   9    2.99    0.68
   4   3  10    2.10    0.53
   4   3  11    4.11    0.46
   4   4 -12    1.91    0.67
   4   4 -11    4.25    0.86
  -4   4  10    8.81    0.77
   4   4 -10    9.50    1.06
  -4   4   9   27.21    1.37
   4   4  -9   27.09    1.62
  -4   4   8   11.14    0.97
   4   4  -8   12.38    1.11
  -4   4   7  100.71    4.90
   4   4  -7  101.35    3.70
  -4   4   7  106.52    3.36
  -4   4   6    3.71    0.63
  -4   4   6    5.98    0.84
   4   4  -6    6.66    0.87
  -4   4   6    2.79    1.05
  -4   4   5   23.53    1.29
   4   4  -5   22.18    1.37
  -4   4   5   20.28    2.07
  -4   4   5   23.43    1.19
  -4   4   4  108.78    3.46
  -4   4   4  102.17    4.96
   4   4  -4  110.60    3.57
  -4   4   4  105.56    3.36
  -4   4   3    2.54    1.10
  -4   4   3    2.79    0.58
   4   4  -3    3.21    0.66
  -4   4   2   98.20    3.01
  -4   4   2   88.85    2.90
  -4   4   2   90.95    2.79
  -4   4   1   22.14    1.17
  -4   4   1   18.18    1.86
   4   4  -1   21.12    1.21
  -4   4   1   21.53    1.14
  -4   4   1   20.88    1.04
  -4   4   1   22.24    1.09
  -4   4   0   43.31    2.81
  -4   4   0   49.34    1.78
  -4   4   0   49.48    1.85
   4   4   0   47.48    1.94
   4   4   1  130.41    4.02
  -4   4  -1  132.85    3.89
  -4   4  -1  117.99    5.17
   4   4   1  117.09    4.03
  -4   4  -1  130.59    3.80
  -4   4  -2  109.70    3.29
  -4   4  -2  101.46    4.58
   4   4   2   95.60    3.48
   4   4   2  103.05    3.42
  -4   4  -2  103.15    3.22
  -4   4  -3   33.75    1.48
  -4   4  -3   31.28    2.35
   4   4   3   32.72    1.72
   4   4   3   33.92    1.64
  -4   4  -4   79.93    2.67
   4   4   4   78.95    3.04
   4   4   4   78.07    2.84
  -4   4  -4   81.47    2.71
  -4   4  -5   78.73    2.67
   4   4   5   82.66    3.13
  -4   4  -5   80.63    2.75
   4   4   5   78.22    2.82
   4   4   6    5.10    0.71
   4   4   6    3.52    0.81
  -4   4  -6    3.99    0.67
  -4   4  -6    4.62    0.60
   4   4   7   26.20    1.29
  -4   4  -7   24.88    1.18
  -4   4  -7   26.20    1.30
   4   4   8   16.53    0.95
  -4   4  -8   15.23    0.93
  -4   4  -8   17.19    0.87
   4   4   8   17.42    1.19
  -4   4  -9    7.09    0.57
   4   4   9    9.50    0.81
   4   4  10    6.69    0.59
  -4   4 -10    6.87    0.56
   4   4  11    3.75    0.32
  -4   4 -11    5.55    0.39
   4   5 -12    3.18    0.42
  -4   5  11    7.07    0.50
   4   5 -11    7.85    0.76
   4   5 -10    0.19    0.59
  -4   5  10    0.03    0.43
  -4   5   9   53.47    2.04
   4   5  -9   55.83    2.31
   4   5  -8   23.79    1.48
  -4   5   8   23.97    1.35
  -4   5   7    3.13    0.77
   4   5  -7    3.29    0.84
  -4   5   7    2.52    1.00
  -4   5   7    2.98    0.60
  -4   5   6   50.07    2.00
  -4   5   6   53.86    2.20
  -4   5   6   48.56    3.37
   4   5  -6   48.74    2.26
  -4   5   5  132.96    6.31
  -4   5   5  139.91    4.43
  -4   5   4   33.50    1.60
  -4   5   4   33.95    2.79
  -4   5   3   89.21    3.02
   4   5  -3   80.21    3.02
  -4   5   3   83.18    2.92
  -4   5   2  196.27    5.48
  -4   5   2  172.78    7.26
   4   5  -2  186.08    5.59
  -4   5   2  184.34    5.42
  -4   5   2  175.11    5.19
  -4   5   1   80.12    2.74
  -4   5   1   72.42    4.14
  -4   5   1   75.93    2.70
  -4   5   1   75.85    2.59
   4   5  -1   79.87    2.87
   4   5   0    5.21    0.78
  -4   5   0    7.04    0.74
  -4   5   0    6.03    0.67
  -4   5   0    7.00    1.38
   4   5   1   73.80    2.75
  -4   5  -1   79.13    2.61
   4   5   1   71.40    2.78
  -4   5  -1   68.04    3.94
  -4   5  -1   77.28    2.66
  -4   5  -1   76.53    2.59
   4   5   2   29.08    1.52
  -4   5  -2   29.35    1.35
   4   5   2   28.37    1.56
  -4   5  -2   30.21    2.47
  -4   5  -2   28.64    1.37
  -4   5  -2   27.46    1.41
  -4   5  -3   19.96    1.06
  -4   5  -3   19.68    1.16
   4   5   3   19.61    1.34
   4   5   3   21.91    1.28
   4   5   4   96.27    3.36
  -4   5  -4   88.86    3.00
   4   5   4   94.83    3.12
  -4   5  -4   90.66    3.05
  -4   5  -5   56.19    2.08
   4   5   5   59.86    2.42
  -4   5  -5   57.60    2.04
   4   5   5   57.77    2.15
  -4   5  -5   59.56    2.17
  -4   5  -6   60.31    2.06
   4   5   6   60.54    2.36
   4   5   6   57.74    2.07
  -4   5  -6   59.08    2.05
  -4   5  -6   60.95    2.15
  -4   5  -7    8.71    0.64
   4   5   7    7.71    0.80
   4   5   7    8.13    0.60
  -4   5  -7    7.14    0.56
  -4   5  -7    8.45    0.69
  -4   5  -8    7.38    0.55
  -4   5  -8    6.78    0.52
  -4   5  -9    2.90    0.33
   4   5   9    2.89    0.42
   4   5  10    0.36    0.17
   4   6 -10    4.78    0.49
  -4   6  10    4.94    0.37
   4   6  -9    5.45    0.64
  -4   6   9    4.18    0.50
   4   6  -8    0.77    0.60
  -4   6   8    0.46    0.45
  -4   6   7   11.29    0.87
  -4   6   6    5.28    0.66
  -4   6   5   25.62    1.30
   4   6  -5   28.03    1.49
  -4   6   4   30.74    1.51
  -4   6   4   33.52    1.61
   4   6  -4   32.88    1.64
  -4   6   3   35.02    1.67
   4   6  -3   31.44    1.65
  -4   6   3   33.89    1.57
  -4   6   2    6.38    0.79
  -4   6   2    7.61    0.87
   4   6  -2    6.16    0.86
   4   6  -1   42.15    1.89
  -4   6   1   42.75    1.79
  -4   6   1   39.60    1.62
  -4   6   0   82.86    2.82
   4   6   0   81.16    2.89
  -4   6   0   80.72    2.74
  -4   6   0   81.33    2.69
  -4   6  -1   28.27    1.31
  -4   6  -1   28.00    1.33
  -4   6  -1   28.52    1.38
   4   6   1   27.94    1.44
  -4   6  -2   25.32    1.14
   4   6   2   20.51    1.17
   4   6   2   24.25    1.28
  -4   6  -2   24.18    1.23
  -4   6  -2   23.48    1.19
  -4   6  -3    0.40    0.51
   4   6   3    0.47    0.49
   4   6   3    0.21    0.47
  -4   6  -3    0.15    0.48
   4   6   4   28.58    1.36
   4   6   4   28.05    1.22
  -4   6  -4   30.63    1.26
   4   6   5    5.62    0.64
  -4   6  -5    6.38    0.54
  -4   6  -5    6.51    0.61
   4   6   5    6.09    0.49
   4   6   6    0.14    0.39
  -4   6  -6    0.55    0.34
   4   6   7    2.55    0.39
   4   6   8    3.44    0.28
   4   7  -7    9.69    0.58
  -4   7   6    8.93    0.58
   4   7  -6    7.62    0.58
   4   7  -5    3.09    0.45
  -4   7   5    3.25    0.47
   4   7  -4    2.84    0.49
  -4   7   4    3.41    0.49
  -4   7   4    3.17    0.48
   4   7  -3    6.28    0.62
  -4   7   3    6.84    0.60
  -4   7   3    6.29    0.64
   4   7  -2    2.82    0.54
  -4   7   2    2.63    0.46
  -4   7   1    2.09    0.41
   4   7  -1    2.42    0.50
  -4   7   1    2.78    0.52
   4   7   0   -0.23    0.38
  -4   7   0    0.36    0.29
  -4   7   0    0.18    0.41
   4   7   1    2.73    0.40
  -4   7  -1    2.90    0.46
  -4   7  -2   -0.02    0.33
   4   7   2    0.18    0.25
  -4   7  -3   11.26    0.56
  -5  -7   7    0.20    0.14
  -5  -7   6    9.28    0.47
  -5  -7   5    3.49    0.28
  -5  -7   4    5.62    0.46
   5  -7  -3   12.86    0.62
  -5  -7   3   12.47    0.64
  -5  -7   3   12.18    0.62
   5  -7  -2    8.18    0.55
  -5  -7   2    7.64    0.49
  -5  -7   2    7.26    0.51
   5  -7  -1    1.58    0.40
  -5  -7   1    1.33    0.29
   5  -7   0    1.77    0.40
  -5  -7   0    1.91    0.35
  -5  -7  -1    4.78    0.39
   5  -7   2    4.15    0.40
  -5  -7  -2    3.98    0.30
   5  -7   3    1.89    0.26
  -5  -6  10    6.01    0.32
  -5  -6  10    6.52    0.38
  -5  -6   9    7.30    0.39
  -5  -6   9    8.14    0.45
  -5  -6   9    8.66    0.52
  -5  -6   8    0.49    0.31
  -5  -6   8    0.61    0.29
  -5  -6   8    0.52    0.33
  -5  -6   7    9.83    0.67
  -5  -6   7   10.13    0.59
  -5  -6   7    9.64    0.67
  -5  -6   6   13.08    0.82
  -5  -6   6   11.19    0.65
  -5  -6   6   12.26    0.78
  -5  -6   6   11.78    0.66
   5  -6  -5   51.44    1.78
  -5  -6   5   48.36    1.65
  -5  -6   5   51.14    1.82
  -5  -6   5   51.61    1.76
  -5  -6   5   52.29    1.87
   5  -6  -4   23.58    1.14
  -5  -6   4   23.62    1.22
  -5  -6   4   24.13    1.12
  -5  -6   3   17.62    0.93
  -5  -6   3   17.45    1.01
  -5  -6   2    5.86    0.68
  -5  -6   2    6.09    0.66
  -5  -6   1   65.10    2.17
  -5  -6   0    5.85    0.57
  -5  -6   0    5.10    0.64
   5  -6   1   19.14    1.23
  -5  -6  -1   19.41    0.88
  -5  -6  -1   22.34    1.07
   5  -6   2    5.52    0.76
  -5  -6  -2    5.65    0.57
   5  -6   3   27.62    1.03
  -5  -6  -3   30.64    1.18
  -5  -6  -4    3.19    0.37
   5  -6   4    4.08    0.52
   5  -6   4    3.34    0.35
   5  -6   5    0.55    0.28
   5  -6   5    0.39    0.22
  -5  -5  12   14.42    0.63
  -5  -5  12   15.41    0.63
  -5  -5  11   20.12    0.89
  -5  -5  11   19.61    0.87
  -5  -5  10    1.21    0.43
  -5  -5   9   32.21    1.24
  -5  -5   9   36.57    1.43
  -5  -5   8   62.93    2.17
  -5  -5   8   62.76    2.22
  -5  -5   8   59.01    2.06
  -5  -5   7   20.99    1.13
  -5  -5   7   20.98    1.11
  -5  -5   7   19.00    1.16
  -5  -5   6  158.14    4.72
  -5  -5   6  164.44    4.82
  -5  -5   6  166.89    4.78
  -5  -5   5   25.83    1.32
  -5  -5   5   25.78    1.22
  -5  -5   5   23.51    1.28
  -5  -5   4   50.53    1.85
  -5  -5   4   50.42    1.97
  -5  -5   3   90.17    2.94
  -5  -5   3   88.67    2.82
  -5  -5   3   91.14    2.96
   5  -5  -3   82.51    4.55
  -5  -5   2   31.87    1.44
  -5  -5   2   33.53    1.46
   5  -5  -2   30.88    2.60
  -5  -5   2   33.49    2.48
  -5  -5   1   78.02    2.64
  -5  -5   1   78.88    2.62
  -5  -5   1   78.90    4.19
   5  -5  -1   77.24    4.13
  -5  -5   0   19.79    1.06
  -5  -5   0   21.69    2.22
  -5  -5  -1   15.18    1.96
  -5  -5  -1   14.57    0.95
  -5  -5  -1   14.77    0.86
  -5  -5  -2   45.69    1.75
  -5  -5  -2   46.41    3.21
   5  -5   2   41.18    1.61
   5  -5   3   26.52    1.23
  -5  -5  -3   27.66    1.26
  -5  -5  -3   30.04    2.51
  -5  -5  -4   40.86    1.57
   5  -5   4   41.03    1.60
   5  -5   5   56.25    1.98
  -5  -5  -5   52.37    1.80
   5  -5   5   53.71    1.91
   5  -5   6   15.64    0.72
   5  -5   6   15.93    0.88
   5  -5   7   21.15    0.93
   5  -5   7   20.48    0.79
   5  -5   8    2.79    0.24
   5  -5   8    3.11    0.37
  -5  -5  -9    2.53    0.23
   5  -5   9    2.83    0.29
  -5  -4  13    4.07    0.35
  -5  -4  13    4.40    0.38
  -5  -4  13    4.15    0.40
  -5  -4  12    0.71    0.31
  -5  -4  12    0.63    0.41
  -5  -4  12    0.78    0.36
  -5  -4  12    1.13    0.42
  -5  -4  11    2.12    0.43
  -5  -4  11    2.55    0.54
  -5  -4  11    2.05    0.52
  -5  -4  11    2.28    0.55
  -5  -4  10    9.08    0.81
  -5  -4  10    8.11    0.64
  -5  -4  10    9.54    0.82
  -5  -4   9   50.80    1.97
  -5  -4   9   47.56    1.71
   5  -4  -9   53.71    3.99
  -5  -4   9   48.71    1.86
  -5  -4   8    3.70    0.57
  -5  -4   8    3.96    0.66
  -5  -4   8    2.89    0.66
   5  -4  -8    2.05    1.19
  -5  -4   8    2.41    0.56
  -5  -4   7   97.94    3.19
  -5  -4   7  100.51    3.15
  -5  -4   6   22.01    1.19
  -5  -4   6   23.71    1.20
  -5  -4   5   74.90    2.54
  -5  -4   5   76.14    2.56
  -5  -4   5   72.19    2.59
  -5  -4   4   30.32    1.46
  -5  -4   4   35.74    1.49
  -5  -4   4   37.31    1.56
  -5  -4   4   34.34    2.20
  -5  -4   3   11.12    0.86
  -5  -4   3   11.11    0.79
  -5  -4   3   11.68    1.51
  -5  -4   3   12.23    0.86
  -5  -4   2   32.46    1.42
  -5  -4   2   32.22    1.35
  -5  -4   2   32.59    1.44
   5  -4  -2   34.16    3.25
  -5  -4   2   35.83    2.61
  -5  -4   1  197.42    5.47
  -5  -4   1  194.61    5.43
  -5  -4   1  189.88    5.53
   5  -4  -1  189.19    8.59
  -5  -4   1  210.67    7.62
  -5  -4   0   13.07    0.84
  -5  -4   0   12.78    0.87
   5  -4   0   13.85    2.40
  -5  -4   0   14.30    1.95
   5  -4   1  120.89    3.76
  -5  -4  -1  127.11    3.70
  -5  -4  -1  130.11    3.82
  -5  -4  -1  132.46    5.85
   5  -4   1  124.10    6.77
   5  -4   2   17.75    2.67
  -5  -4  -2   17.01    0.99
   5  -4   2   16.56    1.00
   5  -4   3    8.72    0.79
  -5  -4  -3    9.77    0.76
  -5  -4  -3    9.50    1.66
   5  -4   4   30.77    3.27
  -5  -4  -4   35.29    1.46
   5  -4   4   34.33    1.56
  -5  -4  -4   35.83    2.76
   5  -4   4   33.68    1.45
  -5  -4  -5   43.83    2.93
   5  -4   5   44.26    1.61
   5  -4   5   42.10    3.68
  -5  -4  -5   42.14    1.66
   5  -4   5   48.55    1.89
   5  -4   5   44.46    1.73
   5  -4   6   94.44    2.94
   5  -4   6  100.04    3.20
  -5  -4  -6   97.83    3.00
   5  -4   6   98.43    3.09
   5  -4   7    2.83    0.56
   5  -4   7    3.98    0.58
   5  -4   7    3.17    0.45
   5  -4   7    2.87    0.43
   5  -4   8    0.34    0.39
   5  -4   8    0.55    0.40
   5  -4   8    0.40    0.31
   5  -4   8    0.19    0.29
   5  -4   8    0.47    0.45
   5  -4   9   28.72    1.06
   5  -4   9   28.70    1.01
   5  -4   9   23.38    0.90
   5  -4   9   25.72    0.98
   5  -4   9   30.41    1.11
   5  -4  10    0.75    0.23
   5  -4  10    0.97    0.18
  -5  -4 -10    1.01    0.24
   5  -4  10    0.62    0.30
   5  -4  10    0.89    0.22
  -5  -3  14    8.52    0.46
  -5  -3  14    9.47    0.61
  -5  -3  14    8.87    0.53
  -5  -3  13   20.16    0.91
  -5  -3  13   18.22    0.85
  -5  -3  13   19.59    1.02
  -5  -3  13   19.39    0.94
  -5  -3  12   56.78    2.00
  -5  -3  12   57.74    2.09
  -5  -3  12   55.94    1.96
  -5  -3  12   55.33    1.99
  -5  -3  11    3.01    0.64
  -5  -3  11    2.75    0.61
  -5  -3  11    3.66    0.59
  -5  -3  11    2.49    0.71
  -5  -3  10   35.61    1.58
  -5  -3  10   36.24    1.56
  -5  -3  10   35.52    1.65
  -5  -3  10   35.44    1.56
  -5  -3   9    5.08    0.70
  -5  -3   9    3.78    0.64
  -5  -3   9    4.49    0.66
  -5  -3   9    4.01    0.75
  -5  -3   8   71.46    2.49
  -5  -3   8   68.40    2.30
  -5  -3   8   72.87    2.49
  -5  -3   8   73.44    2.45
  -5  -3   8   71.73    2.47
  -5  -3   7   17.15    0.94
  -5  -3   7   15.99    1.00
  -5  -3   7   15.60    0.96
  -5  -3   7   16.29    0.99
  -5  -3   6   15.89    0.93
  -5  -3   6   15.76    0.92
  -5  -3   6   16.20    0.90
  -5  -3   6   15.87    0.97
   5  -3  -6   14.37    2.28
  -5  -3   6   15.82    0.93
  -5  -3   5    3.44    0.55
  -5  -3   5    3.38    0.57
  -5  -3   5    3.02    0.73
  -5  -3   5    3.26    0.54
   5  -3  -5    2.77    1.53
  -5  -3   4   37.15    1.47
  -5  -3   4   39.26    1.52
   5  -3  -4   39.47    3.73
  -5  -3   4   39.25    2.23
  -5  -3   3   79.41    3.58
   5  -3  -3   84.95    5.51
  -5  -3   3   82.73    2.61
  -5  -3   2  213.41    5.75
  -5  -3   2  206.99    5.77
  -5  -3   2  209.34    5.83
   5  -3  -2  217.03    9.55
  -5  -3   2  213.98    7.26
  -5  -3   1   77.63    2.43
  -5  -3   1   77.91    2.46
  -5  -3   1   77.35    2.53
   5  -3  -1   78.80    5.38
  -5  -3   1   80.30    3.85
  -5  -3   0   49.13    1.71
  -5  -3   0   49.35    1.78
  -5  -3   0   51.02    3.04
  -5  -3   0   52.65    1.85
   5  -3   0   46.56    4.18
  -5  -3   0   48.27    1.73
  -5  -3  -1  386.81   10.09
  -5  -3  -1  385.01   10.34
  -5  -3  -1  392.72   10.20
   5  -3   1  406.27   14.53
  -5  -3  -2   16.83    0.91
   5  -3   2   14.54    2.74
  -5  -3  -2   18.71    2.05
  -5  -3  -3   87.45    2.74
  -5  -3  -3   85.27    4.32
   5  -3   3   81.63    5.52
   5  -3   4   91.12    4.38
   5  -3   4   85.88    5.67
  -5  -3  -4   91.88    2.90
   5  -3   4   91.75    2.90
  -5  -3  -4   95.80    4.55
   5  -3   4   93.82    3.07
   5  -3   5  126.59    5.51
   5  -3   5  126.64    3.83
   5  -3   5  119.28    6.72
   5  -3   5  128.22    3.98
  -5  -3  -5  129.36    3.79
  -5  -3  -5  120.27    5.26
   5  -3   6   16.43    1.83
  -5  -3  -6   13.24    1.48
   5  -3   6   15.51    0.94
   5  -3   6   14.67    1.05
  -5  -3  -6   14.45    0.87
   5  -3   6   12.76    1.05
   5  -3   7   63.62    2.29
   5  -3   7   63.46    2.38
   5  -3   7   66.91    2.43
   5  -3   8   30.37    1.37
   5  -3   8   33.86    1.47
   5  -3   8   31.85    1.47
   5  -3   8   31.88    1.50
   5  -3   9    0.61    0.53
   5  -3   9    0.67    0.49
   5  -3   9    0.86    0.45
   5  -3   9    0.87    0.48
   5  -3   9    1.01    0.48
   5  -3  10   20.94    0.98
   5  -3  10   21.56    0.92
   5  -3  10   20.79    0.92
   5  -3  10   20.81    0.89
  -5  -3 -10   20.79    0.94
   5  -3  11    5.00    0.39
   5  -3  11    5.83    0.37
   5  -3  11    5.30    0.36
  -5  -3 -11    4.72    0.33
   5  -3  11    4.33    0.26
   5  -3  11    4.62    0.33
  -5  -2  15    9.99    0.55
  -5  -2  15    9.37    0.57
  -5  -2  14   10.12    0.52
  -5  -2  14   11.60    0.77
  -5  -2  14   12.03    0.78
  -5  -2  13    5.74    0.75
  -5  -2  13    5.14    0.54
  -5  -2  13    5.10    0.78
  -5  -2  12    5.39    0.83
  -5  -2  12    5.20    0.60
  -5  -2  12    5.43    0.58
  -5  -2  11  173.56    5.03
  -5  -2  11  176.95    5.01
  -5  -2  11  185.01    5.20
  -5  -2  11  166.18    5.16
  -5  -2  10  137.01    4.12
  -5  -2  10  136.14    4.07
  -5  -2  10  142.37    4.21
  -5  -2  10  133.95    4.25
  -5  -2   9    6.94    0.71
  -5  -2   9    6.12    0.82
  -5  -2   9    5.73    0.64
   5  -2  -9    7.93    2.12
  -5  -2   9    4.74    0.79
  -5  -2   8   29.99    1.31
  -5  -2   8   29.74    1.39
  -5  -2   8   29.85    1.30
  -5  -2   8   28.87    1.39
   5  -2  -8   30.05    3.30
  -5  -2   7  102.09    3.15
  -5  -2   7  102.82    3.06
  -5  -2   7  105.31    3.14
   5  -2  -7  101.02    5.80
  -5  -2   7  106.00    3.19
  -5  -2   7  102.57    3.18
  -5  -2   6   88.03    2.74
  -5  -2   6   89.52    2.68
  -5  -2   6   88.36    2.73
  -5  -2   6   87.14    2.73
   5  -2  -6   92.99    5.33
  -5  -2   6   88.83    3.40
  -5  -2   6   89.63    2.75
   5  -2  -5  180.76    7.48
  -5  -2   5  164.38    5.50
   5  -2  -5  179.70    7.73
   5  -2  -4  897.79   25.35
   5  -2  -4  875.40   24.12
  -5  -2   4  811.57   22.34
   5  -2  -3  489.85   15.72
  -5  -2   3  448.37   12.92
   5  -2  -2  198.50    8.48
   5  -2  -2  181.30    6.16
  -5  -2   2  188.48    6.10
  -5  -2   2  178.14    5.62
   5  -2  -1  205.26    9.04
   5  -2  -1  210.20    6.97
  -5  -2   1  211.35    6.77
  -5  -2   1  196.54    6.31
   5  -2   0  352.74   12.78
   5  -2   0  344.60   10.35
   5  -2   1   93.62    5.75
   5  -2   1   92.24    4.21
  -5  -2  -1   91.26    3.95
  -5  -2  -1   84.81    3.69
   5  -2   2   10.08    1.56
  -5  -2  -2   10.51    1.36
   5  -2   3  124.23    3.72
  -5  -2  -3  115.44    4.17
   5  -2   3  125.84    3.93
  -5  -2  -3  128.98    3.65
  -5  -2  -3  132.60    5.06
   5  -2   3  138.95    5.71
   5  -2   4  276.49    7.66
   5  -2   4  268.96    7.83
  -5  -2  -4  289.99    7.54
  -5  -2  -4  295.60    9.14
   5  -2   4  273.63    9.89
   5  -2   4  289.23   11.29
   5  -2   5    1.32    1.65
   5  -2   5    0.93    0.50
   5  -2   5    0.89    0.72
  -5  -2  -5    0.79    0.37
   5  -2   5    0.86    1.19
  -5  -2  -5    0.34    0.75
   5  -2   6  110.75    5.59
   5  -2   6  113.27    3.59
   5  -2   6  113.36    6.32
   5  -2   6  113.17    3.71
  -5  -2  -6  108.03    3.36
   5  -2   7    8.18    0.81
   5  -2   7    7.66    0.93
   5  -2   7   11.33    1.85
  -5  -2  -7    7.65    0.68
   5  -2   7    8.62    1.99
   5  -2   8   69.20    4.13
   5  -2   8   72.60    2.56
   5  -2   8   69.96    2.66
   5  -2   8   71.90    4.61
   5  -2   8   69.94    2.51
   5  -2   9   39.08    1.64
   5  -2   9   40.14    1.72
   5  -2   9   36.77    1.57
   5  -2  10    6.33    0.65
   5  -2  10    6.67    0.70
  -5  -2 -10    6.17    0.57
   5  -2  10    5.97    0.54
   5  -2  10    7.43    0.69
   5  -2  11    9.81    0.66
  -5  -2 -11    8.90    0.55
   5  -2  11    9.71    0.61
   5  -2  12    3.79    0.27
   5  -2  12    4.11    0.30
   5  -2  12    3.39    0.31
  -5  -1  16    0.60    0.16
  -5  -1  15    0.13    0.37
  -5  -1  15    0.22    0.31
  -5  -1  14    7.44    0.73
  -5  -1  14    7.40    0.67
  -5  -1  13   43.10    1.75
  -5  -1  13   39.91    1.68
  -5  -1  12   47.35    1.99
  -5  -1  12   52.10    2.03
  -5  -1  11   16.90    0.92
   5  -1 -11   15.70    3.00
  -5  -1  11   17.17    1.17
  -5  -1  11   18.37    1.18
  -5  -1  10   98.54    3.03
  -5  -1  10   95.40    4.57
   5  -1 -10  102.83    6.93
  -5  -1  10   97.94    3.23
  -5  -1   9  316.67    8.44
  -5  -1   9  315.77   10.31
   5  -1  -9  331.84   13.19
  -5  -1   8   78.59    2.41
  -5  -1   8   69.41    2.48
   5  -1  -8   80.99    5.12
  -5  -1   8   75.62    2.53
   5  -1  -7   82.06    4.75
  -5  -1   7   75.36    2.45
  -5  -1   7   74.81    2.43
   5  -1  -6  146.72    6.09
   5  -1  -6  153.36    6.70
  -5  -1   6  151.52    4.98
   5  -1  -5  113.44    4.88
  -5  -1   5  120.67    3.95
   5  -1  -5  120.45    5.61
  -5  -1   5  123.39    4.21
   5  -1  -4  444.93   13.48
  -5  -1   4  452.01   12.53
   5  -1  -4  482.61   14.73
  -5  -1   4  473.32   12.74
   5  -1  -3  409.78   12.35
  -5  -1   3  429.86   11.75
   5  -1  -3  419.47   13.65
   5  -1  -2 1078.17   27.70
  -5  -1   2 1133.70   27.10
  -5  -1   1  585.50   15.41
   5  -1   0  176.91    7.89
   5  -1   0  154.77    6.26
  -5  -1   0  177.57    5.59
  -5  -1   0  165.81    5.24
   5  -1   1    3.95    1.36
  -5  -1  -1    3.41    0.80
  -5  -1  -1    3.69    0.70
   5  -1   1    2.70    1.81
   5  -1   2  252.17   10.06
   5  -1   2  256.08    9.04
  -5  -1  -2  243.51    7.53
  -5  -1  -2  234.42    7.62
  -5  -1  -3  217.09    6.86
   5  -1   3  218.70    9.16
   5  -1   3  220.38    8.39
  -5  -1  -3  206.72    7.08
   5  -1   4   47.18    3.89
   5  -1   4   39.47    1.86
  -5  -1  -4   42.45    1.54
   5  -1   4   41.07    3.28
  -5  -1  -4   45.73    2.36
   5  -1   5   52.51    4.03
   5  -1   5   43.49    2.00
  -5  -1  -5   44.66    2.38
  -5  -1  -5   47.11    1.68
   5  -1   5   47.86    3.50
  -5  -1  -6  119.58    4.79
   5  -1   6  116.37    3.82
   5  -1   6  122.98    6.32
   5  -1   6  118.78    3.94
  -5  -1  -6  121.70    3.58
   5  -1   6  114.06    5.93
   5  -1   7   35.17    1.76
  -5  -1  -7   40.37    1.60
   5  -1   7   42.90    3.58
   5  -1   7   41.60    3.41
   5  -1   8   37.62    3.16
   5  -1   8   33.41    3.05
   5  -1   9    2.67    0.73
   5  -1   9    3.15    0.55
   5  -1   9    3.03    0.83
  -5  -1  -9    3.27    0.54
   5  -1  10   21.96    1.27
   5  -1  10   20.99    1.15
   5  -1  10   22.92    1.24
  -5  -1 -10   20.36    1.02
   5  -1  10   21.17    1.13
   5  -1  11    1.04    0.48
   5  -1  11    0.61    0.36
   5  -1  11    0.83    0.40
   5  -1  11    1.04    0.47
  -5  -1 -11    1.18    0.33
   5  -1  12    0.35    0.31
   5  -1  12    0.36    0.19
   5  -1  12    0.40    0.23
   5  -1  12    0.09    0.25
  -5   0  15    5.78    0.43
  -5   0  15    6.00    0.49
  -5   0  14    8.22    0.66
  -5   0  14    8.59    0.71
  -5   0  13    2.07    0.60
  -5   0  13    2.49    0.62
  -5   0  12   21.72    1.22
  -5   0  12   21.46    1.21
  -5   0  11   24.15    1.29
  -5   0  11   22.64    1.27
  -5   0  10    1.13    0.62
  -5   0  10    1.61    0.65
  -5   0   9    4.49    0.70
  -5   0   9    4.20    0.72
  -5   0   8   18.34    1.04
  -5   0   8   20.34    1.08
   5   0  -7  227.74    8.29
  -5   0   7  227.56    6.20
   5   0  -6   71.80    3.57
  -5   0   6   68.27    2.64
   5   0  -5  115.61    4.49
  -5   0   5  104.19    3.71
  -5   0   5  111.23    3.94
   5   0  -4  735.81   20.38
  -5   0   4  724.65   19.73
   5   0  -4  770.58   21.30
  -5   0   4  787.92   19.97
   5   0  -3 1050.83   28.05
  -5   0   3 1075.65   27.62
  -5   0   3 1076.56   27.68
   5   0  -3 1046.92   29.07
  -5   0   2 1732.13   41.52
   5   0  -2 1662.89   43.15
   5   0  -1 5488.80  131.14
   5   0  -1 5167.20  132.84
  -5   0   1 5343.47  130.85
  -5   0   1 5247.28  130.76
  -5   0   1 5113.26  130.00
   5   0   0  163.24    5.35
   5   0   0  172.47    7.19
  -5   0   0  158.24    5.08
  -5   0  -1 3007.91   75.59
  -5   0  -1 3030.74   75.37
   5   0   1 2848.77   77.08
  -5   0  -1 2930.41   75.21
  -5   0  -2  376.69   11.61
   5   0   2  444.22   14.07
   5   0   2  417.78   13.39
  -5   0  -2  412.81   11.38
  -5   0  -2  403.31   11.50
  -5   0  -3   93.86    3.83
   5   0   3   93.73    5.13
   5   0   3  101.60    5.36
  -5   0  -3   97.55    3.59
  -5   0  -3   97.34    3.92
  -5   0  -4 1035.14   27.53
   5   0   4 1026.26   26.61
   5   0   4 1039.35   26.49
  -5   0  -4 1039.01   26.10
   5   0   4 1041.90   26.26
  -5   0  -4 1026.81   27.01
   5   0   4  999.03   29.24
   5   0   5   49.14    3.57
  -5   0  -5   44.90    2.51
   5   0   5   45.95    2.07
   5   0   5   46.79    1.96
   5   0   5   45.81    1.83
  -5   0  -5   46.92    1.68
   5   0   6    2.21    1.39
   5   0   6    1.40    0.76
   5   0   6    2.13    1.63
   5   0   6    2.92    0.65
  -5   0  -6    1.27    0.65
  -5   0  -6    0.52    0.48
  -5   0  -6    1.13    0.41
   5   0   7    2.52    1.22
   5   0   7    1.41    0.71
   5   0   7    1.03    1.20
  -5   0  -7    1.67    0.53
   5   0   7    1.40    0.60
  -5   0  -7    1.52    0.46
   5   0   8    0.97    0.65
   5   0   8    0.73    0.68
   5   0   8    1.26    1.27
   5   0   8    0.79    0.51
  -5   0  -8    0.87    0.49
   5   0   9  122.92    5.99
   5   0   9  121.22    3.92
   5   0   9  126.99    4.03
  -5   0  -9  125.03    3.75
   5   0  10    7.93    0.79
   5   0  10    8.57    0.85
  -5   0 -10    8.39    0.64
   5   0  10    8.64    0.84
   5   0  11   13.04    0.76
   5   0  11   11.76    0.75
   5   0  11   11.50    0.77
   5   0  11   11.98    0.64
   5   0  12    4.16    0.35
   5   0  12    3.92    0.37
   5   0  12    3.53    0.33
  -5   1  14    7.30    0.56
  -5   1  13   40.68    1.56
  -5   1  13   38.91    1.50
  -5   1  12   48.93    1.84
  -5   1  12   47.02    1.81
  -5   1  11   17.69    1.08
  -5   1  11   18.06    1.06
  -5   1  10   98.64    3.18
  -5   1  10  104.63    3.22
  -5   1   9  327.03    8.71
  -5   1   9  323.72    8.73
  -5   1   8   76.89    2.51
  -5   1   8   79.29    2.54
  -5   1   7   79.73    2.53
  -5   1   6  148.08    4.99
   5   1  -5  120.86    4.81
  -5   1   5  117.14    4.21
  -5   1   4  447.33   12.60
   5   1  -4  462.89   13.62
   5   1  -3  402.50   11.86
  -5   1   3  420.16   11.69
   5   1  -3  408.33   12.49
  -5   1   3  421.63   11.71
   5   1  -2 1100.75   28.71
  -5   1   2 1101.18   28.66
   5   1  -2 1091.10   29.76
   5   1  -1  631.61   18.15
   5   1  -1  637.41   16.71
  -5   1   1  605.67   16.73
  -5   1   1  665.43   16.74
  -5   1   1  590.99   15.69
   5   1   0  182.31    5.62
   5   1   0  180.62    7.11
  -5   1   0  180.68    5.60
  -5   1   0  166.98    5.07
   5   1   1    3.66    0.63
  -5   1  -1    2.67    0.75
   5   1   1    3.71    1.53
  -5   1  -1    4.95    0.82
  -5   1  -1    4.00    0.59
   5   1   2  251.60    7.38
  -5   1  -2  248.73    7.72
   5   1   2  259.98    9.11
   5   1   2  233.22    9.14
  -5   1  -2  240.68    7.36
  -5   1  -3  207.98    6.91
  -5   1  -3  217.05    6.56
   5   1   3  224.94    8.89
   5   1   3  218.15    7.99
  -5   1  -3  211.09    6.99
   5   1   4   44.03    2.97
  -5   1  -4   44.54    2.43
   5   1   4   46.50    2.10
  -5   1  -4   45.42    1.66
   5   1   4   45.52    1.79
  -5   1  -4   43.44    1.61
   5   1   4   49.73    3.89
  -5   1  -5   43.68    2.44
   5   1   5   44.49    2.08
   5   1   5   47.02    2.02
  -5   1  -5   47.84    1.76
  -5   1  -5   46.19    1.71
   5   1   5   51.32    3.96
   5   1   6  118.79    4.02
   5   1   6  126.05    4.06
  -5   1  -6  126.24    3.74
  -5   1  -6  120.41    3.69
   5   1   6  129.77    6.36
   5   1   7   40.64    1.83
  -5   1  -7   38.74    1.60
   5   1   7   38.74    1.91
   5   1   7   42.52    1.93
  -5   1  -7   42.01    1.66
   5   1   7   46.47    3.59
   5   1   8   33.93    1.70
   5   1   8   38.30    1.76
  -5   1  -8   36.75    1.51
  -5   1  -8   30.87    1.44
   5   1   8   38.71    3.20
   5   1   9    3.20    0.66
   5   1   9    2.72    0.69
   5   1   9    2.97    0.64
  -5   1  -9    2.62    0.48
   5   1  10   19.95    1.00
   5   1  10   21.33    1.09
   5   1  10   20.99    1.10
  -5   1 -10   19.84    0.94
   5   1  11    0.78    0.35
   5   1  11    0.75    0.34
  -5   2  10  136.77    4.01
  -5   2   9    5.95    0.65
  -5   2   8   30.39    1.33
  -5   2   7   92.12    3.99
  -5   2   7  105.37    3.11
  -5   2   6   86.34    3.71
  -5   2   6   87.62    2.71
  -5   2   5  167.41    5.90
   5   2  -4  828.83   23.60
  -5   2   4  882.18   23.19
   5   2  -3  455.15   13.47
  -5   2   3  463.62   13.28
   5   2  -3  464.42   13.68
   5   2  -2  182.90    6.32
  -5   2   2  193.14    6.42
   5   2  -2  187.23    6.82
   5   2  -1  195.11    6.44
   5   2  -1  203.27    7.25
   5   2   0  303.10    9.40
  -5   2   0  348.32    9.88
  -5   2  -1   91.18    3.80
   5   2   2   12.05    0.82
  -5   2  -2    9.32    1.14
   5   2   2   12.51    2.14
  -5   2  -2   11.03    0.71
  -5   2  -2   11.23    0.69
  -5   2  -2   10.32    0.94
  -5   2  -3  128.13    4.91
   5   2   3  143.34    4.38
   5   2   3  126.82    4.23
  -5   2  -3  133.31    3.81
  -5   2  -3  132.24    3.84
   5   2   3  137.02    6.64
  -5   2  -3  121.87    4.35
  -5   2  -4  275.09    8.84
   5   2   4  294.52    8.05
   5   2   4  291.55    8.10
  -5   2  -4  289.37    7.59
  -5   2  -4  295.90    7.63
   5   2   5    1.36    1.33
   5   2   5    0.96    0.72
  -5   2  -5    0.50    0.44
  -5   2  -5    0.89    0.43
   5   2   5    0.30    0.49
   5   2   6  110.05    3.62
   5   2   6  106.98    3.77
  -5   2  -6  113.33    3.41
   5   2   6  107.17    5.67
  -5   2  -6  110.26    3.41
   5   2   6  106.64    3.61
   5   2   7    9.12    0.89
   5   2   7    9.67    0.97
  -5   2  -7    8.18    0.71
   5   2   7    8.20    1.67
   5   2   7    6.95    0.83
  -5   2  -7    9.15    0.75
   5   2   8   69.57    2.53
   5   2   8   71.32    2.46
   5   2   8   75.08    2.68
  -5   2  -8   70.21    2.33
   5   2   9   36.85    1.54
   5   2   9   37.38    1.67
  -5   2  -9   34.22    1.38
   5   2  10    6.11    0.54
   5   2  10    5.94    0.64
  -5   2 -10    5.13    0.47
   5   3 -10   37.70    1.97
   5   3  -9    4.01    0.78
  -5   3   8   72.61    2.55
   5   3  -8   72.32    2.76
  -5   3   7   17.59    1.07
  -5   3   7   14.51    1.62
   5   3  -7   15.63    1.14
  -5   3   6   16.87    1.01
  -5   3   6   16.16    1.67
   5   3  -6   15.60    1.09
  -5   3   6   15.84    0.87
  -5   3   5    3.53    0.57
  -5   3   5    3.03    0.96
   5   3  -5    3.03    0.60
  -5   3   5    3.16    0.50
  -5   3   4   39.05    1.57
  -5   3   4   38.74    2.59
  -5   3   4   38.62    1.48
   5   3  -4   38.85    1.71
   5   3  -4   37.22    2.50
  -5   3   4   38.94    1.46
  -5   3   3   85.67    3.99
  -5   3   3   80.28    2.57
  -5   3   3   82.30    2.57
   5   3  -3   84.01    2.81
   5   3  -2  210.01    5.98
  -5   3   2  208.24    5.74
  -5   3   2  209.40    5.76
  -5   3   1   82.43    3.80
   5   3  -1   80.09    2.67
  -5   3   1   75.99    2.46
  -5   3   1   76.95    2.41
  -5   3   1   79.10    2.55
   5   3   0   49.22    1.93
  -5   3   0   50.73    2.90
  -5   3   0   49.00    1.73
  -5   3   0   49.51    1.87
  -5   3   0   50.35    1.78
  -5   3  -1  389.60   11.82
  -5   3  -1  401.15   10.19
  -5   3  -1  399.83   10.13
  -5   3  -1  376.56   10.34
  -5   3  -2   18.92    1.73
   5   3   2   14.96    1.16
   5   3   2   16.58    2.37
  -5   3  -2   17.74    0.92
   5   3   2   15.12    1.05
  -5   3  -2   14.63    1.08
  -5   3  -3   92.78    4.08
   5   3   3   84.49    2.98
  -5   3  -3   90.25    2.81
   5   3   3   93.20    5.22
  -5   3  -4   87.49    4.10
   5   3   4   92.74    3.42
  -5   3  -4   93.55    3.00
  -5   3  -4   96.03    3.00
   5   3   4   97.54    5.29
   5   3   4   90.35    3.19
   5   3   5  127.34    4.35
   5   3   5  133.33    4.14
  -5   3  -5  126.07    3.88
  -5   3  -5  128.91    3.93
  -5   3  -6   15.01    0.95
   5   3   6   15.46    1.10
  -5   3  -6   16.58    0.99
  -5   3  -7   59.90    2.15
   5   3   7   61.85    2.54
   5   3   7   62.51    2.36
  -5   3  -7   61.70    2.22
   5   3   8   29.46    1.58
  -5   3  -8   31.35    1.30
   5   3   8   31.18    1.45
  -5   3  -8   28.30    1.30
   5   3   9    0.73    0.50
  -5   3  -9    0.82    0.35
  -5   3  -9    0.56    0.34
   5   3  10   21.58    1.03
   5   4 -11    2.71    0.79
  -5   4  10    8.74    0.73
   5   4 -10    9.55    1.06
   5   4  -9   48.47    2.21
  -5   4   9   47.55    1.90
  -5   4   8    2.93    0.70
   5   4  -8    3.76    0.79
  -5   4   7  100.01    3.30
  -5   4   7   88.96    4.56
   5   4  -7   95.42    3.49
  -5   4   6   22.61    1.17
  -5   4   6   22.07    1.27
  -5   4   6   22.50    2.20
   5   4  -6   21.42    1.43
  -5   4   5   78.11    2.73
   5   4  -5   77.04    2.92
  -5   4   5   75.35    4.17
  -5   4   5   75.68    2.58
  -5   4   4   37.57    1.65
  -5   4   4   33.81    2.66
  -5   4   4   35.02    1.53
   5   4  -4   34.88    1.76
  -5   4   3   10.90    0.93
  -5   4   3   10.83    0.85
  -5   4   3   10.89    0.74
  -5   4   3    8.95    1.48
   5   4  -3   10.40    1.00
   5   4  -2   32.61    1.60
  -5   4   2   31.94    1.44
  -5   4   2   33.09    1.33
  -5   4   2   32.58    1.39
  -5   4   1  195.81    5.64
  -5   4   1  197.73    5.53
  -5   4   1  205.62    5.63
  -5   4   0   14.21    0.90
  -5   4   0   13.77    0.95
  -5   4   0   14.62    1.66
   5   4   0   12.12    1.08
  -5   4   0   15.22    0.99
  -5   4  -1  124.66    3.72
  -5   4  -1  117.04    5.17
   5   4   1  113.67    4.01
   5   4   1  128.89    4.00
  -5   4  -2   18.89    1.04
  -5   4  -2   15.73    1.05
  -5   4  -2   16.92    1.71
   5   4   2   16.06    1.23
   5   4   2   17.27    1.20
  -5   4  -3    9.87    0.84
   5   4   3    8.65    0.98
   5   4   3    8.83    0.93
  -5   4  -3    7.03    1.19
  -5   4  -4   35.86    1.56
   5   4   4   37.93    1.89
   5   4   4   34.55    1.71
  -5   4  -4   37.21    1.58
   5   4   5   45.01    2.12
  -5   4  -5   43.58    1.76
   5   4   5   44.19    1.93
  -5   4  -5   43.61    1.79
   5   4   6  100.51    3.56
   5   4   6  101.54    3.31
  -5   4  -6  102.61    3.18
  -5   4  -6   99.84    3.21
   5   4   7    2.85    0.60
  -5   4  -7    2.86    0.51
  -5   4  -7    3.40    0.53
   5   4   8   -0.22    0.54
   5   4   8    0.01    0.38
  -5   4  -8    0.28    0.32
  -5   4  -8    0.52    0.35
   5   4   9   28.61    1.23
  -5   4  -9   29.05    1.12
  -5   4 -10    0.74    0.22
   5   4  10    0.62    0.28
   5   5 -11   18.30    1.01
   5   5 -10    1.55    0.60
  -5   5  10    1.24    0.41
  -5   5   9   35.48    1.50
   5   5  -9   34.97    1.74
  -5   5   8   59.61    2.26
   5   5  -8   62.43    2.51
  -5   5   7   19.07    1.22
  -5   5   7   18.65    1.03
   5   5  -7   20.12    1.38
  -5   5   6  171.58    5.03
   5   5  -6  163.62    5.14
  -5   5   6  157.84    4.76
  -5   5   5   27.25    1.50
  -5   5   5   23.46    2.32
  -5   5   5   26.88    1.35
   5   5  -5   27.43    1.58
  -5   5   4   46.88    3.37
  -5   5   4   50.52    1.99
   5   5  -4   51.89    2.24
  -5   5   3   87.28    2.96
  -5   5   3   87.82    3.04
  -5   5   2   34.55    1.59
  -5   5   2   28.94    2.53
   5   5  -2   26.67    1.61
  -5   5   2   32.91    1.52
  -5   5   2   31.06    1.35
  -5   5   1   83.39    2.84
  -5   5   1   78.40    4.27
   5   5  -1   83.74    2.97
  -5   5   1   79.06    2.76
  -5   5   1   78.33    2.65
  -5   5   0   20.83    1.19
  -5   5   0   18.30    1.97
   5   5   0   17.85    1.29
  -5   5   0   20.36    1.13
   5   5   1   15.52    1.16
  -5   5  -1   15.33    1.01
  -5   5  -1   15.39    1.79
  -5   5  -1   15.91    1.00
  -5   5  -1   13.95    1.06
   5   5   2   43.83    1.94
  -5   5  -2   44.99    1.76
   5   5   2   39.36    1.91
  -5   5  -2   46.16    1.86
  -5   5  -2   45.33    1.77
  -5   5  -3   27.25    1.26
   5   5   3   26.01    1.50
   5   5   3   28.12    1.47
  -5   5  -3   26.49    1.33
  -5   5  -3   30.73    1.40
  -5   5  -4   39.12    1.53
   5   5   4   40.19    1.89
  -5   5  -4   42.74    1.68
   5   5   5   56.02    2.20
  -5   5  -5   52.84    1.92
  -5   5  -5   55.25    1.98
   5   5   5   52.27    1.99
   5   5   6   17.07    1.09
   5   5   6   15.74    0.89
  -5   5  -6   16.20    0.86
  -5   5  -6   16.19    0.90
   5   5   7   21.31    1.08
  -5   5  -7   20.66    0.83
  -5   5  -7   19.03    0.83
  -5   5  -7   20.80    0.93
   5   5   7   20.07    0.88
  -5   5  -8    2.89    0.27
  -5   5  -8    3.12    0.30
   5   6 -10    6.06    0.44
  -5   6   9    8.66    0.57
   5   6  -9    8.54    0.69
  -5   6   8    0.37    0.42
   5   6  -8    0.29    0.48
  -5   6   7    9.75    0.77
   5   6  -7    9.47    0.89
   5   6  -6   13.23    1.04
  -5   6   6   12.27    0.94
  -5   6   6   12.41    0.80
  -5   6   5   52.41    1.92
  -5   6   4   22.50    1.32
  -5   6   4   26.17    1.27
  -5   6   3   19.51    1.20
   5   6  -3   17.64    1.21
  -5   6   3   16.99    1.09
   5   6  -2    5.90    0.85
  -5   6   2    6.08    0.78
  -5   6   2    5.38    0.73
  -5   6   1   67.61    2.35
  -5   6   1   64.90    2.35
   5   6  -1   66.70    2.46
  -5   6   1   60.68    2.14
   5   6   0    6.96    0.82
  -5   6   0    6.42    0.70
  -5   6   0    5.95    0.64
  -5   6  -1   22.25    1.08
  -5   6  -1   20.97    1.17
   5   6   1   21.59    1.24
  -5   6  -1   21.00    1.08
  -5   6  -2    6.36    0.58
  -5   6  -2    6.08    0.63
   5   6   2    6.45    0.74
  -5   6  -2    6.23    0.64
   5   6   3   28.38    1.26
   5   6   3   31.72    1.35
  -5   6  -3   32.77    1.32
  -5   6  -3   30.16    1.28
   5   6   4    3.43    0.49
   5   6   4    3.16    0.47
  -5   6  -4    3.36    0.47
  -5   6  -5    0.62    0.29
   5   6   5    0.32    0.32
  -5   6  -5    0.67    0.33
   5   6   5    0.48    0.25
   5   6   6   14.67    0.68
  -5   6  -6   14.76    0.66
  -5   7   7    0.03    0.18
   5   7  -6    8.96    0.56
  -5   7   5    4.14    0.44
   5   7  -5    4.31    0.44
  -5   7   4    6.11    0.52
  -5   7   4    5.53    0.48
   5   7  -4    4.94    0.53
  -5   7   3   13.18    0.72
  -5   7   3   13.34    0.73
   5   7  -3   12.68    0.75
  -5   7   2    8.23    0.57
   5   7  -2    7.86    0.61
  -5   7   2    7.56    0.60
   5   7  -1    1.12    0.40
  -5   7   1    1.36    0.32
  -5   7   0    1.93    0.28
   5   7   0    1.52    0.36
  -5   7   0    2.14    0.42
   5   7   1    4.77    0.41
  -5   7  -1    5.43    0.48
   5   7   2    3.04    0.26
  -5   7  -2    4.47    0.37
  -5   7  -3    1.82    0.21
  -6  -7   6    1.86    0.19
  -6  -7   5    7.19    0.40
  -6  -7   4    3.53    0.32
  -6  -7   4    3.30    0.25
   6  -7  -3    3.95    0.31
  -6  -7   3    3.58    0.31
  -6  -7   3    4.15    0.32
   6  -7  -2    7.00    0.43
  -6  -7   2    5.85    0.35
  -6  -7   2    6.73    0.41
   6  -7  -1    1.71    0.31
   6  -7   0    5.46    0.40
  -6  -7   0    4.48    0.34
   6  -7   1    0.86    0.25
  -6  -7  -1    0.52    0.16
  -6  -6  10    0.21    0.13
  -6  -6   9    2.71    0.21
  -6  -6   9    3.44    0.26
  -6  -6   8    6.17    0.44
  -6  -6   8    6.15    0.40
  -6  -6   8    6.59    0.48
  -6  -6   7    7.97    0.58
  -6  -6   7    8.06    0.49
  -6  -6   7    8.11    0.59
  -6  -6   6   11.78    0.73
  -6  -6   6   11.00    0.59
  -6  -6   6   10.81    0.70
  -6  -6   6   10.42    0.56
   6  -6  -5   13.87    0.79
  -6  -6   5   12.80    0.64
  -6  -6   5   12.99    0.78
  -6  -6   5   13.99    0.73
   6  -6  -4    0.70    0.45
  -6  -6   4    0.83    0.51
  -6  -6   4    0.20    0.36
  -6  -6   4    0.59    0.39
  -6  -6   3    4.42    0.60
  -6  -6   3    3.70    0.53
  -6  -6   2   53.30    1.81
  -6  -6   2   50.82    1.82
  -6  -6   1    4.18    0.51
  -6  -6   1    3.83    0.54
  -6  -6   0   10.67    0.63
   6  -6   1   17.68    1.06
  -6  -6  -1   17.98    0.91
   6  -6   2   12.06    0.84
  -6  -6  -2   11.53    0.68
   6  -6   3    4.23    0.53
  -6  -6  -3    2.89    0.37
   6  -6   4    0.23    0.28
  -6  -6  -4    0.29    0.20
  -6  -5  12   17.05    0.60
  -6  -5  11    1.04    0.31
  -6  -5  11    0.94    0.31
  -6  -5  10    2.51    0.43
  -6  -5  10    1.92    0.42
  -6  -5   9    1.27    0.37
  -6  -5   9    1.62    0.46
  -6  -5   8   24.80    1.14
  -6  -5   8   26.88    1.22
  -6  -5   7   32.20    1.42
  -6  -5   7   35.99    1.55
  -6  -5   7   34.15    1.46
  -6  -5   6   76.22    2.51
  -6  -5   6   72.24    2.57
  -6  -5   6   72.57    2.34
  -6  -5   6   77.71    2.55
  -6  -5   5  181.30    5.27
  -6  -5   5  193.38    5.42
  -6  -5   5  187.06    5.34
  -6  -5   5  182.51    5.19
  -6  -5   4   16.13    1.07
  -6  -5   4   19.08    1.02
  -6  -5   4   16.81    1.07
  -6  -5   4   18.39    1.00
   6  -5  -4   18.55    2.06
  -6  -5   3   99.23    3.19
  -6  -5   3  101.03    3.12
  -6  -5   3  102.65    3.27
  -6  -5   3  100.52    3.16
  -6  -5   2  133.67    4.02
  -6  -5   2  132.78    3.91
  -6  -5   2  128.77    5.43
  -6  -5   2  135.81    4.09
  -6  -5   2  138.00    4.03
  -6  -5   1    7.93    0.73
  -6  -5   1    8.16    0.76
  -6  -5   1    7.39    1.35
  -6  -5   0   51.42    1.83
  -6  -5   0   47.68    3.11
  -6  -5  -1   21.27    1.00
  -6  -5  -1   22.30    1.16
   6  -5   2    2.85    0.46
  -6  -5  -2    2.95    0.53
  -6  -5  -3   13.19    0.84
   6  -5   3   12.87    0.80
  -6  -5  -4   10.58    0.68
   6  -5   4    9.19    0.67
   6  -5   5   23.06    1.01
  -6  -5  -5   22.02    0.92
   6  -5   5   23.82    1.02
   6  -5   6    2.96    0.40
   6  -5   7    0.97    0.26
   6  -5   8   18.24    0.62
  -6  -4  13    1.20    0.25
  -6  -4  13    0.98    0.19
  -6  -4  13    0.89    0.23
  -6  -4  12    0.85    0.26
  -6  -4  12    0.96    0.38
  -6  -4  12    1.05    0.33
  -6  -4  12    1.09    0.36
  -6  -4  11    5.77    0.61
  -6  -4  11    6.11    0.61
  -6  -4  11    5.72    0.57
  -6  -4  11    5.86    0.49
  -6  -4  10    3.36    0.46
  -6  -4  10    3.09    0.60
  -6  -4  10    3.46    0.54
  -6  -4   9    2.09    0.46
  -6  -4   9    1.43    0.59
  -6  -4   9    2.23    0.54
  -6  -4   8   74.04    2.57
  -6  -4   8   74.45    2.47
  -6  -4   8   73.40    2.59
  -6  -4   7  166.46    5.11
  -6  -4   7  177.63    5.07
  -6  -4   7  183.27    5.20
  -6  -4   6   78.05    2.63
  -6  -4   6   75.79    2.62
  -6  -4   5   56.75    2.07
  -6  -4   5   53.55    2.05
  -6  -4   5   54.90    1.92
  -6  -4   4  268.45    7.21
  -6  -4   4  263.42    7.29
  -6  -4   4  256.24    7.05
  -6  -4   4  241.45    8.37
  -6  -4   3  116.22    3.62
  -6  -4   3  118.62    3.64
  -6  -4   3  119.33    3.73
  -6  -4   3  124.90    5.08
   6  -4  -3  109.28    6.51
  -6  -4   3  117.86    3.57
  -6  -4   2   20.93    1.10
  -6  -4   2   21.35    2.06
  -6  -4   2   20.53    1.08
  -6  -4   2   19.42    1.15
   6  -4  -2   23.75    2.98
  -6  -4   2   20.40    1.07
  -6  -4   1  193.39    5.42
  -6  -4   1  188.54    5.41
  -6  -4   1  186.66    5.51
  -6  -4   1  195.80    5.45
   6  -4  -1  191.75    9.04
  -6  -4   1  200.43    7.36
  -6  -4   0  284.50    7.70
  -6  -4   0  286.88    7.75
  -6  -4   0  300.02    9.89
  -6  -4  -1   14.97    0.87
  -6  -4  -1   15.08    0.96
   6  -4   1   14.42    2.55
   6  -4   1   14.34    0.91
   6  -4   2    1.13    1.44
   6  -4   2    1.85    0.52
  -6  -4  -2    1.72    0.49
  -6  -4  -2    2.47    1.12
   6  -4   3   17.83    2.63
   6  -4   3   19.50    1.14
  -6  -4  -3   23.76    1.15
  -6  -4  -3   20.91    2.06
   6  -4   4   25.77    3.03
  -6  -4  -4   29.51    1.31
   6  -4   4   29.98    1.44
  -6  -4  -4   28.51    2.30
   6  -4   4   28.41    1.27
  -6  -4  -5   40.25    1.54
   6  -4   5   40.78    1.70
   6  -4   5   39.07    1.55
   6  -4   6    1.71    0.46
  -6  -4  -6    1.43    0.37
   6  -4   6    1.08    0.55
   6  -4   7   11.01    0.58
   6  -4   7   10.09    0.68
   6  -4   7   11.12    0.69
   6  -4   8   11.87    0.61
   6  -4   8    9.92    0.56
   6  -4   8   10.16    0.50
   6  -4   8   11.78    0.66
   6  -4   9    1.79    0.24
  -6  -4  -9    1.70    0.28
   6  -4   9    1.90    0.27
  -6  -3  14    1.71    0.30
  -6  -3  14    1.54    0.21
  -6  -3  14    1.75    0.35
  -6  -3  13    5.35    0.48
  -6  -3  13    4.73    0.39
  -6  -3  13    4.87    0.58
  -6  -3  13    4.93    0.51
  -6  -3  12   10.17    0.74
  -6  -3  12    9.19    0.66
  -6  -3  12    9.43    0.82
  -6  -3  12    9.53    0.77
  -6  -3  11   29.49    1.34
  -6  -3  11   26.88    1.25
  -6  -3  11   28.17    1.39
  -6  -3  11   27.12    1.31
  -6  -3  10   19.52    1.13
  -6  -3  10   20.05    1.10
  -6  -3  10   21.30    1.19
  -6  -3  10   18.19    1.10
  -6  -3   9   43.32    1.78
  -6  -3   9   41.66    1.58
  -6  -3   9   44.90    1.76
  -6  -3   9   42.39    1.77
  -6  -3   9   43.66    1.77
  -6  -3   8   86.55    2.89
  -6  -3   8   82.39    2.70
  -6  -3   8   88.20    2.87
  -6  -3   8   87.09    2.81
  -6  -3   8   85.96    2.82
  -6  -3   7   36.76    1.53
   6  -3  -7   41.91    4.14
  -6  -3   7   39.38    1.62
  -6  -3   7   36.18    1.54
  -6  -3   7   37.50    1.55
  -6  -3   6  235.17    6.48
   6  -3  -6  227.90   10.56
  -6  -3   6  239.75    6.59
  -6  -3   6  232.57    6.45
  -6  -3   5  191.11    5.35
  -6  -3   5  187.68    5.41
   6  -3  -5  188.49    9.34
  -6  -3   5  195.25    5.45
  -6  -3   5  179.59    6.34
  -6  -3   4  140.65    4.18
  -6  -3   4  151.08    4.28
   6  -3  -4  159.06    8.36
  -6  -3   4  141.27    4.29
  -6  -3   4  142.90    4.10
  -6  -3   4  143.77    5.35
  -6  -3   3  306.18    8.31
  -6  -3   3  318.12    8.40
  -6  -3   3  310.95    8.25
  -6  -3   3  319.37    9.84
  -6  -3   2  157.26    4.53
  -6  -3   2  158.00    4.58
   6  -3  -2  173.06    8.84
  -6  -3   2  158.61    4.50
  -6  -3   2  161.50    6.01
  -6  -3   1  175.07    4.98
  -6  -3   1  176.05    5.05
  -6  -3   1  179.41    5.14
   6  -3  -1  188.40    9.31
  -6  -3   1  178.67    5.01
  -6  -3   1  184.28    6.64
  -6  -3   0   36.00    1.43
   6  -3   0   34.65    4.04
  -6  -3   0   37.03    1.51
  -6  -3   0   35.32    1.46
  -6  -3   0   33.80    2.52
  -6  -3  -1   43.71    1.58
  -6  -3  -1   44.65    1.76
   6  -3   1   41.58    4.34
  -6  -3  -1   39.83    2.82
  -6  -3  -2  123.64    3.98
  -6  -3  -2  127.83    3.77
   6  -3   2  123.16    7.23
  -6  -3  -2  121.34    5.28
   6  -3   3    3.08    0.65
  -6  -3  -3    3.27    0.53
  -6  -3  -3    3.46    1.15
   6  -3   4  198.33    9.08
   6  -3   4  190.62    5.36
   6  -3   4  186.93    5.50
  -6  -3  -4  191.90    5.38
  -6  -3  -4  183.39    6.99
   6  -3   5  254.45    6.96
   6  -3   5  252.81    7.10
  -6  -3  -5  253.12    6.94
  -6  -3  -5  246.49    8.49
   6  -3   6   63.18    2.22
   6  -3   6   65.48    2.35
  -6  -3  -6   63.67    2.18
   6  -3   7   44.28    1.67
   6  -3   7   45.23    1.75
   6  -3   7   44.23    1.81
  -6  -3  -7   39.60    1.57
   6  -3   8   40.72    1.49
   6  -3   8   39.88    1.52
   6  -3   8   38.58    1.56
   6  -3   8   37.96    1.56
   6  -3   9   33.38    1.21
   6  -3   9   34.28    1.25
   6  -3   9   32.64    1.22
  -6  -3  -9   33.42    1.26
   6  -3   9   33.28    1.31
   6  -3   9   32.11    1.27
   6  -3  10   15.62    0.63
   6  -3  10   15.10    0.59
   6  -3  10   13.89    0.58
   6  -3  10   13.51    0.62
  -6  -3 -10   14.28    0.61
   6  -3  10   11.65    0.54
   6  -3  10   13.17    0.55
  -6  -2  15    3.27    0.33
  -6  -2  15    2.77    0.33
  -6  -2  14    1.69    0.46
  -6  -2  14    2.46    0.51
  -6  -2  13   68.18    2.15
  -6  -2  13   70.99    2.35
  -6  -2  12   24.53    1.14
  -6  -2  12   23.38    1.05
  -6  -2  12   24.50    1.32
  -6  -2  12   22.37    1.28
  -6  -2  11   11.10    0.83
  -6  -2  11   11.00    0.76
  -6  -2  11   11.41    1.00
  -6  -2  11   11.44    0.97
  -6  -2  10  238.18    6.47
  -6  -2  10  225.51    6.40
  -6  -2  10  227.76    6.59
  -6  -2  10  235.31    6.57
  -6  -2   9   89.88    2.94
  -6  -2   9   91.98    2.92
  -6  -2   9   91.91    3.03
  -6  -2   9   91.76    3.03
   6  -2  -9   97.54    7.27
  -6  -2   8    6.86    0.68
  -6  -2   8    6.18    0.62
  -6  -2   8    6.08    0.65
  -6  -2   8    7.35    0.83
  -6  -2   8    6.20    0.78
  -6  -2   7   49.12    1.85
  -6  -2   7   50.84    1.79
  -6  -2   7   48.91    1.83
  -6  -2   7   47.81    1.86
  -6  -2   7   51.11    1.90
   6  -2  -7   50.19    4.60
  -6  -2   6   21.25    1.06
  -6  -2   6   21.07    1.03
  -6  -2   6   20.17    1.05
  -6  -2   6   21.00    1.61
   6  -2  -6   21.03    3.05
  -6  -2   6   19.71    1.06
  -6  -2   6   19.96    1.09
   6  -2  -5   59.58    4.77
  -6  -2   5   63.74    2.10
  -6  -2   5   58.98    2.00
  -6  -2   5   57.27    2.03
  -6  -2   5   63.77    2.92
  -6  -2   5   57.99    1.99
  -6  -2   5   60.13    2.06
   6  -2  -4    4.44    2.25
  -6  -2   4    3.78    0.52
  -6  -2   4    3.69    0.48
  -6  -2   4    3.10    0.92
   6  -2  -3  143.01    7.62
  -6  -2   3  132.50    3.89
  -6  -2   3  138.42    5.02
  -6  -2   2  297.40    7.87
  -6  -2   2  296.05    7.93
  -6  -2   2  293.77    7.96
  -6  -2   2  304.12    9.26
  -6  -2   1   71.92    2.31
  -6  -2   1   75.58    2.40
  -6  -2   1   72.29    2.40
   6  -2  -1   76.72    5.68
  -6  -2   1   73.85    2.32
   6  -2  -1   73.36    3.81
  -6  -2   1   75.38    3.46
  -6  -2   0  101.61    3.00
  -6  -2   0   99.16    3.11
   6  -2   0  107.89    6.79
  -6  -2   0  101.53    3.04
   6  -2   0  107.98    4.86
  -6  -2  -1   32.51    1.26
  -6  -2  -1   34.66    2.37
  -6  -2  -1   33.45    1.45
   6  -2   1   34.41    1.64
   6  -2   1   34.65    2.67
  -6  -2  -2   17.52    1.11
   6  -2   2   19.47    1.25
  -6  -2  -2   19.35    0.98
  -6  -2  -2   18.84    1.83
   6  -2   2   19.46    2.12
   6  -2   3   81.20    2.70
   6  -2   3   79.23    2.92
  -6  -2  -3   84.50    2.65
   6  -2   3   84.01    5.81
  -6  -2  -3   84.83    3.92
   6  -2   3   81.01    4.43
   6  -2   4  122.72    3.87
   6  -2   4  122.63    4.06
  -6  -2  -4  131.23    3.77
  -6  -2  -4  129.60    5.12
   6  -2   4  118.73    5.83
   6  -2   4  119.98    7.02
   6  -2   5   39.81    3.84
   6  -2   5   36.59    1.64
   6  -2   5   36.23    1.79
  -6  -2  -5   38.46    1.53
  -6  -2  -5   35.05    2.33
   6  -2   5   33.39    2.97
   6  -2   6  114.06    5.71
  -6  -2  -6  107.64    4.79
   6  -2   6  116.68    3.70
   6  -2   6  120.76    6.65
   6  -2   6  117.99    3.90
  -6  -2  -6  117.41    3.54
   6  -2   7   66.46    4.00
   6  -2   7   63.92    2.33
   6  -2   7   60.78    2.41
  -6  -2  -7   59.88    2.14
   6  -2   7   62.45    4.43
   6  -2   8   16.59    1.02
   6  -2   8   16.20    1.11
  -6  -2  -8   15.55    0.96
   6  -2   8   15.75    1.00
   6  -2   9   28.55    1.26
   6  -2   9   28.48    1.33
  -6  -2  -9   27.82    1.22
   6  -2   9   29.80    1.22
   6  -2   9   28.59    1.31
   6  -2  10    9.86    0.60
   6  -2  10    9.07    0.65
  -6  -2 -10    9.48    0.57
   6  -2  10    8.91    0.51
   6  -2  10   10.54    0.65
   6  -2  11    8.61    0.43
   6  -2  11    9.60    0.45
   6  -2  11    8.33    0.45
  -6  -1  15    3.33    0.40
  -6  -1  15    3.00    0.38
  -6  -1  14   55.96    1.93
  -6  -1  14   59.62    1.98
  -6  -1  13   40.99    1.67
  -6  -1  13   42.11    1.73
  -6  -1  12   16.49    1.12
  -6  -1  12   17.22    1.12
  -6  -1  11  199.37    5.53
  -6  -1  11  199.15    5.79
   6  -1 -11  210.81   12.32
  -6  -1  10   76.02    2.49
   6  -1 -10   85.68    7.29
  -6  -1   9  266.93    7.23
  -6  -1   9  264.38    7.39
  -6  -1   8   29.29    1.27
  -6  -1   8   28.40    1.40
  -6  -1   8   28.98    1.40
  -6  -1   7  190.45    5.33
  -6  -1   7  189.92    5.26
  -6  -1   7  196.17    5.43
  -6  -1   7  190.14    5.42
  -6  -1   6  290.08    7.79
  -6  -1   6  292.17    7.75
  -6  -1   6  296.24    7.85
  -6  -1   6  291.92    7.86
   6  -1  -6  292.44   11.69
  -6  -1   6  293.07    8.91
  -6  -1   5  102.25    3.80
  -6  -1   5  108.21    4.09
   6  -1  -5  102.20    5.97
   6  -1  -4    9.48    1.38
  -6  -1   4    9.30    1.04
   6  -1  -4   12.35    2.35
  -6  -1   4   10.01    1.18
   6  -1  -3   71.81    3.72
  -6  -1   3   69.18    3.06
  -6  -1   3   76.15    3.24
   6  -1  -2  780.66   21.19
  -6  -1   2  723.91   20.10
   6  -1  -1   65.70    4.85
   6  -1   0  197.24    9.27
  -6  -1   0  203.18    6.66
   6  -1   0  197.82    7.85
   6  -1   1    4.04    2.27
  -6  -1  -1    5.15    0.57
   6  -1   1    4.26    1.60
  -6  -1  -1    4.37    0.49
  -6  -1  -1    5.53    1.03
  -6  -1  -2   31.83    2.10
  -6  -1  -2   30.30    1.43
   6  -1   2   32.94    1.75
  -6  -1  -2   35.15    1.34
   6  -1   2   32.30    3.77
   6  -1   2   32.93    3.12
   6  -1   3  104.23    3.62
  -6  -1  -3  105.24    3.18
   6  -1   3  102.26    6.36
   6  -1   3  107.37    5.67
  -6  -1  -3  103.08    4.22
  -6  -1  -4  229.52    7.86
   6  -1   4  216.78    6.69
  -6  -1  -4  235.48    6.29
   6  -1   4  225.66    9.10
  -6  -1  -4  225.07    7.45
   6  -1   4  223.71    9.88
   6  -1   5  165.18    7.85
  -6  -1  -5  157.61    6.06
   6  -1   5  150.54    4.98
  -6  -1  -5  161.13    4.59
   6  -1   5  161.80    7.37
  -6  -1  -6   12.03    1.41
   6  -1   6   13.88    1.07
   6  -1   6   13.62    2.29
   6  -1   6   13.29    1.16
   6  -1   6   10.91    1.95
  -6  -1  -6   13.26    0.86
   6  -1   7    1.28    1.27
   6  -1   7    1.32    0.64
   6  -1   7    0.57    1.02
  -6  -1  -7    1.08    0.50
  -6  -1  -7    0.98    0.42
   6  -1   8   27.55    1.43
  -6  -1  -8   28.82    1.36
  -6  -1  -9   12.96    0.82
   6  -1   9   14.15    0.82
   6  -1  10    4.15    0.62
   6  -1  10    4.01    0.52
   6  -1  10    5.48    0.62
  -6  -1 -10    4.27    0.46
   6  -1  11   -0.04    0.32
   6  -1  11    0.01    0.22
   6  -1  11   -0.06    0.28
   6  -1  11    0.08    0.29
  -6  -1 -11    0.03    0.18
  -6   0  15    3.82    0.36
  -6   0  15    3.97    0.39
  -6   0  14    8.64    0.66
  -6   0  14    9.01    0.69
  -6   0  13  105.71    3.29
  -6   0  13  108.76    3.31
  -6   0  12  301.18    8.27
  -6   0  12  307.04    8.30
   6   0 -11   34.68    4.29
  -6   0  11   39.32    1.73
  -6   0  11   40.17    1.71
   6   0 -10  180.47    9.90
  -6   0  10  173.68    5.07
  -6   0  10  168.40    5.02
  -6   0   9   23.81    1.32
  -6   0   9   24.28    1.30
   6   0  -8   90.77    5.97
  -6   0   8   81.75    2.75
  -6   0   8   83.39    2.75
  -6   0   7  684.47   17.57
  -6   0   6   71.40    2.96
  -6   0   6   71.32    2.37
  -6   0   6   73.44    2.37
  -6   0   5  449.43   12.87
   6   0  -5  480.18   15.40
  -6   0   5  469.28   13.16
   6   0  -4  124.76    5.03
  -6   0   4  116.26    4.43
   6   0  -4  134.20    6.24
  -6   0   4  123.05    4.55
   6   0  -3  152.22    5.95
  -6   0   3  165.14    5.66
   6   0  -3  165.15    7.25
   6   0  -2    0.06    0.42
   6   0  -2    0.43    1.35
  -6   0   2    0.99    0.66
   6   0  -1   29.00    1.99
  -6   0   1   29.09    1.90
   6   0  -1   29.28    3.10
  -6   0   1   24.52    1.79
   6   0   0  198.43    6.69
  -6   0   0  188.82    6.30
   6   0   0  184.00    8.69
  -6   0  -1   60.18    2.96
   6   0   1   61.64    4.75
   6   0   1   56.52    3.93
  -6   0  -1   60.61    2.84
  -6   0  -2  398.22   11.88
  -6   0  -2  395.47   10.38
   6   0   2  385.51   10.88
   6   0   2  429.02   14.57
   6   0   2  394.63   13.68
  -6   0  -2  414.27   11.58
  -6   0  -3  451.00   13.04
  -6   0  -3  459.12   13.50
  -6   0  -3  455.06   11.94
  -6   0  -3  468.67   11.92
   6   0   3  464.49   15.69
   6   0   3  465.86   15.58
   6   0   3  447.18   12.02
  -6   0  -4   10.06    1.30
   6   0   4    9.19    0.79
   6   0   4    9.39    1.15
  -6   0  -4    9.35    0.76
   6   0   4    9.42    0.99
   6   0   4    8.94    2.15
  -6   0  -4    8.59    0.71
   6   0   4    9.74    2.13
  -6   0  -4    8.73    1.09
  -6   0  -5  523.83   15.56
   6   0   5  486.36   16.99
   6   0   5  513.32   14.37
   6   0   5  574.57   14.48
  -6   0  -5  533.91   13.95
   6   0   5  545.94   14.16
   6   0   6   17.21    1.34
  -6   0  -6   20.40    1.15
   6   0   6   19.35    1.31
  -6   0  -6   18.86    1.04
   6   0   7   10.83    1.08
  -6   0  -7    9.65    0.75
  -6   0  -7   11.09    0.86
   6   0   7    8.07    1.78
   6   0   8    0.09    0.65
   6   0   8    0.03    0.71
  -6   0  -8    0.30    0.43
  -6   0  -8    0.09    0.37
   6   0   9    8.48    0.82
   6   0   9    6.65    0.84
  -6   0  -9    7.02    0.66
   6   0  10    4.42    0.59
   6   0  10    4.13    0.56
   6   0  10    4.61    0.62
  -6   0 -10    3.64    0.43
   6   0  10    4.23    0.49
   6   0  11    4.01    0.39
   6   0  11    3.82    0.40
  -6   0 -11    2.84    0.27
   6   0  11    4.52    0.39
   6   0  11    3.26    0.26
  -6   1  14   51.44    1.64
  -6   1  14   51.52    1.66
  -6   1  13   37.87    1.47
  -6   1  13   38.53    1.48
  -6   1  12   15.98    1.00
  -6   1  12   15.54    0.97
  -6   1  11  214.41    5.96
  -6   1  11  206.84    5.91
  -6   1  10   73.24    2.59
  -6   1  10   75.94    2.56
  -6   1   9  270.32    7.45
  -6   1   9  271.98    7.42
  -6   1   8   30.66    1.40
  -6   1   8   31.66    1.41
  -6   1   7  201.73    5.55
  -6   1   7  192.94    5.49
  -6   1   6  277.87    8.77
   6   1  -6  301.96   11.06
  -6   1   6  297.24    7.77
  -6   1   6  281.70    7.71
  -6   1   5  100.36    4.05
   6   1  -5  107.29    5.50
  -6   1   5  103.25    3.12
  -6   1   4    8.87    1.12
   6   1  -4    8.93    1.74
   6   1  -3   68.24    3.39
  -6   1   3   72.47    3.22
   6   1  -3   74.11    4.30
   6   1  -2  710.84   19.60
  -6   1   2  725.44   19.45
  -6   1   2  717.83   19.41
   6   1  -2  656.73   21.13
   6   1  -1   69.11    3.18
   6   1  -1   65.26    4.36
  -6   1   1   64.19    3.15
  -6   1   1   71.19    3.18
   6   1   0  206.72    6.71
  -6   1   0  183.15    6.70
   6   1   0  206.56    8.71
  -6   1   0  207.85    6.66
   6   1   1    4.71    0.80
   6   1   1    5.20    1.87
  -6   1  -1    3.44    0.63
   6   1   1    4.18    0.88
  -6   1  -1    3.93    0.46
  -6   1  -1    4.17    1.02
  -6   1  -1    4.62    0.92
  -6   1  -2   32.70    2.16
   6   1   2   31.45    1.83
   6   1   2   30.06    1.62
  -6   1  -2   33.13    1.30
   6   1   2   32.07    1.40
   6   1   2   31.27    3.02
   6   1   2   28.68    3.23
  -6   1  -2   28.16    1.88
  -6   1  -2   28.34    1.63
  -6   1  -3  107.00    4.44
   6   1   3  111.30    3.86
   6   1   3  108.29    3.38
   6   1   3  107.19    3.70
  -6   1  -3  105.77    3.21
  -6   1  -3  107.02    3.19
   6   1   3   89.06    5.82
   6   1   3   98.54    5.16
  -6   1  -3   96.88    3.93
  -6   1  -3   97.03    3.94
  -6   1  -4  228.81    7.80
   6   1   4  237.20    6.99
   6   1   4  230.55    6.59
  -6   1  -4  232.66    6.41
   6   1   4  237.65    9.90
  -6   1  -5  156.33    5.91
   6   1   5  158.25    5.15
   6   1   5  164.06    5.18
  -6   1  -5  164.71    4.77
   6   1   5  166.67    4.92
  -6   1  -5  161.30    4.70
   6   1   5  162.93    7.73
   6   1   6   12.89    1.16
   6   1   6   13.96    1.19
  -6   1  -6   13.09    0.94
   6   1   6   11.45    2.08
   6   1   6   13.30    1.06
  -6   1  -6   13.98    0.89
   6   1   7    0.43    0.70
   6   1   7    1.16    1.26
   6   1   7    0.28    0.58
  -6   1  -7    0.72    0.48
  -6   1  -7    0.77    0.42
   6   1   8   27.93    1.45
   6   1   8   30.36    1.51
   6   1   8   29.88    1.54
  -6   1  -8   29.95    1.33
  -6   1  -8   25.91    1.23
   6   1   9   14.24    0.94
   6   1   9   10.81    0.88
  -6   1  -9   12.62    0.78
   6   1   9   12.38    0.83
   6   1  10    4.64    0.52
   6   1  10    4.04    0.49
  -6   1 -10    4.46    0.41
   6   1  11    0.24    0.23
   6   1  11    0.01    0.18
  -6   2  12   23.28    1.05
  -6   2  11    9.69    0.75
  -6   2  10  228.84    6.34
  -6   2   9   89.00    2.88
  -6   2   9   89.96    2.81
  -6   2   8    6.99    0.74
  -6   2   8    7.39    0.67
  -6   2   7   50.31    1.86
  -6   2   7   49.86    1.77
  -6   2   6   19.34    1.74
  -6   2   6   20.90    1.09
  -6   2   6   20.80    1.01
   6   2  -6   21.11    2.56
  -6   2   5   59.21    3.08
  -6   2   5   56.34    2.02
  -6   2   5   58.71    1.96
  -6   2   4    7.50    0.61
   6   2  -4    3.93    1.30
  -6   2   4    4.97    1.07
  -6   2   4    4.21    0.57
  -6   2   3  133.23    3.85
  -6   2   3  137.94    5.29
  -6   2   3  133.45    3.88
   6   2  -3  134.43    6.03
   6   2  -2  292.47   10.49
  -6   2   2  294.83    9.43
  -6   2   2  297.37    7.93
   6   2  -1   80.69    4.52
   6   2   0  102.45    3.18
  -6   2   0  108.62    4.45
   6   2   0   96.13    3.51
  -6   2   0  100.31    2.98
  -6   2   0  100.98    2.98
  -6   2   0  102.94    3.12
  -6   2  -1   35.68    2.36
   6   2   1   33.24    1.85
   6   2   1   29.36    1.60
  -6   2  -1   34.57    1.37
   6   2   1   34.94    1.52
  -6   2  -1   35.89    1.36
  -6   2  -1   31.82    1.55
  -6   2  -2   20.38    1.85
   6   2   2   21.18    1.60
   6   2   2   19.80    1.32
   6   2   2   15.32    2.62
  -6   2  -2   20.05    1.04
   6   2   2   23.13    1.20
  -6   2  -2   18.57    0.97
  -6   2  -2   16.76    1.24
  -6   2  -3   80.42    3.87
   6   2   3   90.75    3.35
   6   2   3   87.19    3.22
   6   2   3   88.08    2.97
   6   2   3   91.56    5.64
  -6   2  -3   77.48    3.17
  -6   2  -4  125.25    5.10
   6   2   4  131.04    4.32
   6   2   4  131.54    4.36
  -6   2  -4  126.77    3.87
   6   2   4  123.56    4.03
  -6   2  -4  128.95    3.84
   6   2   4  132.09    6.90
   6   2   5   36.28    1.84
  -6   2  -5   36.99    1.59
  -6   2  -5   38.75    1.56
   6   2   5   36.79    3.37
   6   2   6  111.51    3.79
   6   2   6  115.12    4.03
  -6   2  -6  119.46    3.63
   6   2   6  116.65    3.80
  -6   2  -6  117.55    3.59
   6   2   6  115.95    5.99
   6   2   7   59.89    2.34
   6   2   7   63.19    2.39
   6   2   7   65.57    2.60
  -6   2  -7   64.63    2.23
  -6   2  -7   62.24    2.21
   6   2   7   64.40    4.05
   6   2   8   16.24    0.98
   6   2   8   15.97    1.15
  -6   2  -8   15.63    0.90
  -6   2  -8   13.92    0.86
   6   2   9   27.17    1.21
   6   2   9   30.24    1.37
  -6   2  -9   26.90    1.13
   6   2  10    8.42    0.50
  -6   2 -10    7.83    0.45
  -6   3   8   89.48    2.87
  -6   3   8   84.13    2.68
  -6   3   7   39.06    1.63
  -6   3   7   34.49    2.51
   6   3  -7   35.02    1.75
  -6   3   7   37.40    1.50
   6   3  -7   37.79    3.30
  -6   3   6  235.56    6.47
  -6   3   6  214.12    7.95
   6   3  -6  225.79    6.71
  -6   3   6  230.45    6.34
  -6   3   5  190.92    5.43
  -6   3   5  178.61    6.90
   6   3  -5  188.75    5.68
  -6   3   5  191.22    5.32
  -6   3   4  145.32    5.83
  -6   3   4  137.41    4.08
   6   3  -4  143.47    4.47
  -6   3   4  143.55    4.14
  -6   3   3  305.76   10.17
   6   3  -3  308.33    8.55
  -6   3   3  306.67    8.22
  -6   3   3  307.89    8.26
  -6   3   2  158.41    4.48
   6   3  -2  155.08    4.67
  -6   3   2  152.10    4.40
  -6   3   2  148.02    4.29
  -6   3   1  175.60    6.70
   6   3  -1  155.86    5.32
   6   3  -1  179.46    5.19
  -6   3   1  176.09    4.88
  -6   3   1  178.36    5.04
  -6   3   1  173.07    4.94
  -6   3   0   39.87    2.69
   6   3   0   32.41    1.85
   6   3   0   36.81    1.69
  -6   3   0   38.25    1.48
  -6   3   0   36.32    1.60
  -6   3   0   35.28    1.49
  -6   3  -1   49.05    2.97
   6   3   1   44.75    2.16
   6   3   1   40.57    2.02
  -6   3  -1   48.01    1.80
   6   3   1   43.67    3.74
  -6   3  -1   46.10    1.73
   6   3   1   44.59    1.94
  -6   3  -1   44.66    1.89
  -6   3  -2  122.74    5.22
   6   3   2  131.96    4.26
   6   3   2  116.40    4.13
  -6   3  -2  124.15    3.82
   6   3   2  120.11    3.97
  -6   3  -2  127.74    3.76
   6   3   2  139.65    6.87
   6   3   3    3.95    1.70
   6   3   3    3.24    0.82
  -6   3  -3    4.36    0.97
   6   3   4  200.78    5.82
   6   3   4  187.66    6.01
  -6   3  -4  200.56    5.62
   6   3   4  200.12    8.46
  -6   3  -4  190.50    5.56
   6   3   5  263.44    7.47
   6   3   5  271.25    7.77
  -6   3  -5  260.38    7.24
  -6   3  -5  258.71    7.22
   6   3   6   62.17    2.59
  -6   3  -6   61.89    2.21
   6   3   6   61.59    2.38
  -6   3  -6   62.86    2.21
  -6   3  -7   44.41    1.68
   6   3   7   43.81    1.80
  -6   3  -7   41.44    1.65
   6   3   8   38.36    1.45
  -6   3  -8   39.48    1.45
   6   3   8   41.44    1.72
  -6   3  -8   35.45    1.41
   6   3   9   36.62    1.40
  -6   3  -9   28.94    1.09
   6   4 -10    3.54    0.81
  -6   4   9    2.23    0.58
   6   4  -9    3.27    0.77
  -6   4   8   78.90    2.69
   6   4  -8   71.13    2.85
  -6   4   7  151.02    6.46
   6   4  -7  152.69    5.14
  -6   4   6   73.17    2.59
  -6   4   6   64.22    3.82
   6   4  -6   70.36    2.81
  -6   4   5   55.98    2.12
   6   4  -5   52.05    2.31
  -6   4   5   53.40    1.99
  -6   4   5   52.63    1.88
  -6   4   4  246.82    7.09
   6   4  -4  258.85    7.42
  -6   4   4  251.72    6.98
  -6   4   4  258.63    6.90
  -6   4   3  115.78    3.66
  -6   4   3  104.25    5.11
   6   4  -3  112.28    3.86
  -6   4   3  113.41    3.55
  -6   4   3  117.52    3.51
   6   4  -2   20.99    1.37
  -6   4   2   19.90    1.14
  -6   4   2   19.84    1.00
  -6   4   2   21.14    1.09
  -6   4   1  181.92    7.22
   6   4  -1  191.86    5.72
  -6   4   1  191.30    5.36
  -6   4   1  191.55    5.47
  -6   4   1  186.49    5.46
  -6   4   0  277.17    9.57
  -6   4   0  289.99    7.70
  -6   4   0  279.68    7.60
  -6   4   0  294.02    7.71
  -6   4  -1   13.62    1.64
   6   4   1   11.31    1.08
  -6   4  -1   14.78    1.02
  -6   4  -1   15.15    0.97
   6   4   2    1.81    0.68
  -6   4  -2    1.40    0.72
   6   4   2    2.06    0.71
  -6   4  -2    1.82    0.52
   6   4   3   20.64    1.37
   6   4   3   23.83    1.40
  -6   4  -3   20.20    1.17
  -6   4  -3   22.34    1.24
  -6   4  -4   31.06    1.44
   6   4   4   27.03    1.62
   6   4   4   30.22    1.56
  -6   4  -4   29.27    1.37
   6   4   5   38.50    1.89
  -6   4  -5   39.92    1.62
   6   4   5   38.94    1.74
  -6   4  -5   38.37    1.58
   6   4   6    1.53    0.68
   6   4   6    1.51    0.58
  -6   4  -6    1.39    0.47
  -6   4  -6    1.76    0.49
   6   4   7   11.37    0.94
  -6   4  -7   11.00    0.70
   6   4   7   10.78    0.77
  -6   4  -7   10.76    0.71
  -6   4  -8   10.63    0.58
  -6   4  -8   10.21    0.55
  -6   4  -8   11.22    0.59
  -6   4  -9    1.24    0.19
   6   4   9    1.07    0.30
  -6   5  10    1.82    0.37
   6   5 -10    2.08    0.58
  -6   5   9    1.60    0.45
   6   5  -9    0.94    0.59
  -6   5   8   26.25    1.27
   6   5  -8   24.22    1.42
  -6   5   7   38.30    1.66
   6   5  -7   33.33    1.76
  -6   5   6   79.40    2.76
   6   5  -6   72.62    2.88
  -6   5   6   76.60    2.54
  -6   5   5  195.01    5.58
  -6   5   5  185.58    5.40
   6   5  -5  186.51    5.78
  -6   5   4   17.61    1.18
  -6   5   4   18.44    2.05
   6   5  -4   18.27    1.31
  -6   5   4   17.44    1.07
  -6   5   3   97.28    3.18
   6   5  -3   99.75    3.46
  -6   5   2  144.13    4.27
  -6   5   2  137.11    4.15
  -6   5   2  131.55    3.93
  -6   5   1    7.97    0.85
  -6   5   1    7.75    0.81
  -6   5   1    6.71    1.30
  -6   5   1    8.31    0.73
  -6   5   0   53.61    2.07
  -6   5   0   46.29    3.11
   6   5   0   52.82    2.20
  -6   5   0   52.41    2.05
  -6   5   0   49.11    1.89
  -6   5  -1   21.82    1.18
   6   5   1   22.00    1.35
  -6   5  -1   21.62    1.14
   6   5   2    2.86    0.70
  -6   5  -2    2.90    0.57
  -6   5  -2    3.60    0.66
   6   5   2    2.91    0.62
  -6   5  -2    2.50    0.55
  -6   5  -3   11.95    0.80
   6   5   3   13.19    1.01
   6   5   3   11.46    0.94
  -6   5  -3   14.10    0.95
  -6   5  -3   12.49    0.86
  -6   5  -4    9.42    0.64
   6   5   4    9.85    0.89
   6   5   4   11.08    0.88
  -6   5  -4   10.72    0.78
   6   5   5   23.58    1.12
   6   5   5   23.39    1.22
  -6   5  -5   23.78    1.06
  -6   5  -5   24.97    1.09
   6   5   6    3.12    0.53
   6   5   6    3.43    0.42
  -6   5  -6    3.11    0.40
  -6   5  -6    3.31    0.43
   6   5   7    1.15    0.34
  -6   5  -7    1.14    0.22
  -6   5  -7    1.04    0.25
   6   5   8   17.28    0.66
  -6   6   9    4.78    0.36
   6   6  -9    3.51    0.42
  -6   6   8    7.10    0.54
   6   6  -8    6.13    0.63
  -6   6   7    8.83    0.67
   6   6  -7    8.08    0.73
  -6   6   6   12.35    0.85
  -6   6   6   11.40    0.68
   6   6  -6   12.50    0.94
   6   6  -5   13.74    1.02
  -6   6   5   14.27    0.83
  -6   6   4    0.78    0.47
  -6   6   3    4.00    0.70
  -6   6   3    4.25    0.61
  -6   6   2   58.84    2.07
  -6   6   2   55.87    2.01
   6   6  -1    4.70    0.73
  -6   6   1    4.43    0.64
  -6   6   1    4.62    0.68
  -6   6   1    3.82    0.48
  -6   6   0   11.67    0.80
   6   6   0   12.51    0.93
  -6   6   0   11.62    0.75
  -6   6  -1   17.23    0.89
   6   6   1   18.87    1.06
  -6   6  -1   16.94    1.00
  -6   6  -1   16.71    0.89
  -6   6  -2   11.23    0.66
   6   6   2   11.42    0.80
  -6   6  -2   13.17    0.79
  -6   6  -2   11.72    0.74
  -6   6  -3    3.84    0.48
  -6   6  -3    3.31    0.44
   6   6   3    3.32    0.47
   6   6   4    0.10    0.28
  -6   6  -4    0.10    0.29
  -6   6  -5    7.91    0.39
  -6   6  -5    9.01    0.47
   6   7  -6    1.82    0.24
  -6   7   5    7.64    0.43
  -6   7   4    3.71    0.36
   6   7  -4    4.08    0.40
  -6   7   3    4.39    0.39
  -6   7   3    4.39    0.38
   6   7  -3    4.13    0.41
  -6   7   2    6.44    0.43
   6   7  -2    7.16    0.48
  -6   7   2    7.10    0.48
  -6   7   1    1.59    0.23
  -6   7   1    1.96    0.34
   6   7  -1    1.70    0.29
   6   7   0    4.51    0.35
  -6   7  -1    0.69    0.21
  -7  -6   8   14.94    0.56
  -7  -6   8   12.94    0.50
  -7  -6   7    2.19    0.35
  -7  -6   7    1.95    0.23
  -7  -6   6    9.74    0.60
  -7  -6   6    8.11    0.43
   7  -6  -5    7.86    0.59
  -7  -6   5    6.85    0.44
   7  -6  -4    0.42    0.41
  -7  -6   4    0.22    0.40
  -7  -6   4    0.40    0.31
  -7  -6   3    4.55    0.51
  -7  -6   3    3.84    0.45
  -7  -6   2   13.07    0.71
  -7  -6   2   13.06    0.73
  -7  -6   1    4.48    0.43
  -7  -6   1    4.56    0.48
   7  -6   1    5.72    0.60
  -7  -6  -1    5.33    0.47
   7  -6   2    6.84    0.56
  -7  -6  -2    5.88    0.44
   7  -6   3    8.85    0.47
  -7  -6  -3    8.41    0.42
  -7  -5  11   17.59    0.67
  -7  -5  11   16.91    0.66
  -7  -5  10   20.27    0.87
  -7  -5  10   21.89    0.90
  -7  -5   9   17.85    0.80
  -7  -5   9   20.08    0.91
  -7  -5   9   19.35    0.95
  -7  -5   8    0.32    0.40
  -7  -5   8    0.42    0.42
  -7  -5   7    3.85    0.61
  -7  -5   7    4.58    0.57
  -7  -5   6    6.56    0.72
  -7  -5   6    7.53    0.68
  -7  -5   6    5.92    0.69
  -7  -5   6    6.10    0.51
  -7  -5   5    5.29    0.61
  -7  -5   5    5.62    0.70
  -7  -5   5    5.61    0.55
  -7  -5   4    5.44    0.61
  -7  -5   4    5.92    0.62
  -7  -5   4    5.67    0.70
  -7  -5   4    5.39    0.70
  -7  -5   3   68.33    2.30
  -7  -5   3   66.76    2.22
  -7  -5   3   65.20    2.35
  -7  -5   3   67.57    2.26
  -7  -5   2    3.04    0.58
  -7  -5   2    3.69    0.46
  -7  -5   2    3.23    0.55
  -7  -5   1   84.10    2.67
  -7  -5   1   86.18    2.75
  -7  -5   0   23.35    1.06
  -7  -5  -1   10.74    0.81
  -7  -5  -2    4.25    0.56
   7  -5   2    4.16    0.45
  -7  -5  -3   10.43    0.68
   7  -5   3    9.88    0.62
   7  -5   4    8.07    0.62
  -7  -5  -4    8.36    0.56
   7  -5   4    8.85    0.56
  -7  -5  -5    3.41    0.31
   7  -5   5    3.91    0.37
  -7  -5  -6    1.57    0.27
   7  -5   6    1.59    0.23
  -7  -4  13    1.43    0.18
  -7  -4  12    1.55    0.32
  -7  -4  12    1.52    0.29
  -7  -4  12    0.90    0.25
  -7  -4  11   58.19    1.82
  -7  -4  11   55.25    1.78
  -7  -4  10   13.79    0.87
  -7  -4  10   11.47    0.65
  -7  -4  10   13.92    0.84
  -7  -4  10   12.70    0.71
  -7  -4   9   41.91    1.57
  -7  -4   9   47.04    1.76
  -7  -4   8   13.58    0.88
  -7  -4   8   13.79    0.96
  -7  -4   8   13.55    0.96
  -7  -4   7    9.97    0.86
  -7  -4   7    9.88    0.83
  -7  -4   7    9.02    0.83
  -7  -4   6   39.43    1.64
  -7  -4   6   39.89    1.67
  -7  -4   6   39.02    1.71
  -7  -4   5   33.69    1.53
  -7  -4   5   33.76    1.51
  -7  -4   5   32.66    1.35
  -7  -4   4    2.94    0.57
  -7  -4   4    2.83    0.51
  -7  -4   4    1.65    0.86
  -7  -4   3   89.99    2.88
  -7  -4   3   90.70    2.91
  -7  -4   3   87.84    2.99
   7  -4  -3   79.59    5.60
  -7  -4   3   84.19    2.79
  -7  -4   3   90.69    4.26
  -7  -4   2  115.60    3.51
  -7  -4   2  110.87    3.52
  -7  -4   2  109.85    3.63
  -7  -4   2  114.88    3.49
   7  -4  -2  112.68    6.73
  -7  -4   2  115.65    5.07
  -7  -4   1  129.28    3.89
  -7  -4   1  131.02    3.91
  -7  -4   1  130.68    3.93
   7  -4  -1  122.42    7.14
  -7  -4   1  132.92    5.59
  -7  -4   0  157.44    4.50
  -7  -4   0  156.00    4.54
  -7  -4   0  163.18    4.61
   7  -4   0  151.21    4.52
   7  -4   0  153.68    8.01
  -7  -4   0  152.65    6.23
  -7  -4  -1   55.30    1.95
  -7  -4  -1   60.41    2.08
   7  -4   1   58.75    2.11
   7  -4   1   57.27    4.61
   7  -4   2   45.46    4.01
  -7  -4  -2   45.75    1.78
   7  -4   2   44.41    1.78
  -7  -4  -2   43.17    2.84
  -7  -4  -3   10.37    0.80
   7  -4   3   11.28    0.84
  -7  -4  -4   42.26    1.58
   7  -4   4   41.39    1.66
   7  -4   4   37.85    1.47
  -7  -4  -5   14.97    0.83
   7  -4   5   16.98    0.97
   7  -4   5   16.58    0.84
   7  -4   6    1.07    0.39
   7  -4   6    1.30    0.33
   7  -4   6    0.78    0.43
  -7  -4  -6    1.29    0.31
  -7  -4  -7    5.23    0.48
   7  -4   7    4.12    0.36
   7  -4   7    5.27    0.39
   7  -4   8   15.52    0.56
   7  -4   8   17.65    0.66
  -7  -3  14    5.27    0.34
  -7  -3  14    4.75    0.29
  -7  -3  13    3.71    0.38
  -7  -3  13    3.77    0.42
  -7  -3  13    3.19    0.46
  -7  -3  12    1.18    0.45
  -7  -3  12    0.71    0.39
  -7  -3  12    0.97    0.33
  -7  -3  12    1.10    0.49
  -7  -3  11   10.85    0.81
  -7  -3  11   11.39    0.74
  -7  -3  11   11.10    0.85
  -7  -3  11   12.03    0.83
  -7  -3  10    4.74    0.69
  -7  -3  10    4.79    0.66
  -7  -3  10    4.79    0.59
  -7  -3  10    4.37    0.69
  -7  -3   9   16.03    1.03
  -7  -3   9   16.14    0.90
  -7  -3   9   17.17    1.02
  -7  -3   9   16.72    1.03
  -7  -3   9   16.83    1.03
  -7  -3   8   30.62    1.42
  -7  -3   8   28.83    1.32
  -7  -3   8   30.16    1.39
  -7  -3   8   27.99    1.33
  -7  -3   8   29.52    1.36
  -7  -3   7  147.13    4.25
  -7  -3   7  148.99    4.35
   7  -3  -7  143.02    8.65
  -7  -3   7  143.33    4.32
  -7  -3   7  140.25    4.18
  -7  -3   7  139.99    4.21
  -7  -3   6   93.48    3.03
   7  -3  -6   98.52    6.89
  -7  -3   6   96.73    3.11
  -7  -3   6   93.98    2.99
  -7  -3   5   96.67    2.97
  -7  -3   5   86.18    3.92
  -7  -3   5   95.83    3.05
   7  -3  -5   97.25    6.99
  -7  -3   5   90.55    3.02
  -7  -3   5   86.92    2.76
  -7  -3   5   90.51    2.87
  -7  -3   4  470.63   12.16
  -7  -3   4  462.65   12.18
  -7  -3   4  450.14   11.92
  -7  -3   4  441.81   13.56
  -7  -3   3  210.80    5.96
  -7  -3   3  213.90    6.07
  -7  -3   3  215.14    6.11
   7  -3  -3  216.95   10.95
  -7  -3   3  212.22    5.89
  -7  -3   3  220.77    7.59
  -7  -3   2  108.78    3.37
  -7  -3   2  110.03    3.44
   7  -3  -2  120.17    7.73
  -7  -3   2  107.18    3.34
  -7  -3   2  117.16    4.92
  -7  -3   1   18.21    1.04
  -7  -3   1   19.59    1.08
   7  -3  -1   20.46    3.57
  -7  -3   1   20.49    1.09
  -7  -3   1   18.72    1.95
  -7  -3   0  581.34   14.99
  -7  -3   0  581.64   15.13
   7  -3   0  576.39   20.52
  -7  -3   0  579.16   15.08
  -7  -3  -1  123.94    3.70
  -7  -3  -1  128.49    3.91
   7  -3   1  124.13    7.49
  -7  -3  -1  132.00    5.44
  -7  -3  -2   38.76    1.64
  -7  -3  -2   40.83    1.74
   7  -3   2   33.68    3.84
  -7  -3  -2   39.06    2.71
   7  -3   3  197.72    5.77
  -7  -3  -3  206.13    5.72
  -7  -3  -3  198.92    7.34
   7  -3   3  209.24    9.66
   7  -3   4   89.99    3.00
  -7  -3  -4   92.31    2.91
  -7  -3  -4   91.16    4.22
   7  -3   5   16.37    0.90
   7  -3   5   17.16    1.07
  -7  -3  -5   17.70    0.96
   7  -3   6   10.71    0.70
   7  -3   6   10.04    0.79
  -7  -3  -6   10.76    0.70
   7  -3   7   54.28    1.74
  -7  -3  -7   49.25    1.67
   7  -3   7   52.34    1.79
  -7  -3  -7   47.99    1.82
   7  -3   7   54.50    1.90
   7  -3   7   52.35    1.86
   7  -3   8   24.98    0.94
   7  -3   8   24.36    0.96
   7  -3   8   22.55    1.05
   7  -3   8   24.63    1.02
   7  -3   8   24.46    1.02
   7  -3   9   20.33    0.67
   7  -3   9   18.77    0.67
  -7  -3  -9   22.56    0.78
   7  -3   9   20.21    0.76
   7  -3   9   19.64    0.71
   7  -3   9   21.70    0.77
  -7  -2  15    2.33    0.25
  -7  -2  15    2.60    0.24
  -7  -2  14    4.53    0.49
  -7  -2  13   12.40    0.64
  -7  -2  13   13.31    0.84
  -7  -2  13   13.71    0.84
  -7  -2  12   12.98    0.78
  -7  -2  12   14.28    0.95
  -7  -2  12   14.69    1.00
  -7  -2  11  109.10    3.25
  -7  -2  11   98.67    3.11
  -7  -2  11  108.34    3.38
  -7  -2  11  108.92    3.37
  -7  -2  10   37.90    1.60
  -7  -2  10   39.04    1.52
  -7  -2  10   38.58    1.71
  -7  -2  10   37.35    1.69
  -7  -2   9   81.28    2.63
  -7  -2   9   73.49    2.42
  -7  -2   9   75.18    2.50
  -7  -2   9   76.41    2.65
  -7  -2   9   76.93    2.66
   7  -2  -8  128.87    8.81
  -7  -2   8  119.53    3.69
  -7  -2   8  119.08    3.59
  -7  -2   8  121.37    3.64
  -7  -2   8  120.72    3.72
  -7  -2   8  120.22    3.75
   7  -2  -7  286.00   13.26
  -7  -2   7  282.54    7.60
  -7  -2   7  278.98    7.51
  -7  -2   7  267.19    7.54
  -7  -2   7  277.91    7.56
  -7  -2   7  278.86    7.62
   7  -2  -6  238.07   11.59
  -7  -2   6  230.78    6.41
  -7  -2   6  234.24    6.49
  -7  -2   6  230.01    6.45
  -7  -2   6  235.94    6.43
  -7  -2   6  238.84    6.51
  -7  -2   6  219.63    7.57
   7  -2  -5  143.69    8.48
  -7  -2   5  142.06    4.10
  -7  -2   5  141.05    4.14
  -7  -2   5  136.90    4.13
  -7  -2   5  137.82    4.04
  -7  -2   5  139.78    4.13
  -7  -2   5  137.45    5.32
  -7  -2   4    8.94    0.74
  -7  -2   4    8.77    0.72
  -7  -2   4    9.47    1.16
  -7  -2   4    8.84    0.75
  -7  -2   4    8.76    0.62
   7  -2  -4   12.50    2.96
  -7  -2   4    9.24    0.74
  -7  -2   4    8.44    1.32
  -7  -2   3   38.63    1.53
  -7  -2   3   36.27    2.35
   7  -2  -3   39.39    4.54
  -7  -2   3   38.17    1.55
  -7  -2   3   37.21    1.41
  -7  -2   3   37.95    2.47
  -7  -2   3   37.18    1.49
  -7  -2   2   99.79    3.06
  -7  -2   2   99.27    3.13
   7  -2  -2  112.56    7.44
  -7  -2   2   98.37    3.12
  -7  -2   2   99.90    3.01
  -7  -2   2  100.78    4.34
  -7  -2   2   97.70    3.03
  -7  -2   1  259.15    6.92
  -7  -2   1  253.41    7.01
  -7  -2   1  253.88    6.91
   7  -2  -1  249.07   11.84
  -7  -2   1  253.29    6.95
  -7  -2   0   20.54    1.02
  -7  -2   0   19.36    1.08
  -7  -2   0   19.88    1.06
   7  -2   0   20.74    1.33
   7  -2   0   20.01    2.18
  -7  -2   0   17.97    1.84
  -7  -2   0   21.00    1.12
  -7  -2  -1  420.26   10.88
  -7  -2  -1  427.68   11.14
   7  -2   1  416.26   11.36
  -7  -2  -1  402.30   10.96
   7  -2   1  418.60   13.57
  -7  -2  -1  426.14   12.75
  -7  -2  -2  151.11    4.60
   7  -2   2  147.99    4.72
  -7  -2  -2  149.26    4.39
   7  -2   2  150.50    8.32
  -7  -2  -2  152.01    5.88
   7  -2   2  149.32    6.58
   7  -2   3   94.06    3.06
   7  -2   3   91.99    3.29
  -7  -2  -3   96.99    3.03
   7  -2   3   94.07    6.24
  -7  -2  -3   97.14    4.35
   7  -2   3   89.99    4.95
   7  -2   4  166.52    8.49
  -7  -2  -4  165.15    6.63
   7  -2   4  175.80    5.08
   7  -2   4  170.33    5.27
  -7  -2  -4  174.77    4.96
  -7  -2  -4  172.50    6.36
   7  -2   4  167.03    7.28
   7  -2   5    2.69    1.60
   7  -2   5    1.10    0.51
   7  -2   5    1.26    0.69
   7  -2   5    1.62    1.02
  -7  -2  -5    1.07    0.74
  -7  -2  -5    1.41    0.46
   7  -2   6    6.18    0.71
   7  -2   6    6.66    0.88
  -7  -2  -6    6.87    0.65
   7  -2   7   19.34    1.06
   7  -2   7   18.33    1.16
  -7  -2  -7   17.19    0.91
   7  -2   7   18.08    1.08
   7  -2   8    3.08    0.51
   7  -2   8    2.94    0.60
   7  -2   8    2.85    0.51
  -7  -2  -8    3.35    0.51
   7  -2   9   35.08    1.23
   7  -2   9   32.78    1.25
  -7  -2  -9   34.23    1.23
   7  -2   9   33.06    1.17
   7  -2  10   17.14    0.61
   7  -2  10   16.64    0.63
   7  -2  10   16.96    0.63
  -7  -1  15   20.03    0.76
  -7  -1  15   20.27    0.78
  -7  -1  14    5.33    0.56
  -7  -1  14    6.42    0.60
  -7  -1  13   31.24    1.38
  -7  -1  13   31.87    1.39
  -7  -1  12   22.00    1.27
  -7  -1  12   24.79    1.33
  -7  -1  11    8.58    0.64
   7  -1 -11    9.73    3.88
  -7  -1  10  164.15    4.75
  -7  -1  10  170.18    4.96
  -7  -1   9  153.32    4.50
  -7  -1   9  157.16    4.66
  -7  -1   8   60.94    2.15
  -7  -1   8   61.22    2.10
  -7  -1   8   61.16    2.30
  -7  -1   8   63.79    2.29
  -7  -1   7  744.90   19.40
  -7  -1   7  766.42   19.36
  -7  -1   7  758.51   19.49
  -7  -1   7  761.10   19.52
   7  -1  -7  801.26   26.38
  -7  -1   6  208.92    5.82
  -7  -1   6  207.28    5.77
  -7  -1   6  210.06    5.86
  -7  -1   6  213.22    5.91
  -7  -1   6  199.43    7.07
   7  -1  -6  218.62   10.53
  -7  -1   5  118.11    3.46
  -7  -1   5  117.64    3.49
  -7  -1   5  108.79    4.36
  -7  -1   5  115.31    3.41
  -7  -1   5  116.47    3.48
  -7  -1   5  114.81    3.53
  -7  -1   5  116.50    4.70
   7  -1  -5  102.02    6.92
  -7  -1   4   57.46    2.00
  -7  -1   4   59.91    2.02
  -7  -1   4   58.08    2.93
  -7  -1   4   57.65    1.96
   7  -1  -4   52.65    2.35
  -7  -1   4   58.69    1.99
  -7  -1   4   60.80    2.08
  -7  -1   4   58.68    3.05
  -7  -1   3  160.75    4.53
  -7  -1   3  153.96    5.73
  -7  -1   3  159.00    4.50
   7  -1  -3  151.80    4.95
  -7  -1   3  158.70    4.38
  -7  -1   3  155.78    4.45
  -7  -1   3  160.01    4.56
  -7  -1   2  188.28    5.13
  -7  -1   2  186.68    6.51
  -7  -1   2  179.94    5.14
   7  -1  -2  198.80    9.53
   7  -1  -2  184.59    5.63
  -7  -1   2  181.62    5.03
  -7  -1   2  190.64    6.57
  -7  -1   2  180.41    5.17
  -7  -1   1  161.26    4.39
  -7  -1   1  154.85    5.81
  -7  -1   1  147.11    4.40
   7  -1  -1  145.71    8.36
   7  -1  -1  155.03    4.93
  -7  -1   1  154.57    4.33
   7  -1  -1  149.63    6.94
  -7  -1   1  139.32    5.61
  -7  -1   1  153.80    4.46
  -7  -1   0   54.50    1.92
  -7  -1   0   56.17    3.11
   7  -1   0   58.13    2.51
   7  -1   0   51.38    5.10
  -7  -1   0   57.54    1.93
   7  -1   0   52.43    3.92
  -7  -1   0   54.19    2.99
  -7  -1   0   53.69    2.07
  -7  -1  -1   78.59    2.56
  -7  -1  -1   85.34    2.75
   7  -1   1   86.47    3.25
   7  -1   1   79.68    6.05
  -7  -1  -1   82.86    2.64
  -7  -1  -1   90.00    3.91
  -7  -1  -1   81.51    2.97
  -7  -1  -2   49.44    3.01
  -7  -1  -2   50.93    2.03
   7  -1   2   51.14    2.37
   7  -1   2   56.98    4.98
   7  -1   2   57.16    4.12
  -7  -1  -2   53.57    2.96
  -7  -1  -3   24.86    2.08
   7  -1   3   23.57    1.61
  -7  -1  -3   24.77    1.21
   7  -1   3   27.16    3.58
   7  -1   3   28.46    3.04
  -7  -1  -3   21.90    1.87
  -7  -1  -4   27.31    2.26
   7  -1   4   27.18    1.69
  -7  -1  -4   32.06    1.37
  -7  -1  -4   26.19    2.02
   7  -1   4   27.82    2.94
   7  -1   4   31.65    3.56
  -7  -1  -5  101.01    4.67
   7  -1   5  105.25    6.07
   7  -1   5   98.16    3.57
  -7  -1  -5  107.10    3.35
  -7  -1  -5  102.74    3.22
   7  -1   5   92.27    5.40
   7  -1   6    3.19    0.69
   7  -1   6    3.18    0.85
   7  -1   6    2.51    1.46
   7  -1   6    3.79    1.35
  -7  -1  -6    3.71    0.54
   7  -1   7   30.12    1.45
   7  -1   7   27.25    1.57
  -7  -1  -7   32.21    1.40
  -7  -1  -7   29.36    1.28
   7  -1   8   10.25    0.83
  -7  -1  -8    9.83    0.74
  -7  -1  -8    8.91    0.62
   7  -1   8   10.17    0.74
   7  -1   9    8.33    0.66
  -7  -1  -9    7.43    0.57
   7  -1   9    7.31    0.51
   7  -1  10    0.91    0.36
   7  -1  10    0.78    0.26
   7  -1  10    1.02    0.32
  -7  -1 -10    0.84    0.24
  -7   0  15    1.16    0.26
  -7   0  15    0.82    0.24
  -7   0  14    3.02    0.46
  -7   0  14    1.78    0.43
  -7   0  13    8.88    0.76
  -7   0  13   10.20    0.81
  -7   0  12  125.72    3.87
  -7   0  12  128.22    3.87
   7   0 -11   27.80    4.69
  -7   0  11   25.80    1.38
  -7   0  11   25.69    1.34
  -7   0  10   96.58    3.17
  -7   0  10   93.25    3.13
  -7   0   9  376.61   10.38
  -7   0   9  392.01   10.37
  -7   0   8  116.16    3.65
  -7   0   7   26.01    1.19
  -7   0   7   25.48    1.32
  -7   0   7   27.16    1.34
  -7   0   6 1056.38   26.99
  -7   0   6 1069.36   26.97
  -7   0   6 1004.18   28.20
  -7   0   6 1097.16   27.13
  -7   0   6 1070.15   27.11
  -7   0   5  137.07    3.91
  -7   0   5  135.05    3.88
  -7   0   5  126.85    4.96
  -7   0   5  133.39    3.95
  -7   0   5  134.52    3.98
  -7   0   5  133.60    5.22
  -7   0   4  116.49    3.46
  -7   0   4  120.62    3.47
  -7   0   4  110.48    4.57
  -7   0   4  117.58    3.50
  -7   0   4  121.53    4.78
   7   0  -4  108.85    6.62
  -7   0   3    7.39    0.67
  -7   0   3    8.61    0.64
   7   0  -3    5.59    2.19
  -7   0   3    7.60    1.19
  -7   0   3    7.92    0.66
  -7   0   3    9.14    1.38
   7   0  -2  137.61    7.34
  -7   0   2  140.08    3.89
  -7   0   2  138.80    3.89
  -7   0   2  142.49    5.35
   7   0  -2  123.30    4.31
  -7   0   2  132.88    3.85
  -7   0   2  126.08    3.91
  -7   0   1   65.87    2.11
  -7   0   1   64.09    3.28
  -7   0   1   62.10    2.10
   7   0  -1   57.35    4.88
   7   0  -1   54.52    2.50
  -7   0   1   61.93    2.02
  -7   0   1   61.59    2.09
  -7   0   1   65.59    3.24
  -7   0   1   62.76    2.18
  -7   0   0  294.92    7.67
  -7   0   0  285.82    7.73
   7   0   0  283.73   12.11
   7   0   0  277.59    8.29
  -7   0   0  294.03    7.63
  -7   0   0  296.82    7.65
   7   0   0  263.59   10.77
  -7   0   0  265.95    7.71
  -7   0   0  304.85    9.19
  -7   0   0  279.01    7.88
  -7   0  -1  207.13    5.57
  -7   0  -1  198.17    7.15
  -7   0  -1  218.46    5.75
   7   0   1  204.48    6.30
   7   0   1  204.91    9.70
  -7   0  -1  200.94    5.59
  -7   0  -1  205.47    5.61
   7   0   1  193.46    8.86
  -7   0  -1  185.05    5.73
  -7   0  -1  201.68    6.95
   7   0   1  194.32    5.62
  -7   0  -1  200.08    5.95
  -7   0  -2   64.44    2.16
  -7   0  -2   66.90    3.48
   7   0   2   66.42    5.04
   7   0   2   63.82    2.82
  -7   0  -2   66.79    2.25
   7   0   2   66.11    2.30
   7   0   2   66.56    4.85
  -7   0  -2   66.77    3.30
  -7   0  -3   10.94    0.83
   7   0   3    6.94    2.07
   7   0   3    9.88    0.82
   7   0   3   11.30    2.47
  -7   0  -3    9.66    1.44
  -7   0  -3   10.16    0.79
  -7   0  -3    9.37    1.27
  -7   0  -4   92.80    4.43
  -7   0  -4   96.90    3.13
  -7   0  -4  100.69    3.12
   7   0   4   96.18    3.22
   7   0   4   90.41    5.65
   7   0   4   90.42    5.50
   7   0   5    2.82    0.93
   7   0   5    1.67    1.31
  -7   0  -5    0.98    0.68
  -7   0  -5    2.62    0.53
   7   0   6    1.00    0.81
  -7   0  -6    1.20    0.57
  -7   0  -6    1.06    0.45
   7   0   7   10.87    1.09
  -7   0  -7   12.02    0.90
  -7   0  -7   11.50    0.77
   7   0   8    0.20    0.64
  -7   0  -8    0.23    0.43
  -7   0  -8    0.11    0.32
   7   0   9    8.19    0.67
   7   0   9    7.76    0.73
  -7   0  -9    7.60    0.56
   7   0   9    6.66    0.67
   7   0  10   10.21    0.57
   7   0  10    9.71    0.58
  -7   0 -10    8.14    0.46
   7   0  10    8.02    0.49
   7   0  10    8.77    0.46
  -7   1  14    5.04    0.42
  -7   1  14    5.57    0.43
  -7   1  13   29.26    1.23
  -7   1  13   30.55    1.21
  -7   1  12   24.51    1.23
  -7   1  12   23.87    1.17
   7   1 -11    9.66    3.09
  -7   1  11    8.37    0.84
  -7   1  11    8.58    0.80
  -7   1  10  172.91    5.04
  -7   1  10  170.92    4.99
  -7   1   9  154.43    4.63
  -7   1   9  156.81    4.62
   7   1  -8   66.35    5.58
  -7   1   8   62.32    2.29
  -7   1   8   64.60    2.29
  -7   1   7  735.82   19.14
  -7   1   7  753.54   19.34
  -7   1   7  760.10   19.30
  -7   1   6  208.42    5.74
  -7   1   6  202.51    7.03
  -7   1   6  210.93    5.87
  -7   1   6  203.89    5.82
  -7   1   5  119.97    3.51
  -7   1   5  109.35    4.63
  -7   1   5  115.60    3.54
  -7   1   4   58.57    2.03
  -7   1   4   57.64    3.05
  -7   1   4   62.75    2.12
  -7   1   4   58.02    2.05
   7   1  -4   61.25    4.63
   7   1  -3  158.26    7.76
  -7   1   3  166.63    4.60
  -7   1   3  162.76    6.01
  -7   1   3  157.98    4.61
  -7   1   3  161.99    4.62
   7   1  -2  192.01    8.69
  -7   1   2  186.47    5.18
  -7   1   2  185.99    6.71
  -7   1   2  190.46    5.15
  -7   1   2  187.31    5.26
  -7   1   2  182.43    6.66
  -7   1   2  187.10    5.27
  -7   1   1  151.49    4.37
   7   1  -1  157.76    7.78
  -7   1   1  157.65    4.38
  -7   1   1  143.71    5.83
   7   1  -1  138.08    4.87
  -7   1   1  151.52    4.29
  -7   1   1  157.36    4.33
  -7   1   1  153.93    4.44
  -7   1   1  159.69    5.85
  -7   1   1  153.85    4.48
  -7   1   0   54.25    1.87
  -7   1   0   50.92    3.00
   7   1   0   49.69    2.41
   7   1   0   61.79    4.69
   7   1   0   52.64    1.95
   7   1   0   37.85    2.00
  -7   1   0   53.01    1.82
  -7   1   0   53.27    1.83
  -7   1   0   53.88    1.97
  -7   1   0   67.00    3.17
  -7   1   0   51.74    2.02
  -7   1  -1   79.17    2.57
  -7   1  -1   77.55    3.86
   7   1   1   81.24    3.27
   7   1   1   79.71    5.21
   7   1   1   71.13    2.97
  -7   1  -1   83.20    2.59
   7   1   1   81.33    2.73
  -7   1  -1   82.19    2.59
  -7   1  -1   78.51    2.78
  -7   1  -1   79.22    3.71
  -7   1  -2   52.49    3.07
   7   1   2   56.02    2.61
   7   1   2   52.91    2.43
  -7   1  -2   54.30    1.94
   7   1   2   51.19    2.03
  -7   1  -2   53.81    1.94
   7   1   2   53.92    4.46
  -7   1  -2   54.69    2.84
  -7   1  -2   47.36    2.13
  -7   1  -3   23.35    2.02
   7   1   3   28.60    1.85
   7   1   3   27.85    1.74
   7   1   3   23.39    3.20
  -7   1  -3   23.92    1.22
   7   1   3   25.27    1.34
  -7   1  -4   28.18    2.22
   7   1   4   28.41    1.78
   7   1   4   31.31    1.82
  -7   1  -4   31.24    1.38
   7   1   4   27.32    1.46
   7   1   4   29.48    3.32
  -7   1  -4   28.99    1.36
   7   1   5  102.94    3.73
   7   1   5  112.33    3.54
  -7   1  -5  105.30    3.33
   7   1   5   96.99    5.88
   7   1   6    3.58    0.85
   7   1   6    2.55    1.37
   7   1   6    3.02    0.80
  -7   1  -6    2.83    0.60
  -7   1  -6    2.73    0.51
   7   1   7   31.00    1.59
  -7   1  -7   33.33    1.41
  -7   1  -7   31.19    1.36
   7   1   8   10.01    0.85
   7   1   8   11.66    0.92
  -7   1  -8   11.42    0.78
  -7   1  -8    9.81    0.68
   7   1   9    8.17    0.65
   7   1   9    8.25    0.65
  -7   1  -9    7.50    0.54
   7   1   9    6.57    0.50
   7   1  10    0.89    0.26
   7   1  10    0.80    0.23
  -7   1 -10    0.72    0.20
  -7   2  12   12.66    0.75
  -7   2  11  105.31    3.21
  -7   2  10   36.78    1.55
  -7   2  10   37.45    1.47
  -7   2   9   76.71    2.62
  -7   2   9   77.95    2.53
  -7   2   8  115.00    3.64
  -7   2   8  119.16    3.56
  -7   2   7  286.41    7.75
  -7   2   7  284.30    7.66
  -7   2   6  220.64    7.97
  -7   2   6  241.58    6.59
  -7   2   6  232.30    6.48
  -7   2   5  148.11    4.22
   7   2  -5  150.52    7.64
  -7   2   5  138.60    4.11
  -7   2   4    8.03    1.28
  -7   2   4    9.03    0.79
  -7   2   4   10.19    0.75
   7   2  -3   35.08    3.39
  -7   2   3   34.28    2.51
   7   2  -3   36.26    1.62
  -7   2   3   37.85    1.57
  -7   2   3   39.46    1.53
  -7   2   2   98.95    4.52
  -7   2   2   95.35    2.95
   7   2  -2   95.80    3.19
  -7   2   2   98.36    2.93
  -7   2   2   99.75    3.07
   7   2  -1  231.31    7.39
  -7   2   1  246.94    6.79
   7   2  -1  249.08    7.04
  -7   2   1  254.34    6.78
  -7   2   1  254.83    6.95
  -7   2   1  258.37    6.92
  -7   2   0   18.23    1.88
   7   2   0   18.59    1.55
   7   2   0   14.94    1.15
  -7   2   0   18.99    1.01
   7   2   0   19.44    1.16
  -7   2   0   19.87    1.01
  -7   2   0   20.00    1.14
  -7   2  -1  419.52   12.98
   7   2   1  439.84   11.82
   7   2   1  377.86   11.42
  -7   2  -1  427.17   11.02
   7   2   1  414.76   11.23
  -7   2  -1  429.12   10.99
   7   2   1  410.08   14.96
  -7   2  -1  407.17   11.23
  -7   2  -2  152.48    6.07
   7   2   2  158.98    5.21
   7   2   2  143.67    4.95
  -7   2  -2  155.73    4.48
  -7   2  -2  152.09    4.43
   7   2   2  148.99    7.89
   7   2   2  154.69    4.67
  -7   2  -2  144.18    4.71
  -7   2  -3   85.32    4.30
   7   2   3   94.31    3.67
   7   2   3   97.40    3.62
  -7   2  -3   98.59    3.14
   7   2   3  102.36    3.33
   7   2   3  103.16    6.17
  -7   2  -4  158.62    6.47
   7   2   4  179.81    5.60
   7   2   4  183.11    5.74
   7   2   4  183.29    5.37
  -7   2  -4  178.79    5.14
   7   2   4  178.11    8.39
   7   2   5    1.65    0.86
   7   2   5    1.86    1.37
   7   2   5    1.39    0.76
   7   2   5    1.27    0.58
  -7   2  -5    1.84    0.54
  -7   2  -5    1.29    0.52
   7   2   6    6.97    0.87
  -7   2  -6    7.47    0.75
  -7   2  -6    7.35    0.71
   7   2   7   16.94    1.07
   7   2   7   19.31    1.28
  -7   2  -7   19.74    1.04
  -7   2  -7   18.76    0.97
   7   2   8    2.88    0.54
   7   2   8    2.64    0.48
  -7   2  -8    3.23    0.47
  -7   2  -8    2.84    0.42
   7   2   9   31.86    1.18
  -7   2  -9   32.92    1.14
  -7   3  10    4.35    0.53
  -7   3   9   16.25    0.91
  -7   3   8   28.68    1.30
  -7   3   7  149.55    4.28
  -7   3   7  127.55    5.60
   7   3  -7  127.48    4.39
  -7   3   7  147.06    4.18
  -7   3   6   95.89    3.04
  -7   3   6   83.22    4.22
   7   3  -6   85.17    3.18
  -7   3   6   94.38    2.96
  -7   3   5   95.72    3.03
  -7   3   5   83.84    4.29
   7   3  -5   84.90    3.17
  -7   3   5   91.42    2.96
  -7   3   4  436.22   13.93
  -7   3   4  443.34   11.75
   7   3  -4  438.82   12.18
  -7   3   4  468.96   11.89
  -7   3   3  213.36    8.00
   7   3  -3  216.51    6.39
  -7   3   3  218.03    6.03
  -7   3   3  216.97    6.13
   7   3  -2   99.85    3.86
   7   3  -2  108.32    3.66
  -7   3   2  107.53    3.33
  -7   3   2  107.77    3.24
  -7   3   2  113.54    3.46
  -7   3   1   16.97    1.97
   7   3  -1   18.91    1.56
   7   3  -1   23.29    1.36
  -7   3   1   20.32    1.10
  -7   3   1   20.11    1.04
  -7   3   1   21.07    1.20
  -7   3   0  563.75   17.45
   7   3   0  560.93   15.78
  -7   3   0  594.37   15.26
   7   3   0  599.03   15.54
  -7   3   0  589.82   15.18
  -7   3   0  584.08   15.36
  -7   3  -1  135.27    5.67
   7   3   1  128.28    4.46
   7   3   1  121.68    4.31
  -7   3  -1  134.74    3.99
   7   3   1  127.04    4.20
  -7   3  -1  130.95    3.91
   7   3   1  125.31    6.89
  -7   3  -2   36.55    2.64
   7   3   2   41.58    2.08
   7   3   2   37.06    1.94
  -7   3  -2   41.75    1.74
   7   3   2   40.63    1.88
  -7   3  -2   40.45    1.66
   7   3   2   41.14    3.79
  -7   3  -3  199.81    7.44
   7   3   3  208.17    6.17
   7   3   3  202.51    6.33
   7   3   3  212.60    6.13
   7   3   3  214.48    9.18
   7   3   4   84.32    3.03
   7   3   4   95.20    3.40
  -7   3  -4   88.69    2.98
  -7   3  -4   93.86    2.96
   7   3   4   91.75    5.18
   7   3   5   16.47    1.27
  -7   3  -5   16.93    1.02
  -7   3  -5   16.78    0.98
   7   3   6   11.41    1.11
  -7   3  -6   10.83    0.81
   7   3   6   10.73    0.90
  -7   3  -6   11.44    0.79
  -7   3  -7   53.05    1.84
  -7   3  -7   53.64    1.81
   7   3   8   26.19    1.18
  -7   3  -8   25.28    0.97
  -7   3  -8   23.85    0.92
  -7   3  -9   17.93    0.64
  -7   4   9   43.33    1.64
   7   4  -9   43.32    1.95
  -7   4   8   14.01    0.97
   7   4  -8   12.06    1.06
  -7   4   7   10.90    0.94
  -7   4   7   10.49    0.71
  -7   4   6   39.21    1.68
   7   4  -6   35.55    1.81
  -7   4   6   38.33    1.49
  -7   4   5   31.81    1.40
  -7   4   5   34.23    1.55
  -7   4   5   28.90    2.46
   7   4  -5   31.66    1.78
  -7   4   5   34.77    1.41
  -7   4   4    2.61    0.66
   7   4  -4    1.29    0.71
  -7   4   4    3.03    1.03
  -7   4   4    2.14    0.53
  -7   4   4    3.10    0.52
  -7   4   3   90.39    3.00
   7   4  -3   80.09    3.28
  -7   4   3   81.49    4.35
   7   4  -3   93.48    3.26
  -7   4   3   86.13    2.87
  -7   4   3   89.30    2.88
   7   4  -2  111.23    4.00
  -7   4   2  107.21    5.22
   7   4  -2  117.81    3.95
  -7   4   2  114.19    3.57
  -7   4   2  114.49    3.44
  -7   4   2  119.59    3.60
  -7   4   1  122.82    5.67
   7   4  -1  132.05    4.35
  -7   4   1  135.67    4.05
  -7   4   1  128.79    3.94
  -7   4   1  137.17    4.06
  -7   4   0  155.62    6.52
   7   4   0  158.19    5.05
  -7   4   0  165.99    4.86
  -7   4   0  164.38    4.73
  -7   4   0  161.14    4.81
   7   4   1   59.41    2.49
   7   4   1   60.96    2.42
  -7   4  -1   62.24    2.26
  -7   4  -1   58.59    2.15
  -7   4  -2   40.20    2.64
   7   4   2   39.74    1.94
  -7   4  -2   42.76    1.80
  -7   4  -2   45.98    1.75
   7   4   3    9.71    0.96
  -7   4  -3   11.00    0.83
   7   4   4   36.63    1.80
  -7   4  -4   41.50    1.66
   7   4   4   42.22    1.77
   7   4   5   18.03    1.14
  -7   4  -5   15.56    0.92
   7   4   5   15.18    1.00
  -7   4  -5   17.44    0.94
   7   4   6    1.43    0.56
   7   4   6    2.01    0.47
  -7   4  -6    1.57    0.43
  -7   4  -6    1.27    0.39
   7   4   7    5.21    0.56
  -7   4  -7    5.30    0.44
  -7   4  -7    5.47    0.44
  -7   5   9   18.42    0.86
   7   5  -9   18.07    1.05
  -7   5   8    0.41    0.45
   7   5  -8    0.20    0.55
  -7   5   7    4.40    0.66
   7   5  -7    3.67    0.74
  -7   5   6    7.51    0.80
   7   5  -6    5.85    0.85
  -7   5   6    8.01    0.62
  -7   5   5    6.29    0.79
   7   5  -5    4.32    0.80
  -7   5   5    6.20    0.63
  -7   5   4    4.66    0.79
   7   5  -4    5.10    0.91
  -7   5   4    5.57    0.65
   7   5  -3   65.30    2.63
  -7   5   3   69.31    2.36
  -7   5   2    3.59    0.76
   7   5  -2    2.82    0.72
  -7   5   2    4.00    0.66
  -7   5   2    3.18    0.46
  -7   5   1   87.95    2.91
   7   5  -1   83.97    3.06
  -7   5   1   84.51    2.85
  -7   5   1   86.66    2.70
  -7   5   0   26.55    1.34
  -7   5   0   25.33    1.29
  -7   5   0   24.85    1.19
  -7   5  -1   12.30    0.88
  -7   5  -1   11.04    0.87
  -7   5  -1   10.08    0.76
  -7   5  -2    3.52    0.55
   7   5   2    2.64    0.66
  -7   5  -2    4.05    0.53
  -7   5  -3   10.63    0.69
   7   5   3    8.84    0.75
   7   5   3    9.91    0.81
  -7   5  -3   11.36    0.79
  -7   5  -3    9.92    0.71
  -7   5  -4    8.74    0.53
   7   5   4    7.73    0.67
   7   5   4    8.06    0.68
  -7   5  -4    8.90    0.65
   7   5   5    3.78    0.44
   7   5   5    3.72    0.48
  -7   5  -5    4.34    0.43
  -7   5  -5    4.47    0.43
   7   5   6    1.80    0.30
  -7   5  -6    1.46    0.24
  -7   5  -6    2.13    0.28
  -7   6   8   17.65    0.67
   7   6  -8   13.83    0.72
  -7   6   7    2.69    0.40
   7   6  -7    2.40    0.47
  -7   6   6   10.36    0.69
   7   6  -6    9.70    0.75
  -7   6   5    8.26    0.68
  -7   6   5    7.98    0.53
   7   6  -5    8.56    0.77
   7   6  -4    0.46    0.53
  -7   6   4    0.80    0.38
  -7   6   3    5.55    0.65
   7   6  -3    4.58    0.66
  -7   6   3    4.41    0.53
  -7   6   2   15.37    0.93
  -7   6   2   14.14    0.85
  -7   6   1    4.92    0.58
  -7   6   1    5.51    0.59
  -7   6   1    4.79    0.42
  -7   6   0    4.49    0.52
   7   6   0    4.53    0.59
  -7   6   0    4.55    0.54
  -7   6   0    3.65    0.41
  -7   6  -1    5.06    0.47
   7   6   1    5.78    0.57
  -7   6  -1    5.34    0.45
  -7   6  -2    6.56    0.41
   7   6   2    6.93    0.55
  -7   6  -2    6.93    0.53
  -7   6  -2    6.95    0.48
   7   6   3    9.44    0.52
  -7   6  -3    9.13    0.52
  -7   6  -3    9.57    0.51
  -7   6  -4    5.29    0.30
  -7   6  -4    4.92    0.31
  -8  -6   7    9.34    0.42
  -8  -6   5    4.38    0.40
   8  -6  -4    1.31    0.39
  -8  -6   4    1.24    0.31
  -8  -6   4    1.11    0.23
   8  -6  -3    1.68    0.43
  -8  -6   3    1.33    0.31
  -8  -6   3    1.70    0.29
   8  -6  -2    7.86    0.61
  -8  -6   2    6.30    0.41
  -8  -6   2    7.91    0.47
   8  -6  -1    4.97    0.53
  -8  -6   1    4.90    0.40
   8  -6   0    5.75    0.48
   8  -6   1    0.06    0.26
  -8  -6  -1    0.10    0.19
  -8  -6  -2    5.62    0.28
  -8  -5  10   10.52    0.51
  -8  -5   9    1.52    0.28
  -8  -5   9    1.47    0.34
  -8  -5   9    1.33    0.32
  -8  -5   8   12.02    0.66
  -8  -5   8   12.61    0.68
  -8  -5   8   10.86    0.68
  -8  -5   7    4.09    0.53
  -8  -5   7    4.11    0.49
  -8  -5   6    3.48    0.58
  -8  -5   6    3.06    0.48
  -8  -5   5    4.99    0.52
  -8  -5   5    4.05    0.44
  -8  -5   4   29.30    1.27
  -8  -5   4   30.06    1.21
  -8  -5   4   29.91    1.19
  -8  -5   3    5.41    0.63
  -8  -5   3    6.13    0.54
  -8  -5   3    5.58    0.55
  -8  -5   2   29.24    1.21
  -8  -5   2   28.31    1.13
  -8  -5   2   28.97    1.21
  -8  -5   1    0.53    0.39
  -8  -5   1    0.48    0.43
  -8  -5   0   40.48    1.41
  -8  -5   0   45.55    1.59
  -8  -5  -2    3.02    0.43
   8  -5   3   24.89    0.96
  -8  -5  -3   19.79    0.77
  -8  -5  -3   24.09    0.90
   8  -5   3   21.21    0.79
  -8  -5  -4   10.26    0.46
  -8  -5  -4   11.85    0.51
   8  -5   4   11.68    0.48
  -8  -4  12    3.92    0.31
  -8  -4  11   15.08    0.72
  -8  -4  11   13.06    0.64
  -8  -4  10   56.95    1.79
  -8  -4  10   53.98    1.73
  -8  -4   9   13.07    0.76
  -8  -4   9   13.89    0.84
  -8  -4   8   34.11    1.39
  -8  -4   8   34.51    1.46
  -8  -4   7   21.01    1.11
  -8  -4   7   20.69    1.12
  -8  -4   7   19.49    1.11
  -8  -4   6   21.49    1.16
  -8  -4   6   21.28    1.15
  -8  -4   6   21.88    1.19
  -8  -4   5   52.30    1.97
  -8  -4   5   51.63    2.01
  -8  -4   5   49.06    1.74
  -8  -4   4    1.44    0.62
  -8  -4   4    0.65    0.53
  -8  -4   4    1.86    0.46
  -8  -4   3   61.62    2.24
  -8  -4   3   67.75    2.32
  -8  -4   3   64.37    2.21
  -8  -4   2    8.03    0.76
  -8  -4   2    7.73    0.71
  -8  -4   2    6.81    0.69
  -8  -4   2    8.37    1.37
  -8  -4   1  145.15    4.23
  -8  -4   1  145.76    4.26
  -8  -4   1  145.01    4.28
  -8  -4   0   52.61    1.83
  -8  -4   0   52.53    1.86
  -8  -4   0   52.15    1.91
   8  -4   0   48.29    1.84
   8  -4   1   70.53    2.37
  -8  -4  -2   57.09    2.01
   8  -4   2   54.96    1.99
  -8  -4  -3    5.55    0.59
   8  -4   3    5.93    0.62
  -8  -4  -4    1.28    0.38
   8  -4   4    1.95    0.45
  -8  -4  -5    6.45    0.51
   8  -4   5    6.28    0.46
  -8  -4  -5    6.66    0.47
   8  -4   5    7.55    0.56
   8  -4   5    6.33    0.40
  -8  -4  -6    5.70    0.43
   8  -4   6    6.40    0.43
  -8  -4  -7    8.99    0.39
   8  -4   7    9.06    0.40
  -8  -3  13    2.38    0.28
  -8  -3  13    2.32    0.23
  -8  -3  13    2.60    0.30
  -8  -3  12   37.83    1.32
  -8  -3  12   37.22    1.33
  -8  -3  12   37.52    1.31
  -8  -3  11   24.38    1.06
  -8  -3  11   20.50    0.93
  -8  -3  11   21.64    1.01
  -8  -3  11   22.68    1.03
  -8  -3  10   33.20    1.40
  -8  -3  10   29.13    1.17
  -8  -3  10   31.97    1.30
  -8  -3  10   33.51    1.34
  -8  -3  10   34.83    1.37
  -8  -3   9    0.51    0.53
  -8  -3   9   -0.09    0.41
  -8  -3   9    0.04    0.54
  -8  -3   9    0.24    0.43
  -8  -3   9    0.58    0.44
  -8  -3   8   42.91    1.66
  -8  -3   8   44.81    1.75
  -8  -3   8   41.13    1.67
  -8  -3   8   39.12    1.56
  -8  -3   8   43.46    1.67
  -8  -3   7   23.11    1.18
  -8  -3   7   22.55    1.21
  -8  -3   7   21.15    1.16
   8  -3  -7   25.07    4.01
  -8  -3   7   23.38    1.16
  -8  -3   6   66.76    2.35
   8  -3  -6   65.34    6.08
  -8  -3   6   66.87    2.38
  -8  -3   6   64.94    2.25
  -8  -3   5  160.21    4.53
  -8  -3   5  152.81    4.56
   8  -3  -5  154.88    9.33
  -8  -3   5  146.74    4.28
  -8  -3   5  149.25    5.78
  -8  -3   5  151.07    4.38
  -8  -3   4  136.62    4.13
  -8  -3   4  137.47    4.15
   8  -3  -4  137.03    8.72
  -8  -3   4  130.81    3.89
  -8  -3   4  129.93    5.40
  -8  -3   3   58.37    2.14
  -8  -3   3   51.83    3.05
  -8  -3   3   61.39    2.22
  -8  -3   3   57.23    2.19
   8  -3  -3   59.41    5.58
  -8  -3   3   58.08    2.04
  -8  -3   3   59.46    3.34
  -8  -3   2  151.45    4.49
  -8  -3   2  140.71    5.94
  -8  -3   2  156.10    4.60
   8  -3  -2  155.36    9.13
  -8  -3   2  154.86    4.47
  -8  -3   2  159.08    6.17
  -8  -3   1  121.28    3.65
  -8  -3   1  117.28    3.72
   8  -3  -1  117.81    7.69
  -8  -3   1  122.58    3.68
  -8  -3   1  120.61    5.23
  -8  -3   0  214.66    5.96
  -8  -3   0  213.80    6.11
  -8  -3   0  216.90    6.04
   8  -3   0  210.18   10.48
  -8  -3  -1   32.88    1.35
  -8  -3  -1   34.02    1.50
   8  -3   1   37.79    4.04
  -8  -3  -1   32.27    2.44
  -8  -3  -2    1.62    0.54
  -8  -3  -2    1.89    0.90
   8  -3   3   79.94    2.74
  -8  -3  -3   89.26    2.77
   8  -3   4   29.88    1.33
  -8  -3  -4   30.58    1.31
   8  -3   5   26.65    1.17
  -8  -3  -5   27.60    1.22
  -8  -3  -5   26.04    1.13
   8  -3   5   25.56    1.28
   8  -3   6   13.74    0.64
   8  -3   6   14.43    0.75
  -8  -3  -6   15.42    0.84
  -8  -3  -6   14.62    0.72
   8  -3   7    1.37    0.40
   8  -3   7    1.21    0.32
   8  -3   7    1.24    0.28
  -8  -3  -7    1.38    0.36
   8  -3   7    1.82    0.37
   8  -3   8   18.14    0.64
   8  -3   8   17.35    0.62
  -8  -2  14    2.13    0.31
  -8  -2  14    1.93    0.34
  -8  -2  13    0.36    0.41
  -8  -2  13    0.63    0.45
  -8  -2  12   60.92    1.99
  -8  -2  12   62.58    2.17
  -8  -2  11   19.46    0.98
  -8  -2  11   20.91    1.14
  -8  -2  11   19.61    1.13
  -8  -2  10   18.23    1.00
  -8  -2  10   18.43    1.12
  -8  -2  10   18.01    1.13
  -8  -2   9   48.43    1.85
  -8  -2   9   47.81    1.75
  -8  -2   9   48.96    1.78
  -8  -2   9   49.18    1.92
  -8  -2   9   51.70    1.96
   8  -2  -8   67.97    7.09
  -8  -2   8   64.47    2.28
  -8  -2   8   63.10    2.21
  -8  -2   8   63.55    2.21
  -8  -2   8   64.70    2.29
  -8  -2   8   64.27    2.32
  -8  -2   7  120.77    3.67
  -8  -2   7  122.89    3.73
  -8  -2   7  116.57    3.65
  -8  -2   7  119.63    3.66
  -8  -2   7  120.85    3.74
  -8  -2   6   52.66    1.95
   8  -2  -6   52.27    5.54
  -8  -2   6   50.90    1.96
  -8  -2   6   50.26    1.91
  -8  -2   6   50.35    1.88
  -8  -2   6   49.76    1.95
  -8  -2   6   50.25    2.86
  -8  -2   5  281.85    7.63
  -8  -2   5  288.67    7.70
   8  -2  -5  279.98   13.64
  -8  -2   5  277.69    7.63
  -8  -2   5  271.38    7.51
  -8  -2   5  279.25    7.66
  -8  -2   5  272.61    9.10
  -8  -2   4  263.25    7.24
  -8  -2   4  239.59    8.51
   8  -2  -4  284.71   13.38
  -8  -2   4  263.21    7.22
  -8  -2   4  261.37    7.01
  -8  -2   4  264.36    8.80
  -8  -2   4  260.91    7.18
  -8  -2   3  226.10    6.28
  -8  -2   3  211.60    7.76
   8  -2  -3  235.99   12.03
  -8  -2   3  226.54    6.14
  -8  -2   3  225.56    7.94
  -8  -2   3  221.90    6.23
  -8  -2   2  103.95    3.15
  -8  -2   2   98.03    4.54
  -8  -2   2   88.08    3.12
   8  -2  -2   97.95    7.49
  -8  -2   2  102.11    3.07
  -8  -2   2  102.41    4.64
  -8  -2   2   97.54    3.09
  -8  -2   1   87.88    2.88
  -8  -2   1   84.49    4.22
  -8  -2   1   91.29    2.99
   8  -2  -1   91.82    3.30
  -8  -2   1   89.77    2.87
  -8  -2   1   89.03    2.88
  -8  -2   0   34.09    1.49
  -8  -2   0   32.82    1.42
  -8  -2   0   34.37    2.55
  -8  -2   0   34.35    1.53
   8  -2   0   33.52    1.75
  -8  -2   0   34.00    1.46
  -8  -2   0   32.51    2.47
  -8  -2  -1  175.63    5.00
  -8  -2  -1  178.71    5.25
   8  -2   1  180.53    5.48
   8  -2   1  164.00    9.12
  -8  -2  -1  188.71    5.15
  -8  -2  -1  178.43    6.76
   8  -2   2    8.37    0.96
  -8  -2  -2    8.87    1.44
   8  -2   2    8.79    2.51
  -8  -2  -2    9.62    1.42
  -8  -2  -3   76.86    4.18
   8  -2   3   86.01    2.79
   8  -2   3   83.06    3.06
  -8  -2  -3   85.16    2.78
  -8  -2  -3   83.11    4.00
   8  -2   3   79.33    5.62
   8  -2   4   49.76    4.17
   8  -2   4   50.63    1.91
   8  -2   4   49.26    2.10
  -8  -2  -4   53.06    1.96
  -8  -2  -4   48.31    1.85
   8  -2   5   61.26    2.18
   8  -2   5   63.27    2.38
  -8  -2  -5   67.91    2.26
  -8  -2  -5   59.71    2.13
   8  -2   6   12.55    0.81
   8  -2   6   12.69    0.98
  -8  -2  -6   12.77    0.82
  -8  -2  -6   12.41    0.77
   8  -2   7    3.77    0.46
   8  -2   7    3.69    0.60
  -8  -2  -7    4.04    0.51
  -8  -2  -7    3.35    0.38
   8  -2   7    4.40    0.56
   8  -2   8   10.08    0.54
   8  -2   8   10.46    0.61
   8  -2   8    9.63    0.69
   8  -2   8   10.70    0.56
   8  -2   8    9.17    0.60
   8  -2   9    7.68    0.35
  -8  -2  -9    7.40    0.36
  -8  -1  15    7.77    0.35
  -8  -1  15    8.51    0.37
  -8  -1  14    6.86    0.53
  -8  -1  14    8.22    0.56
  -8  -1  13    5.14    0.61
  -8  -1  11   40.53    1.72
  -8  -1  10   16.19    0.89
   8  -1 -10   18.93    5.78
  -8  -1  10   16.06    1.09
  -8  -1   9   20.20    1.04
  -8  -1   9   20.92    1.02
  -8  -1   9   19.70    1.21
  -8  -1   9   20.18    1.23
  -8  -1   8  154.89    4.55
  -8  -1   8  158.21    4.53
  -8  -1   8  155.37    4.66
  -8  -1   8  158.51    4.70
  -8  -1   7   34.40    1.48
  -8  -1   7   33.42    1.45
  -8  -1   7   33.30    1.55
  -8  -1   7   35.12    1.61
   8  -1  -6  390.18   16.61
  -8  -1   6  371.23    9.92
  -8  -1   6  366.95    9.93
  -8  -1   6  371.86    9.96
  -8  -1   6  382.79   10.04
  -8  -1   6  370.37   11.59
  -8  -1   5  172.21    4.88
  -8  -1   5  175.65    4.91
  -8  -1   5  159.17    5.99
  -8  -1   5  166.85    4.79
   8  -1  -5  152.19    5.37
  -8  -1   5  172.00    4.87
  -8  -1   5  171.28    4.96
  -8  -1   5  170.19    6.41
  -8  -1   4   42.09    1.67
  -8  -1   4   41.29    1.66
  -8  -1   4   40.59    2.54
   8  -1  -4   38.05    2.08
  -8  -1   4   40.14    1.61
  -8  -1   4   43.38    2.79
  -8  -1   4   42.86    1.73
  -8  -1   3   36.74    1.52
  -8  -1   3   36.08    1.53
  -8  -1   3   34.07    2.43
   8  -1  -3   35.06    4.32
   8  -1  -3   35.83    1.97
  -8  -1   3   35.49    1.37
  -8  -1   3   35.08    1.42
  -8  -1   3   37.44    2.59
  -8  -1   3   35.40    1.56
  -8  -1   2  294.59    7.65
  -8  -1   2  280.81    9.34
  -8  -1   2  271.49    7.63
   8  -1  -2  281.96   12.92
   8  -1  -2  287.07    8.33
  -8  -1   2  278.44    7.51
   8  -1  -2  266.07   10.77
  -8  -1   2  275.92    7.67
  -8  -1   1   68.62    2.35
  -8  -1   1   68.32    3.64
  -8  -1   1   67.75    2.38
   8  -1  -1   73.17    3.01
   8  -1  -1   69.09    6.03
  -8  -1   1   65.77    2.28
   8  -1  -1   72.01    4.83
  -8  -1   1   74.93    3.73
  -8  -1   1   67.70    2.42
  -8  -1   0   49.03    1.81
  -8  -1   0   43.13    2.89
   8  -1   0   49.96    2.44
   8  -1   0   47.68    5.02
  -8  -1   0   47.48    1.75
  -8  -1   0   47.59    1.80
   8  -1   0   54.26    4.17
  -8  -1   0   47.13    2.93
  -8  -1   0   47.39    1.94
  -8  -1  -1    3.26    0.52
  -8  -1  -1    3.51    0.65
   8  -1   1    6.41    2.52
   8  -1   1    3.99    1.01
   8  -1   1    2.91    1.57
  -8  -1  -1    2.84    0.52
  -8  -1  -1    3.84    0.58
  -8  -1  -1    4.59    1.15
  -8  -1  -2   14.77    1.73
   8  -1   2   19.22    1.43
   8  -1   2   22.32    3.42
  -8  -1  -2   18.79    1.05
   8  -1   2   20.11    2.65
  -8  -1  -2   17.16    1.77
  -8  -1  -3   67.43    3.79
   8  -1   3   71.34    2.88
  -8  -1  -3   75.12    2.53
  -8  -1  -3   76.19    2.53
   8  -1   3   66.19    4.56
   8  -1   3   66.65    5.16
  -8  -1  -3   70.36    3.56
   8  -1   4   40.08    3.75
  -8  -1  -4   37.80    2.75
   8  -1   4   39.37    1.97
  -8  -1  -4   42.56    1.72
  -8  -1  -4   41.21    1.66
   8  -1   4   36.52    3.26
   8  -1   5   40.06    1.74
   8  -1   5   35.20    1.82
  -8  -1  -5   37.48    1.63
  -8  -1  -5   41.58    1.61
   8  -1   6    6.33    0.74
   8  -1   6    4.63    0.87
  -8  -1  -6    6.17    0.67
  -8  -1  -6    6.49    0.60
   8  -1   7   26.49    1.22
   8  -1   7   24.25    1.29
  -8  -1  -7   25.30    1.06
   8  -1   8   16.77    0.84
  -8  -1  -8   16.22    0.78
   8  -1   8   16.22    0.76
   8  -1   9   17.90    0.69
  -8  -1  -9   15.54    0.65
   8  -1   9   16.17    0.72
   8  -1   9   16.58    0.69
  -8   0  14   11.48    0.64
  -8   0  14   12.38    0.64
  -8   0  13    3.83    0.54
  -8   0  13    4.48    0.58
  -8   0  12   25.79    1.26
  -8   0  12   25.88    1.23
  -8   0  11   11.71    0.99
  -8   0  11   11.86    0.92
  -8   0  10   24.51    1.38
  -8   0  10   28.90    1.40
  -8   0   9  190.15    5.49
  -8   0   8   19.34    1.01
   8   0  -8   22.10    4.43
  -8   0   8   19.95    1.22
  -8   0   8   20.28    1.17
  -8   0   7  733.45   18.69
  -8   0   7  734.29   18.82
  -8   0   7  711.09   18.83
  -8   0   6   63.34    2.20
  -8   0   6   61.03    2.12
  -8   0   6   63.12    2.27
  -8   0   6   62.40    2.29
   8   0  -6   69.09    6.34
   8   0  -5  118.83    7.83
  -8   0   5  108.79    3.29
  -8   0   5  109.16    3.26
  -8   0   5  105.35    4.48
  -8   0   5  108.92    3.35
  -8   0   5  115.07    4.86
   8   0  -4   52.55    5.17
  -8   0   4   47.39    1.82
  -8   0   4   50.83    1.83
  -8   0   4   48.48    2.87
  -8   0   4   48.13    1.83
  -8   0   4   50.26    3.07
   8   0  -3  208.20   10.16
  -8   0   3  200.54    5.44
  -8   0   3  198.34    7.12
   8   0  -3  174.83    5.99
  -8   0   3  192.70    5.27
  -8   0   3  192.30    5.40
  -8   0   3  177.41    6.88
  -8   0   2    0.96    0.51
  -8   0   2    1.32    0.54
  -8   0   2    1.77    0.50
   8   0  -2    0.36    0.87
  -8   0   2    1.26    0.95
  -8   0   2    1.02    0.40
  -8   0   2    0.41    0.99
  -8   0   2    1.05    0.45
  -8   0   1  191.43    5.30
  -8   0   1  182.98    6.97
  -8   0   1  186.67    5.30
   8   0  -1  188.67    9.79
   8   0  -1  182.36    5.95
  -8   0   1  187.80    5.20
   8   0  -1  169.51    8.31
  -8   0   1  187.68    5.27
  -8   0   1  182.53    6.81
  -8   0   1  179.01    5.38
  -8   0   0   44.93    1.72
  -8   0   0   44.01    1.77
   8   0   0   43.26    2.30
   8   0   0   36.10    4.37
  -8   0   0   44.97    1.66
  -8   0   0   42.96    1.68
   8   0   0   44.16    3.97
  -8   0   0   44.98    1.73
  -8   0   0   42.23    2.76
  -8   0   0   44.73    1.88
  -8   0  -1    2.20    0.51
   8   0   1    4.72    2.43
   8   0   1    2.68    1.08
   8   0   1    0.43    1.59
  -8   0  -1    2.40    0.94
  -8   0  -1    2.18    0.53
  -8   0  -1    1.75    0.53
  -8   0  -1    2.54    0.98
  -8   0  -1    2.86    0.52
  -8   0  -2   23.56    1.12
  -8   0  -2   23.41    2.13
   8   0   2   24.48    1.76
   8   0   2   24.54    3.29
   8   0   2   20.26    2.85
  -8   0  -2   25.44    1.22
   8   0   2   21.91    1.20
  -8   0  -2   26.10    1.25
  -8   0  -2   21.79    1.90
  -8   0  -3   45.61    3.00
  -8   0  -3   47.54    1.84
  -8   0  -3   43.82    1.83
   8   0   3   46.28    4.02
   8   0   3   43.45    3.86
  -8   0  -4   58.90    3.41
  -8   0  -4   54.03    2.07
  -8   0  -4   58.49    2.12
   8   0   5   32.59    1.80
  -8   0  -5   36.05    1.55
  -8   0  -5   35.38    1.49
   8   0   6    8.47    0.90
   8   0   6    9.30    1.03
  -8   0  -6    9.52    0.71
   8   0   7    0.87    0.56
   8   0   7    1.42    0.65
  -8   0  -7    1.18    0.47
  -8   0  -7    0.63    0.34
   8   0   8    4.21    0.60
  -8   0  -8    4.22    0.46
  -8   0  -8    3.58    0.36
   8   0   8    3.88    0.38
   8   0   9    3.75    0.39
  -8   0  -9    3.82    0.34
   8   0   9    4.06    0.36
   8   0   9    4.36    0.34
  -8   1  14    6.52    0.41
  -8   1  14    6.16    0.36
  -8   1  13    4.49    0.50
  -8   1  13    4.60    0.47
  -8   1  12   21.62    1.09
  -8   1  12   21.49    1.05
  -8   1  11   39.30    1.65
  -8   1  11   39.33    1.60
  -8   1  10   14.74    1.04
  -8   1  10   16.16    1.03
   8   1  -9   25.20    4.31
  -8   1   9   21.68    1.26
  -8   1   9   22.76    1.21
  -8   1   8  149.58    4.41
  -8   1   8  158.42    4.64
  -8   1   8  156.84    4.61
  -8   1   7   34.66    1.46
  -8   1   7   34.08    1.60
  -8   1   7   35.64    1.58
  -8   1   6  376.37    9.95
  -8   1   6  353.73   11.46
  -8   1   6  373.17   10.01
  -8   1   5  170.69    4.88
  -8   1   5  171.18    6.42
  -8   1   5  165.86    4.90
  -8   1   5  167.13    4.91
   8   1  -4   44.68    4.62
  -8   1   4   44.64    1.75
  -8   1   4   45.62    2.84
  -8   1   4   44.23    1.76
  -8   1   4   43.11    1.76
   8   1  -3   32.41    3.92
  -8   1   3   33.15    1.48
  -8   1   3   35.67    1.41
  -8   1   3   34.99    2.50
   8   1  -3   30.89    2.03
  -8   1   3   34.20    1.50
  -8   1   3   34.82    1.50
  -8   1   2  284.77    7.62
   8   1  -2  275.36   11.97
  -8   1   2  280.65    7.56
  -8   1   2  273.39    9.46
  -8   1   2  282.49    7.48
  -8   1   2  273.71    7.61
  -8   1   2  272.81    7.64
  -8   1   1   68.89    2.37
  -8   1   1   66.43    3.64
   8   1  -1   72.71    5.56
  -8   1   1   66.82    2.23
  -8   1   1   68.63    2.28
  -8   1   1   66.66    2.37
  -8   1   1   66.85    2.42
  -8   1   0   47.65    1.94
  -8   1   0   46.56    1.82
  -8   1   0   44.15    2.92
   8   1   0   49.72    2.47
   8   1   0   49.46    4.36
  -8   1   0   47.11    1.76
   8   1   0   44.40    1.85
  -8   1   0   46.13    1.77
   8   1   0   38.08    3.88
  -8   1   0   48.35    1.87
   8   1   1    3.88    1.20
   8   1   1    3.45    0.60
  -8   1  -1    4.52    1.11
  -8   1  -1    3.12    0.57
  -8   1  -1    4.02    0.60
  -8   1  -1    3.09    0.59
  -8   1  -2   16.40    1.80
   8   1   2   20.29    1.65
  -8   1  -2   18.17    1.04
   8   1   2   18.75    1.14
  -8   1  -2   19.17    1.07
  -8   1  -2   16.59    1.11
  -8   1  -3   70.67    3.84
   8   1   3   70.66    3.02
  -8   1  -3   72.06    2.48
   8   1   3   74.25    2.61
   8   1   3   67.56    5.03
  -8   1  -4   39.16    2.65
   8   1   4   40.81    2.09
  -8   1  -4   41.65    1.71
   8   1   4   40.09    1.77
  -8   1  -4   44.09    1.73
   8   1   4   41.66    3.76
   8   1   5   39.17    1.97
  -8   1  -5   42.27    1.66
   8   1   6    5.97    0.90
  -8   1  -6    5.47    0.61
   8   1   7   24.23    1.23
   8   1   7   23.55    1.25
  -8   1  -7   24.93    1.13
  -8   1  -7   24.92    1.06
   8   1   8   16.72    0.86
   8   1   8   15.69    0.84
  -8   1  -8   16.94    0.79
   8   1   8   14.73    0.68
  -8   1  -8   14.63    0.67
   8   1   9   13.51    0.57
  -8   1  -9   15.18    0.60
  -8   2  13    0.29    0.24
  -8   2  12   60.80    1.94
  -8   2  11   19.81    1.00
  -8   2  11   19.27    0.91
  -8   2  10   18.43    1.03
  -8   2  10   17.01    0.91
  -8   2   9   50.95    1.94
  -8   2   9   50.32    1.84
  -8   2   8   62.34    2.28
  -8   2   8   64.64    2.22
  -8   2   7  121.68    3.79
  -8   2   7  122.53    3.71
  -8   2   6   49.53    3.03
  -8   2   6   51.12    1.99
  -8   2   6   51.40    1.91
   8   2  -6   54.56    5.23
  -8   2   5  268.42    9.41
  -8   2   5  285.91    7.75
  -8   2   5  278.17    7.67
   8   2  -5  300.29   12.67
   8   2  -4  262.15   11.52
  -8   2   4  255.85    9.22
  -8   2   4  272.73    7.49
  -8   2   4  274.23    7.43
  -8   2   3  218.07    8.14
   8   2  -3  207.24    6.97
  -8   2   3  230.57    6.26
  -8   2   2  104.44    4.94
   8   2  -2   92.34    3.81
  -8   2   2  100.46    3.12
   8   2  -2   96.22    3.36
  -8   2   2  104.24    3.10
  -8   2   2  103.92    3.31
  -8   2   2  106.23    3.27
  -8   2   1   91.80    2.97
   8   2  -1   91.20    3.58
  -8   2   1   85.36    2.81
   8   2  -1   84.81    3.04
  -8   2   1   89.43    2.80
  -8   2   1   87.94    2.97
  -8   2   0   35.58    2.68
   8   2   0   31.76    2.07
   8   2   0   27.22    1.70
  -8   2   0   35.02    1.46
   8   2   0   33.83    1.61
  -8   2   0   34.52    1.44
   8   2   0   31.63    3.62
  -8   2   0   34.56    1.57
  -8   2  -1  179.39    7.06
   8   2   1  189.48    6.06
   8   2   1  175.44    5.79
  -8   2  -1  186.77    5.28
   8   2   1  177.69    5.44
  -8   2  -1  183.73    5.26
   8   2   1  199.13    9.31
  -8   2  -1  186.10    5.44
   8   2   2   10.43    1.39
   8   2   2   12.34    2.48
   8   2   2    9.45    1.10
  -8   2  -2    9.76    0.82
   8   2   2   10.98    0.91
  -8   2  -2    8.31    1.34
  -8   2  -2    9.64    0.79
  -8   2  -2    9.66    0.87
  -8   2  -3   85.58    4.27
   8   2   3   95.82    3.43
   8   2   3   90.30    3.45
  -8   2  -3   89.14    2.93
   8   2   3   86.73    3.07
   8   2   4   51.76    2.28
   8   2   4   56.93    2.49
  -8   2  -4   52.96    1.98
   8   2   4   49.98    2.07
  -8   2  -4   54.44    1.99
   8   2   5   57.02    2.34
   8   2   5   66.12    2.66
   8   2   5   63.95    2.31
  -8   2  -5   63.32    2.17
   8   2   6   11.30    0.88
  -8   2  -6   13.90    0.86
  -8   2  -6   11.95    0.76
   8   2   7    3.10    0.53
   8   2   7    4.30    0.52
  -8   2  -7    4.42    0.51
  -8   2  -7    3.80    0.44
  -8   2  -8   10.71    0.57
   8   2   8   10.05    0.59
  -8   2  -8    9.04    0.47
  -8   3  10   32.25    1.26
  -8   3   9    0.36    0.44
  -8   3   8   41.87    1.65
  -8   3   7   22.81    1.17
  -8   3   7   23.03    1.21
  -8   3   6   62.75    2.29
  -8   3   6   58.31    3.39
  -8   3   6   66.71    2.32
  -8   3   5  160.58    4.61
  -8   3   5  138.84    6.10
   8   3  -5  140.83    4.75
  -8   3   5  162.93    4.62
  -8   3   4  126.41    5.68
   8   3  -4  121.42    4.20
  -8   3   4  138.97    4.06
   8   3  -3   50.98    2.60
  -8   3   3   54.65    3.46
   8   3  -3   55.98    2.35
  -8   3   3   55.53    2.01
  -8   3   3   60.81    2.19
   8   3  -2  156.21    4.82
  -8   3   2  147.75    4.43
  -8   3   2  150.77    4.35
  -8   3   2  162.36    4.61
  -8   3   1  122.24    5.59
   8   3  -1  118.87    4.33
  -8   3   1  121.08    3.72
   8   3  -1  120.41    4.01
  -8   3   1  120.75    3.63
  -8   3   1  121.68    3.82
  -8   3   0  225.24    8.28
   8   3   0  210.03    6.77
  -8   3   0  222.74    6.22
   8   3   0  222.72    6.51
  -8   3   0  222.37    6.15
   8   3   0  202.15    9.58
  -8   3  -1   34.58    2.63
   8   3   1   35.42    2.00
   8   3   1   34.46    1.87
  -8   3  -1   37.08    1.57
   8   3   1   32.77    1.67
  -8   3  -1   32.97    1.46
   8   3   1   35.91    3.61
   8   3   2    2.75    0.93
   8   3   2    2.47    1.47
   8   3   2    2.48    0.72
   8   3   2    2.31    0.67
  -8   3  -2    2.76    0.91
  -8   3  -2    3.13    0.64
  -8   3  -2    2.51    0.57
   8   3   3   87.40    3.09
   8   3   3   87.04    3.27
  -8   3  -3   92.77    2.96
   8   3   3   88.93    3.07
  -8   3  -3   90.36    2.90
   8   3   4   30.00    1.40
   8   3   4   30.17    1.65
   8   3   4   28.86    1.45
   8   3   5   29.17    1.50
  -8   3  -5   26.38    1.21
  -8   3  -5   27.34    1.19
   8   3   6   18.00    1.10
  -8   3  -6   16.45    0.87
  -8   3  -6   15.84    0.82
   8   3   7    1.48    0.33
  -8   3  -7    1.25    0.35
  -8   3  -7    1.30    0.31
  -8   3  -8   14.66    0.53
  -8   4   8   32.97    1.36
   8   4  -8   30.21    1.52
  -8   4   8   33.25    1.24
   8   4  -7   18.67    1.21
  -8   4   7   19.28    0.96
  -8   4   6   23.68    1.24
   8   4  -6   19.83    1.28
  -8   4   6   21.62    1.06
  -8   4   5   52.74    1.98
   8   4  -5   45.99    2.37
   8   4  -5   42.50    2.06
  -8   4   5   52.20    1.85
   8   4  -4    1.54    0.99
  -8   4   4    1.43    0.61
   8   4  -4    1.60    0.71
  -8   4   4    1.92    0.91
  -8   4   4    1.37    0.46
  -8   4   4    0.80    0.48
  -8   4   3   69.11    2.44
   8   4  -3   61.47    2.71
  -8   4   3   64.20    3.71
   8   4  -3   65.22    2.62
  -8   4   3   63.19    2.24
  -8   4   3   66.51    2.31
  -8   4   2    7.36    0.85
   8   4  -2    7.16    1.07
  -8   4   2    8.43    1.40
  -8   4   2    7.21    0.71
   8   4  -2    6.53    0.92
  -8   4   2    7.23    0.60
  -8   4   2    7.51    0.75
   8   4  -1  150.99    4.83
   8   4  -1  150.14    4.74
  -8   4   1  149.88    4.43
  -8   4   1  145.61    4.29
  -8   4   1  149.85    4.43
   8   4   0   55.04    2.26
  -8   4   0   54.79    2.05
  -8   4   0   52.51    1.94
   8   4   1   76.83    2.78
  -8   4  -1   75.81    2.59
  -8   4  -1   74.97    2.50
   8   4   2   54.32    2.20
  -8   4  -2   58.99    2.09
   8   4   2   57.16    2.20
  -8   4  -2   52.17    1.98
   8   4   3    5.05    0.69
  -8   4  -3    5.45    0.61
   8   4   4    1.54    0.54
  -8   4  -4    1.78    0.51
  -8   4  -5    7.11    0.50
   8   4   5    6.83    0.68
  -8   4  -5    8.55    0.61
   8   4   5    7.32    0.62
  -8   4  -5    7.75    0.57
  -8   4  -6    6.51    0.46
  -8   4  -6    5.99    0.42
   8   5  -8   10.65    0.82
  -8   5   8   12.10    0.66
   8   5  -8   10.87    0.78
  -8   5   7    4.62    0.56
   8   5  -7    3.97    0.62
  -8   5   6    4.06    0.60
   8   5  -6    3.43    0.65
  -8   5   5    5.01    0.67
   8   5  -5    4.13    0.73
  -8   5   5    5.13    0.49
  -8   5   4   31.51    1.41
   8   5  -4   30.05    1.54
  -8   5   4   29.42    1.23
  -8   5   3    6.57    0.75
   8   5  -3    5.89    0.83
  -8   5   3    6.56    0.63
   8   5  -2   29.47    1.52
  -8   5   2   30.78    1.32
  -8   5   1    0.92    0.52
   8   5  -1    0.65    0.59
  -8   5   1    0.68    0.49
  -8   5   1    0.57    0.34
  -8   5   0   51.13    1.81
   8   5   0   48.12    1.92
  -8   5   0   45.53    1.75
  -8   5   0   48.23    1.65
  -8   5  -1    3.55    0.53
  -8   5  -1    3.63    0.56
  -8   5  -1    3.28    0.47
  -8   5  -2    3.92    0.49
  -8   5  -2    3.63    0.53
  -8   5  -2    3.40    0.44
  -8   5  -3   24.36    0.95
   8   5   3   24.23    1.06
  -8   5  -3   25.10    0.99
   8   5   4   12.90    0.66
  -8   5  -4   12.93    0.64
  -8   5  -4   13.16    0.63
  -8   5  -5    0.65    0.18
  -8   5  -5    0.83    0.20
  -8   6   7    9.92    0.44
  -8   6   6    0.61    0.28
   8   6  -6    0.89    0.30
  -8   6   5    5.13    0.46
   8   6  -5    4.54    0.48
  -8   6   4    1.68    0.43
   8   6  -4    1.15    0.39
  -8   6   4    1.24    0.25
   8   6  -3    1.29    0.44
  -8   6   3    1.51    0.33
  -8   6   2    8.20    0.59
   8   6  -2    7.17    0.58
  -8   6   2    8.59    0.52
  -8   6   1    4.95    0.46
   8   6  -1    4.30    0.48
  -8   6   1    5.67    0.45
  -8   6   0    5.09    0.40
  -8   6   0    5.12    0.42
  -8   6  -1    0.14    0.17
   8   6   1    0.12    0.26
  -8   6  -1   -0.10    0.24
   8   6   2    6.18    0.33
  -9  -5   9    3.76    0.27
  -9  -5   8    4.07    0.35
  -9  -5   8    4.20    0.34
  -9  -5   7   15.15    0.71
  -9  -5   7   15.05    0.68
  -9  -5   6    8.57    0.54
  -9  -5   5    3.90    0.49
  -9  -5   5    3.56    0.39
  -9  -5   4    0.02    0.36
  -9  -5   4    0.29    0.28
  -9  -5   4    0.12    0.26
  -9  -5   3   11.23    0.66
  -9  -5   3   11.12    0.59
  -9  -5   3   12.03    0.63
  -9  -5   2    5.25    0.47
  -9  -5   2    5.63    0.47
  -9  -5   1    9.96    0.52
  -9  -5   1   11.12    0.62
  -9  -5   0    5.66    0.46
   9  -5   2    5.60    0.39
  -9  -5  -2    4.80    0.36
  -9  -5  -3    1.51    0.18
  -9  -4  11   10.72    0.50
  -9  -4  10    5.24    0.45
  -9  -4   9    1.97    0.39
  -9  -4   9    1.92    0.46
  -9  -4   8    4.69    0.55
  -9  -4   8    4.40    0.52
  -9  -4   7    2.49    0.54
  -9  -4   7    2.10    0.51
  -9  -4   6    2.80    0.62
  -9  -4   6    2.83    0.55
  -9  -4   5    2.71    0.51
  -9  -4   5    2.36    0.38
  -9  -4   4   45.08    1.72
  -9  -4   4   46.31    1.73
  -9  -4   4   44.11    1.57
  -9  -4   3   13.78    0.88
  -9  -4   3   12.50    0.83
  -9  -4   3   12.22    0.77
  -9  -4   2   18.44    0.97
  -9  -4   2   16.64    0.93
  -9  -4   2   17.93    0.93
  -9  -4   1   25.97    1.13
  -9  -4   1   26.45    1.16
  -9  -4   1   25.89    1.16
  -9  -4   0   27.46    1.10
  -9  -4   0   30.23    1.26
   9  -4   1   10.28    0.67
  -9  -4  -2   13.56    0.78
   9  -4   2   14.20    0.76
  -9  -4  -3   36.53    1.24
   9  -4   3   35.23    1.23
  -9  -4  -4    5.41    0.35
  -9  -4  -4    6.28    0.42
   9  -4   4    6.10    0.43
   9  -4   5   31.47    0.99
  -9  -3  12    5.03    0.33
  -9  -3  12    5.47    0.35
  -9  -3  11   54.68    1.75
  -9  -3  11   59.15    1.81
  -9  -3  10    1.18    0.41
  -9  -3  10    0.57    0.31
  -9  -3  10    0.60    0.39
  -9  -3  10    0.70    0.32
  -9  -3  10    0.21    0.35
  -9  -3   9   59.84    1.93
  -9  -3   9   59.71    2.03
  -9  -3   9   55.32    1.91
  -9  -3   9   55.38    1.84
  -9  -3   9   59.43    1.95
  -9  -3   8    1.01    0.45
  -9  -3   8    1.40    0.52
  -9  -3   8    1.59    0.54
  -9  -3   8    1.39    0.44
  -9  -3   7   32.52    1.38
  -9  -3   7   28.26    1.36
  -9  -3   7   28.23    1.30
  -9  -3   7   28.48    1.25
  -9  -3   6   20.29    1.15
  -9  -3   6   18.32    1.06
  -9  -3   6   20.44    0.99
  -9  -3   5   29.68    1.25
   9  -3  -4    5.29    2.46
  -9  -3   4    6.40    0.73
  -9  -3   4    6.11    0.76
  -9  -3   4    5.86    0.56
  -9  -3   4    7.72    1.30
  -9  -3   3    8.48    0.81
  -9  -3   3    8.91    0.79
   9  -3  -3    8.03    2.62
  -9  -3   3    7.72    0.66
  -9  -3   3    7.57    1.31
  -9  -3   2    7.52    0.75
  -9  -3   2    6.94    0.75
   9  -3  -2    8.56    2.55
  -9  -3   2    4.61    1.08
  -9  -3   2    6.71    0.66
  -9  -3   2    7.02    1.31
  -9  -3   1   94.67    3.02
  -9  -3   1   96.72    3.13
  -9  -3   1   98.74    3.04
  -9  -3   0   49.82    1.80
  -9  -3   0   49.17    1.89
  -9  -3   0   51.08    1.89
  -9  -3  -1   21.10    1.11
  -9  -3  -2  134.78    3.85
  -9  -3  -3    0.77    0.38
  -9  -3  -3    0.52    0.44
  -9  -3  -4    2.36    0.42
  -9  -3  -4    2.82    0.45
   9  -3   4    3.54    0.54
  -9  -3  -5   14.95    0.71
  -9  -3  -5   14.22    0.69
   9  -3   5   15.84    0.82
   9  -3   5   14.44    0.71
  -9  -3  -6    5.01    0.37
   9  -3   6    4.75    0.41
  -9  -3  -6    3.69    0.26
   9  -3   6    4.87    0.34
  -9  -2  13    0.60    0.31
  -9  -2  13    0.25    0.30
  -9  -2  12   25.99    1.05
  -9  -2  12   27.24    1.06
  -9  -2  11   29.83    1.24
  -9  -2  11   31.43    1.26
  -9  -2  10   26.09    1.07
  -9  -2  10   30.13    1.22
  -9  -2  10   29.09    1.28
  -9  -2  10   29.79    1.32
  -9  -2   9   25.60    1.13
  -9  -2   9   23.18    1.16
  -9  -2   9   26.46    1.23
  -9  -2   9   25.27    1.26
  -9  -2   8  127.64    3.79
  -9  -2   8  132.02    3.85
  -9  -2   8  120.72    3.69
  -9  -2   8  125.66    3.78
  -9  -2   8  131.33    3.89
  -9  -2   7   51.38    1.92
  -9  -2   7   50.26    1.93
   9  -2  -7   56.67    6.52
  -9  -2   7   46.91    1.82
  -9  -2   7   50.02    1.84
  -9  -2   7   53.15    1.97
  -9  -2   6  119.25    3.59
  -9  -2   6  113.26    3.60
   9  -2  -6  124.55    9.22
  -9  -2   6  114.19    3.44
  -9  -2   6  101.96    4.67
  -9  -2   6  115.93    3.59
  -9  -2   5   60.13    2.21
  -9  -2   5   60.90    2.23
   9  -2  -5   64.47    6.55
  -9  -2   5   57.89    3.28
  -9  -2   5   58.78    2.18
  -9  -2   4    4.84    0.63
  -9  -2   4    3.74    0.63
  -9  -2   4    3.12    0.46
   9  -2  -4    5.34    2.88
  -9  -2   4    3.67    1.09
  -9  -2   3    3.94    0.61
  -9  -2   3    3.45    0.66
  -9  -2   3    3.36    0.65
  -9  -2   3    3.23    0.96
  -9  -2   3    3.10    0.50
  -9  -2   3    3.60    1.10
   9  -2  -3    3.12    2.63
  -9  -2   2  104.72    3.20
  -9  -2   2   94.27    4.55
  -9  -2   2   98.23    3.09
  -9  -2   2   98.01    4.63
  -9  -2   2   96.76    3.13
  -9  -2   1   50.24    1.86
  -9  -2   1   46.14    1.81
  -9  -2   1   47.74    3.09
  -9  -2   1   47.69    1.93
   9  -2  -1   44.83    2.09
   9  -2  -1   48.46    5.08
  -9  -2   1   48.50    1.82
  -9  -2   0  130.29    3.89
  -9  -2   0  119.32    5.52
  -9  -2   0  136.55    4.09
   9  -2   0  132.53    4.29
   9  -2   0  124.25    7.75
  -9  -2   0  132.93    3.97
  -9  -2   0  134.67    5.56
  -9  -2  -1   20.57    1.01
  -9  -2  -1   19.30    1.97
   9  -2   1   21.31    1.34
  -9  -2  -1   22.31    1.06
   9  -2   1   21.99    3.24
  -9  -2  -1   22.41    1.14
  -9  -2  -1   23.15    2.02
   9  -2   2   18.79    1.24
  -9  -2  -2   17.04    0.96
   9  -2   3   21.73    1.28
  -9  -2  -3   21.47    1.08
  -9  -2  -3   23.16    1.13
   9  -2   4    5.43    0.54
   9  -2   4    5.06    0.72
  -9  -2  -4    5.30    0.58
  -9  -2  -4    5.18    0.61
   9  -2   5    2.64    0.39
   9  -2   5    2.22    0.55
  -9  -2  -5    3.26    0.50
  -9  -2  -5    3.36    0.46
   9  -2   6    3.61    0.37
   9  -2   6    3.74    0.48
  -9  -2  -6    4.06    0.44
  -9  -2  -6    4.10    0.39
   9  -2   6    4.36    0.50
   9  -2   7    1.80    0.31
   9  -2   7    1.56    0.19
   9  -2   7    1.80    0.30
  -9  -2  -7    1.61    0.29
   9  -2   7    2.19    0.29
  -9  -1  14    6.91    0.41
  -9  -1  13    1.05    0.42
  -9  -1  12   16.25    0.92
  -9  -1  11    3.74    0.66
  -9  -1  10   59.03    1.98
  -9  -1  10   62.37    2.18
  -9  -1   9    4.34    0.75
  -9  -1   9    3.74    0.53
  -9  -1   9    3.88    0.52
  -9  -1   9    4.16    0.69
  -9  -1   8    1.35    0.65
  -9  -1   8    1.02    0.51
  -9  -1   8    1.51    0.46
   9  -1  -8    2.00    3.19
  -9  -1   8    1.80    0.61
  -9  -1   7  139.40    4.07
  -9  -1   7  131.91    4.02
   9  -1  -7  123.19    4.83
  -9  -1   7  136.39    4.08
  -9  -1   7  137.13    4.15
  -9  -1   6   39.21    1.61
  -9  -1   6   38.50    1.57
   9  -1  -6   34.44    2.14
  -9  -1   6   36.07    1.57
  -9  -1   6   38.39    1.67
  -9  -1   6   33.04    2.46
  -9  -1   5   26.52    1.31
  -9  -1   5   25.67    1.26
   9  -1  -5   24.04    1.76
   9  -1  -5   29.33    4.77
  -9  -1   5   26.65    1.25
  -9  -1   5   23.88    2.15
  -9  -1   5   26.35    1.35
  -9  -1   4   20.06    1.13
  -9  -1   4   18.69    1.81
   9  -1  -4   19.62    1.64
   9  -1  -4   21.51    3.96
  -9  -1   4   19.82    1.04
  -9  -1   4   19.54    2.00
  -9  -1   4   21.56    1.18
  -9  -1   3   39.20    1.64
  -9  -1   3   37.63    1.60
  -9  -1   3   34.85    2.55
   9  -1  -3   42.08    5.07
   9  -1  -3   35.85    2.13
  -9  -1   3   36.51    1.45
   9  -1  -3   35.92    3.47
  -9  -1   3   36.44    1.47
  -9  -1   3   39.72    2.77
  -9  -1   3   36.58    1.64
  -9  -1   2   49.46    1.87
  -9  -1   2   44.76    3.01
  -9  -1   2   44.06    1.84
   9  -1  -2   50.75    2.49
   9  -1  -2   43.83    4.99
  -9  -1   2   46.69    1.75
   9  -1  -2   45.95    3.99
  -9  -1   2   45.72    1.88
   9  -1  -1   11.97    2.96
  -9  -1   1   11.74    0.86
  -9  -1   1   11.05    0.86
   9  -1  -1   12.75    1.38
   9  -1  -1   12.43    2.25
  -9  -1   1    9.89    1.47
  -9  -1   1   12.07    0.85
  -9  -1   1   10.68    1.60
  -9  -1   1   11.31    0.90
  -9  -1   0    1.56    0.48
   9  -1   0    2.67    2.13
   9  -1   0    1.51    0.88
   9  -1   0    0.81    1.29
  -9  -1   0    1.21    0.86
  -9  -1   0    1.27    0.41
  -9  -1   0    1.42    0.50
  -9  -1   0    2.95    1.00
  -9  -1  -1   48.41    1.79
   9  -1   1   48.08    2.33
  -9  -1  -1   50.91    1.85
  -9  -1  -1   52.91    1.93
   9  -1   1   41.82    4.39
   9  -1   1   50.63    4.02
  -9  -1  -1   49.40    3.03
   9  -1   2    6.97    1.03
  -9  -1  -2    5.78    0.66
   9  -1   2    5.37    1.54
  -9  -1  -2    6.47    1.28
   9  -1   2    6.82    2.12
  -9  -1  -2    5.96    0.72
  -9  -1  -2    6.06    1.18
   9  -1   3   92.81    3.34
  -9  -1  -3   95.99    2.99
  -9  -1  -3   93.24    3.03
   9  -1   4   29.97    1.41
   9  -1   4   30.31    1.60
  -9  -1  -4   31.74    1.37
  -9  -1  -4   30.93    1.34
   9  -1   5    5.15    0.61
   9  -1   5    4.61    0.76
  -9  -1  -5    5.13    0.60
  -9  -1  -5    5.01    0.55
   9  -1   6    5.26    0.54
   9  -1   6    4.88    0.66
  -9  -1  -6    5.72    0.54
  -9  -1  -6    5.64    0.48
   9  -1   7    1.10    0.30
   9  -1   7    1.14    0.40
  -9  -1  -7    1.10    0.33
  -9  -1  -7    0.95    0.23
   9  -1   7    0.76    0.29
   9  -1   8    2.31    0.29
   9  -1   8    2.52    0.22
   9  -1   8    2.91    0.29
   9  -1   8    2.43    0.26
  -9   0  14    7.58    0.43
  -9   0  14    7.78    0.41
  -9   0  13    1.10    0.40
  -9   0  13    1.42    0.39
  -9   0  12   22.59    1.09
  -9   0  12   24.43    1.10
  -9   0  11    5.72    0.72
  -9   0  10   18.87    1.12
  -9   0   9   18.62    0.96
   9   0  -9   22.95    5.35
  -9   0   9   20.10    1.18
  -9   0   9   19.62    1.17
  -9   0   8   -0.02    0.63
  -9   0   8    0.27    0.46
   9   0  -8   -0.74    3.12
  -9   0   8    0.02    0.61
  -9   0   7   27.57    1.33
  -9   0   7   26.79    1.20
   9   0  -7   32.68    5.44
  -9   0   7   28.60    1.41
  -9   0   7   29.03    1.45
   9   0  -6   59.80    6.58
  -9   0   6   55.74    2.02
  -9   0   6   54.30    1.93
   9   0  -6   49.21    2.86
  -9   0   6   55.48    2.06
  -9   0   6   51.58    2.08
  -9   0   5   22.96    1.23
  -9   0   5   23.91    1.15
  -9   0   5   21.35    1.90
   9   0  -5   22.85    1.90
   9   0  -5   24.28    4.21
  -9   0   5   22.22    1.20
  -9   0   4   65.90    2.31
   9   0  -4   67.94    6.29
  -9   0   4   66.70    2.27
  -9   0   4   60.27    3.43
   9   0  -4   59.39    2.99
  -9   0   4   64.12    2.28
  -9   0   4   67.74    3.74
  -9   0   3    6.02    0.77
  -9   0   3    6.65    0.68
   9   0  -3    5.58    1.15
  -9   0   3    6.89    1.31
  -9   0   3    6.43    0.59
   9   0  -3    7.14    2.85
  -9   0   3    6.20    0.68
  -9   0   2   83.55    2.72
  -9   0   2   82.47    2.69
  -9   0   2   72.55    4.00
   9   0  -2   83.27    6.67
   9   0  -2   75.28    3.34
  -9   0   2   79.67    2.57
   9   0  -2   68.24    5.12
  -9   0   2   80.86    2.64
  -9   0   2   75.80    4.02
  -9   0   2   77.19    2.75
  -9   0   1   42.98    1.78
  -9   0   1   41.81    2.93
   9   0  -1   49.49    2.51
   9   0  -1   51.92    5.07
  -9   0   1   43.54    1.70
   9   0  -1   43.32    4.07
  -9   0   1   45.58    1.73
  -9   0   1   43.82    2.88
  -9   0   1   45.09    1.88
  -9   0   0  190.77    5.39
   9   0   0  189.81    6.19
   9   0   0  188.74    9.56
  -9   0   0  182.65    5.28
  -9   0   0  194.89    5.41
   9   0   0  187.92    9.02
  -9   0   0  192.86    5.36
  -9   0   0  177.77    6.90
  -9   0  -1   25.56    1.19
  -9   0  -1   21.94    2.10
   9   0   1   20.44    3.00
   9   0   1   24.16    1.75
  -9   0  -1   23.64    1.16
  -9   0  -1   26.50    1.27
   9   0   1   25.95    3.10
  -9   0  -1   19.42    1.92
  -9   0  -2   36.37    2.70
   9   0   2   39.52    2.11
  -9   0  -2   40.90    1.61
  -9   0  -2   38.68    1.65
   9   0   2   38.45    3.60
  -9   0  -3  133.82    3.99
  -9   0  -4   54.24    1.97
  -9   0  -4   55.16    1.99
   9   0   5   14.53    0.99
  -9   0  -5   15.24    0.92
  -9   0  -5   14.73    0.84
   9   0   6    0.69    0.46
   9   0   6    0.53    0.56
  -9   0  -6    0.46    0.41
  -9   0  -6    0.56    0.33
   9   0   7   20.30    0.90
   9   0   7   18.76    0.93
  -9   0  -7   18.70    0.76
   9   0   7   18.23    0.77
   9   0   8   19.55    0.71
   9   0   8   19.84    0.73
  -9   0  -8   18.33    0.68
   9   0   8   17.82    0.66
  -9   1  13    1.17    0.27
  -9   1  13    1.11    0.33
  -9   1  12   14.67    0.80
  -9   1  12   13.91    0.77
  -9   1  11    4.69    0.60
  -9   1  11    5.33    0.64
  -9   1  10   64.22    2.20
  -9   1  10   56.83    2.10
  -9   1   9    4.28    0.66
  -9   1   9    4.21    0.68
  -9   1   8    3.07    0.65
   9   1  -8    0.95    2.80
  -9   1   7  133.72    3.98
  -9   1   7  129.48    4.04
  -9   1   6   38.72    1.62
   9   1  -6   43.09    5.64
  -9   1   6   38.73    1.66
  -9   1   6   37.56    1.65
  -9   1   5   27.52    1.33
  -9   1   5   27.68    2.27
  -9   1   5   24.04    1.31
  -9   1   5   26.21    1.32
  -9   1   4   21.78    1.18
  -9   1   4   22.76    2.07
   9   1  -4   20.05    1.83
   9   1  -4   20.47    3.70
  -9   1   4   19.38    1.16
  -9   1   4   20.92    1.18
   9   1  -3   36.11    4.35
  -9   1   3   31.32    2.52
   9   1  -3   36.25    2.26
  -9   1   3   36.05    1.39
  -9   1   3   36.37    1.58
  -9   1   3   36.24    1.59
  -9   1   2   49.27    1.93
  -9   1   2   46.60    3.07
   9   1  -2   51.38    4.85
  -9   1   2   46.92    1.74
  -9   1   2   46.83    1.87
  -9   1   2   47.62    1.93
  -9   1   1   11.67    0.93
  -9   1   1   11.08    0.92
   9   1  -1    9.07    2.34
  -9   1   1   10.59    0.76
  -9   1   1   10.83    1.56
  -9   1   1   11.74    0.80
  -9   1   1   12.09    0.87
   9   1   0    1.99    1.21
   9   1   0    2.90    1.69
   9   1   0    1.78    0.51
  -9   1   0    0.65    0.74
  -9   1   0    2.04    0.52
  -9   1   0    1.76    0.49
  -9   1   0    2.05    0.52
  -9   1  -1   52.07    3.25
   9   1   1   54.69    2.67
  -9   1  -1   52.17    1.93
   9   1   1   47.63    1.99
  -9   1  -1   52.87    1.97
   9   1   1   53.61    4.53
  -9   1  -1   52.87    1.99
   9   1   2    7.77    1.22
  -9   1  -2    6.99    0.70
   9   1   2    7.05    0.71
  -9   1  -2    5.02    1.18
  -9   1  -2    6.27    0.70
   9   1   3   98.82    3.57
  -9   1  -3   97.90    3.06
   9   1   3   92.45    3.13
  -9   1  -4   31.36    1.38
  -9   1  -4   34.04    1.41
   9   1   5    5.53    0.84
  -9   1  -5    5.38    0.62
  -9   1  -5    6.09    0.59
   9   1   6    5.03    0.67
  -9   1  -6    4.55    0.48
   9   1   7    1.16    0.40
  -9   1  -7    1.07    0.34
  -9   1  -7    1.19    0.26
   9   1   8    2.73    0.27
  -9   1  -8    2.54    0.24
  -9   2  13    0.53    0.16
  -9   2  12   25.91    0.99
  -9   2  11   27.70    1.15
  -9   2  10   31.39    1.32
  -9   2  10   28.90    1.17
  -9   2   9   26.55    1.27
  -9   2   9   26.03    1.15
  -9   2   8  131.09    3.91
  -9   2   8  127.69    3.80
  -9   2   7   52.20    1.97
  -9   2   7   48.77    1.85
  -9   2   6  107.22    4.94
  -9   2   6  118.26    3.64
  -9   2   6  114.74    3.54
  -9   2   5   60.20    3.53
  -9   2   5   59.72    2.26
  -9   2   5   62.58    2.22
  -9   2   4    4.12    0.66
   9   2  -4    3.39    1.30
  -9   2   4    3.57    1.06
  -9   2   3    2.69    0.60
   9   2  -3    4.58    1.31
  -9   2   3    4.36    1.12
  -9   2   3    4.27    0.69
  -9   2   2  102.42    3.26
  -9   2   2   99.88    4.91
   9   2  -2   97.80    3.93
  -9   2   2   97.02    3.06
   9   2  -2   94.29    3.33
  -9   2   2  101.71    3.07
  -9   2   2  105.78    3.28
   9   2  -1   49.85    2.59
  -9   2   1   47.42    1.79
   9   2  -1   43.53    1.93
  -9   2   1   47.95    1.76
   9   2  -1   47.86    4.37
  -9   2   1   48.17    1.92
  -9   2   0  124.30    5.67
   9   2   0  139.27    4.77
  -9   2   0  131.22    3.94
   9   2   0  123.38    4.10
  -9   2   0  129.04    3.90
   9   2   0  136.52    7.50
  -9   2   0  136.76    4.05
  -9   2  -1   21.24    2.07
   9   2   1   24.33    1.79
   9   2   1   21.03    2.94
  -9   2  -1   22.99    1.18
   9   2   1   21.05    1.24
  -9   2  -1   22.89    1.16
  -9   2  -1   22.58    1.22
   9   2   2   15.46    1.41
  -9   2  -2   16.90    1.01
   9   2   2   15.84    1.07
  -9   2  -2   18.18    1.02
   9   2   3   22.20    1.45
  -9   2  -3   22.85    1.14
   9   2   3   22.21    1.22
  -9   2  -3   22.92    1.17
   9   2   4    4.20    0.75
  -9   2  -4    5.43    0.64
   9   2   4    5.99    0.70
   9   2   5    1.99    0.57
  -9   2  -5    3.53    0.49
   9   2   6    4.36    0.54
   9   2   6    3.69    0.47
  -9   2  -6    4.56    0.44
   9   2   7    2.03    0.31
  -9   2  -7    2.13    0.32
  -9   2  -7    1.89    0.25
  -9   3  11   58.11    1.72
  -9   3  10    0.18    0.35
  -9   3   9   55.33    1.88
  -9   3   8    0.98    0.51
  -9   3   7   29.41    1.26
  -9   3   7   28.51    1.32
  -9   3   6   19.95    1.05
  -9   3   6   19.16    1.12
  -9   3   5   28.69    1.39
   9   3  -5   28.15    2.10
  -9   3   5   32.01    1.45
  -9   3   4    6.55    0.76
   9   3  -4    5.43    1.34
   9   3  -4    5.63    0.77
  -9   3   4    7.28    1.35
  -9   3   4    7.50    0.79
   9   3  -3    8.35    1.39
   9   3  -3    7.63    0.88
  -9   3   3    8.63    0.67
  -9   3   3    6.80    1.29
  -9   3   3    9.61    0.82
   9   3  -2    6.03    1.18
   9   3  -2    7.19    2.10
   9   3  -2    7.24    0.86
  -9   3   2    7.48    0.67
  -9   3   2    7.48    0.61
  -9   3   2    7.44    0.79
  -9   3   1   94.23    2.99
   9   3  -1   88.24    3.23
  -9   3   1   92.75    2.91
   9   3   0   49.96    2.39
  -9   3   0   49.77    1.88
   9   3   0   49.87    2.08
  -9   3   0   48.85    1.82
  -9   3   0   49.18    1.93
   9   3   1   21.07    1.50
  -9   3  -1   20.13    1.10
   9   3   1   20.76    1.26
  -9   3  -1   21.03    1.08
   9   3   2  143.19    4.52
  -9   3  -2  153.54    4.33
   9   3   2  146.31    4.47
  -9   3  -2  147.48    4.28
   9   3   3    1.22    0.56
   9   3   3    0.38    0.52
  -9   3  -3    0.67    0.47
  -9   3  -3    0.78    0.46
   9   3   4    2.83    0.49
   9   3   4    3.05    0.55
  -9   3  -4    3.79    0.53
  -9   3  -5   14.17    0.73
   9   3   6    5.22    0.41
  -9   3  -6    6.17    0.44
  -9   3  -6    5.33    0.38
   9   4 -11   15.19    1.16
   9   4 -10    4.82    1.04
   9   4  -9    2.56    1.10
   9   4  -8    5.98    1.24
  -9   4   8    4.49    0.42
   9   4  -7    2.33    1.04
  -9   4   7    3.50    0.51
  -9   4   7    3.18    0.43
   9   4  -6    2.94    1.04
  -9   4   6    3.10    0.56
   9   4  -6    2.59    0.56
  -9   4   6    2.94    0.49
   9   4  -5    2.63    1.03
  -9   4   5    3.17    0.60
   9   4  -5    2.31    0.58
  -9   4   5    2.66    0.51
  -9   4   4   47.31    1.82
   9   4  -4   45.71    2.19
  -9   4   4   48.42    1.75
  -9   4   3   15.27    1.00
   9   4  -3   14.17    1.30
   9   4  -3   14.27    1.08
  -9   4   3   14.26    0.82
  -9   4   3   13.74    0.89
  -9   4   2   19.84    1.12
   9   4  -2   18.91    1.37
   9   4  -2   16.88    1.15
  -9   4   2   18.63    0.97
  -9   4   2   17.58    0.84
  -9   4   2   17.74    1.00
  -9   4   1   25.54    1.31
   9   4  -1   28.06    1.51
   9   4  -1   27.75    1.44
  -9   4   1   27.75    1.21
  -9   4   1   26.20    1.11
   9   4   0   28.14    1.43
  -9   4   0   28.80    1.27
  -9   4   0   29.33    1.20
   9   4   1   11.84    0.90
  -9   4  -1   12.01    0.80
  -9   4  -1   11.63    0.72
  -9   4  -2   17.54    0.90
   9   4   2   15.30    0.95
  -9   4  -2   15.70    0.82
  -9   4  -3   38.77    1.38
  -9   4  -3   37.96    1.37
   9   4   3   35.92    1.43
  -9   4  -3   38.22    1.35
  -9   4  -4    6.74    0.45
   9   4   4    6.81    0.51
  -9   4  -5   34.42    1.11
  -9   4  -5   34.60    1.09
  -9   5   7   14.51    0.66
  -9   5   6   10.35    0.65
   9   5  -6    8.94    0.64
  -9   5   5    3.91    0.53
   9   5  -5    3.14    0.49
  -9   5   4    0.62    0.47
   9   5  -4    0.48    0.43
  -9   5   3   12.64    0.78
   9   5  -3   11.08    0.82
  -9   5   3   12.14    0.65
   9   5  -2    5.69    0.64
  -9   5   2    5.62    0.49
  -9   5   1   12.23    0.74
   9   5  -1   11.95    0.78
  -9   5   1   12.56    0.68
  -9   5   1   11.05    0.53
  -9   5   0    6.30    0.55
   9   5   0    5.93    0.59
  -9   5   0    6.92    0.53
  -9   5   0    6.58    0.43
  -9   5  -1    0.93    0.34
   9   5   1    1.01    0.35
  -9   5  -1    1.27    0.34
  -9   5  -1    0.84    0.25
  -9   5  -2    5.28    0.38
   9   5   2    6.09    0.45
  -9   5  -2    5.70    0.42
  -9   5  -2    6.03    0.37
  -9   5  -3    1.83    0.20
 -10  -5   7    0.86    0.17
 -10  -5   6    1.13    0.17
 -10  -5   5    6.65    0.40
 -10  -5   5    6.05    0.33
 -10  -5   4    2.86    0.30
 -10  -5   3    5.80    0.34
 -10  -5   3    5.14    0.29
 -10  -5   2   15.24    0.57
 -10  -5   1    8.84    0.40
  10  -5   0    2.26    0.26
 -10  -5   0    2.16    0.20
 -10  -4  10   10.14    0.43
 -10  -4   9    0.84    0.23
 -10  -4   9    0.33    0.24
 -10  -4   8   16.71    0.75
 -10  -4   7   12.74    0.70
 -10  -4   7   11.69    0.69
 -10  -4   6    6.33    0.60
 -10  -4   6    6.03    0.53
 -10  -4   5    3.56    0.51
 -10  -4   5    4.19    0.51
 -10  -4   4    1.35    0.44
 -10  -4   4    1.30    0.38
 -10  -4   4    0.85    0.28
 -10  -4   3    1.98    0.44
 -10  -4   3    2.09    0.40
 -10  -4   3    1.30    0.33
 -10  -4   2    7.86    0.57
 -10  -4   2    7.38    0.55
 -10  -4   2    7.92    0.55
 -10  -4   1    1.18    0.30
 -10  -4   1    1.05    0.35
 -10  -4   0    7.15    0.51
 -10  -4  -1    1.28    0.32
 -10  -4  -2    0.80    0.28
 -10  -4  -3    1.09    0.19
 -10  -3  11   14.62    0.58
 -10  -3  10    7.71    0.49
 -10  -3  10    7.51    0.44
 -10  -3   9   64.75    1.98
 -10  -3   9   66.51    2.04
 -10  -3   9   62.02    1.93
 -10  -3   8    1.02    0.33
 -10  -3   8    1.09    0.44
 -10  -3   8    0.96    0.42
 -10  -3   7   16.43    0.92
 -10  -3   7   15.05    0.89
 -10  -3   7   14.93    0.77
 -10  -3   6    6.73    0.70
 -10  -3   6    6.76    0.67
 -10  -3   6    6.69    0.54
 -10  -3   5    1.32    0.38
 -10  -3   4   33.25    1.39
 -10  -3   4   30.67    1.39
 -10  -3   4   29.63    1.17
 -10  -3   3   47.29    1.74
 -10  -3   3   50.13    1.82
 -10  -3   3   43.83    1.61
 -10  -3   2   14.88    0.87
 -10  -3   2   16.83    0.97
 -10  -3   2   14.74    0.83
 -10  -3   1    3.02    0.49
 -10  -3   1    3.20    0.50
 -10  -3   0   12.50    0.69
 -10  -3   0   12.61    0.78
 -10  -3  -1    3.58    0.50
  10  -3   2   20.74    0.98
 -10  -3  -3    2.67    0.27
 -10  -3  -3    3.39    0.42
  10  -3   3    3.46    0.44
 -10  -3  -4    4.08    0.35
  10  -3   4    4.52    0.39
  10  -3   5    2.07    0.21
 -10  -2  12    8.77    0.46
 -10  -2  12    9.64    0.52
 -10  -2  11   23.06    0.86
 -10  -2  11   25.18    0.96
 -10  -2  10    8.38    0.51
 -10  -2  10    9.68    0.59
 -10  -2  10   10.06    0.62
 -10  -2  10    9.87    0.69
 -10  -2   9    6.63    0.57
 -10  -2   9    6.97    0.57
 -10  -2   9    7.15    0.58
 -10  -2   9    7.49    0.67
 -10  -2   8    8.89    0.71
 -10  -2   8    8.55    0.68
 -10  -2   8    8.55    0.62
 -10  -2   8    8.52    0.75
 -10  -2   7    7.43    0.73
 -10  -2   7    5.95    0.66
 -10  -2   7    6.12    0.55
 -10  -2   7    7.00    0.69
 -10  -2   6    8.11    0.77
 -10  -2   6    8.11    0.76
 -10  -2   6    8.29    0.74
 -10  -2   5   13.72    0.94
 -10  -2   5   13.26    0.89
 -10  -2   4   66.52    2.32
 -10  -2   4   64.95    2.33
 -10  -2   4   63.82    2.09
 -10  -2   4   65.70    2.27
 -10  -2   3    0.68    0.47
 -10  -2   3    1.40    0.58
 -10  -2   3    0.86    0.55
 -10  -2   3    0.94    0.40
 -10  -2   2   12.71    0.89
 -10  -2   2   12.24    0.81
 -10  -2   1    6.30    0.65
 -10  -2   1    6.45    0.73
  10  -2  -1    5.76    0.76
 -10  -2   1    5.71    0.63
 -10  -2   0    7.13    0.62
  10  -2   0    6.93    0.80
 -10  -2   0    6.63    0.65
  10  -2   1    9.60    0.85
 -10  -2  -1   10.47    0.76
  10  -2   2   14.02    0.93
 -10  -2  -2   12.64    0.68
  10  -2   3   39.78    1.56
 -10  -2  -3   40.30    1.40
 -10  -2  -3   41.88    1.50
  10  -2   4    1.77    0.45
 -10  -2  -4    1.58    0.33
 -10  -2  -4    1.82    0.36
  10  -2   5   18.02    0.75
 -10  -2  -5   19.60    0.73
 -10  -2  -5   18.77    0.73
  10  -2   5   17.66    0.81
  10  -2   6    2.52    0.28
  10  -2   6    3.13    0.24
 -10  -1  13    0.37    0.23
 -10  -1  12   17.51    0.80
 -10  -1  11   12.21    0.74
 -10  -1  10   13.85    0.84
 -10  -1  10   12.12    0.89
 -10  -1   9   12.98    0.76
 -10  -1   9   11.80    0.70
 -10  -1   9   12.44    0.83
 -10  -1   9   12.56    0.91
 -10  -1   8    0.63    0.57
 -10  -1   8    0.28    0.49
 -10  -1   8    0.90    0.39
 -10  -1   8    1.04    0.53
 -10  -1   7   18.78    1.08
 -10  -1   7   17.71    0.98
 -10  -1   7   17.69    1.03
 -10  -1   7   18.64    1.14
 -10  -1   6   53.91    2.03
 -10  -1   6   54.39    2.00
 -10  -1   6   52.19    1.93
 -10  -1   6   54.83    2.09
 -10  -1   5  134.09    3.87
 -10  -1   5  123.62    3.80
  10  -1  -5  132.94    4.73
 -10  -1   5  122.60    3.71
 -10  -1   5  115.72    5.22
 -10  -1   5  121.32    3.89
 -10  -1   4  142.42    4.26
 -10  -1   4  121.90    5.44
  10  -1  -4  170.22   10.31
  10  -1  -4  152.88    5.11
 -10  -1   4  142.06    4.12
 -10  -1   4  139.85    5.85
 -10  -1   4  144.31    4.32
  10  -1  -3    3.54    2.61
 -10  -1   3    3.53    0.66
 -10  -1   3    3.10    0.63
 -10  -1   3    3.20    0.59
  10  -1  -3    3.66    1.09
 -10  -1   3    2.88    0.93
 -10  -1   3    3.01    0.49
 -10  -1   3    2.00    0.99
 -10  -1   2   45.98    1.81
 -10  -1   2   45.03    1.85
 -10  -1   2   45.24    2.98
  10  -1  -2   50.82    2.44
  10  -1  -2   45.95    4.94
 -10  -1   2   46.04    1.72
 -10  -1   2   42.56    2.90
 -10  -1   2   46.07    1.87
 -10  -1   1   25.89    1.23
 -10  -1   1   23.18    2.10
  10  -1  -1   26.09    1.72
 -10  -1   1   24.39    1.19
 -10  -1   1   22.10    2.06
 -10  -1   0    9.56    0.73
  10  -1   0    9.83    1.13
 -10  -1   0   10.35    0.79
 -10  -1  -1    5.73    0.55
  10  -1   1    6.59    1.00
 -10  -1  -1    7.05    0.57
 -10  -1  -1    6.45    0.69
  10  -1   2    6.69    0.65
  10  -1   2    6.30    0.87
 -10  -1  -2    7.01    0.59
 -10  -1  -2    7.58    0.69
  10  -1   3   17.62    0.93
  10  -1   3   18.67    1.16
 -10  -1  -3   19.11    0.92
  10  -1   4    5.56    0.52
  10  -1   4    5.00    0.68
 -10  -1  -4    5.76    0.52
 -10  -1  -4    5.90    0.53
  10  -1   5    2.46    0.34
  10  -1   5    2.43    0.49
 -10  -1  -5    3.15    0.39
 -10  -1  -5    2.21    0.34
  10  -1   6    7.73    0.39
  10  -1   6    8.98    0.53
 -10  -1  -6    9.63    0.46
 -10  -1  -6    7.74    0.39
  10  -1   6    9.51    0.47
 -10   0  13    0.81    0.24
 -10   0  13    0.58    0.26
 -10   0  12    2.49    0.43
 -10   0  11    1.54    0.46
  10   0 -11    1.40    1.02
 -10   0  10   -0.22    0.54
  10   0 -10    0.71    1.34
 -10   0  10    0.64    0.52
 -10   0   9   10.42    0.70
  10   0  -9   14.84    1.98
 -10   0   9   13.20    0.89
 -10   0   9   11.38    0.90
 -10   0   8   11.11    0.80
  10   0  -8   13.02    1.95
 -10   0   8   10.67    0.86
 -10   0   8   11.83    0.94
 -10   0   7  115.49    3.44
 -10   0   7  104.82    3.24
  10   0  -7  118.69    4.79
 -10   0   7  112.43    3.46
 -10   0   7  111.03    3.50
 -10   0   6   71.66    2.46
 -10   0   6   68.38    2.33
  10   0  -6   74.47    3.58
 -10   0   6   73.37    2.46
 -10   0   5    7.24    0.80
 -10   0   5    8.30    0.67
  10   0  -5    8.34    1.46
  10   0  -5    8.93    3.55
 -10   0   5    8.27    0.79
 -10   0   4    7.12    0.67
  10   0  -4    8.01    1.45
  10   0  -4    6.52    2.16
 -10   0   4    6.91    1.24
 -10   0   4    6.68    0.70
  10   0  -4    9.78    3.44
 -10   0   3   20.67    1.17
 -10   0   3   19.72    1.09
 -10   0   3   19.33    1.95
  10   0  -3   22.83    1.90
  10   0  -3   17.80    2.85
 -10   0   3   19.21    0.95
 -10   0   3   19.37    1.06
  10   0  -3   21.82    3.90
 -10   0   3   17.94    1.14
 -10   0   2   13.29    0.96
  10   0  -2   15.44    1.64
  10   0  -2   12.16    2.45
 -10   0   2   11.76    1.57
 -10   0   2   13.84    0.84
 -10   0   2   13.28    0.84
 -10   0   2   12.47    0.98
 -10   0   1    0.90    0.53
  10   0  -1    1.42    1.91
  10   0  -1    2.18    1.11
  10   0  -1    0.61    1.43
 -10   0   1    1.75    0.88
 -10   0   1    1.20    0.48
 -10   0   1    0.73    0.38
  10   0   0   24.42    1.74
 -10   0   0   23.42    1.07
 -10   0   0   24.20    1.17
  10   0   1    0.19    0.85
 -10   0  -1   -0.01    0.39
 -10   0  -1   -0.21    0.47
  10   0   2   32.31    1.77
 -10   0  -2   31.88    1.32
 -10   0  -2   32.60    1.38
  10   0   3   12.26    1.08
 -10   0  -3   13.18    0.80
  10   0   4   14.26    0.88
 -10   0  -4   15.22    0.82
 -10   0  -4   16.37    0.84
  10   0   5    0.16    0.34
 -10   0  -5   -0.20    0.34
 -10   0  -5   -0.25    0.30
  10   0   6    3.20    0.33
  10   0   6    3.26    0.41
 -10   0  -6    2.88    0.33
 -10   0  -6    2.79    0.28
  10   0   6    2.74    0.28
 -10   1  13    0.06    0.19
 -10   1  12   17.61    0.80
 -10   1  12   17.62    0.72
 -10   1  11   11.85    0.74
 -10   1  11   12.50    0.70
 -10   1  10   14.66    0.89
 -10   1  10   14.19    0.82
 -10   1   9   13.62    0.85
 -10   1   8    0.77    0.52
  10   1  -8   -0.17    1.54
  10   1  -7   19.62    2.23
 -10   1   7   19.63    1.13
 -10   1   7   19.46    1.11
  10   1  -6   58.55    3.22
 -10   1   6   54.09    2.08
 -10   1   6   55.71    2.08
 -10   1   5  129.41    3.89
  10   1  -5  133.90    5.17
 -10   1   5  126.22    3.89
 -10   1   5  126.01    3.91
 -10   1   4  147.49    4.36
 -10   1   4  135.37    5.94
 -10   1   4  141.71    4.35
 -10   1   4  146.40    4.40
 -10   1   3    2.95    0.66
  10   1  -3    3.09    1.36
  10   1  -3    1.79    1.82
 -10   1   3    2.94    1.03
 -10   1   3    2.81    0.44
 -10   1   3    3.41    0.59
 -10   1   2   47.84    1.87
 -10   1   2   44.75    2.98
 -10   1   2   42.71    1.62
  10   1  -2   46.08    4.28
 -10   1   2   43.03    1.74
 -10   1   1   24.05    2.17
  10   1  -1   22.77    3.10
 -10   1   1   24.40    1.09
 -10   1   1   25.21    1.15
 -10   1   1   24.81    1.22
 -10   1   0    8.89    0.70
 -10   1   0   10.62    0.77
 -10   1   0   11.06    0.78
  10   1   1    6.55    1.18
 -10   1  -1    6.08    0.62
 -10   1  -1    6.49    0.64
  10   1   2    8.55    1.13
 -10   1  -2    7.44    0.66
 -10   1  -2    6.96    0.67
  10   1   3   20.04    1.29
 -10   1  -3   19.34    0.97
 -10   1  -3   19.41    1.00
  10   1   4    6.41    0.77
 -10   1  -4    5.77    0.56
 -10   1  -4    4.75    0.54
  10   1   5    2.59    0.45
  10   1   5    3.54    0.55
 -10   1  -5    2.77    0.41
 -10   1  -5    2.25    0.36
  10   1   6    9.44    0.52
  10   1   6    8.90    0.52
 -10   1  -6    9.63    0.49
 -10   1  -6    8.81    0.44
  10   2 -12   45.22    5.17
 -10   2  12    8.86    0.44
  10   2 -11   47.70    3.19
 -10   2  11   25.61    1.02
 -10   2  10    9.01    0.66
 -10   2  10    9.82    0.55
 -10   2   9    8.17    0.70
 -10   2   9    7.29    0.57
  10   2  -8    8.33    1.82
 -10   2   8    8.95    0.77
 -10   2   8    7.84    0.63
 -10   2   7    6.32    0.74
 -10   2   7    6.91    0.64
 -10   2   6    7.63    0.71
 -10   2   5   12.63    0.80
  10   2  -5   15.41    1.99
 -10   2   5   13.57    0.92
 -10   2   4   69.99    2.43
  10   2  -4   76.63    3.57
 -10   2   4   69.13    2.46
  10   2  -3    0.78    1.25
 -10   2   3    1.38    0.54
  10   2  -2   14.47    1.65
 -10   2   2   11.74    0.73
 -10   2   2   12.14    0.89
  10   2  -1    7.95    1.31
 -10   2   1    6.25    0.60
  10   2  -1    5.04    0.66
 -10   2   1    6.24    0.59
 -10   2   1    7.25    0.70
 -10   2   0    7.60    0.66
  10   2   0    6.19    0.69
 -10   2   0    6.66    0.64
 -10   2   0    6.45    0.65
  10   2   1   11.78    1.20
 -10   2  -1    9.99    0.74
  10   2   1    9.24    0.77
 -10   2  -1    9.38    0.70
  10   2   2   14.07    1.11
 -10   2  -2   15.05    0.84
  10   2   2   13.75    0.88
 -10   2  -2   14.80    0.85
  10   2   3   41.29    1.74
 -10   2  -3   44.02    1.56
 -10   2  -3   44.47    1.58
  10   2   4    1.70    0.47
 -10   2  -4    2.12    0.40
 -10   2  -5   19.06    0.79
 -10   2  -5   19.04    0.75
  10   2   6    2.79    0.25
  10   3 -10    8.91    1.52
 -10   3  10    7.98    0.48
  10   3  -9   77.04    3.27
 -10   3   9   67.25    2.10
  10   3  -8   -0.55    1.35
 -10   3   8    0.93    0.42
  10   3  -7   18.48    1.88
 -10   3   7   17.51    0.94
 -10   3   6    7.21    0.59
  10   3  -6    8.53    1.54
 -10   3   6    7.52    0.70
  10   3  -5    1.34    1.23
 -10   3   5    1.25    0.45
 -10   3   5    1.97    0.55
 -10   3   4   33.39    1.46
  10   3  -4   36.11    2.20
 -10   3   4   38.94    1.56
 -10   3   3   48.07    1.82
  10   3  -3   47.78    2.48
 -10   3   3   44.67    1.79
  10   3  -2   17.37    1.53
  10   3  -2   14.23    0.94
 -10   3   2   16.29    0.83
 -10   3   2   15.49    0.77
  10   3  -1    2.31    0.99
  10   3  -1    2.30    0.55
 -10   3   1    2.00    0.43
 -10   3   1    2.01    0.40
 -10   3   1    2.33    0.56
  10   3   0   14.18    1.15
 -10   3   0   13.78    0.80
  10   3   0   12.87    0.89
 -10   3   0   12.95    0.75
  10   3   1    4.30    0.73
  10   3   1    4.24    0.59
 -10   3  -1    3.97    0.51
 -10   3  -1    3.94    0.48
  10   3   2   21.81    1.06
 -10   3  -2   23.83    1.00
  10   3   2   21.81    1.05
 -10   3  -2   22.80    0.99
  10   3   3    2.72    0.38
 -10   3  -3    3.23    0.42
 -10   3  -3    3.28    0.41
 -10   3  -4    3.92    0.39
  10   3   5    1.44    0.19
 -10   3  -5    2.05    0.21
 -10   3  -5    2.02    0.20
  10   4  -9    0.64    0.71
  10   4  -8   18.74    1.31
 -10   4   8   14.36    0.58
  10   4  -7   15.87    1.29
 -10   4   7   12.26    0.61
 -10   4   6    6.51    0.53
  10   4  -6    6.67    1.02
 -10   4   6    5.80    0.48
  10   4  -5    5.16    0.94
 -10   4   5    3.77    0.51
 -10   4   5    3.74    0.47
 -10   4   4    1.52    0.47
  10   4  -4    1.10    0.39
 -10   4   4    1.20    0.39
  10   4  -3    2.04    0.72
 -10   4   3    1.63    0.49
  10   4  -3    1.91    0.45
 -10   4   2    8.69    0.68
  10   4  -2    8.52    0.80
  10   4  -2    7.46    0.66
 -10   4   2    8.44    0.53
 -10   4   1    0.71    0.44
  10   4  -1    1.03    0.42
 -10   4   1    0.70    0.33
 -10   4   1    1.06    0.27
  10   4   0    6.71    0.59
 -10   4   0    8.39    0.55
 -10   4   0    7.08    0.46
 -10   4  -1    1.32    0.39
  10   4   1    1.06    0.37
 -10   4  -1    1.31    0.34
 -10   4  -1    1.69    0.29
 -10   4  -2    1.11    0.30
  10   4   2    0.96    0.27
 -10   4  -2    0.96    0.27
 -10   4  -2    1.08    0.26
 -10   4  -3    1.42    0.21
 -10   4  -3    1.59    0.23
 -10   4  -3    1.31    0.20
 -10   5   5    7.49    0.43
 -10   5   4    3.68    0.38
 -10   5   3    7.53    0.47
  10   5  -3    4.53    0.34
 -10   5   2   19.77    0.75
  10   5  -2   15.10    0.65
  10   5  -1    7.80    0.41
 -10   5   0    2.30    0.23
 -11  -4   7    6.37    0.36
 -11  -4   6   10.58    0.51
 -11  -4   5    2.55    0.33
 -11  -4   5    3.07    0.31
 -11  -4   4   20.31    0.78
 -11  -4   3   20.65    0.74
 -11  -4   2    2.39    0.23
 -11  -4   1   28.31    0.89
 -11  -4   0    3.07    0.22
 -11  -3   9    2.62    0.27
 -11  -3   9    2.88    0.29
 -11  -3   8   15.64    0.70
 -11  -3   8   14.78    0.69
 -11  -3   7   28.86    1.10
 -11  -3   7   27.51    1.07
 -11  -3   6    5.63    0.57
 -11  -3   6    4.88    0.49
 -11  -3   5   32.36    1.25
 -11  -3   4   11.67    0.72
 -11  -3   3   13.33    0.72
 -11  -3   3   11.92    0.60
 -11  -3   2   27.63    1.05
 -11  -3   2   26.89    1.01
 -11  -3   1    3.29    0.35
 -11  -3   1    3.65    0.40
 -11  -3   0    4.41    0.41
  11  -3   0    4.22    0.39
 -11  -3  -1    6.44    0.43
  11  -3   1    6.31    0.41
  11  -3   2    2.23    0.24
 -11  -2  11    2.60    0.26
 -11  -2  10    4.02    0.28
 -11  -2  10    5.09    0.40
 -11  -2   9   12.34    0.62
 -11  -2   9   11.78    0.60
 -11  -2   9   13.19    0.68
 -11  -2   8    7.22    0.58
 -11  -2   8    7.68    0.54
 -11  -2   8    6.67    0.55
 -11  -2   7   17.31    0.88
 -11  -2   7   16.02    0.84
 -11  -2   7   16.08    0.85
 -11  -2   6   17.35    0.93
 -11  -2   6   16.66    0.89
 -11  -2   6   16.07    0.87
 -11  -2   5   25.05    1.13
 -11  -2   5   24.31    1.11
 -11  -2   4   54.54    1.85
 -11  -2   4   52.59    1.86
 -11  -2   4   51.62    1.89
 -11  -2   3    4.78    0.60
 -11  -2   3    4.25    0.57
 -11  -2   3    4.02    0.42
 -11  -2   2    8.22    0.66
 -11  -2   2    7.76    0.58
 -11  -2   1   16.81    0.82
 -11  -2   1   16.95    0.84
  11  -2   0    1.13    0.42
 -11  -2   0    1.48    0.38
  11  -2   1    4.49    0.47
 -11  -2  -1    6.57    0.52
  11  -2   2    9.06    0.54
 -11  -2  -2   11.97    0.61
  11  -2   3    0.87    0.31
 -11  -2  -4    3.68    0.24
  11  -2   4    4.17    0.28
 -11  -1  12    0.75    0.18
 -11  -1  11    0.37    0.27
 -11  -1  10    1.72    0.38
 -11  -1  10    1.52    0.36
 -11  -1   9   17.81    0.80
 -11  -1   9   17.55    0.83
 -11  -1   9   18.89    0.92
 -11  -1   8   11.81    0.72
 -11  -1   8   10.89    0.63
 -11  -1   8   12.26    0.71
 -11  -1   8   12.88    0.82
 -11  -1   7    9.48    0.73
 -11  -1   7    9.45    0.63
 -11  -1   7    9.97    0.66
 -11  -1   7    9.75    0.75
 -11  -1   6    6.79    0.71
 -11  -1   6    6.82    0.59
  11  -1  -6    8.55    1.38
 -11  -1   6    6.78    0.57
 -11  -1   6    6.91    0.73
 -11  -1   5    4.82    0.65
 -11  -1   5    5.30    0.59
  11  -1  -5    5.16    1.17
 -11  -1   5    4.63    0.49
 -11  -1   4    2.24    0.55
 -11  -1   4    2.52    0.61
 -11  -1   4    2.54    0.49
  11  -1  -4    3.98    1.10
 -11  -1   3    4.00    0.61
 -11  -1   3    4.53    0.66
  11  -1  -3    4.41    1.00
 -11  -1   3    4.70    0.48
 -11  -1   2   10.81    0.76
  11  -1  -2    9.26    1.07
 -11  -1   2    9.49    0.65
 -11  -1   1   18.95    0.95
  11  -1  -1   18.55    1.30
 -11  -1   1   19.48    0.94
  11  -1   0    0.24    0.62
 -11  -1   0    0.12    0.38
  11  -1   1    2.57    0.66
 -11  -1  -1    2.85    0.45
  11  -1   2    2.04    0.56
 -11  -1  -2    2.02    0.29
 -11  -1  -2    2.42    0.41
  11  -1   3    9.56    0.65
 -11  -1  -3    7.40    0.40
  11  -1   4    7.98    0.48
 -11  -1  -4    6.60    0.32
 -11  -1  -4    7.53    0.41
 -11   0  12    5.93    0.37
 -11   0  12    6.03    0.35
 -11   0  11    3.51    0.40
 -11   0  11    3.13    0.40
  11   0 -10   12.00    1.41
 -11   0  10   10.07    0.64
 -11   0  10   10.92    0.66
  11   0  -9    5.48    1.56
 -11   0   9    5.39    0.56
 -11   0   9    4.23    0.52
 -11   0   8   90.06    2.88
 -11   0   8   94.22    2.94
 -11   0   7   22.87    1.11
 -11   0   7   23.19    1.11
 -11   0   7   21.48    1.14
 -11   0   6    7.36    0.73
 -11   0   6    7.33    0.68
 -11   0   5   -0.25    0.57
  11   0  -5    0.35    1.37
 -11   0   5   -0.25    0.49
  11   0  -4   24.63    2.00
 -11   0   4   18.60    0.97
 -11   0   3    0.99    0.57
 -11   0   3    1.57    0.59
  11   0  -3    2.44    1.20
 -11   0   3    1.35    0.35
 -11   0   3    1.92    0.43
  11   0  -2   -0.56    1.08
 -11   0   2    0.25    0.35
 -11   0   2    0.20    0.35
  11   0  -1    2.12    0.95
 -11   0   1    1.33    0.41
  11   0   0   11.69    1.16
 -11   0   0   11.83    0.74
  11   0   1    0.61    0.71
 -11   0  -1    0.37    0.28
 -11   0  -1    0.38    0.38
  11   0   2    4.61    0.50
  11   0   2    5.11    0.74
 -11   0  -2    5.40    0.43
 -11   0  -2    5.28    0.50
  11   0   3    4.96    0.44
  11   0   3    4.43    0.62
 -11   0  -3    5.18    0.40
 -11   0  -3    4.34    0.45
  11   0   4    1.47    0.25
 -11   0  -4    1.96    0.25
 -11   0  -4    1.36    0.26
 -11   1  12    0.57    0.18
 -11   1  11    0.62    0.24
 -11   1  11    0.46    0.31
 -11   1  10    1.72    0.37
  11   1 -10    3.17    1.45
  11   1  -9   21.88    1.97
 -11   1   9   17.10    0.85
  11   1  -8   13.01    1.79
 -11   1   8   12.01    0.82
 -11   1   8   12.84    0.78
  11   1  -7   12.84    1.82
 -11   1   7   10.41    0.79
 -11   1   7   10.52    0.78
  11   1  -6    8.28    1.69
 -11   1   6    6.63    0.70
 -11   1   6    7.29    0.72
 -11   1   5    5.40    0.69
  11   1  -5    7.62    1.71
 -11   1   5    6.80    0.67
 -11   1   4    2.56    0.59
  11   1  -4    2.39    1.50
 -11   1   4    2.91    0.55
  11   1  -3    6.46    1.55
 -11   1   3    5.05    0.61
  11   1  -2   10.78    1.52
 -11   1   2    8.94    0.59
 -11   1   2    9.63    0.71
 -11   1   1   18.38    0.89
 -11   1   1   19.24    0.93
 -11   1   0    0.09    0.29
 -11   1   0   -0.01    0.34
  11   1   1    2.87    0.84
 -11   1  -1    2.84    0.38
 -11   1  -1    3.24    0.43
  11   1   2    2.58    0.66
 -11   1  -2    2.07    0.35
 -11   1  -2    2.21    0.40
  11   1   3    9.65    0.63
  11   1   3    9.04    0.73
 -11   1  -3    9.65    0.52
 -11   1  -3    9.98    0.56
  11   1   4    8.57    0.49
  11   1   4    8.69    0.53
 -11   1  -4    8.38    0.42
  11   2 -11   13.59    3.37
  11   2 -10    7.60    1.68
 -11   2  10    5.53    0.44
 -11   2   9   11.22    0.56
 -11   2   9   13.39    0.69
  11   2  -8    8.67    1.50
 -11   2   8    8.34    0.63
 -11   2   8    7.13    0.51
 -11   2   7   15.76    0.79
 -11   2   5   25.77    1.20
 -11   2   4   52.78    1.81
 -11   2   4   55.27    1.93
  11   2  -3    5.97    1.45
 -11   2   3    4.78    0.58
  11   2  -2    9.06    1.36
 -11   2   2    7.70    0.51
 -11   2   2    8.21    0.66
  11   2  -1   21.24    1.49
 -11   2   1   16.86    0.80
  11   2   0    1.28    0.82
 -11   2   0    0.95    0.32
 -11   2   0    1.29    0.35
  11   2   1    6.39    0.76
 -11   2  -1    6.47    0.48
 -11   2  -1    7.13    0.51
  11   2   2   10.26    0.74
 -11   2  -2   11.75    0.58
 -11   2  -2   10.92    0.59
  11   2   3    0.66    0.32
 -11   2  -3    0.86    0.24
 -11   2  -3    1.19    0.27
  11   2   4    4.09    0.29
  11   3 -10    5.27    1.28
  11   3  -9    5.10    1.13
 -11   3   9    3.41    0.30
  11   3  -8   20.67    1.61
 -11   3   8   14.79    0.69
  11   3  -7   36.42    2.02
 -11   3   7   29.58    1.13
  11   3  -6    5.90    1.32
 -11   3   6    6.00    0.53
 -11   3   5   30.38    1.14
 -11   3   5   34.14    1.28
 -11   3   4   11.35    0.67
  11   3  -4   14.92    1.41
 -11   3   3   14.64    0.79
  11   3  -3   15.91    1.32
 -11   3   2   33.37    1.28
  11   3  -2   32.99    1.65
 -11   3   1    3.55    0.47
 -11   3   1    2.91    0.30
  11   3   0    4.19    0.58
 -11   3   0    4.86    0.36
 -11   3   0    4.62    0.36
  11   3   1    6.23    0.47
 -11   3  -1    6.68    0.39
 -11   3  -1    6.76    0.40
 -11   3  -2    1.99    0.22
 -11   3  -2    2.02    0.23
  11   4  -6   12.67    0.79
 -11   4   5    2.71    0.26
  11   4  -5    2.85    0.51
 -11   4   4   21.55    0.79
  11   4  -4   20.30    0.89
 -11   4   3   25.04    0.92
 -11   4   2    3.05    0.36
 -11   4   1   32.18    1.07
 -11   4   0    3.92    0.30
 -12  -3   7    8.67    0.39
 -12  -3   5   13.98    0.58
 -12  -3   4    4.75    0.34
 -12  -2   8   14.47    0.60
 -12  -2   7   11.63    0.59
 -12  -2   6   32.32    1.15
 -12  -2   5    2.49    0.42
 -12  -2   4    1.59    0.37
 -12  -2   3    0.28    0.30
 -12  -2   2   31.15    0.98
 -12  -2   1    4.53    0.32
 -12  -2   0   23.45    0.79
  12  -2   0   24.31    0.85
 -12  -2  -1    1.06    0.16
 -12  -1  10   20.79    0.73
 -12  -1   9   12.63    0.59
 -12  -1   8   26.04    0.88
 -12  -1   8   32.51    1.08
 -12  -1   7   10.57    0.63
 -12  -1   7   11.51    0.66
 -12  -1   6    7.42    0.59
 -12  -1   6    7.70    0.58
 -12  -1   4   11.45    0.72
  12  -1  -4   11.54    0.93
  12  -1  -3   26.47    1.30
  12  -1  -2    0.76    0.51
 -12  -1   2    0.58    0.23
  12  -1  -1    2.10    0.49
 -12  -1   1    2.33    0.29
  12  -1   0    8.33    0.62
 -12  -1   0   10.25    0.51
  12  -1   1   24.32    0.95
 -12  -1  -1   27.46    0.89
 -12  -1  -2    3.72    0.24
 -12   0  10   16.99    0.64
 -12   0  10   18.32    0.68
 -12   0   9   19.80    0.76
 -12   0   9   19.31    0.80
 -12   0   8   10.94    0.58
 -12   0   8   11.85    0.67
  12   0  -7   24.15    1.86
 -12   0   7   17.17    0.77
  12   0  -6    7.84    1.44
 -12   0   6    4.91    0.45
  12   0  -5    1.53    1.14
 -12   0   5    0.50    0.29
  12   0  -4   22.28    1.60
 -12   0   4   15.19    0.70
  12   0  -3   35.69    1.84
  12   0  -2   43.17    1.84
 -12   0   2   34.70    1.16
  12   0  -1    6.82    0.80
 -12   0   1    6.87    0.43
  12   0   0   11.67    0.85
 -12   0   0   12.12    0.57
  12   0   1    4.55    0.55
 -12   0  -1    4.53    0.35
  12   0   2   22.87    0.88
 -12   0  -2   21.18    0.73
 -12   1  10   20.33    0.71
 -12   1   9   12.86    0.57
 -12   1   9   12.36    0.59
 -12   1   8   32.99    1.17
 -12   1   8   33.75    1.18
  12   1  -7   17.40    1.66
 -12   1   7   11.62    0.65
  12   1  -6   11.21    1.57
 -12   1   6    8.56    0.58
  12   1  -5   10.41    1.52
 -12   1   5    6.60    0.53
  12   1  -4   15.26    1.57
 -12   1   4   11.90    0.67
  12   1  -3   36.02    1.93
 -12   1   3   27.47    1.06
  12   1  -2    1.04    0.88
 -12   1   1    1.78    0.25
 -12   1   0    9.83    0.47
 -12   1  -1   26.03    0.87
  12   1   2    4.23    0.37
 -12   1  -2    3.82    0.24
  12   2  -9   31.32    1.87
 -12   2   9   13.74    0.55
  12   2  -8   22.71    1.65
  12   2  -7   16.70    1.49
 -12   2   6   32.66    1.17
 -12   2   5    2.71    0.38
  12   2  -4    2.83    1.10
 -12   2   4    2.13    0.37
  12   2  -3    0.28    0.79
 -12   2   3    0.18    0.22
 -12   2   2   36.27    1.21
  12   2  -2   44.80    1.77
 -12   2   1    5.05    0.38
  12   2  -1    5.33    0.67
 -12   2   0   26.13    0.89
  12   2   0   25.87    1.06
  12   2   1    1.06    0.25
 -12   2  -1    1.25    0.19
  12   3  -7   13.78    0.92
  12   3  -6    1.52    0.63
  12   3  -5   19.13    1.08
  12   3  -4    7.10    0.69
  12   3  -3   24.24    1.02
  13   1  -5    2.93    0.48
  13   1  -4   24.41    1.04
  13   1  -3    2.41    0.40
   0   0   0    0.00    0.00


TITL P20191211b in P2(1)
REM P2(1) (#4 in standard setting)
CELL 1.54184  10.380727   6.430181  12.800163  90.0000 105.9668  90.0000
ZERR    2.00   0.000072   0.000045   0.000100   0.0000   0.0007   0.0000
LATT -1
SYMM -x, y+1/2,-z
SFAC C H N O F
UNIT 38.00 32.00 2.00 6.00 2.00
TREF
HKLF 4
END
_computing_structure_solution     'SHELXT 2018/2 (Sheldrick, 2018)'
;
_shelx_hkl_checksum              11739
_olex2_submission_special_instructions 'No special instructions were received'
_oxdiff_exptl_absorpt_empirical_details
;
Empirical correction (ABSPACK) includes:
- Absorption correction using spherical harmonics
- Frame scaling
;
_oxdiff_exptl_absorpt_empirical_full_max 14.521
_oxdiff_exptl_absorpt_empirical_full_min 0.682
loop_
_space_group_symop_operation_xyz
'x, y, z'
'-x, y+1/2, -z'
loop_
_atom_site_label
_atom_site_type_symbol
_atom_site_fract_x
_atom_site_fract_y
_atom_site_fract_z
_atom_site_U_iso_or_equiv
_atom_site_adp_type
_atom_site_occupancy
_atom_site_site_symmetry_order
_atom_site_calc_flag
_atom_site_refinement_flags_posn
_atom_site_refinement_flags_adp
_atom_site_refinement_flags_occupancy
_atom_site_disorder_assembly
_atom_site_disorder_group
F1 F 0.40115(19) 0.8774(3) 0.47596(14) 0.0805(5) Uani 1 1 d . . . . .
O1 O 0.2515(2) 0.1226(3) 0.15530(18) 0.0736(5) Uani 1 1 d . . . . .
O2 O 0.03330(17) 0.4583(3) 0.22260(15) 0.0691(5) Uani 1 1 d . . . . .
O3 O 0.0334(2) 0.7913(4) 0.2431(2) 0.0844(6) Uani 1 1 d . . . . .
N1 N 0.08891(17) 0.6270(3) 0.23605(14) 0.0510(4) Uani 1 1 d . . . . .
C1 C 0.2711(2) 0.2797(3) 0.20778(18) 0.0493(5) Uani 1 1 d . . . . .
C2 C 0.27229(17) 0.4996(3) 0.16175(15) 0.0404(4) Uani 1 1 d . . . . .
C3 C 0.23751(17) 0.6319(3) 0.25020(14) 0.0395(4) Uani 1 1 d . . . . .
H3 H 0.269796 0.774971 0.249376 0.047 Uiso 1 1 calc R U . . .
C4 C 0.30856(19) 0.5209(3) 0.35826(16) 0.0446(4) Uani 1 1 d . . . . .
H4 H 0.403298 0.560368 0.375746 0.054 Uiso 1 1 calc R U . . .
C5 C 0.3014(3) 0.2899(4) 0.3297(2) 0.0590(5) Uani 1 1 d . . . . .
H5A H 0.386076 0.222141 0.363770 0.071 Uiso 1 1 calc R U . . .
H5B H 0.231335 0.222164 0.354041 0.071 Uiso 1 1 calc R U . . .
C6 C 0.1799(2) 0.5167(4) 0.04853(17) 0.0528(5) Uani 1 1 d . . . . .
H6 H 0.161214 0.394313 0.008516 0.063 Uiso 1 1 calc R U . . .
C7 C 0.1241(3) 0.6838(5) 0.0015(2) 0.0660(6) Uani 1 1 d . . . . .
H7A H 0.139630 0.810196 0.038080 0.079 Uiso 1 1 calc R U . . .
H7B H 0.068323 0.677903 -0.069089 0.079 Uiso 1 1 calc R U . . .
C8 C 0.41848(18) 0.5413(3) 0.15848(16) 0.0453(4) Uani 1 1 d . . . . .
C9 C 0.4842(2) 0.3909(5) 0.1152(2) 0.0662(7) Uani 1 1 d . . . . .
H9 H 0.441717 0.265171 0.091810 0.079 Uiso 1 1 calc R U . . .
C10 C 0.6117(3) 0.4250(7) 0.1064(2) 0.0835(10) Uani 1 1 d . . . . .
H10 H 0.654326 0.322061 0.077106 0.100 Uiso 1 1 calc R U . . .
C11 C 0.6759(3) 0.6072(7) 0.1399(2) 0.0850(11) Uani 1 1 d . . . . .
H11 H 0.762175 0.628989 0.133859 0.102 Uiso 1 1 calc R U . . .
C12 C 0.6130(3) 0.7582(5) 0.1824(3) 0.0814(9) Uani 1 1 d . . . . .
H12 H 0.656936 0.883051 0.205314 0.098 Uiso 1 1 calc R U . . .
C13 C 0.4832(2) 0.7276(4) 0.1921(2) 0.0634(6) Uani 1 1 d . . . . .
H13 H 0.440925 0.831676 0.220927 0.076 Uiso 1 1 calc R U . . .
C14 C 0.2592(2) 0.5857(4) 0.45416(17) 0.0516(5) Uani 1 1 d . . . . .
C15 C 0.3073(3) 0.7668(5) 0.50945(19) 0.0618(6) Uani 1 1 d . . . . .
C16 C 0.2679(4) 0.8397(6) 0.5967(2) 0.0882(10) Uani 1 1 d . . . . .
H16 H 0.303756 0.961642 0.631955 0.106 Uiso 1 1 calc R U . . .
C17 C 0.1742(4) 0.7279(8) 0.6304(3) 0.0978(13) Uani 1 1 d . . . . .
H17 H 0.145175 0.774961 0.688745 0.117 Uiso 1 1 calc R U . . .
C18 C 0.1231(3) 0.5472(8) 0.5786(3) 0.0997(13) Uani 1 1 d . . . . .
H18 H 0.060268 0.471478 0.602409 0.120 Uiso 1 1 calc R U . . .
C19 C 0.1648(3) 0.4771(6) 0.4908(2) 0.0748(8) Uani 1 1 d . . . . .
H19 H 0.128813 0.354957 0.455831 0.090 Uiso 1 1 calc R U . . .
loop_
_atom_site_aniso_label
_atom_site_aniso_U_11
_atom_site_aniso_U_22
_atom_site_aniso_U_33
_atom_site_aniso_U_23
_atom_site_aniso_U_13
_atom_site_aniso_U_12
F1 0.0972(11) 0.0675(9) 0.0728(10) -0.0113(8) 0.0167(8) -0.0188(9)
O1 0.0964(13) 0.0443(8) 0.0855(13) -0.0154(9) 0.0341(10) -0.0055(9)
O2 0.0492(9) 0.0909(14) 0.0710(11) -0.0081(10) 0.0232(8) -0.0200(9)
O3 0.0668(11) 0.0918(15) 0.1030(15) -0.0009(13) 0.0376(10) 0.0324(11)
N1 0.0421(8) 0.0687(11) 0.0456(9) 0.0013(8) 0.0176(7) 0.0073(9)
C1 0.0517(10) 0.0408(10) 0.0593(12) -0.0035(9) 0.0218(9) -0.0015(8)
C2 0.0372(8) 0.0426(10) 0.0434(9) -0.0020(8) 0.0145(7) 0.0006(7)
C3 0.0362(8) 0.0401(8) 0.0438(9) -0.0009(7) 0.0139(7) -0.0005(7)
C4 0.0436(9) 0.0468(10) 0.0435(9) 0.0021(8) 0.0122(7) 0.0008(8)
C5 0.0729(14) 0.0455(11) 0.0612(13) 0.0094(10) 0.0230(11) 0.0046(10)
C6 0.0451(10) 0.0680(13) 0.0456(10) -0.0044(10) 0.0130(8) -0.0007(10)
C7 0.0626(14) 0.0749(16) 0.0578(13) 0.0029(12) 0.0121(11) 0.0042(12)
C8 0.0368(8) 0.0585(11) 0.0420(9) 0.0058(9) 0.0132(7) 0.0034(8)
C9 0.0532(12) 0.0935(18) 0.0573(13) -0.0105(13) 0.0242(10) 0.0090(13)
C10 0.0562(14) 0.136(3) 0.0679(16) 0.0045(18) 0.0333(12) 0.0238(18)
C11 0.0408(11) 0.146(3) 0.0739(17) 0.042(2) 0.0258(11) 0.0109(17)
C12 0.0516(13) 0.091(2) 0.100(2) 0.0279(18) 0.0185(13) -0.0184(14)
C13 0.0474(11) 0.0598(13) 0.0862(17) 0.0122(12) 0.0236(11) -0.0037(10)
C14 0.0482(10) 0.0658(14) 0.0394(9) 0.0021(9) 0.0097(8) 0.0043(9)
C15 0.0627(13) 0.0720(15) 0.0455(11) -0.0019(10) 0.0063(9) 0.0100(12)
C16 0.094(2) 0.110(3) 0.0541(14) -0.0230(16) 0.0091(14) 0.0191(19)
C17 0.0810(19) 0.163(4) 0.0505(14) -0.016(2) 0.0199(14) 0.026(2)
C18 0.0746(18) 0.170(4) 0.0636(16) 0.008(2) 0.0345(14) -0.003(2)
C19 0.0684(15) 0.104(2) 0.0574(13) -0.0013(14) 0.0265(11) -0.0129(15)
loop_
_atom_type_symbol
_atom_type_description
_atom_type_scat_dispersion_real
_atom_type_scat_dispersion_imag
_atom_type_scat_source
C C 0.0181 0.0091 'International Tables Vol C Tables 4.2.6.8 and 6.1.1.4'
H H 0.0000 0.0000 'International Tables Vol C Tables 4.2.6.8 and 6.1.1.4'
F F 0.0727 0.0534 'International Tables Vol C Tables 4.2.6.8 and 6.1.1.4'
N N 0.0311 0.0180 'International Tables Vol C Tables 4.2.6.8 and 6.1.1.4'
O O 0.0492 0.0322 'International Tables Vol C Tables 4.2.6.8 and 6.1.1.4'
loop_
_geom_angle_atom_site_label_1
_geom_angle_atom_site_label_2
_geom_angle_atom_site_label_3
_geom_angle
_geom_angle_site_symmetry_1
_geom_angle_site_symmetry_3
_geom_angle_publ_flag
O2 N1 O3 124.53(18) . . ?
O2 N1 C3 117.82(18) . . ?
O3 N1 C3 117.6(2) . . ?
O1 C1 C2 125.4(2) . . ?
O1 C1 C5 124.9(2) . . ?
C5 C1 C2 109.65(17) . . ?
C1 C2 C3 101.49(15) . . ?
C1 C2 C8 106.31(16) . . ?
C3 C2 C8 110.71(15) . . ?
C6 C2 C1 111.52(18) . . ?
C6 C2 C3 116.89(16) . . ?
C6 C2 C8 109.26(16) . . ?
N1 C3 C2 109.93(15) . . ?
N1 C3 H3 111.2 . . ?
N1 C3 C4 108.55(15) . . ?
C2 C3 H3 111.2 . . ?
C2 C3 C4 104.59(15) . . ?
C4 C3 H3 111.2 . . ?
C3 C4 H4 106.6 . . ?
C5 C4 C3 104.75(17) . . ?
C5 C4 H4 106.6 . . ?
C14 C4 C3 114.39(16) . . ?
C14 C4 H4 106.6 . . ?
C14 C4 C5 117.20(18) . . ?
C1 C5 C4 105.84(17) . . ?
C1 C5 H5A 110.6 . . ?
C1 C5 H5B 110.6 . . ?
C4 C5 H5A 110.6 . . ?
C4 C5 H5B 110.6 . . ?
H5A C5 H5B 108.7 . . ?
C2 C6 H6 116.7 . . ?
C7 C6 C2 126.6(2) . . ?
C7 C6 H6 116.7 . . ?
C6 C7 H7A 120.0 . . ?
C6 C7 H7B 120.0 . . ?
H7A C7 H7B 120.0 . . ?
C9 C8 C2 118.9(2) . . ?
C13 C8 C2 122.40(19) . . ?
C13 C8 C9 118.6(2) . . ?
C8 C9 H9 119.6 . . ?
C10 C9 C8 120.8(3) . . ?
C10 C9 H9 119.6 . . ?
C9 C10 H10 119.6 . . ?
C11 C10 C9 120.7(3) . . ?
C11 C10 H10 119.6 . . ?
C10 C11 H11 120.2 . . ?
C10 C11 C12 119.5(2) . . ?
C12 C11 H11 120.2 . . ?
C11 C12 H12 119.5 . . ?
C11 C12 C13 120.9(3) . . ?
C13 C12 H12 119.5 . . ?
C8 C13 C12 119.4(3) . . ?
C8 C13 H13 120.3 . . ?
C12 C13 H13 120.3 . . ?
C15 C14 C4 119.5(2) . . ?
C15 C14 C19 116.1(2) . . ?
C19 C14 C4 124.4(2) . . ?
F1 C15 C14 117.7(2) . . ?
F1 C15 C16 118.4(3) . . ?
C16 C15 C14 123.9(3) . . ?
C15 C16 H16 120.9 . . ?
C17 C16 C15 118.2(3) . . ?
C17 C16 H16 120.9 . . ?
C16 C17 H17 119.8 . . ?
C18 C17 C16 120.4(3) . . ?
C18 C17 H17 119.8 . . ?
C17 C18 H18 119.9 . . ?
C17 C18 C19 120.1(3) . . ?
C19 C18 H18 119.9 . . ?
C14 C19 C18 121.2(3) . . ?
C14 C19 H19 119.4 . . ?
C18 C19 H19 119.4 . . ?
loop_
_geom_bond_atom_site_label_1
_geom_bond_atom_site_label_2
_geom_bond_distance
_geom_bond_site_symmetry_2
_geom_bond_publ_flag
F1 C15 1.367(3) . ?
O1 C1 1.199(3) . ?
O2 N1 1.218(3) . ?
O3 N1 1.219(3) . ?
N1 C3 1.503(2) . ?
C1 C2 1.534(3) . ?
C1 C5 1.506(3) . ?
C2 C3 1.536(3) . ?
C2 C6 1.506(3) . ?
C2 C8 1.553(2) . ?
C3 H3 0.9800 . ?
C3 C4 1.551(3) . ?
C4 H4 0.9800 . ?
C4 C5 1.527(3) . ?
C4 C14 1.513(3) . ?
C5 H5A 0.9700 . ?
C5 H5B 0.9700 . ?
C6 H6 0.9300 . ?
C6 C7 1.288(4) . ?
C7 H7A 0.9300 . ?
C7 H7B 0.9300 . ?
C8 C9 1.385(3) . ?
C8 C13 1.383(3) . ?
C9 H9 0.9300 . ?
C9 C10 1.376(4) . ?
C10 H10 0.9300 . ?
C10 C11 1.358(6) . ?
C11 H11 0.9300 . ?
C11 C12 1.364(5) . ?
C12 H12 0.9300 . ?
C12 C13 1.401(3) . ?
C13 H13 0.9300 . ?
C14 C15 1.383(4) . ?
C14 C19 1.386(4) . ?
C15 C16 1.373(4) . ?
C16 H16 0.9300 . ?
C16 C17 1.371(6) . ?
C17 H17 0.9300 . ?
C17 C18 1.370(6) . ?
C18 H18 0.9300 . ?
C18 C19 1.386(5) . ?
C19 H19 0.9300 . ?
loop_
_geom_torsion_atom_site_label_1
_geom_torsion_atom_site_label_2
_geom_torsion_atom_site_label_3
_geom_torsion_atom_site_label_4
_geom_torsion
_geom_torsion_site_symmetry_1
_geom_torsion_site_symmetry_2
_geom_torsion_site_symmetry_3
_geom_torsion_site_symmetry_4
_geom_torsion_publ_flag
F1 C15 C16 C17 -179.7(3) . . . . ?
O1 C1 C2 C3 155.4(2) . . . . ?
O1 C1 C2 C6 30.2(3) . . . . ?
O1 C1 C2 C8 -88.8(3) . . . . ?
O1 C1 C5 C4 -176.1(2) . . . . ?
O2 N1 C3 C2 47.9(2) . . . . ?
O2 N1 C3 C4 -66.0(2) . . . . ?
O3 N1 C3 C2 -134.9(2) . . . . ?
O3 N1 C3 C4 111.2(2) . . . . ?
N1 C3 C4 C5 83.0(2) . . . . ?
N1 C3 C4 C14 -46.6(2) . . . . ?
C1 C2 C3 N1 -80.15(19) . . . . ?
C1 C2 C3 C4 36.22(18) . . . . ?
C1 C2 C6 C7 155.5(2) . . . . ?
C1 C2 C8 C9 47.3(2) . . . . ?
C1 C2 C8 C13 -136.0(2) . . . . ?
C2 C1 C5 C4 5.2(3) . . . . ?
C2 C3 C4 C5 -34.3(2) . . . . ?
C2 C3 C4 C14 -163.94(16) . . . . ?
C2 C8 C9 C10 177.2(2) . . . . ?
C2 C8 C13 C12 -177.2(2) . . . . ?
C3 C2 C6 C7 39.4(3) . . . . ?
C3 C2 C8 C9 156.8(2) . . . . ?
C3 C2 C8 C13 -26.6(3) . . . . ?
C3 C4 C5 C1 17.7(2) . . . . ?
C3 C4 C14 C15 -81.4(2) . . . . ?
C3 C4 C14 C19 97.1(3) . . . . ?
C4 C14 C15 F1 -1.7(3) . . . . ?
C4 C14 C15 C16 179.4(2) . . . . ?
C4 C14 C19 C18 -179.2(3) . . . . ?
C5 C1 C2 C3 -25.9(2) . . . . ?
C5 C1 C2 C6 -151.09(19) . . . . ?
C5 C1 C2 C8 89.9(2) . . . . ?
C5 C4 C14 C15 155.4(2) . . . . ?
C5 C4 C14 C19 -26.0(3) . . . . ?
C6 C2 C3 N1 41.4(2) . . . . ?
C6 C2 C3 C4 157.73(18) . . . . ?
C6 C2 C8 C9 -73.1(2) . . . . ?
C6 C2 C8 C13 103.5(2) . . . . ?
C8 C2 C3 N1 167.32(15) . . . . ?
C8 C2 C3 C4 -76.31(19) . . . . ?
C8 C2 C6 C7 -87.3(3) . . . . ?
C8 C9 C10 C11 0.0(4) . . . . ?
C9 C8 C13 C12 -0.5(4) . . . . ?
C9 C10 C11 C12 -0.2(5) . . . . ?
C10 C11 C12 C13 0.1(5) . . . . ?
C11 C12 C13 C8 0.3(4) . . . . ?
C13 C8 C9 C10 0.4(4) . . . . ?
C14 C4 C5 C1 145.73(18) . . . . ?
C14 C15 C16 C17 -0.8(5) . . . . ?
C15 C14 C19 C18 -0.6(4) . . . . ?
C15 C16 C17 C18 0.7(5) . . . . ?
C16 C17 C18 C19 -0.7(6) . . . . ?
C17 C18 C19 C14 0.6(5) . . . . ?
C19 C14 C15 F1 179.6(2) . . . . ?
C19 C14 C15 C16 0.7(4) . . . . ?
