#------------------------------------------------------------------------------
#$Date: 2021-02-04 05:31:20 +0200 (Thu, 04 Feb 2021) $
#$Revision: 261502 $
#$URL: file:///home/coder/svn-repositories/cod/cif/4/13/55/4135512.cif $
#------------------------------------------------------------------------------
#
# This file is available in the Crystallography Open Database (COD),
# http://www.crystallography.net/
#
# All data on this site have been placed in the public domain by the
# contributors.
#
data_4135512
loop_
_publ_author_name
'Zhang, Han-Yue'
'Zhang, Zhi-Xu'
'Chen, Xiao-Gang'
'Song, Xian-Jiang'
'Zhang, Yi'
'Xiong, Ren-Gen'
_publ_section_title
;
 Large Electrostrictive Coefficient in a Two-Dimensional Hybrid Perovskite
 Ferroelectric.
;
_journal_issue                   3
_journal_name_full               'Journal of the American Chemical Society'
_journal_page_first              1664
_journal_page_last               1672
_journal_paper_doi               10.1021/jacs.0c12907
_journal_volume                  143
_journal_year                    2021
_chemical_formula_moiety         'Br4 Pb, C5 H16 N2'
_chemical_formula_sum            'C5 H16 Br4 N Pb'
_chemical_formula_weight         631.00
_space_group_crystal_system      orthorhombic
_space_group_IT_number           51
_space_group_name_Hall           '-P 2a 2a'
_space_group_name_H-M_alt        'P m m a'
_atom_sites_solution_hydrogens   difmap
_audit_creation_method           SHELXL-2014/7
_cell_angle_alpha                90
_cell_angle_beta                 90
_cell_angle_gamma                90
_cell_formula_units_Z            2
_cell_length_a                   11.9047(6)
_cell_length_b                   6.0106(4)
_cell_length_c                   9.7130(6)
_cell_measurement_reflns_used    2114
_cell_measurement_temperature    293(2)
_cell_measurement_theta_max      31.1750
_cell_measurement_theta_min      2.6850
_cell_volume                     695.01(7)
_computing_structure_refinement  'SHELXL-2014/7 (Sheldrick, 2014)'
_diffrn_ambient_temperature      293(2)
_diffrn_measured_fraction_theta_full 0.999
_diffrn_measured_fraction_theta_max 0.847
_diffrn_measurement_device_type  'XtaLAB Synergy R, DW system, HyPix'
_diffrn_radiation_type           MoK\a
_diffrn_radiation_wavelength     0.71073
_diffrn_reflns_av_R_equivalents  0.0863
_diffrn_reflns_av_unetI/netI     0.0668
_diffrn_reflns_Laue_measured_fraction_full 0.999
_diffrn_reflns_Laue_measured_fraction_max 0.847
_diffrn_reflns_limit_h_max       15
_diffrn_reflns_limit_h_min       -14
_diffrn_reflns_limit_k_max       7
_diffrn_reflns_limit_k_min       -8
_diffrn_reflns_limit_l_max       13
_diffrn_reflns_limit_l_min       -13
_diffrn_reflns_number            3863
_diffrn_reflns_point_group_measured_fraction_full 0.999
_diffrn_reflns_point_group_measured_fraction_max 0.847
_diffrn_reflns_theta_full        25.242
_diffrn_reflns_theta_max         31.028
_diffrn_reflns_theta_min         2.706
_diffrn_source                   'Rotating-anode X-ray tube'
_exptl_absorpt_coefficient_mu    23.593
_exptl_absorpt_correction_T_max  0.003
_exptl_absorpt_correction_T_min  0.001
_exptl_absorpt_correction_type   multi-scan
_exptl_absorpt_process_details
;
CrysAlisPro 1.171.40.14e (Rigaku Oxford Diffraction, 2018)
Empirical absorption correction using spherical harmonics,
 implemented in SCALE3 ABSPACK scaling algorithm.
;
_exptl_crystal_colour            yellow
_exptl_crystal_density_diffrn    2.948
_exptl_crystal_description       sheet
_exptl_crystal_F_000             550
_exptl_crystal_size_max          0.300
_exptl_crystal_size_mid          0.260
_exptl_crystal_size_min          0.250
_refine_diff_density_max         3.956
_refine_diff_density_min         -5.222
_refine_diff_density_rms         0.951
_refine_ls_extinction_coef       0.022(3)
_refine_ls_extinction_expression Fc^*^=kFc[1+0.001xFc^2^\l^3^/sin(2\q)]^-1/4^
_refine_ls_extinction_method     'SHELXL-2014/7 (Sheldrick 2014'
_refine_ls_goodness_of_fit_ref   1.126
_refine_ls_hydrogen_treatment    constr
_refine_ls_matrix_type           full
_refine_ls_number_parameters     44
_refine_ls_number_reflns         1072
_refine_ls_number_restraints     88
_refine_ls_restrained_S_all      1.101
_refine_ls_R_factor_all          0.0996
_refine_ls_R_factor_gt           0.0820
_refine_ls_shift/su_max          0.000
_refine_ls_shift/su_mean         0.000
_refine_ls_structure_factor_coef Fsqd
_refine_ls_weighting_details
'w=1/[\s^2^(Fo^2^)+(0.1486P)^2^+0.6366P] where P=(Fo^2^+2Fc^2^)/3'
_refine_ls_weighting_scheme      calc
_refine_ls_wR_factor_gt          0.2151
_refine_ls_wR_factor_ref         0.2286
_reflns_Friedel_coverage         0.000
_reflns_number_gt                799
_reflns_number_total             1072
_reflns_threshold_expression     'I > 2\s(I)'
_cod_data_source_file            ja0c12907_si_002.cif
_cod_data_source_block           PMMA
_cod_depositor_comments
'Adding full bibliography for 4135512--4135514.cif.'
_cod_database_code               4135512
_shelx_shelxl_version_number     2014/7
_shelx_space_group_comment
;
The symmetry employed for this shelxl refinement is uniquely defined
by the following loop, which should always be used as a source of
symmetry information in preference to the above space-group names.
They are only intended as comments.
;
_shelx_estimated_absorpt_t_min   0.053
_shelx_estimated_absorpt_t_max   0.067
_shelx_res_file
;

    PMMA.res created by SHELXL-2014/7

TITL PMMA in Pmma
CELL 0.71073  11.9047   6.0106   9.7130  90.000  90.000  90.000
ZERR    2.00   0.0006   0.0004   0.0006   0.000   0.000   0.000
LATT 1
SYMM 0.5-X, -Y, Z
SYMM -X, Y, -Z
SYMM 0.5+X, -Y, -Z
SFAC C  H  N  Br Pb
UNIT 10 32 2 8 2
L.S. 40
ACTA
BOND
FMAP 2
PLAN 4
SIZE 0.3 0.26 0.25
DFIX 1.5 0.02 N1 C1 N1 C2 N1 C3
DFIX 1.52 0.02 C3 C4
DFIX 1.50 0.02  C4 N2
ISOR 0.02
DELU 0.02  C1 C2 C3 C4 N2
SIMU 0.02 C1 C2 C3 C4 N2
EADP N2 N1
EADP C1 C2
TEMP 20
WGHT    0.148600    0.636600
EXTI    0.022409
FVAR       0.23287
C2    1    0.250000    0.268840    0.415553    10.25000    0.14954    0.15704 =
         0.14071    0.00569    0.00000    0.00000
AFIX   3
H2A   2    0.185530    0.322320    0.448193    10.25000   -1.50000
H2B   2    0.306880    0.324150    0.464243    10.25000   -1.50000
H2C   2    0.250000    0.308600    0.327823    10.25000   -1.50000
AFIX   0
C3    1    0.322684    0.000000    0.541639    10.25000    0.13433    0.12814 =
         0.12774    0.00000    0.00231    0.00000
AFIX   3
H3A   2    0.351544   -0.136610    0.532759    10.25000   -1.20000
H3B   2    0.380693    0.092110    0.552899    10.25000   -1.20000
AFIX   0
C4    1    0.250000    0.000000    0.667778    10.25000    0.12451    0.10906 =
         0.11618    0.00000    0.00000    0.00000
AFIX   3
H4A   2    0.205460   -0.117300    0.653448    10.25000   -1.20000
H4B   2    0.205460    0.117300    0.653448    10.25000   -1.20000
AFIX   0
N2    3    0.250000    0.000000    0.820381    10.25000    0.08140    0.11576 =
         0.10759    0.00000    0.00000    0.00000
AFIX   3
H1D   2    0.183930    0.000000    0.848991    10.25000   -1.50000
H1E   2    0.283030   -0.113990    0.848991    10.25000   -1.50000
H1F   2    0.283030    0.113990    0.848991    10.25000   -1.50000
AFIX   0
N1    3    0.250000    0.017951    0.416943    10.25000    0.08140    0.11576 =
         0.10759    0.00000    0.00000    0.00000
PB1   5    0.500000    0.500000    0.000000    10.25000    0.02719    0.02242 =
         0.04408    0.00000    0.00304    0.00000
BR2   4    0.550707    0.500000    0.298352    10.50000    0.07688    0.09279 =
         0.04156    0.00000   -0.01387    0.00000
BR3   4    0.250000    0.500000    0.045722    10.25000    0.02486    0.12968 =
         0.06655    0.00000    0.00000    0.00000
BR4   4    0.500000    0.000000    0.000000    10.25000    0.10116    0.02268 =
         0.08101    0.00000    0.00369    0.00000
C1    1    0.363990    0.000000    0.354850    10.50000    0.14954    0.15704 =
         0.14071    0.00569    0.00000    0.00000
AFIX   3
H1A   2    0.373930   -0.147580    0.355820    10.50000   -1.50000
H1B   2    0.367920    0.049640    0.268680    10.50000   -1.50000
H1C   2    0.417220    0.065190    0.405100    10.50000   -1.50000
AFIX   0
HKLF 4

REM  PMMA in Pmma
REM R1 =  0.0820 for     799 Fo > 4sig(Fo)  and  0.0996 for all    1072 data
REM     44 parameters refined using     88 restraints

END

WGHT      0.1530      0.6436

REM Highest difference peak  3.956,  deepest hole -5.222,  1-sigma level  0.951
Q1    1   0.5545  0.4049 -0.0004  11.00000  0.05    3.96
Q2    1   0.5000  0.3184  0.0000  10.50000  0.05    3.34
Q3    1   0.2500  0.3661  0.0067  10.50000  0.05    2.33
Q4    1   0.2500 -0.3278  0.6629  10.50000  0.05    1.70
;
_shelx_res_checksum              27055
_shelx_hkl_file
;
 -11   0   0    0.24    2.04
 -10   0   0   20.37    2.68
  -9   0   0    0.13    1.71
  -8   0   0  562.33   16.75
  -7   0   0    0.05    1.24
  -6   0   0  176.42    6.01
  -5   0   0   -0.32    0.80
  -4   0   0 2008.58   53.98
  -3   0   0   -0.27    0.56
  -2   0   0 1098.68   29.48
   2   0   0 1076.03   28.89
   3   0   0   -0.04    0.56
   4   0   0 1964.45   52.82
   5   0   0   -0.45    0.83
   6   0   0  171.47    5.83
   7   0   0   -0.56    1.24
   8   0   0  578.38   17.15
   9   0   0   -0.51    1.75
  10   0   0   21.38    2.53
  11   0   0   -0.16    2.11
  12   0   0  212.84    8.42
  13   0   0   -0.29    2.44
  14   0   0   24.19    3.72
  15   0   0   -0.44    2.98
 -12   0   1  409.01   15.72
 -10   0   1  174.23    6.93
 -10   0  -1  189.02    7.24
  -9   0   1   -0.12    1.54
  -9   0  -1    0.06    1.57
  -8   0   1  891.54   25.97
  -8   0  -1  934.93   26.13
  -7   0  -1  137.29    5.17
  -7   0   1  129.47    5.03
  -6   0  -1  499.90   14.43
  -6   0   1  486.22   14.40
  -5   0   1  256.78    8.12
  -5   0  -1  274.24    8.21
  -4   0  -1 1780.48   47.46
  -4   0   1 1737.49   47.44
  -3   0  -1  407.09   11.09
  -3   0   1  371.16   10.96
  -2   0  -1  977.69   26.45
  -1   0   1   26.50    1.48
   1   0  -1   25.68    1.46
   2   0  -1  968.52   26.24
   3   0   1  355.40   10.48
   3   0  -1  389.28   10.69
   4   0   1 1665.38   45.78
   4   0  -1 1728.12   45.90
   5   0  -1  260.76    8.00
   5   0   1  250.51    7.86
   6   0  -1  478.07   13.96
   6   0   1  468.56   13.84
   7   0   1  118.42    4.74
   7   0  -1  130.05    4.87
   8   0  -1  897.22   25.34
   8   0   1  868.79   25.16
   9   0   1    1.10    1.56
   9   0  -1   -0.25    1.56
  10   0   1  174.01    6.85
  10   0  -1  176.36    6.97
  11   0   1    2.04    2.12
  11   0  -1    0.90    2.09
  12   0   1  304.28   11.10
  12   0  -1  342.32   11.76
  13   0   1    9.33    2.54
  13   0  -1    8.45    3.01
  14   0  -1   40.93    4.23
  14   0   1   38.22    3.89
  15   0   1   -0.64    2.93
  15   0  -1    1.51    3.11
 -11   0   2   14.64    4.05
 -10   0   2  310.01   11.86
 -10   0  -2  282.73   10.19
  -9   0  -2   15.31    2.33
  -9   0   2   23.69    3.65
  -8   0  -2 1199.25   33.77
  -7   0  -2    6.23    1.57
  -6   0  -2  643.83   18.63
  -5   0  -2  230.39    7.50
  -4   0  -2 1677.06   45.62
  -3   0   2   33.69    2.49
  -3   0  -2   32.72    1.91
  -2   0   2  276.81    9.07
  -1   0   2   32.98    2.69
   0   0   2 1141.83   33.37
   4   0  -2 1599.88   43.69
   5   0  -2  218.71    7.32
   6   0  -2  611.29   17.92
   7   0  -2    5.61    1.56
   7   0   2    4.48    1.29
   8   0   2 1048.87   30.73
   8   0  -2 1154.25   31.26
   9   0   2   12.17    1.94
   9   0  -2   13.50    2.21
  10   0  -2  273.58    9.59
  10   0   2  251.49    9.08
  11   0   2    6.29    2.23
  11   0  -2    7.48    2.46
  12   0  -2  336.79   12.03
  13   0  -2   -1.16    2.89
  14   0  -2   44.92    4.60
  15   0  -2    5.48    3.75
 -11   0   3   43.47    4.94
 -10   0   3   67.96    5.50
 -10   0  -3   56.09    4.02
  -9   0  -3   38.27    3.32
  -9   0   3   44.69    4.41
  -8   0   3  425.76   14.80
  -8   0  -3  412.67   13.30
  -7   0  -3    8.43    1.85
  -7   0   3   14.19    2.97
  -6   0  -3  435.42   13.48
  -5   0  -3  349.64   11.06
  -4   0   3 1521.89   42.88
  -3   0   3    3.34    1.74
  -2   0   3 1617.39   45.64
  -1   0  -3  324.44   11.31
  -1   0   3  309.98    9.78
   0   0   3 4349.00  110.93
   0   0  -3 3675.37  111.67
   3   0  -3    1.47    0.38
   5   0  -3  322.90   10.43
   6   0  -3  410.32   13.02
   7   0  -3    4.74    1.78
   8   0  -3  407.39   13.29
   9   0  -3   31.48    3.10
  10   0  -3   56.06    4.03
  11   0  -3   32.66    3.49
  12   0  -3  159.74    7.46
  13   0  -3    1.87    2.98
  14   0  -3   39.67    4.56
  15   0  -3   11.69    4.01
 -10   0   4  112.04    6.98
  -9   0   4    2.58    2.93
  -9   0  -4    3.60    2.56
  -8   0  -4  382.06   12.00
  -8   0   4  285.76   12.16
  -7   0  -4  225.55    8.49
  -6   0  -4  415.86   13.38
  -5   0  -4   82.86    4.22
  -5   0   4   54.27    4.20
  -4   0   4 1023.29   30.48
  -3   0   4  475.05   16.03
  -2   0   4 1313.72   38.32
  -2   0   4 1323.68   33.97
  -1   0   4    8.25    3.31
  -1   0  -4    9.37    2.90
   0   0  -4 2158.43   69.72
   0   0   4 2825.33   70.73
   1   0  -4   11.17    3.01
   4   0  -4 1076.22   28.97
   6   0  -4  364.40   12.22
   7   0  -4  217.50    8.48
   8   0  -4  343.42   12.10
   9   0  -4    3.06    2.42
  10   0  -4  124.04    6.30
  11   0  -4   11.95    3.22
  12   0  -4  144.97    7.32
  13   0  -4   11.73    3.60
  14   0  -4   51.28    5.05
  -9   0  -5   40.62    4.07
  -8   0  -5  745.82   22.97
  -7   0   5   35.26    4.25
  -7   0  -5   54.22    4.06
  -6   0   5  408.68   16.91
  -6   0  -5  625.33   17.12
  -5   0   5   34.94    3.79
  -4   0   5  529.36   18.59
  -3   0   5  105.84    7.09
  -3   0  -5   91.65    4.60
  -2   0   5  141.97    5.30
  -2   0  -5  135.77    7.32
  -2   0   5  153.27    9.24
  -1   0  -5   80.45    6.50
  -1   0   5   75.37    5.95
   0   0  -5  318.41   12.96
   1   0  -5   64.23    5.46
   2   0  -5  105.64    6.73
   5   0  -5   33.19    1.28
   6   0  -5  444.58   12.45
   7   0  -5   52.35    4.17
   8   0  -5  690.86   21.92
   9   0  -5   32.15    4.02
  10   0  -5  302.67   11.78
  11   0  -5   14.63    3.50
  12   0  -5  191.49    9.10
  13   0  -5    9.75    3.87
  14   0  -5   59.41    5.58
  -8   0   6  151.86    9.01
  -8   0  -6  223.14    8.97
  -7   0  -6    0.43    3.12
  -7   0   6   -2.46    3.83
  -6   0   6  360.45   14.75
  -5   0   6  226.86   11.58
  -4   0   6  490.07   17.29
  -4   0  -6  364.89   12.64
  -3   0  -6   19.61    3.15
  -3   0   6   28.02    4.74
  -2   0  -6  985.04   25.93
  -2   0   6  888.47   25.96
  -1   0   6  161.73    8.74
  -1   0  -6  178.14    9.37
   0   0  -6  962.44   30.83
   1   0  -6  153.15    8.60
   2   0  -6  762.32   25.36
   2   0   6  742.05   21.73
   7   0  -6    0.79    0.38
   8   0  -6  146.55    4.61
   8   0  -6  201.96    8.54
   9   0  -6   20.33    4.09
   9   0  -6   16.17    1.19
  10   0  -6  137.06    7.67
  11   0  -6   27.75    4.55
  12   0  -6   61.28    5.76
  13   0  -6    1.23    3.87
  -7   0   7   41.55    5.83
  -6   0  -7  115.01    5.19
  -6   0   7  142.13    8.98
  -5   0   7    7.18    3.77
  -5   0  -7    3.74    1.81
  -4   0   7  333.31   15.01
  -4   0  -7  297.02   12.37
  -3   0   7   61.46    6.06
  -3   0  -7   73.87    6.06
  -2   0   7  901.90   27.59
  -2   0  -7 1039.29   28.27
  -1   0   7    3.86    2.17
  -1   0  -7    1.11    3.11
   0   0  -7 1173.65   36.47
   1   0  -7    9.45    4.33
   2   0  -7  884.07   29.44
   8   0  -7   49.59    5.16
   9   0  -7   -1.96    4.02
  10   0  -7   65.71    6.16
  11   0  -7   12.17    4.54
  12   0  -7   33.00    5.34
  -9   0  -8    1.91    1.41
  -8   0  -8   63.42    3.46
  -7   0  -8   23.10    2.55
  -6   0  -8  180.60    8.16
  -5   0   8    2.25    3.74
  -5   0  -8    7.17    2.96
  -4   0  -8   65.51    5.71
  -4   0   8   65.10    6.14
  -3   0  -8  116.27    7.17
  -3   0   8   93.09    6.74
  -2   0   8  208.47   10.41
  -2   0  -8  209.24    9.84
  -2   0   8  198.47    8.09
  -1   0   8    9.26    2.52
  -1   0  -8   11.55    3.88
   0   0  -8   25.76    4.86
   1   0  -8   19.91    4.75
   2   0  -8  240.41   12.09
   9   0  -8    1.91    4.26
  10   0  -8  156.99    9.45
  11   0  -8   -1.71    5.06
  -9   0  -9   -0.78    2.19
  -8   0  -9   53.05    4.39
  -7   0  -9    2.68    2.48
  -6   0  -9  179.88    8.71
  -5   0  -9   39.73    4.49
  -4   0  -9   99.31    6.18
  -3   0   9   17.59    3.83
  -3   0  -9   19.00    3.78
  -2   0  -9  185.62    9.11
  -2   0   9  189.09    7.81
  -1   0  -9   20.02    4.29
  -1   0   9   16.79    3.12
   0   0  -9   95.03    7.43
   1   0  -9   22.65    4.88
   5   0   9   33.68    2.98
   9   0  -9   -2.73    5.09
  10   0  -9   93.59    8.07
  -8   0 -10    4.28    2.65
  -7   0 -10    0.89    2.77
  -6   0 -10   59.97    4.38
  -5   0 -10    0.55    2.60
  -4   0 -10   95.54    6.01
  -3   0 -10    2.69    3.24
  -2   0  10  375.52   12.24
  -2   0 -10  336.98   13.86
  -1   0  10    2.64    2.80
  -1   0 -10   11.64    4.43
   0   0 -10  317.69   13.96
   0   0  10  358.87   13.25
   6   0  10   44.99    3.08
   9   0 -10   -1.73    5.19
  -7   0 -11    9.48    2.84
  -6   0 -11   54.01    4.33
  -5   0 -11   30.74    3.97
  -4   0 -11   27.06    3.99
  -3   0 -11   33.97    4.58
  -2   0 -11   98.58    6.51
  -1   0 -11   15.76    4.43
  -1   0  11    5.98    3.05
   0   0  11   31.71    4.04
   1   0  11    6.32    3.40
  -5   0 -12    8.24    3.32
  -4   0 -12   26.29    4.13
  -3   0 -12   11.26    3.91
   0   0  12    3.26    3.16
   1   0  12    1.32    3.18
   2   0  12   21.36    4.03
 -13   1   0    2.39    5.04
 -12   1   0  172.59   10.32
 -11   1   0    3.01    3.80
 -10  -1   0    5.80    2.15
 -10   1   0    5.61    2.15
  -9   1   0    4.27    3.22
  -9   1   0    0.07    1.84
  -9  -1   0   -0.32    1.74
  -8  -1   0  170.34    6.52
  -8   1   0  176.56    6.57
  -7   1   0   -0.05    1.23
  -7   1   0    1.78    2.52
  -7  -1   0    0.09    1.28
  -6   1   0   31.33    2.08
  -6  -1   0   30.55    2.02
  -5  -1   0   -0.33    0.87
  -5   1   0   -0.57    0.98
  -4  -1   0  810.58   21.67
  -4   1   0  711.50   23.31
  -3  -1   0   -0.06    0.58
  -3   1   0   -3.62    3.23
  -2   1   0  796.04   26.35
  -2  -1   0  947.71   24.79
  -1  -1   0    4.71    3.50
  -1  -1   0   -0.12    0.21
   0   1   0 1253.14   33.27
   0  -1   0 1334.51   33.42
   1   1   0    2.37    3.02
   1   1   0   -0.08    0.60
   1  -1   0   -0.01    0.19
   2  -1   0  843.81   28.02
   2  -1   0  961.73   25.48
   3  -1   0    2.83    1.23
   3  -1   0   -0.06    0.51
   4  -1   0  791.00   21.79
   5  -1   0    0.03    0.76
   6  -1   0   30.11    1.92
   7  -1   0    0.24    1.22
   8  -1   0  172.95    6.38
   9  -1   0    0.13    1.56
  10   1   0    5.19    2.07
  10  -1   0    5.89    2.10
  11  -1   0   -0.55    2.07
  11   1   0    1.18    2.14
  12  -1   0  136.82    6.44
  12   1   0  141.19    6.44
  13   1   0    1.44    2.63
  13  -1   0    0.29    2.61
  14   1   0   20.12    3.53
  14  -1   0   16.82    3.46
  15   1   0   -1.66    2.96
  15  -1   0    0.33    2.99
 -14   1  -1   27.65    6.60
 -13   1  -1    9.23    5.38
 -12   1   1  280.50   13.64
 -12   1  -1  253.13   12.37
 -11   1   1    2.15    4.07
 -11   1  -1    7.00    4.00
 -10   1  -1  103.07    6.67
 -10  -1  -1   82.47    4.50
 -10   1  -1   83.52    4.54
 -10  -1   1   78.40    4.28
 -10   1   1   98.79    7.17
 -10   1   1   78.96    4.26
  -9  -1   1    0.67    1.72
  -9   1   1    1.35    1.77
  -9   1   1    4.24    3.81
  -9   1  -1    1.19    1.77
  -9  -1  -1    0.31    1.76
  -8  -1   1  560.78   17.18
  -8   1   1  566.75   17.21
  -8  -1  -1  580.76   17.27
  -8   1  -1  639.42   18.90
  -8   1   1  628.52   20.15
  -8   1  -1  571.35   17.27
  -7   1   1  120.58    4.92
  -7  -1  -1  128.18    5.07
  -7   1   1  154.27    7.42
  -7   1  -1  164.46    6.34
  -7  -1   1  128.09    4.99
  -7   1  -1  127.75    5.08
  -6   1  -1   68.90    3.17
  -6   1  -1   86.46    4.14
  -6   1   1   69.57    3.20
  -6   1   1   82.37    5.24
  -6  -1  -1   72.70    3.21
  -6  -1   1   71.67    3.22
  -5  -1  -1  137.51    4.68
  -5   1   1  149.04    7.01
  -5   1  -1  157.98    5.63
  -5   1   1  122.04    4.60
  -5  -1   1  130.56    4.63
  -5   1  -1  126.64    4.64
  -4  -1   1  615.56   17.45
  -4  -1  -1  639.67   17.48
  -4   1  -1  589.31   18.08
  -3   1   1  498.30   18.53
  -3  -1  -1  545.77   13.96
  -2  -1  -1   19.18    1.10
   0  -1  -1  640.83   29.07
   0  -1  -1  832.27   22.67
   1   1  -1   11.36    0.87
   1   1   1   12.79    1.55
   1   1  -1    8.35    3.61
   1  -1  -1   11.03    1.08
   2  -1  -1   15.30    3.64
   2  -1  -1   18.16    1.08
   2   1  -1   21.31    1.35
   3  -1   1  506.16   14.42
   3  -1  -1  528.82   16.55
   3  -1  -1  529.46   14.55
   4  -1  -1  638.05   17.69
   4  -1   1  624.25   17.60
   5  -1   1  128.86    4.53
   5  -1  -1  128.00    4.56
   6  -1  -1   69.55    3.13
   6  -1   1   67.35    3.06
   7  -1  -1  128.18    4.92
   7  -1   1  122.91    4.83
   8  -1   1  539.18   16.40
   8  -1  -1  566.67   16.60
   9  -1  -1    1.14    1.79
   9  -1   1    1.48    1.71
  10   1   1   70.84    4.04
  10   1  -1   71.75    4.21
  10  -1  -1   71.17    4.21
  10  -1   1   70.15    4.07
  11  -1  -1    0.66    2.17
  11  -1   1    0.74    1.97
  11   1  -1    0.99    2.16
  11   1   1   -1.41    2.07
  12  -1   1  230.56    8.94
  12   1   1  223.19    8.89
  12   1  -1  254.59    9.51
  12  -1  -1  254.95    9.58
  13  -1  -1    5.92    2.92
  13  -1   1    6.38    2.68
  13   1  -1    7.27    2.95
  13   1   1    7.56    2.54
  14   1  -1   28.71    3.83
  14  -1  -1   30.88    3.92
  14   1   1   28.80    3.62
  14  -1   1   31.46    3.74
  15   1  -1    0.12    3.15
  15   1   1    2.45    2.94
  15  -1   1    3.50    3.03
  15  -1  -1    1.77    3.18
 -14   1  -2   29.77    6.23
 -13   1  -2    4.22    4.52
 -12   1  -2  257.14   12.22
 -12   1   2  294.66   14.24
 -11   1  -2   22.74    4.26
 -11   1   2   12.94    5.02
 -10   1  -2  175.66    8.08
 -10   1   2  159.63    9.58
 -10  -1  -2  155.71    6.69
 -10   1  -2  162.37    6.76
  -9   1  -2   31.92    2.87
  -9  -1  -2   31.44    2.86
  -9   1   2   33.60    5.06
  -8  -1  -2  700.43   20.59
  -8   1   2  731.06   23.84
  -8   1  -2  690.66   20.58
  -7   1  -2    0.65    1.50
  -7  -1  -2   -0.11    1.36
  -7   1   2   -0.45    3.21
  -6  -1  -2  182.10    6.33
  -6   1  -2  174.72    6.27
  -5  -1  -2  201.39    6.80
  -5   1  -2  198.17    6.76
  -4  -1  -2  527.27   14.75
  -4   1  -2  493.31   14.69
  -3  -1  -2   17.32    1.47
  -1  -1   2  213.68    6.57
   0  -1   2  105.44    8.48
   0  -1  -2  120.17    8.67
   1  -1  -2  185.78    8.16
   1  -1  -2  185.63    6.18
   1   1  -2  206.60   10.99
   1   1   2  201.25   11.59
   2   1  -2   95.27    3.07
   2  -1  -2   89.98    3.57
   3  -1  -2   19.38    3.22
   3   1  -2   18.89    1.24
   4  -1  -2  539.00   17.35
   4  -1  -2  500.62   14.81
   5  -1  -2  196.31    6.73
   6  -1  -2  177.68    6.36
   7  -1  -2   -0.06    1.31
   8  -1   2  635.28   19.10
   8  -1  -2  676.50   19.52
   9  -1   2   29.29    2.57
   9  -1  -2   29.79    2.83
  10  -1   2  138.83    5.95
  10   1   2  138.41    5.95
  10   1  -2  150.05    6.39
  10  -1  -2  154.09    6.40
  11   1   2   14.59    2.48
  11   1  -2   17.19    2.87
  11  -1  -2   13.22    2.67
  12   1  -2  243.38    9.70
  12  -1  -2  255.38    9.72
  13  -1  -2    2.75    2.93
  13   1  -2    3.50    3.00
  14   1  -2   28.43    4.16
  14  -1  -2   37.54    4.43
  15  -1  -2    4.84    3.67
  15   1  -2    5.88    3.56
 -13   1  -3    8.55    4.20
 -12   1  -3   95.98    6.87
 -11   1   3   21.51    5.61
 -11   1  -3   23.26    3.75
 -10   1   3   20.56    5.12
 -10   1  -3   24.29    3.01
 -10  -1  -3   24.84    2.99
  -9   1  -3   14.36    2.56
  -9   1   3   13.84    4.43
  -9  -1  -3   12.34    2.46
  -8  -1  -3  182.69    7.02
  -8   1  -3  176.78    7.01
  -8   1   3  187.36   10.08
  -7   1   3   -0.97    4.04
  -7   1  -3    0.25    1.82
  -7  -1  -3   -0.82    1.77
  -6   1  -3   61.29    3.44
  -6   1   3   61.48    6.33
  -6  -1  -3   64.63    3.51
  -5  -1  -3  230.69    7.84
  -5   1  -3  223.76    7.80
  -4  -1  -3  949.62   26.33
  -4   1  -3  911.60   26.28
  -2   1   3  724.92   24.79
  -1   1   3  162.91    6.74
   0  -1   3 1472.66   40.56
   0   1   3 1547.49   42.50
   0  -1  -3 1570.39   46.06
   1  -1   3  152.10    5.71
   1   1  -3  150.54    8.91
   1   1   3  153.60    9.50
   2  -1  -3  874.08   26.40
   2  -1  -3  577.86   17.23
   3  -1  -3    6.72    3.12
   3  -1  -3   10.64    1.13
   4   1  -3  821.93   22.24
   4  -1  -3  752.28   26.32
   5  -1  -3  223.87    7.79
   6  -1  -3   60.56    3.58
   7  -1  -3    0.41    1.74
   8  -1  -3  173.59    6.90
   9  -1  -3   10.84    2.44
  10   1  -3   23.92    3.02
  10  -1  -3   24.88    3.08
  11   1  -3   17.14    3.02
  11  -1  -3   21.27    3.13
  12   1  -3  123.87    6.34
  12  -1  -3  106.67    6.09
  13   1  -3    0.88    2.87
  13  -1  -3    0.77    3.01
  14  -1  -3   25.58    4.27
  14   1  -3   23.96    4.16
 -13   1  -4    4.89    3.69
 -12   1  -4   52.98    5.02
 -11   1  -4   14.82    3.43
 -10   1   4   44.27    7.06
  -9   1  -4    4.34    2.28
  -9  -1  -4    6.99    2.53
  -9   1   4    2.75    5.68
  -8  -1  -4  190.17    7.70
  -8   1  -4  200.37    7.87
  -8   1   4  197.49   11.80
  -7   1   4  237.24   13.36
  -7  -1  -4  233.34    8.67
  -7   1  -4  230.78    8.67
  -6   1  -4  103.82    5.04
  -6  -1  -4   99.85    4.90
  -5  -1  -4   44.09    3.25
  -5   1  -4   46.26    3.25
  -4   1  -4  461.44   12.81
  -4  -1   4  350.24   12.53
  -3  -1   4  355.66   10.66
  -3   1  -4  284.67    9.90
  -2   1   4  316.03   10.27
  -2  -1   4  250.69    9.29
  -1   1   4    1.90    1.49
  -1  -1   4    3.79    1.33
   0  -1   4  799.80   25.41
   0  -1  -4  838.61   25.13
   0   1   4  732.24   23.92
   0  -1   4  750.79   22.61
   1  -1   4    2.81    1.92
   1   1  -4    2.00    2.67
   1   1   4    6.22    3.80
   2   1  -4  306.00   12.92
   2   1   4  311.83   13.69
   3  -1  -4  432.00   16.63
   3  -1  -4  366.05   11.09
   4  -1  -4  369.09   10.87
   4  -1  -4  303.02   14.50
   5  -1  -4   32.48    1.96
   5   1  -4   32.91    1.25
   6  -1  -4   89.77    4.73
   7  -1  -4  227.25    8.81
   8  -1  -4  182.53    7.68
   9   1  -4    4.18    2.52
   9  -1  -4    0.57    2.32
  10   1  -4   51.08    4.23
  10  -1  -4   49.31    4.14
  11   1  -4   15.03    3.39
  11  -1  -4   13.37    3.31
  12  -1  -4  113.88    6.46
  12   1  -4  109.33    6.37
  13   1  -4   15.20    3.71
  13  -1  -4   12.06    3.67
  14  -1  -4   45.75    4.75
  14   1  -4   43.06    4.88
 -12   1  -5   68.71    5.13
  -9   1  -5   24.92    3.51
  -9  -1  -5   21.28    3.25
  -8   1  -5  389.76   12.72
  -8   1   5  355.45   17.35
  -8  -1  -5  393.66   12.73
  -7  -1   5   23.23    3.18
  -7   1  -5   28.88    3.48
  -7  -1  -5   30.24    3.59
  -6  -1  -5  329.28   10.69
  -6   1  -5  311.24   10.61
  -5   1   5   17.34    5.66
  -5   1  -5   19.14    2.38
  -5  -1   5   20.03    2.67
  -4   1  -5  138.51    5.36
  -4   1   5  153.39    9.62
  -3   1  -5   45.64    3.13
  -3  -1   5   49.16    3.20
  -2  -1   5    4.74    1.79
  -2   1   5    4.82    1.63
  -2   1  -5    4.95    1.81
  -1  -1  -5   29.38    3.08
  -1   1   5   34.51    3.18
  -1  -1   5   33.43    3.19
   0  -1   5   14.13    3.01
   0   1   5    6.41    2.17
   0  -1  -5   10.65    3.28
   1  -1   5   51.91    3.85
   1  -1   5   50.28    4.62
   1  -1  -5   53.01    4.52
   2   1  -5    5.87    2.38
   2   1   5    3.96    2.85
   4  -1  -5  132.03    8.97
   4  -1  -5   92.28    3.63
   5  -1  -5   13.19    1.27
   5  -1  -5   19.04    4.82
   6  -1  -5  243.25    7.83
   7   1  -5   18.13    0.88
   7  -1  -5   18.54    1.60
   8  -1  -5  375.02   13.09
   8   1  -5  334.94   12.78
   9   1  -5   21.45    3.56
   9  -1  -5   22.79    3.55
  10   1  -5  219.18    9.62
  10  -1  -5  227.39    9.74
  11   1  -5    9.48    3.44
  11  -1  -5    8.35    3.46
  12  -1  -5  129.00    7.39
  12   1  -5  136.21    7.57
  13   1  -5    6.02    3.69
  13  -1  -5    7.87    3.61
  14   1  -5   56.47    5.58
  14  -1  -5   53.09    5.50
  -8  -1  -6  132.82    6.64
  -8   1  -6  130.49    6.68
  -7   1  -6   -0.20    1.35
  -7   1  -6    2.02    2.88
  -7  -1  -6    3.07    2.99
  -7  -1   6    2.92    2.41
  -6   1  -6  182.36    6.79
  -6   1   6  178.82   11.43
  -5   1  -6  273.65    8.64
  -5   1   6  256.91   13.12
  -4   1   6  250.61   11.90
  -4   1  -6  245.97    8.06
  -3   1   6   24.84    4.77
  -3   1  -6   21.33    2.87
  -3  -1   6   14.29    2.51
  -2  -1  -6  226.81    9.28
  -2   1   6  218.97    9.30
  -2   1  -6  220.53    8.86
  -1  -1  -6   94.60    6.35
  -1  -1   6  105.57    6.24
   0   1   6  292.53   12.47
   0  -1   6  318.00   12.60
   0  -1  -6  337.98   15.48
   1  -1   6  114.13    5.20
   1  -1  -6   94.88    4.82
   2   1   6  396.11   15.50
   2  -1  -6  397.30   16.68
   3   1  -6   19.34    3.18
   3   1   6   16.25    3.43
   5  -1  -6  177.20    5.84
   6  -1  -6  124.62    4.37
   7   1  -6    0.95    3.01
   7  -1  -6    1.23    0.92
   7  -1  -6    1.42    2.95
   8   1  -6  114.19    6.54
   8  -1  -6  123.39    6.70
   9  -1  -6   24.61    4.29
   9  -1  -6   16.24    1.61
   9   1  -6   23.11    4.30
  10   1  -6   82.65    5.84
  10   1  -6   54.01    1.98
  10  -1  -6   79.63    5.80
  10  -1  -6   59.15    2.95
  11  -1  -6   23.67    4.48
  11   1  -6   17.57    4.22
  12  -1  -6   49.48    5.40
  12   1  -6   48.96    5.39
  13   1  -6    1.06    3.85
  13  -1  -6    4.07    3.90
 -11   1  -7    4.99    1.13
 -10   1  -7   22.63    1.91
  -9   1  -7   -0.55    1.79
  -8   1  -7   10.07    2.29
  -7   1  -7   75.11    3.98
  -6   1  -7  105.95    4.58
  -6   1   7   93.49    7.98
  -5  -1   7    0.11    2.45
  -5   1   7   -0.66    3.52
  -5   1  -7    1.72    2.18
  -4   1   7  142.99    9.02
  -4   1  -7  153.38    6.37
  -3  -1  -7   52.19    4.03
  -3  -1   7   75.37    5.92
  -2  -1  -7  352.31   15.82
  -2   1   7  301.95   14.77
  -1   1   7   18.65    3.28
  -1  -1   7   17.39    3.53
  -1  -1  -7   20.80    4.79
   0   1   7  487.70   17.42
   0  -1  -7  513.19   20.29
   1  -1  -7   19.71    5.10
   2  -1   7  426.63   14.11
   2  -1  -7  423.90   14.16
   3   1   7   94.25    6.04
   3   1  -7   85.13    5.42
   4   1  -7  104.27    6.59
   4   1   7  113.76    7.14
   8   1  -7   17.54    4.26
   8  -1  -7   13.88    4.08
   8  -1  -7   11.53    1.12
   9  -1  -7   -0.03    0.87
   9   1  -7   -0.45    3.76
   9  -1  -7    0.75    3.80
  10   1  -7   37.74    5.34
  10  -1  -7   38.05    5.36
  11   1  -7   11.44    4.57
  11  -1  -7   13.15    4.51
  12  -1  -7   24.18    5.00
  12   1  -7   25.57    4.98
  -9   1  -8    3.02    1.16
  -8   1  -8   95.54    4.00
  -7   1  -8   29.49    2.62
  -6   1  -8  158.94    6.41
  -5  -1   8    2.48    3.82
  -5  -1  -8    7.87    1.95
  -4  -1  -8   20.03    2.86
  -4  -1   8   20.36    4.25
  -4   1  -8   45.18    3.67
  -4   1   8   47.35    5.71
  -3  -1   8   45.50    5.06
  -3  -1  -8   33.24    4.28
  -2  -1  -8   27.45    4.75
  -2  -1   8   21.74    3.90
  -2  -1   8   32.60    1.99
  -2   1   8   24.82    3.59
  -1  -1  -8   -4.27    5.22
  -1  -1   8    0.54    2.58
  -1   1   8    1.60    2.76
   0  -1  -8   -1.07    4.69
   0   1   8    9.37    3.47
   1   1   8    5.78    3.77
   1  -1  -8    0.62    4.26
   2  -1  -8   40.10    6.16
   3  -1  -8   50.90    3.48
   3  -1   8   47.71    3.14
   4   1   8   31.93    3.59
   4   1  -8   27.46    3.20
   5   1   8    9.85    2.91
   5   1  -8    9.81    2.78
   8   1  -8   87.68    6.95
   8  -1  -8   83.49    6.90
   9  -1  -8    0.87    4.13
   9   1  -8    4.00    4.44
  10   1  -8  124.82    8.50
  10  -1  -8  129.55    8.60
  11   1  -8   -1.48    4.89
  11  -1  -8    1.10    4.84
  -8  -1  -9   34.25    2.89
  -7  -1  -9    2.10    1.67
  -6  -1  -9   71.68    4.55
  -5  -1  -9   22.17    3.31
  -4  -1   9   22.60    4.40
  -4  -1  -9   24.48    4.23
  -3  -1   9    9.10    3.30
  -3  -1  -9   11.42    3.70
  -2   1   9   99.73    6.19
  -2  -1   9  100.25    3.63
  -1  -1   9   15.03    3.30
  -1   1   9   17.29    3.72
  -1  -1  -9   10.64    4.17
   0   1   9   12.01    3.75
   0  -1  -9    5.82    3.99
   1   1   9   21.21    4.32
   1  -1  -9   18.49    4.96
   2  -1  -9  113.92    8.61
   3  -1  -9   25.69    6.04
   4  -1   9   28.34    2.16
   4  -1  -9   26.05    2.56
   5   1  -9   34.06    3.33
   5   1   9   32.66    3.40
   6   1   9   89.17    6.01
   6   1  -9   94.47    5.80
   7   1   9    3.93    2.94
   9   1  -9    0.19    5.02
   9  -1  -9    3.50    4.83
  10   1  -9   67.03    7.19
  10  -1  -9   76.68    7.45
  -9  -1 -10   -1.70    2.04
  -8  -1 -10   -2.00    2.32
  -7  -1 -10   -1.08    2.63
  -6  -1 -10   29.65    4.27
  -5  -1 -10    0.16    3.14
  -4  -1 -10   37.69    5.03
  -3  -1 -10   -4.15    4.29
  -2  -1  10  199.48    9.64
  -2  -1 -10  187.15    9.93
  -1  -1  10    4.13    2.14
  -1  -1 -10    2.02    3.62
  -1   1  10    2.00    3.85
   0  -1 -10  147.66    9.21
   0   1  10  201.97    9.95
   1   1  10    3.01    3.59
   1  -1 -10    9.33    4.55
   2  -1 -10  286.66   14.17
   2   1  10  318.18   14.04
   3  -1 -10   10.54    5.46
   6   1  10   35.22    3.43
   9  -1 -10    2.78    5.08
   9   1 -10   -0.43    5.08
  -8  -1 -11    3.82    3.21
  -7  -1 -11   -1.11    4.10
  -6  -1 -11   17.72    4.11
  -5  -1 -11    8.27    3.67
  -4  -1 -11    5.11    3.25
  -3  -1 -11   13.25    3.63
  -2  -1 -11   34.69    4.53
  -1  -1  11    7.37    2.29
  -1   1  11    5.91    3.82
  -1  -1 -11    7.37    3.76
   0   1  11   25.45    4.71
   0  -1  11   19.61    3.24
   0  -1 -11   21.86    4.84
   1  -1 -11   17.77    5.24
   1   1  11    7.47    4.00
   2  -1 -11   54.48    6.33
   2   1  11   56.30    5.84
   3   1  11   24.30    5.14
  -6  -1 -12   29.11    3.68
  -5  -1 -12    1.19    2.97
  -4  -1 -12   10.77    3.39
  -3  -1 -12    5.11    3.41
  -2  -1 -12    9.91    4.09
  -1   1  12    0.41    3.42
  -1  -1 -12    4.19    4.12
   0   1  12    0.54    4.01
   0  -1 -12   12.62    4.78
   1   1  12    1.20    3.68
   1  -1 -12   12.07    4.76
   2   1  12   10.44    3.95
   3   1  12    5.53    4.00
   4   1  12   14.81    4.77
  -4  -1 -13   20.48    4.11
  -3  -1 -13   13.30    3.97
  -2  -1 -13   41.04    4.99
  -1  -1 -13   10.08    4.22
   0  -1 -13   47.21    6.03
   3   1  13    8.02    4.29
   4   1  13   22.43    4.77
   5   1  13    0.39    4.39
 -14   2   0   13.35    8.06
 -13   2   0   -2.90    7.11
 -12   2   0  104.31   11.69
 -11   2   0   -6.77    7.86
 -10   2   0   48.01    3.45
 -10  -2   0   47.58    3.44
  -9  -2   0   -0.51    1.82
  -9   2   0    1.74    5.26
  -9   2   0    0.19    1.93
  -8   2   0  420.71   12.37
  -8  -2   0  431.50   12.40
  -7   2   0   -2.40    4.40
  -7  -2   0   -1.25    1.48
  -7   2   0   -0.55    1.40
  -6   2   0  229.75    7.29
  -6  -2   0  230.23    7.31
  -5   2   0    0.88    2.14
  -5  -2   0   -0.27    0.99
  -5   2   0    0.24    0.91
  -4  -2   0 1675.00   45.28
  -4   2   0 1681.03   45.29
  -3  -2   0    0.12    0.56
  -3   2   0   -0.26    0.62
  -2  -2   0 1369.23   36.63
  -2   2   0 1366.22   36.65
  -1  -2   0   -1.10    5.05
   0  -2   0 1081.50   46.50
   1  -2   0    0.29    0.27
   1   2   0    0.13    0.25
   1   2   0    1.85    6.45
   1   2   0   -0.29    1.11
   2   2   0 1373.39   36.84
   2  -2   0 1355.37   36.85
   3   2   0   -0.43    1.38
   3  -2   0   -0.17    0.55
   3   2   0    0.10    0.59
   3  -2   0   -1.01    2.86
   3   2   0    4.19    6.10
   4   2   0 1674.55   44.86
   4  -2   0 1720.37   47.71
   4  -2   0 1636.54   44.86
   5  -2   0    0.03    0.93
   5   2   0   -0.33    0.89
   6   2   0  226.57    7.24
   6  -2   0  217.09    7.22
   7  -2   0   -0.30    1.40
   7   2   0   -0.85    1.39
   8  -2   0  410.56   12.81
   8   2   0  414.71   12.81
   9  -2   0    1.07    1.81
   9   2   0    2.43    1.76
  10  -2   0   37.34    3.18
  10   2   0   47.01    3.39
  11   2   0    1.32    2.10
  11  -2   0    0.23    1.97
  12   2   0  170.77    7.38
  12  -2   0  174.83    7.48
  13  -2   0    0.29    2.64
  13   2   0    1.93    2.65
  14   2   0   33.21    3.82
  14  -2   0   34.81    3.95
  15   2   0    0.11    2.88
  15  -2   0    2.70    3.18
 -13   2   1   10.17    9.24
 -13   2  -1    2.11    6.64
 -12   2   1  263.87   17.17
 -12   2  -1   98.96   10.84
 -11   2   1   -1.34    6.86
 -10   2   1  169.42    6.55
 -10   2   1  179.44   13.69
 -10  -2  -1  166.59    6.59
 -10   2  -1  176.21    6.76
 -10  -2   1  172.04    6.52
  -9   2   1    2.80    6.01
  -9   2   1    0.06    1.72
  -9   2  -1    0.29    4.54
  -9  -2  -1    0.07    1.86
  -9  -2   1    0.24    1.71
  -9   2  -1   -0.79    1.91
  -8  -2   1  701.53   19.43
  -8   2   1  672.94   19.38
  -8   2  -1  692.37   19.47
  -8  -2  -1  684.61   19.46
  -7   2   1   61.61    7.83
  -7  -2  -1   75.16    3.54
  -7  -2   1   73.10    3.46
  -7   2  -1   54.04    5.96
  -7   2   1   77.40    3.54
  -7   2  -1   82.10    3.63
  -6   2  -1  459.03   12.96
  -6  -2  -1  453.37   12.93
  -6   2   1  446.23   12.89
  -6  -2   1  432.59   12.84
  -5   2  -1  136.08    4.65
  -5  -2   1  130.17    4.59
  -5   2   1  127.30    4.59
  -5  -2  -1  133.19    4.60
  -4  -2  -1 1295.25   35.38
  -4   2  -1 1308.23   35.39
  -3  -2  -1  200.41    5.98
  -3   2  -1  197.23    5.98
  -2   2  -1  717.39   19.28
  -2  -2  -1  693.40   19.24
  -2  -2   1  723.69   21.44
  -1  -2  -1   32.57    2.56
  -1  -2  -1   30.13    1.21
  -1  -2   1   35.22    2.53
  -1   2  -1   30.86    1.22
   0  -2  -1 1481.78   41.91
   0   2   1 1600.63   42.39
   1  -2  -1   34.04    2.56
   1   2  -1   32.48    8.52
   1   2   1   36.20    2.90
   2   2   1  822.72   22.32
   2   2  -1  695.59   19.21
   2  -2  -1  676.53   19.20
   2   2  -1  807.00   21.01
   3  -2  -1  199.60    6.21
   3  -2  -1  230.27   12.66
   3   2  -1  190.14    6.18
   3  -2   1  245.73    9.75
   3   2  -1  204.64   16.54
   3   2  -1  239.54    7.70
   3   2   1  288.29    9.96
   4  -2  -1 1199.04   40.21
   4  -2  -1 1257.60   34.98
   4   2  -1 1379.16   36.78
   4  -2   1 1408.01   35.73
   4   2  -1 1268.67   34.97
   4  -2   1 1258.04   34.95
   4   2   1 1269.28   34.94
   5  -2   1  132.18    4.64
   5  -2  -1  126.50    4.65
   5   2  -1  133.95    4.67
   5   2   1  133.60    4.62
   6   2  -1  448.13   13.00
   6  -2   1  417.07   12.84
   6   2   1  437.90   12.87
   6  -2  -1  439.59   12.98
   7  -2  -1   76.71    3.56
   7   2   1   76.91    3.48
   7  -2   1   73.06    3.47
   7   2  -1   74.34    3.54
   8   2  -1  688.88   19.77
   8  -2  -1  667.23   19.72
   8   2   1  671.90   19.61
   8  -2   1  664.53   19.63
   9   2   1    0.66    1.59
   9  -2   1   -0.36    1.61
   9  -2  -1    0.13    1.76
   9   2  -1    0.46    1.66
  10   2  -1  167.91    6.72
  10   2   1  162.41    6.49
  10  -2   1  158.75    6.42
  10  -2  -1  158.13    6.62
  11  -2  -1    0.76    2.21
  11  -2   1   -0.51    1.93
  11   2   1   -0.37    2.01
  11   2  -1   -0.17    2.31
  12  -2   1  229.37    9.03
  12   2  -1  255.53    9.61
  12  -2  -1  246.85    9.52
  12   2   1  239.46    9.11
  13   2  -1    8.00    2.98
  13  -2  -1    7.07    2.93
  13   2   1    6.90    2.67
  13  -2   1    5.57    2.72
  14   2  -1   42.42    4.32
  14  -2  -1   44.05    4.37
  14   2   1   42.86    4.21
  14  -2   1   45.15    4.26
  15  -2  -1    0.24    3.38
  15   2  -1    3.90    3.59
 -13   2  -2   -2.80    6.07
 -12   2  -2  228.24   14.19
 -12   2   2  311.17   20.41
 -11   2  -2    0.28    5.49
 -11   2   2    3.43    7.71
 -10   2  -2  254.95    9.13
 -10  -2  -2  246.94    9.06
  -9  -2  -2   12.06    2.31
  -9   2  -2    6.63    4.06
  -9   2   2   11.47    6.96
  -9   2  -2   11.48    2.27
  -8   2   2  878.75   34.76
  -8   2  -2  874.32   24.03
  -8  -2  -2  850.82   23.96
  -7   2  -2    3.92    1.59
  -7   2  -2    1.42    2.02
  -7   2   2    4.61    5.18
  -7  -2  -2    2.10    1.59
  -6   2  -2  552.17   15.98
  -6  -2  -2  529.70   15.92
  -6   2   2  572.47   23.07
  -5  -2  -2  115.08    4.39
  -5   2  -2  120.62    4.48
  -4  -2  -2 1225.94   33.70
  -4   2  -2 1228.77   33.74
  -3   2  -2    8.73    1.12
  -3  -2  -2    9.50    1.22
  -2  -2   2  394.90   12.85
  -1  -2   2   66.43    8.86
  -1  -2   2   89.79    4.34
  -1  -2  -2   77.31    9.17
   0  -2  -2  831.45   35.28
   0  -2  -2  824.54   23.87
   1  -2  -2   69.39    3.63
   1   2   2  107.02   13.02
   1   2  -2   98.29   11.65
   2  -2  -2  392.63   14.98
   2  -2  -2  375.83   12.23
   2   2   2  333.74   21.32
   2   2  -2  352.21   20.88
   2   2   2  392.03   13.96
   3  -2  -2    7.05    5.15
   3   2  -2    9.98    5.36
   3  -2  -2    8.39    1.52
   3  -2   2   13.73    1.75
   3   2  -2    9.42    1.34
   3   2  -2    8.13    1.13
   3  -2  -2    8.15    1.16
   3   2   2    6.21    5.32
   4   2  -2 1192.23   32.98
   4   2  -2 1205.58   32.53
   4  -2  -2 1177.88   32.50
   5   2  -2  116.42    4.52
   5   2  -2  119.71    5.02
   5  -2  -2  112.93    4.49
   6   2  -2  518.08   15.52
   6  -2  -2  504.67   15.49
   7   2  -2    1.94    1.58
   7  -2  -2    3.63    1.58
   8   2  -2  849.67   24.48
   8  -2  -2  837.16   24.41
   9  -2  -2    9.80    2.17
   9   2  -2    9.44    2.18
  10  -2  -2  237.60    8.87
  10   2  -2  240.18    8.85
  11   2  -2    5.46    2.54
  11  -2  -2    4.07    2.37
  12  -2  -2  263.71   10.08
  12   2  -2  257.96   10.06
  13  -2  -2    1.27    2.93
  13   2  -2    1.37    2.88
  14  -2  -2   52.10    4.77
  14   2  -2   43.00    4.58
  15   2  -2    7.44    3.82
  15  -2  -2    4.76    3.60
 -12   2  -3  126.55    9.20
 -11   2  -3   20.73    5.00
 -11   2   3   19.92    8.73
 -10   2  -3   80.94    6.60
 -10  -2  -3   77.91    4.62
 -10   2   3   83.21   11.41
 -10   2  -3   79.28    4.73
  -9   2  -3   17.95    3.37
  -9   2  -3   15.48    2.57
  -9   2   3   20.31    7.70
  -9  -2  -3   14.19    2.49
  -8   2  -3  339.65   10.84
  -8  -2  -3  335.60   10.79
  -7   2  -3    3.32    1.77
  -7  -2  -3    3.17    1.87
  -7   2   3    4.50    5.58
  -6   2  -3  382.85   12.19
  -6  -2  -3  378.93   12.13
  -5   2  -3  175.51    6.39
  -5  -2  -3  174.43    6.37
  -4   2  -3 1427.03   40.08
  -4  -2  -3 1483.56   40.11
  -2  -2   3 1499.81   42.12
  -1  -2   3  103.86   10.44
  -1  -2   3  103.20    4.78
  -1  -2  -3  110.69    9.88
  -1   2   3  117.27    5.92
   0  -2  -3 2405.09   79.95
   0  -2   3 2068.05   79.83
   1  -2  -3   86.17    4.15
   1   2  -3  145.49   12.35
   2  -2  -3 1409.59   39.48
   2  -2  -3 1398.11   44.28
   2   2  -3 1491.11   50.25
   2   2   3 1370.19   51.63
   3  -2  -3    5.53    1.36
   3   2  -3    5.58    4.88
   3  -2  -3    9.93    5.48
   3   2   3    6.42    4.99
   4  -2  -3 1505.84   46.84
   4   2  -3 1397.00   37.83
   4   2  -3 1419.23   38.20
   4  -2  -3 1418.90   38.20
   5   2  -3  173.21    5.99
   5  -2  -3  156.46   10.13
   5   2  -3  172.51    6.37
   5  -2  -3  174.42    6.39
   6  -2  -3  358.31   11.59
   6  -2  -3  385.12   15.78
   6   2  -3  369.28   11.62
   6   2  -3  336.21   11.02
   7   2  -3    3.00    1.50
   7   2  -3    2.24    1.87
   7  -2  -3    1.95    1.74
   8  -2  -3  314.61   10.89
   8   2  -3  327.92   10.96
   9   2  -3   15.75    2.56
   9  -2  -3   15.63    2.59
  10  -2  -3   71.78    4.49
  10   2  -3   71.38    4.48
  11   2  -3   19.76    3.11
  11  -2  -3   16.96    3.01
  12   2  -3  128.03    6.48
  12  -2  -3  121.12    6.41
  13  -2  -3    0.11    3.01
  13   2  -3   -0.33    3.05
  14   2  -3   40.89    4.83
  14  -2  -3   42.92    4.79
 -12   2  -4  110.71    5.66
 -11   2  -4    3.66    2.03
 -10   2  -4   93.15    3.95
 -10   2   4  135.13   12.67
  -9   2  -4    0.08    2.34
  -9   2   4   -3.64    6.52
  -9  -2  -4    1.56    2.35
  -8   2  -4  290.09   10.49
  -8  -2  -4  293.05   10.49
  -7   2   4  139.43   11.01
  -7  -2  -4  128.09    5.75
  -7   2  -4  121.96    5.76
  -6   2  -4  374.44   12.51
  -6  -2  -4  382.65   12.52
  -5  -2  -4   55.76    3.47
  -5   2  -4   51.06    3.46
  -2  -2   4  978.77   28.23
  -1   2   4    3.23    2.29
   0   2   4 1582.80   45.35
   0  -2  -4 1505.17   50.13
   1  -2   4    4.95    0.94
   1  -2  -4    1.28    4.93
   1  -2   4    4.04    5.80
   1  -2  -4    3.09    1.30
   1  -2  -4    0.32    2.33
   1   2   4    0.68    2.16
   2  -2  -4  857.67   26.72
   2   2   4  891.49   30.94
   2  -2  -4 1021.57   34.14
   2  -2   4  973.05   26.16
   2   2   4 1070.43   38.36
   2   2  -4 1016.32   35.76
   3   2  -4  302.21   16.46
   3   2   4  340.37   18.52
   4   2   4  830.48   35.50
   4  -2  -4  815.20   24.83
   5  -2  -4   54.70    6.97
   5   2  -4   51.06    3.40
   5  -2  -4   44.50    3.28
   5   2  -4   38.12    1.85
   5  -2  -4   40.36    2.63
   6   2  -4  357.91   11.43
   6   2  -4  329.62    9.94
   6  -2  -4  348.58   11.36
   6  -2  -4  323.89   15.74
   7   2  -4  115.29    5.48
   7  -2  -4  110.60    5.53
   7   2  -4   99.68    3.99
   8  -2  -4  272.83    9.70
   8   2  -4  281.04    9.77
   9   2  -4    0.75    1.39
   9   2  -4   -0.09    2.38
   9  -2  -4    1.26    2.44
  10  -2  -4  117.30    6.14
  10   2  -4  116.47    6.08
  11   2  -4    7.34    2.96
  11  -2  -4    8.11    2.94
  12   2  -4  119.52    6.60
  12  -2  -4  120.79    6.67
  13   2  -4   14.04    3.86
  13  -2  -4    9.21    3.44
  14  -2  -4   47.62    5.12
  14   2  -4   49.13    5.11
  -8   2  -5  532.19   17.75
  -8  -2  -5  561.91   17.84
  -7  -2  -5   26.88    3.40
  -7   2  -5   26.16    3.27
  -7   2   5   28.66    6.35
  -6   2  -5  497.74   16.44
  -6  -2  -5  506.49   16.45
  -2  -2   5  168.74    6.77
  -2   2   5  203.38    8.99
  -1   2   5   33.63    4.13
  -1  -2   5   25.96    2.01
   0  -2  -5  218.66   11.32
   0  -2   5  202.40   11.55
   0  -2   5  169.40    6.14
   0   2   5  184.62    9.32
   1  -2  -5   35.33    5.49
   1   2   5   18.01    3.46
   1  -2   5   21.81    2.05
   1  -2   5   35.53    6.01
   2  -2  -5  247.23   15.06
   2  -2   5  257.75    8.95
   2   2  -5  256.76   14.64
   3  -2  -5   87.03   10.06
   3  -2  -5   41.80    2.62
   3   2   5   73.77    8.32
   3   2  -5   50.36    6.37
   4   2   5  422.42   20.45
   4   2  -5  430.86   19.41
   4  -2  -5  365.21   12.17
   5   2  -5   23.18    6.05
   5  -2  -5   33.67    7.05
   5  -2  -5   14.78    1.74
   5   2   5   18.85    6.40
   6  -2  -5  457.26   14.66
   6  -2  -5  450.07   19.88
   6   2  -5  482.23   14.77
   7   2  -5   29.89    3.57
   7  -2  -5   23.96    3.34
   7  -2  -5   20.57    2.10
   8  -2  -5  393.59   13.47
   8   2  -5  514.80   15.52
   8  -2  -5  512.61   15.51
   8   2  -5  420.36   12.39
   9   2  -5   12.43    1.36
   9   2  -5   15.17    3.22
   9  -2  -5   17.65    3.45
  10  -2  -5  242.87    9.37
  10   2  -5  233.43    9.32
  11   2  -5    7.81    1.50
  11   2  -5    9.08    3.32
  11  -2  -5    8.77    3.55
  12   2  -5  127.39    7.29
  12  -2  -5  133.02    7.47
  13  -2  -5    6.93    3.71
  13   2  -5   10.08    3.85
  -8   2  -6  182.21    8.29
  -7  -2  -6    0.83    3.01
  -7   2  -6    2.00    3.14
  -7   2   6   -0.56    4.57
  -7  -2   6    5.06    2.29
  -6  -2  -6  406.39   12.68
  -6   2  -6  398.23   12.59
  -5  -2   6  109.29    5.10
  -4  -2   6  323.26   10.88
  -3  -2   6   18.82    2.32
  -2  -2   6  449.98   13.17
  -2   2   6  495.66   16.63
  -1  -2  -6   57.68    4.37
  -1  -2   6   47.78    3.14
  -1   2   6   55.45    5.27
   0  -2   6  529.34   16.05
   0  -2  -6  494.98   18.56
   0   2   6  469.45   18.87
   1   2   6   66.43    6.08
   1  -2  -6   60.97    5.90
   1  -2   6   76.69    6.92
   1  -2   6   73.64    4.86
   2  -2  -6  725.50   28.38
   2  -2   6  784.65   30.25
   2   2   6  745.52   27.29
   3   2   6   20.33    5.20
   3   2  -6   15.87    4.12
   4   2   6  419.69   19.29
   4   2  -6  413.87   17.96
   5  -2  -6  111.60    4.71
   5   2  -6  130.76    9.84
   5   2   6  126.42   10.27
   6  -2  -6  246.40    8.67
   6   2   6  306.99   17.53
   7   2  -6   -0.81    2.91
   7  -2  -6    0.23    3.03
   7  -2  -6    0.49    1.15
   8   2  -6  180.79    8.23
   8  -2  -6  177.85    8.16
   9  -2  -6    8.82    1.71
   9   2  -6    7.72    3.46
   9  -2  -6   11.41    3.77
  10  -2  -6  106.63    6.68
  10   2  -6  114.22    6.81
  11   2  -6   12.96    3.89
  11  -2  -6   14.54    3.91
  12   2  -6   49.43    5.37
  12  -2  -6   55.11    5.49
  13   2  -6    1.33    3.94
  13  -2  -6    0.59    3.84
  -6  -2   7  112.20    5.55
  -5  -2   7    6.00    2.08
  -4  -2   7  180.03    7.19
  -3  -2   7   26.92    2.79
  -2  -2  -7  439.80   13.87
  -2  -2   7  441.83   12.29
  -1   2   7   -1.28    3.19
  -1  -2  -7   -0.32    2.61
  -1  -2   7   -2.99    2.67
   0  -2  -7  553.82   22.94
   0  -2   7  610.83   20.47
   1  -2   7    3.26    2.70
   1  -2   7    1.37    2.17
   1  -2  -7    7.78    5.30
   1  -2  -7    1.45    2.27
   1   2   7    4.56    3.45
   2  -2  -7  585.97   22.44
   2  -2   7  598.78   23.18
   4   2   7  259.92   13.54
   4   2  -7  242.18   12.42
   5   2   7    1.74    3.55
   5   2  -7    5.25    3.57
   6   2  -7  130.78    9.51
   6  -2  -7  121.53    4.99
   7  -2  -7   22.38    1.88
   7   2   7   23.00    5.87
   7   2  -7   22.30    5.62
   8  -2  -7   35.41    2.33
   8   2  -7   51.39    5.21
   8  -2  -7   47.94    5.09
   9  -2  -7    0.46    1.24
   9   2  -7   -0.30    3.84
   9  -2  -7    2.40    3.81
  10   2  -7   61.89    6.03
  10  -2  -7   59.26    5.99
  11   2  -7    7.77    4.23
  11  -2  -7    9.59    4.41
  12  -2  -7   35.86    5.37
  12   2  -7   31.09    5.16
  -5  -2   8    2.56    2.20
  -4  -2   8   47.42    3.71
  -3  -2  -8   32.56    3.42
  -3  -2   8   33.20    3.56
  -2  -2   8  112.47    6.62
  -2   2   8  129.03    7.98
  -2  -2   8  133.25    4.83
  -1  -2   8    0.58    2.64
  -1   2   8    1.38    3.76
  -1  -2  -8   -2.82    3.63
   0   2   8   41.20    5.57
   0  -2   8   33.91    3.75
   0  -2  -8   37.09    6.08
   1  -2  -8   -8.69    6.79
   1   2   8    1.16    3.65
   2  -2  -8  112.97    6.37
   2  -2   8  119.24    6.59
   2   2   8  214.31   11.07
   2  -2  -8  188.97   11.12
   3  -2  -8   46.53    4.60
   3  -2   8   42.92    4.71
   4   2   8   84.80    7.39
   4   2  -8   84.03    7.01
   5   2   8    4.26    3.31
   5   2  -8    8.97    3.46
   6  -2  -8  292.80   14.92
   6   2   8  153.14   10.48
   7   2   8   17.02    4.57
   7   2  -8   13.97    4.08
   8   2  -8   96.18    8.62
   8   2  -8  110.76    7.57
   8  -2  -8  112.23    7.53
   9   2   8    2.95    5.12
   9   2  -8    0.17    4.34
   9  -2  -8    1.18    4.39
  10  -2  -8  126.50    8.64
  10   2  -8  128.20    8.67
  11   2  -8   -0.35    4.75
  11  -2  -8    0.52    4.62
  -6  -2  -9   83.42    4.85
  -5  -2  -9   15.07    2.61
  -4  -2  -9   45.69    4.04
  -4  -2   9   59.34    5.16
  -3  -2  -9    3.69    2.94
  -3  -2   9    7.52    2.98
  -2  -2  -9   84.30    7.36
  -2  -2   9   93.12    6.55
  -1  -2   9    6.25    2.61
  -1   2   9   10.72    4.40
  -1  -2  -9    4.34    4.24
   0  -2   9   65.52    4.74
   0  -2  -9   55.61    7.38
   1  -2  -9    4.56    4.54
   1   2   9   15.10    5.08
   2  -2  -9  147.07   10.19
   2   2   9  197.61   10.92
   3   2   9   15.30    5.29
   3  -2   9    5.31    1.85
   3  -2  -9    6.47    1.87
   3  -2  -9   15.80    5.71
   4  -2  -9   71.74    5.25
   4  -2   9   70.23    5.13
   5   2  -9   24.92    4.17
   6   2   9  121.11    8.04
   7   2   9    4.19    3.27
   8   2   9   44.33    5.95
   8   2  -9   66.64    6.75
   8  -2  -9   59.83    6.70
   9   2  -9   -0.39    4.87
   9  -2  -9    1.53    4.80
  10   2  -9   73.27    7.44
  10  -2  -9   71.33    7.38
  -9  -2 -10    3.02    1.98
  -8  -2 -10    6.74    2.17
  -7  -2 -10   -0.94    1.80
  -6  -2 -10   27.41    3.24
  -5  -2 -10   -0.57    2.65
  -4  -2 -10   40.78    5.02
  -3  -2 -10   -1.69    3.54
  -2  -2  10  161.69    8.41
  -2  -2 -10  186.08   10.87
  -1   2  10    0.23    4.46
  -1  -2  10    1.06    2.32
  -1  -2 -10   -1.43    5.37
   0  -2 -10  168.48   10.89
   0   2  10  287.78   13.19
   1   2  10    2.33    4.55
   1  -2 -10   -2.06    4.32
   2  -2 -10  246.71   13.32
   2   2  10  335.04   14.80
   3   2  10    5.52    4.65
   3  -2 -10    5.62    5.11
   4  -2 -10  111.55    9.55
   4   2  10  118.24    9.53
   5  -2 -10    9.36    6.05
   5  -2  10   -1.01    1.98
   9   2 -10    0.85    5.09
   9  -2 -10   -5.52    5.46
  -8  -2 -11    4.37    2.48
  -7  -2 -11   -0.84    2.71
  -6  -2 -11   16.66    4.01
  -5  -2 -11    8.22    3.77
  -4  -2 -11   16.67    4.19
  -3  -2 -11    3.53    4.55
  -2  -2 -11   39.65    5.62
  -1  -2  11    4.87    1.63
  -1  -2 -11    3.00    3.81
  -1   2  11    4.13    4.41
   0   2  11   46.93    6.55
   0  -2 -11   25.59    5.03
   1   2  11    4.37    4.45
   1  -2 -11    7.06    4.48
   2   2  11   87.97    7.83
   2  -2 -11   64.18    6.96
   3   2  11   20.17    5.39
   3  -2 -11   21.97    5.76
   4  -2 -11   43.11    6.53
   4   2  11   24.36    5.47
   5   2  11   28.43    6.26
  -7  -2 -12   -2.14    3.95
  -6  -2 -12   15.48    4.23
  -5  -2 -12   -6.12    4.77
  -4  -2 -12    5.14    3.81
  -3  -2 -12   -1.05    3.60
  -2  -2 -12   12.07    3.93
  -1  -2 -12    1.47    3.67
  -1   2  12   -0.18    4.30
   0   2  12    4.31    4.86
   0  -2 -12    8.61    4.16
   1   2  12    2.89    4.77
   1  -2 -12    6.72    4.31
   2   2  12   23.61    5.65
   2  -2 -12   33.66    6.07
   3   2  12    2.49    4.69
   3  -2 -12    9.16    5.36
   4  -2 -12   38.57    6.96
   4   2  12   24.85    5.93
   5   2  12    0.23    4.70
   6   2  12   43.34    7.08
  -5  -2 -13   -0.74    3.07
  -4  -2 -13   11.14    3.37
  -3  -2 -13    8.99    3.85
  -2  -2 -13   35.65    4.90
  -1  -2 -13   11.96    4.40
   0  -2 -13   41.36    5.61
   2   2  13   55.24    6.80
   3   2  13    4.05    4.71
   4   2  13   25.77    5.85
   5   2  13    0.91    4.96
 -13   3   0    2.75    4.22
 -12   3   0  102.09    8.51
 -10  -3   0   18.88    2.62
 -10   3   0   19.95    2.72
  -9  -3   0   -0.63    1.78
  -9   3   0   -0.51    1.88
  -8  -3   0  121.34    5.15
  -8   3   0  133.56    5.31
  -7  -3   0    0.58    1.51
  -7   3   0    0.20    1.50
  -6  -3   0   55.78    2.82
  -6   3   0   56.04    2.84
  -5  -3   0   -0.51    1.08
  -5   3   0   -0.76    1.10
  -4  -3   0  416.78   11.98
  -4   3   0  418.75   12.01
  -3  -3   0    0.32    0.65
  -3   3   0    0.08    0.64
  -2  -3   0  170.38   21.63
  -2  -3   0  539.73   16.10
  -1  -3   0    4.19    7.04
   0  -3   0  262.67   22.61
   1   3   0    0.90    1.60
   2   3   0  645.30   18.76
   2   3   0  245.96   25.93
   3   3   0    0.89    1.75
   3   3   0    3.31    6.41
   3   3   0    0.04    0.62
   3  -3   0    0.31    0.64
   4  -3   0  402.30   11.75
   4  -3   0  403.56   19.42
   4   3   0  407.99   11.74
   5  -3   0   -0.23    0.94
   5   3   0    1.95    2.36
   5   3   0    0.85    7.79
   5  -3   0   -1.74    4.25
   5   3   0    0.30    1.01
   6   3   0   74.20    5.27
   6   3   0   53.28    2.77
   6  -3   0   53.22    2.79
   6  -3   0   76.53    4.95
   6   3   0   37.58   12.23
   7   3   0   -0.57    1.42
   7   3   0    0.36    2.90
   7  -3   0    0.05    1.33
   8  -3   0  118.83    4.98
   8   3   0  123.14    5.02
   9  -3   0    0.57    1.76
   9   3   0   -0.57    1.77
  10  -3   0   16.43    2.64
  10   3   0   21.93    2.63
  11   3   0    0.48    2.31
  11  -3   0   -0.40    2.17
  12   3   0   98.47    5.35
  12  -3   0   95.99    5.26
  13   3   0    1.21    2.82
  13  -3   0    1.75    2.75
  14  -3   0   30.73    3.81
  14   3   0   28.09    3.96
 -13   3   1    0.70    5.02
 -12   3   1   84.03    8.78
 -11   3   1   -0.63    4.38
 -10   3  -1   96.14    4.91
 -10  -3  -1   88.98    4.77
  -9  -3  -1    1.20    2.04
  -9   3  -1    0.20    1.96
  -8  -3  -1  302.35   10.01
  -8   3  -1  308.81   10.07
  -7  -3  -1   41.71    2.69
  -7   3  -1   41.26    2.74
  -6  -3  -1   83.78    3.59
  -6   3  -1   83.39    3.60
  -5   3  -1   58.91    2.71
  -5  -3  -1   59.20    2.70
  -4   3  -1  342.73    9.95
  -4  -3  -1  335.38    9.91
  -3   3  -1  122.20    3.94
  -3  -3  -1  121.03    3.92
  -2  -3  -1   20.81    1.03
  -2   3  -1   20.89    1.05
  -1  -3  -1    5.81    0.47
  -1   3  -1    5.82    0.48
  -1  -3  -1    3.12    6.21
  -1  -3   1    8.56    2.13
   0  -3  -1  337.76   12.59
   0   3   1  372.88   13.36
   1   3  -1    6.07    0.47
   1   3   1    7.62    2.04
   1  -3  -1    7.40    2.01
   1  -3  -1    6.08    0.48
   2   3  -1   21.11    1.02
   2  -3  -1   22.06    2.52
   2   3   1   30.50    3.44
   2   3  -1   20.60    9.48
   2   3  -1   23.49    2.43
   2  -3  -1   18.66    1.00
   3  -3  -1  182.07    9.73
   3   3  -1  122.89    4.05
   3   3  -1  171.09    6.71
   3   3  -1  134.03   16.11
   3   3   1  173.85    7.76
   3  -3  -1  118.10    4.04
   4   3  -1  434.47   13.03
   4   3  -1  345.04   10.39
   4  -3  -1  336.22   10.39
   4  -3  -1  400.45   20.34
   4  -3   1  412.49   16.80
   4   3   1  469.52   15.11
   4   3  -1  266.84   22.78
   5   3  -1   58.41    2.75
   5  -3  -1   60.04    2.80
   5  -3  -1   77.11    8.52
   5  -3   1   85.47    4.77
   5   3  -1   76.75    4.55
   5   3   1   79.50    5.84
   5   3  -1   68.07   12.01
   6  -3  -1   79.48    3.63
   6   3   1  120.19    7.74
   6   3  -1   94.71   15.14
   6   3  -1   79.82    3.61
   6  -3  -1  118.86    7.37
   6  -3   1  121.37    4.60
   6   3   1   82.97    3.63
   6  -3   1   88.38    3.75
   6   3  -1  105.75    5.76
   7   3  -1   38.74    2.59
   7  -3  -1   39.29    2.62
   7   3   1   40.88    2.63
   7  -3   1   39.73    2.56
   8  -3  -1  289.65    9.81
   8   3   1  298.48    9.76
   8  -3   1  288.70    9.71
   8   3  -1  293.64    9.87
   9   3  -1    0.20    1.93
   9  -3  -1    0.33    1.86
   9   3   1    0.62    1.78
   9  -3   1   -0.49    1.73
  10  -3   1   78.01    4.33
  10   3  -1   89.03    4.61
  10  -3  -1   84.26    4.60
  10   3   1   78.28    4.30
  11   3   1    1.23    2.26
  11  -3   1    0.15    2.08
  11  -3  -1    0.25    2.40
  11   3  -1    0.84    2.34
  12   3  -1  134.72    6.47
  12  -3  -1  135.65    6.49
  12   3   1  138.03    6.38
  12  -3   1  133.04    6.35
  13   3  -1    2.51    2.94
  13  -3  -1    2.98    2.97
  14   3  -1   30.32    4.03
  14  -3  -1   35.19    4.25
 -11   3   2   -3.32    6.00
 -10  -3  -2  134.24    5.90
 -10   3  -2  133.47    5.87
  -9  -3  -2    9.10    2.17
  -9   3  -2    8.66    2.17
  -8   3  -2  351.94   11.42
  -8  -3  -2  353.45   11.41
  -7  -3  -2    0.21    1.63
  -7   3  -2    0.53    1.62
  -6   3  -2  168.29    5.98
  -6  -3  -2  164.68    5.90
  -5  -3  -2   70.19    3.14
  -5   3  -2   69.39    3.15
  -4  -3  -2  227.96    7.06
  -4   3  -2  221.15    7.08
  -3   3  -2    5.26    1.03
  -3  -3   2    2.74    2.39
  -3  -3  -2    4.04    1.00
  -2  -3   2    7.36    2.33
  -2  -3  -2    5.88    0.95
  -2   3  -2    7.09    0.97
  -1  -3   2   47.94    4.12
  -1  -3  -2   43.64    3.69
  -1  -3  -2   41.65    9.66
  -1  -3   2   35.06    9.07
   0  -3  -2   59.40    3.95
   0  -3   2   69.91    4.48
   0  -3  -2   76.59   12.10
   0  -3   2   61.81   11.85
   1  -3  -2   58.36   11.97
   1  -3   2   40.29   12.09
   1   3   2   49.90    4.58
   1  -3  -2   39.36    3.23
   2   3   2   10.68    9.31
   2   3  -2   16.27    8.54
   2  -3  -2    6.34    1.95
   2   3  -2    6.61    0.95
   2  -3  -2    7.72    1.01
   2   3   2    8.89    2.81
   3   3  -2    3.53    6.35
   3   3  -2    4.71    1.50
   3   3   2    5.54    7.64
   3   3   2    3.44    2.64
   3  -3  -2    3.86    1.75
   3  -3  -2    3.85    3.24
   3   3  -2    4.79    1.04
   3  -3  -2    3.37    1.01
   4   3   2  276.74   11.88
   4  -3  -2  330.25   18.98
   4  -3   2  339.70   11.59
   4  -3  -2  239.57    9.31
   4  -3  -2  225.01    7.54
   4   3  -2  263.08   20.62
   4   3  -2  225.99    7.55
   4   3  -2  261.38    9.07
   4   3   2  250.15   21.05
   5   3  -2   65.98    3.16
   5   3   2   85.95    6.91
   5   3  -2   83.92   12.61
   5  -3  -2   65.95    3.20
   5  -3   2   85.88    3.29
   5  -3  -2   58.48    9.39
   5   3   2   81.60   12.91
   5   3  -2   79.19    4.14
   6   3   2  167.84   18.99
   6   3  -2  187.63   19.76
   6  -3  -2  187.46   11.04
   6   3  -2  189.38    7.34
   6  -3  -2  160.31    5.97
   6   3  -2  161.48    5.96
   7  -3  -2    1.07    1.53
   7   3  -2    0.89    1.98
   7  -3  -2    3.93    4.69
   7   3  -2    0.65    1.55
   8   3  -2  340.61   11.35
   8  -3  -2  345.46   11.37
   9  -3  -2    8.14    2.22
   9   3  -2   11.08    2.80
   9   3  -2   10.79    2.26
  10   3  -2  128.27    5.90
  10  -3  -2  119.10    5.82
  11   3  -2    6.32    2.63
  11  -3  -2    6.26    2.74
  11   3  -2    4.96    3.41
  12   3  -2  144.17    6.98
  12  -3  -2  155.20    7.20
  13  -3  -2   -2.89    3.20
  13   3  -2   -0.11    3.00
  14   3  -2   41.52    4.70
  14  -3  -2   38.01    4.63
 -10   3  -3   39.44    3.56
 -10  -3  -3   42.22    3.67
 -10   3   3   41.36    7.85
  -9   3  -3    2.07    2.13
  -9  -3  -3    1.90    2.17
  -8   3  -3  110.11    5.07
  -8  -3  -3  114.49    5.14
  -7  -3  -3    1.18    1.96
  -7   3  -3    0.48    1.79
  -6   3  -3   86.37    4.05
  -6  -3  -3   80.15    3.88
  -5  -3  -3   60.39    3.25
  -5   3  -3   57.10    3.20
  -4  -3  -3  385.11   11.70
  -4   3  -3  385.44   11.73
  -3  -3   3   11.31    2.61
  -3  -3  -3   11.20    1.55
  -3   3  -3   11.04    1.59
  -2  -3   3  380.26   13.78
  -1  -3  -3   46.26    9.09
  -1  -3   3   33.73    8.97
  -1  -3   3   42.61    3.87
  -1   3   3   37.81    4.04
   0  -3   3  805.27   23.66
   0  -3  -3  848.10   37.06
   0  -3   3  764.38   37.44
   1  -3  -3   26.03    2.67
   1  -3  -3   61.33   11.76
   1  -3   3   44.92   11.05
   2  -3  -3  358.12   12.89
   2  -3  -3  400.24   16.04
   2   3  -3  556.73   29.67
   2   3   3  545.59   32.17
   3  -3  -3    9.77    2.16
   3   3   3    9.52    3.16
   3  -3  -3    8.95    4.57
   3   3   3   19.82    8.67
   3   3  -3   16.44    6.96
   4   3  -3  330.56   11.30
   4  -3   3  347.56   10.08
   4  -3  -3  351.59   12.34
   4   3   3  393.08   16.19
   4   3  -3  375.69   11.19
   4  -3  -3  378.85   11.18
   4   3   3  411.95   26.07
   4   3  -3  440.35   25.12
   5   3  -3   59.45   10.55
   5  -3  -3   70.34   10.14
   5  -3  -3   51.96    3.64
   5   3   3   52.90   10.64
   5   3  -3   54.79    3.20
   5   3   3   64.80    6.73
   5  -3  -3   56.64    3.18
   5   3  -3   54.40    3.16
   6   3  -3   91.46    4.54
   6  -3  -3   79.71    8.88
   6   3   3   96.41   14.11
   6   3  -3   85.70    4.15
   6  -3  -3   82.12    4.10
   7   3  -3    1.37    1.56
   7   3  -3    1.02    1.81
   7  -3  -3    0.25    1.69
   8   3  -3  111.14    5.33
   8   3  -3  111.68    5.21
   8  -3  -3  114.08    5.24
   9   3  -3    3.62    1.93
   9   3  -3    2.78    2.15
   9  -3  -3    2.30    2.24
  10   3  -3   39.58    3.49
  10   3  -3   37.67    3.60
  10  -3  -3   38.87    3.52
  11   3  -3   10.85    2.93
  11   3  -3    8.02    2.61
  11  -3  -3    9.55    2.83
  12   3  -3   80.56    5.28
  12   3  -3   69.12    4.97
  12  -3  -3   80.82    5.26
  13   3  -3   -1.24    3.38
  13   3  -3   -0.26    2.86
  13  -3  -3    2.91    3.25
  14  -3  -3   30.09    4.48
  14   3  -3   36.07    4.61
  -9  -3  -4    3.21    2.56
  -9   3  -4    2.92    2.66
  -8  -3  -4  123.00    5.66
  -8   3  -4  119.17    5.65
  -7  -3  -4   92.69    4.67
  -7   3  -4   88.27    4.65
  -6  -3  -4   84.42    4.44
  -6   3  -4   83.16    4.43
  -5  -3  -4   11.68    2.15
  -5   3  -4   15.19    2.38
  -4  -3  -4  282.88    9.31
  -4   3  -4  268.27    9.28
  -3  -3   4  110.55    6.15
  -2  -3   4  171.85    7.94
  -1  -3   4    3.78    2.06
  -1  -3   4    3.91    5.98
  -1   3   4    5.82    2.86
  -1  -3  -4    3.71    4.77
   0   3   4  485.66   18.92
   0  -3  -4  454.32   24.67
   0  -3   4  467.24   26.31
   1   3   4    4.08    2.82
   1  -3  -4    2.26    1.58
   1  -3  -4    1.74    6.06
   1  -3   4   -0.65    6.71
   2  -3  -4  162.94    6.80
   2  -3  -4  172.12    9.58
   3  -3  -4  149.93    6.19
   3  -3  -4  200.77   12.99
   3  -3   4  133.23    4.04
   3   3   4  232.77   18.14
   3   3  -4  182.03   14.87
   4  -3  -4  239.87    9.51
   4   3   4  309.21   21.15
   4   3  -4  284.42   19.28
   5  -3  -4   11.53    2.35
   5   3   4    7.55    7.24
   5   3  -4   14.64    2.30
   5  -3  -4   14.65    2.24
   5  -3  -4   10.05    7.71
   5   3  -4    8.18    6.99
   5   3   4    9.79    4.48
   6   3   4   88.21   12.68
   6   3  -4   80.21   11.29
   6  -3  -4   95.59   10.04
   6   3  -4   78.97    4.25
   6  -3  -4   73.81    4.22
   6   3  -4   58.87    3.10
   6  -3  -4   62.52    3.91
   7   3  -4   80.27    4.52
   7   3   4  109.89   15.29
   7   3  -4  106.48   13.82
   7  -3  -4   95.77    9.30
   7  -3  -4   81.25    4.56
   7  -3  -4   73.63    4.50
   7   3  -4   76.66    3.77
   8   3  -4  120.77    5.72
   8  -3  -4  114.31    5.58
   8  -3  -4  133.07   10.22
   8  -3  -4  104.72    5.64
   8   3  -4  123.34    5.18
   9   3  -4    1.84    1.61
   9   3  -4    3.39    2.50
   9  -3  -4    2.03    2.40
  10   3  -4   54.94    3.44
  10   3  -4   56.03    4.31
  10  -3  -4   54.46    4.21
  11   3  -4    5.81    3.00
  11  -3  -4    5.85    2.91
  11   3  -4    5.01    2.04
  12  -3  -4   82.11    5.47
  12   3  -4   77.00    5.40
  12   3  -4   70.37    4.33
  13  -3  -4    3.04    3.39
  13   3  -4    3.43    3.34
  14  -3  -4   36.95    4.70
  14   3  -4   37.34    4.87
  -8  -3  -5  213.80    8.56
  -8   3  -5  203.94    8.46
  -7  -3  -5    5.72    2.77
  -7   3  -5    6.54    2.65
  -6  -3  -5  229.82    8.85
  -6   3  -5  233.76    8.92
  -5  -3  -5    2.37    2.32
  -5   3  -5    4.35    2.44
  -3  -3   5    6.07    2.00
  -2  -3   5   17.25    2.61
  -1  -3  -5    9.48    5.05
  -1  -3   5    4.31    2.08
  -1   3   5    6.15    3.29
   0  -3  -5    4.29    4.30
   0  -3   5    9.45    5.48
   0   3   5    8.40    3.72
   1  -3  -5    6.12    3.16
   1  -3  -5    7.64    5.10
   1  -3   5    4.43    5.85
   1   3   5    7.64    3.69
   2  -3  -5   17.99    2.34
   2  -3  -5   35.99    8.12
   2   3   5   20.82    4.41
   2  -3   5   31.64    8.42
   2  -3   5   21.01    1.48
   2  -3  -5   21.85    5.03
   3  -3  -5   11.89    2.02
   3   3   5   11.62    4.18
   3   3   5   25.17    8.35
   3   3  -5   15.96    6.53
   3  -3  -5   14.54    6.56
   4  -3  -5   68.01    3.91
   4   3   5   93.78   11.64
   4   3  -5   84.95   10.10
   5  -3  -5    4.01    1.83
   5   3   5    4.91    6.28
   5   3  -5    4.67    5.58
   5  -3  -5    2.15    6.52
   6   3   5  225.31   17.44
   6   3  -5  195.18   15.40
   6   3  -5  222.19    8.66
   6  -3  -5  217.15    8.57
   6  -3  -5  190.76    8.17
   7   3  -5    9.47    6.48
   7   3  -5    6.71    2.69
   7  -3  -5    6.52    2.87
   7  -3  -5    5.63    2.00
   7  -3  -5   11.46    6.89
   7   3   5    5.23    6.41
   8   3   5  198.97   17.99
   8   3  -5  219.14   17.92
   8   3  -5  195.71    8.07
   8  -3  -5  182.64   12.61
   8  -3  -5  158.78    7.08
   8  -3  -5  184.32    7.90
   9   3  -5    3.95    1.20
   9  -3  -5    5.00    2.01
   9   3  -5    6.59    3.02
   9  -3  -5    4.09    2.81
  10   3  -5  140.80    7.01
  10  -3  -5  119.04    5.96
  10  -3  -5  142.54    7.01
  10   3  -5  124.25    4.97
  11  -3  -5    3.32    2.16
  11   3  -5    2.45    3.24
  11  -3  -5    2.53    3.27
  12  -3  -5   77.61    5.79
  12   3  -5   83.88    5.84
  13   3  -5    3.19    3.90
  13  -3  -5    2.63    3.77
  -7  -3  -6    1.72    2.85
  -7   3  -6    3.07    3.11
  -6  -3  -6  140.62    6.91
  -6   3  -6  133.66    6.82
  -3  -3   6   13.19    2.34
  -2  -3   6   80.47    5.09
  -1  -3   6   31.55    2.23
  -1  -3   6   22.97    3.08
  -1   3   6   30.53    4.72
   0  -3  -6  155.10   10.47
   0  -3   6  159.81   11.60
   0   3   6  150.46   10.00
   0  -3   6  124.42    4.92
   1   3   6   23.79    4.94
   1  -3  -6   38.44    6.08
   1  -3   6   32.97    6.66
   1  -3   6   27.44    2.03
   2   3   6  175.34   11.19
   2  -3  -6  175.51   12.44
   2  -3   6  168.51    6.77
   2  -3  -6  203.89   13.90
   2  -3   6  221.24   14.97
   3  -3  -6    9.97    1.92
   3   3   6   14.28    4.62
   4   3   6  161.01   13.43
   4   3   6  148.64   10.51
   4   3  -6  152.70   11.88
   5  -3  -6   52.01    3.32
   5   3   6   84.75    8.89
   5  -3  -6  101.46   10.77
   5   3   6   77.74    9.63
   5   3  -6   65.55    8.33
   6   3  -6  127.99    6.55
   6  -3  -6  123.07    6.48
   6   3   6  124.23   11.97
   7   3  -6    3.42    5.38
   7  -3  -6    1.12    1.55
   7   3  -6    1.81    2.91
   7  -3  -6    1.34    3.03
   7   3   6    1.95    5.09
   7  -3  -6   13.64    7.99
   8  -3  -6   72.43    4.31
   8   3   6   73.92   10.47
   8   3  -6   77.55    9.92
   8  -3  -6  100.04   10.36
   8   3  -6   89.53    5.89
   8  -3  -6   89.65    5.89
   9  -3  -6    4.35    1.92
   9   3  -6    3.03    3.27
   9  -3  -6    2.42    3.24
  10   3  -6   64.69    5.35
  10  -3  -6   69.96    5.45
  10  -3  -6   51.82    3.80
  11   3  -6    9.77    3.80
  11  -3  -6    6.00    3.79
  12   3  -6   34.59    4.83
  12  -3  -6   37.76    4.87
  13  -3  -6    4.43    4.24
  13   3  -6    1.59    3.97
  -6  -3  -7   81.39    5.91
  -6   3  -7   77.91    5.61
  -5  -3   7    5.13    2.01
  -4  -3   7   57.13    3.48
  -3  -3   7   26.73    2.56
  -2  -3   7  175.88    7.96
  -2  -3   7  181.68    6.69
  -1  -3   7    1.48    1.70
  -1   3   7    1.22    3.45
  -1  -3  -7   -1.07    2.42
  -1  -3   7    1.08    1.46
   0  -3   7  136.43    5.63
   0  -3  -7  139.71    8.23
   1  -3  -7    0.49    3.20
   1  -3   7    1.36    3.51
   1  -3   7   -2.07    2.69
   1   3   7    3.66    4.14
   2  -3   7  278.51    9.52
   2  -3  -7  237.83   13.67
   2  -3   7  239.99   14.28
   3   3   7   42.57    6.69
   3  -3  -7   30.48    6.16
   3  -3   7   32.66    6.77
   3  -3  -7   33.41    8.71
   4   3   7  109.09    9.55
   4  -3  -7  120.25   11.29
   4   3   7  103.23   10.65
   4   3  -7   91.06    9.61
   5   3   7    6.71    5.39
   5  -3  -7    0.97    1.40
   5   3   7    0.39    4.84
   5   3  -7   -0.66    4.30
   5  -3  -7   -0.66    5.89
   6  -3  -7   47.19    3.01
   6   3   7   64.03    8.48
   6   3  -7   62.13    7.58
   7  -3  -7   16.55    2.05
   7   3   7   23.64    6.79
   7   3  -7   20.61    4.24
   7  -3  -7   23.24    4.14
   8   3  -7   16.25    5.45
   8   3  -7   23.14    4.24
   8  -3  -7   21.34    4.22
   8  -3  -7   13.76    2.00
   8   3   7   19.79    6.62
   9   3  -7   -2.05    3.99
   9  -3  -7    0.87    3.93
  10   3  -7   39.20    5.18
  10  -3  -7   36.10    5.21
  11   3  -7    0.73    4.11
  11  -3  -7    2.46    3.94
  12   3  -7   20.18    4.86
  12  -3  -7   28.25    5.22
  -4  -3   8   19.24    2.44
  -3  -3   8   12.47    2.23
  -2  -3   8   17.58    2.46
  -2  -3  -8   16.70    3.09
  -1  -3   8   -0.12    2.08
  -1   3   8    0.76    3.86
  -1  -3  -8    0.35    2.66
  -1  -3   8   -1.02    2.25
   0   3   8    7.17    5.02
   0  -3  -8    6.83    3.87
   0  -3   8    4.89    2.55
   1   3   8   -3.14    5.04
   1  -3   8   -0.70    2.25
   1  -3  -8   -2.54    4.72
   2  -3  -8   23.27    3.93
   2  -3   8   24.60    4.37
   3  -3  -8   15.80    4.17
   3  -3   8   16.37    4.46
   4  -3  -8   26.63    5.75
   4  -3   8   27.40    6.20
   5   3   8   11.54    5.91
   5   3   8    8.16    5.27
   5   3  -8    4.86    4.66
   5  -3  -8   13.51    6.52
   6   3   8  152.37   12.03
   6  -3  -8  137.81   11.56
   6   3   8   77.49    8.61
   6   3  -8   74.36    7.65
   7   3  -8    4.99    4.46
   7   3   8    4.63    4.33
   7   3  -8    5.10    4.03
   7  -3  -8    3.51    3.94
   8   3   8   48.36    7.25
   8   3  -8   47.17    7.00
   8   3  -8   56.96    5.96
   8  -3  -8   53.12    5.82
   9   3  -8    1.17    4.32
   9  -3  -8   -0.66    4.36
  10   3  -8   75.37    6.92
  10  -3  -8   72.52    6.78
  11   3  -8   -0.86    4.65
  11  -3  -8   -4.26    4.63
  -4  -3  -9   17.64    2.93
  -3  -3  -9    3.59    2.22
  -3  -3   9    1.74    2.29
  -2  -3  -9   29.38    4.26
  -2  -3   9   36.14    4.11
  -1  -3   9    5.58    2.54
  -1  -3  -9   -0.69    3.48
  -1  -3   9    3.46    2.59
  -1   3   9    0.26    4.34
   0  -3   9    6.22    2.29
   0  -3  -9    7.41    4.85
   1   3   9    9.92    4.88
   1  -3   9    4.93    2.21
   2   3   9   90.06    8.83
   2  -3  -9   60.85    8.25
   3   3   9   11.04    5.85
   3  -3  -9    2.19    2.62
   3  -3  -9    1.83    5.22
   3  -3   9    3.72    2.68
   4  -3  -9   24.41    4.15
   4  -3   9   27.03    4.56
   5   3   9   19.36    6.15
   5  -3  -9   12.79    4.65
   5  -3   9   13.24    4.49
   6   3   9  116.95   11.18
   6  -3  -9  138.73   11.64
   7   3   9    3.30    6.41
   7   3   9   -0.63    4.51
   7  -3  -9    9.74    7.34
   8   3  -9   33.08    5.83
   8  -3  -9   35.95    6.18
   9   3  -9    2.96    4.69
   9  -3  -9    0.55    4.58
  10   3  -9   44.47    6.37
  10  -3  -9   38.32    6.27
  -7  -3 -10    0.88    2.16
  -6  -3 -10   15.23    2.82
  -5  -3 -10    1.03    2.10
  -4  -3 -10   16.08    3.28
  -3  -3 -10   -0.54    3.12
  -2  -3 -10   66.26    6.67
  -2  -3  10   69.10    5.42
  -1   3  10   -0.52    4.92
  -1  -3  10   -1.18    2.47
  -1  -3  10   -0.34    2.60
  -1  -3 -10   -0.51    4.10
   0  -3 -10   63.60    7.87
   0   3  10  131.65   10.09
   1   3  10    0.96    6.02
   1  -3 -10   -7.01    5.88
   2   3  10  173.80   11.47
   2  -3 -10  105.91    8.64
   3   3  10    5.96    5.47
   3  -3 -10    3.23    4.96
   4   3  10   46.85    7.38
   4  -3  10   23.39    3.11
   4  -3 -10   42.62    6.96
   5  -3  10   -1.81    2.70
   5   3  10    3.60    5.83
   6   3  10   48.02    7.81
   6  -3  10   20.93    4.28
   7   3  10   -0.35    6.34
   7  -3 -10   18.76    7.87
   8   3  10   13.18    7.19
   8   3 -10   -0.80    5.09
   8  -3 -10    1.79    4.98
  -9  -3 -11   -1.49    2.11
  -8  -3 -11    4.74    2.07
  -7  -3 -11    0.59    2.13
  -6  -3 -11    6.15    2.87
  -5  -3 -11    1.96    2.97
  -4  -3 -11    1.79    3.67
  -3  -3 -11    1.78    3.77
  -2  -3 -11   12.53    4.61
  -1   3  11    1.96    4.99
  -1  -3 -11   -7.41    5.82
   0  -3 -11    7.39    4.79
   0   3  11   26.75    6.46
   1   3  11    0.89    5.83
   1  -3 -11   -1.43    4.38
   2   3  11   40.60    6.97
   2  -3 -11   21.57    5.40
   3   3  11    6.26    5.80
   3  -3 -11    8.18    5.03
   4   3  11   19.77    6.38
   4  -3 -11   20.27    5.89
   5   3  11   12.25    6.13
   6   3  11   28.09    6.72
  -6  -3 -12   11.01    3.90
  -5  -3 -12   -3.05    3.81
  -4  -3 -12   -2.30    4.57
  -3  -3 -12   -8.33    5.33
  -2  -3 -12   -0.21    4.54
  -1  -3 -12   -2.05    4.39
   0  -3 -12    0.37    4.07
   0   3  12    0.24    4.99
   1   3  12    1.11    5.80
   1  -3 -12   -0.39    4.25
   2   3  12   20.88    6.96
   3   3  12    9.15    5.99
   4   3  12   11.38    5.95
   5   3  12    1.12    5.83
   3   3  13    4.75    5.79
  -8  -4   0  217.75    7.71
  -8   4   0  228.62    7.84
  -2  -4   0  891.30   25.07
  -2  -4   0  278.09   32.38
  -1  -4   0    2.17    2.39
  -1  -4   0   -2.24    8.54
   0  -4   0  503.82   36.96
   1  -4   0   -2.70   10.46
   2   4   0  961.84   29.90
   3  -4   0   -1.40    2.21
   3   4   0   -0.15    2.30
   3   4   0    8.61   12.12
   4   4   0 1105.79   30.41
   4  -4   0  882.56   32.07
   5   4   0    0.16    2.55
   5   4   0   -2.24   10.82
   5   4   0    1.07    1.06
   5  -4   0    0.46    1.13
   5  -4   0   -0.83    6.48
   6   4   0  311.62   12.25
   6  -4   0  330.11   13.57
   6   4   0  241.35    7.97
   6  -4   0  242.88    7.98
   7   4   0   -0.54    2.83
   7   4   0    2.22    9.64
   7   4   0    0.56    1.40
   7  -4   0    0.18    1.38
   7  -4   0    4.65    3.31
   8   4   0  219.49    7.71
   8  -4   0  214.17    7.69
   9   4   0    0.21    3.75
   9   4   0    0.06    1.88
   9  -4   0    0.12    1.81
  10   4   0   76.14    4.32
  10  -4   0   78.36    4.30
  11   4   0    2.10    4.26
  11   4   0    0.23    2.33
  11  -4   0   -0.54    2.40
  12   4   0  101.69    5.61
  12  -4   0  101.02    5.59
  13   4   0   -2.16    5.12
  13   4   0    2.18    2.97
  13  -4   0    2.34    2.87
  14   4   0   45.40    7.00
  15   4   0   -0.29    6.05
 -10  -4  -1  141.24    6.08
 -10   4  -1  133.39    6.11
  -9  -4  -1    0.13    1.95
  -9   4  -1    1.47    2.08
  -8  -4  -1  372.76   11.85
  -8   4  -1  370.51   11.90
  -7  -4  -1   19.83    2.18
  -7   4  -1   19.43    2.11
  -6  -4  -1  357.98   10.93
  -6   4  -1  354.64   10.94
  -5   4  -1   26.88    1.94
  -5  -4  -1   27.79    1.91
  -4  -4  -1  641.49   17.83
  -4   4  -1  634.72   17.86
  -3  -4  -1   53.02    2.10
  -3   4  -1   52.85    2.11
  -2  -4  -1  570.40   19.95
  -2  -4   1  580.27   19.98
  -1  -4   1    3.17    2.47
  -1  -4  -1    1.04    8.08
   0  -4   1  999.89   29.90
   0  -4  -1  535.17   41.87
   1   4   1    5.72    2.69
   1  -4  -1    3.84    2.20
   1  -4  -1    2.51   10.94
   1  -4   1    3.63    2.61
   2   4  -1  529.96   14.69
   2  -4  -1  544.19   14.70
   2   4   1  661.07   20.32
   2  -4  -1  628.56   19.50
   2  -4   1  614.70   19.55
   3   4  -1   58.71    4.34
   3   4  -1   53.60    2.10
   3  -4  -1   51.45    2.09
   3   4  -1   51.38   14.70
   3   4   1   75.09    6.04
   3  -4  -1   58.74    4.58
   4  -4   1  739.14   25.00
   4  -4  -1  728.60   27.94
   4   4  -1  623.30   18.09
   4  -4  -1  625.83   18.10
   4  -4  -1  692.15   21.69
   4   4  -1  548.94   38.04
   4   4   1  783.66   23.73
   4   4  -1  738.46   21.69
   5   4  -1   37.13    4.03
   5   4   1   36.50    4.81
   5   4  -1   27.83    1.89
   5  -4  -1   29.03    1.95
   5   4  -1   30.70   11.95
   5  -4  -1   38.76   10.16
   5  -4   1   40.98    6.62
   6   4  -1  397.16   14.05
   6   4   1  439.85   16.48
   6   4  -1  340.56   11.03
   6  -4  -1  343.49   11.04
   6  -4  -1  424.89   19.31
   6  -4   1  436.19   14.03
   6   4  -1  329.16   28.97
   7   4  -1   19.18   11.24
   7   4   1   21.63    4.68
   7   4  -1   24.44    3.74
   7   4  -1   19.13    2.10
   7  -4  -1   18.60    2.07
   7  -4   1   27.67    2.92
   7  -4  -1   26.05    5.42
   8   4  -1  444.68   15.22
   8   4   1  443.14   17.54
   8   4  -1  347.60   11.78
   8  -4  -1  348.14   11.77
   8  -4  -1  449.60   15.36
   9   4  -1   -1.00    3.10
   9   4   1   -1.50    4.43
   9   4  -1    1.31    1.99
   9  -4  -1    0.13    1.94
  10   4  -1  165.82    8.91
  10   4   1  178.80   11.23
  10   4  -1  131.33    6.09
  10  -4  -1  135.21    6.01
  11   4  -1    1.95    3.83
  11   4   1    1.55    5.18
  11   4  -1    0.08    2.55
  11  -4  -1    0.74    2.36
  12   4  -1  149.22    9.14
  12   4  -1  137.66    6.71
  12  -4  -1  127.82    6.56
  13   4  -1    2.47    4.21
  13   4   1    2.42    6.16
  13   4  -1    1.47    2.86
  13  -4  -1    4.34    3.25
  14   4  -1   58.03    6.81
  14   4   1   64.35    9.25
  14   4  -1   44.58    4.58
  14  -4  -1   39.98    4.29
 -10  -4  -2  179.85    7.48
 -10   4  -2  179.79    7.53
  -9  -4  -2    2.97    2.18
  -9   4  -2    3.12    2.13
  -8  -4  -2  412.77   12.92
  -8   4  -2  404.17   12.92
  -7  -4  -2   -0.41    1.60
  -7   4  -2    1.99    1.72
  -6  -4  -2  356.64   10.96
  -6   4  -2  355.75   11.00
  -5  -4  -2   18.76    1.75
  -5   4  -2   18.03    1.71
  -4  -4  -2  553.45   15.75
  -4   4  -2  559.47   15.79
  -3  -4   2    5.13    3.35
  -3  -4  -2    3.62    0.93
  -3   4  -2    4.02    0.94
  -2  -4   2  386.65   14.14
  -2  -4  -2  408.14   30.23
  -2  -4  -2  321.74    9.26
  -2  -4   2  335.95   29.27
  -2   4  -2  328.26    9.30
  -1  -4   2    9.11    9.01
  -1  -4   2   10.49    3.02
  -1  -4  -2   10.08    2.83
  -1  -4  -2    9.13    0.80
  -1   4  -2    8.72    0.82
  -1  -4  -2   10.88    9.41
   0  -4  -2  525.24   18.73
   0  -4  -2  529.17   35.47
   0  -4   2  503.37   36.39
   1   4   2   10.44    3.31
   1  -4   2   10.31    3.00
   1  -4  -2    9.49    2.38
   1  -4  -2    9.74   10.47
   1  -4   2   16.67   12.65
   1   4  -2    9.44    0.82
   1  -4  -2    9.48    0.83
   2   4  -2  314.54    9.14
   2  -4  -2  316.35    9.14
   3   4   2    5.10    3.51
   3   4   2    2.43   11.83
   3   4  -2    4.30   10.68
   3  -4  -2    9.88    4.19
   3   4  -2    3.45    0.94
   3  -4  -2    3.04    0.93
   3  -4  -2    4.14    2.20
   4   4   2  756.68   23.54
   4   4  -2  550.56   16.22
   4  -4  -2  546.55   16.23
   4  -4   2  672.28   21.58
   4  -4  -2  739.56   28.52
   4  -4  -2  600.59   19.34
   4   4   2  555.30   37.33
   4   4  -2  654.96   37.94
   4   4  -2  597.22   18.57
   5   4   2   30.96    4.79
   5   4   2   15.74   10.71
   5   4  -2   24.72   11.44
   5   4  -2   18.35    1.75
   5  -4  -2   19.04    1.74
   5  -4  -2   28.17    9.77
   5   4  -2   21.96    2.75
   5  -4   2   23.44    4.70
   5  -4  -2   22.61    3.10
   6   4  -2  426.83   14.08
   6   4   2  451.83   17.85
   6   4  -2  350.21   11.33
   6  -4  -2  402.67   21.21
   6  -4  -2  341.71   11.32
   6  -4   2  406.40   11.89
   6   4   2  395.70   31.11
   6   4  -2  427.08   30.92
   6  -4  -2  374.85   13.94
   7   4  -2    1.25    1.58
   7  -4  -2    0.72    1.52
   7   4  -2    2.36    2.44
   7   4   2   -0.78    4.17
   7  -4  -2    4.38    5.93
   7   4   2   -1.07   10.11
   7   4  -2    3.90   10.28
   8   4  -2  438.69   14.98
   8   4   2  481.86   19.66
   8   4  -2  393.50   12.91
   8  -4  -2  388.96   12.88
   8  -4  -2  502.17   18.71
   9   4  -2    2.02    2.14
   9  -4  -2    1.24    2.26
   9   4  -2    0.27    2.57
   9   4   2    2.51    5.16
  10   4  -2  184.22    8.72
  10   4   2  194.67   13.32
  10   4  -2  167.31    7.14
  10  -4  -2  161.29    7.02
  11   4  -2    2.67    2.76
  11  -4  -2    1.67    2.54
  11   4  -2    1.21    3.04
  11   4   2    3.34    6.17
  12   4  -2  141.82    7.86
  12   4   2  147.62   12.82
  12   4  -2  119.37    6.45
  12  -4  -2  125.05    6.54
  13   4  -2   -0.17    3.53
  13   4   2   -4.13    7.88
  13   4  -2   -0.10    3.02
  13  -4  -2   -0.10    3.17
  14   4  -2   43.19    4.69
  14  -4  -2   41.03    4.88
  -9  -4  -3    1.67    2.11
  -9   4  -3    3.46    2.41
  -8  -4  -3  201.13    7.42
  -8   4  -3  192.89    7.42
  -7   4  -3    1.37    1.83
  -7  -4  -3   -0.11    1.75
  -6  -4  -3  253.58    8.40
  -6   4  -3  252.89    8.43
  -5  -4  -3   32.87    2.35
  -5   4  -3   33.10    2.36
  -4  -4  -3  658.18   18.59
  -4   4  -3  645.40   18.62
  -3  -4  -3    1.47    1.27
  -3   4  -3    0.36    1.24
  -3  -4   3    0.73    2.93
  -2  -4   3  759.22   26.29
  -2  -4  -3  805.08   22.12
  -2   4  -3  794.36   22.16
  -1  -4   3   23.16    4.03
  -1  -4  -3   20.15    8.99
  -1  -4   3   16.25    9.72
   0  -4  -3 1214.03   53.10
   0  -4   3 1148.73   54.30
   0  -4   3 1285.48   35.85
   1  -4  -3   17.69    2.71
   1  -4   3   18.37    3.60
   1  -4  -3   18.07    9.97
   1  -4   3   34.63   11.50
   2  -4  -3  706.79   24.11
   2  -4  -3 1045.26   51.26
   2  -4   3 1011.34   52.61
   2   4  -3  783.02   21.86
   2  -4  -3  777.23   21.85
   2   4   3  975.51   29.71
   3  -4  -3    1.33    2.11
   3   4   3    4.01    3.30
   3   4   3    1.15   12.52
   3   4  -3   -0.98   10.28
   3  -4  -3    0.80    3.90
   3   4  -3    1.19    1.25
   3  -4  -3    1.21    1.22
   4  -4  -3  655.05   21.69
   4   4   3  744.80   26.07
   4  -4   3  840.59   22.31
   4  -4  -3  760.29   31.46
   4   4   3  754.77   42.15
   4   4  -3  782.82   39.99
   4   4  -3  635.67   19.16
   4  -4  -3  637.28   19.14
   5   4   3   43.79   13.11
   5  -4  -3   31.98    2.40
   5   4   3   37.34    5.69
   5   4  -3   34.75    2.41
   5  -4   3   37.11    2.26
   5   4  -3   45.79   12.09
   5  -4  -3   51.90   11.37
   5  -4  -3   34.78    3.72
   6   4   3  304.50   15.21
   6   4  -3  255.42    8.56
   6  -4  -3  240.90    8.47
   6  -4  -3  356.62   19.59
   6   4  -3  247.41    9.34
   6   4   3  328.03   26.40
   6   4  -3  309.91   24.74
   6  -4  -3  236.88   10.09
   7  -4  -3    1.10    2.27
   7   4  -3    1.58    1.99
   7   4   3    0.91    4.39
   7   4   3    9.62   10.84
   7   4  -3    6.07    9.21
   7  -4  -3   -1.00    6.12
   7   4  -3    1.13    1.79
   7  -4  -3    1.06    1.63
   8   4  -3  213.12    8.66
   8   4   3  234.91   14.14
   8   4  -3  201.56    7.60
   8  -4  -3  251.26   13.97
   8  -4  -3  189.32    7.53
   8  -4  -3  188.08    8.83
   9   4  -3    1.42    2.21
   9  -4  -3    2.13    2.33
   9   4  -3    0.46    2.31
   9   4   3   -0.38    6.07
  10   4  -3   81.60    5.09
  10   4   3   98.69   10.77
  10   4  -3   81.36    4.87
  10  -4  -3   82.17    4.82
  11   4  -3    5.97    3.03
  11  -4  -3    3.22    2.72
  11   4  -3    6.15    2.69
  11   4   3    6.43    6.73
  12   4  -3   89.63    5.74
  12   4   3   88.53   11.29
  12   4  -3   85.72    5.63
  12  -4  -3   81.66    5.37
  13   4  -3    2.12    3.49
  13  -4  -3    1.43    3.29
  14   4  -3   34.99    4.88
  14  -4  -3   34.14    4.73
  -9  -4  -4   -0.54    2.31
  -9   4  -4    0.79    2.50
  -8  -4  -4  168.31    6.74
  -8   4  -4  162.31    6.79
  -7  -4  -4   20.41    2.73
  -7   4  -4   21.23    2.62
  -6  -4  -4  267.14    9.13
  -6   4  -4  265.08    9.17
  -5  -4  -4   21.07    2.45
  -5   4  -4   20.91    2.50
  -4  -4  -4  444.59   13.53
  -4   4  -4  442.81   13.56
  -3  -4  -4   52.07    2.96
  -3   4  -4   48.20    2.95
  -2  -4   4  475.81   17.86
  -1  -4   4    2.93    7.77
  -1  -4   4    0.93    2.86
  -1  -4  -4   -0.62    6.41
   0   4   4  747.61   26.16
   0  -4  -4  718.01   35.91
   0  -4   4  660.58   23.72
   1  -4  -4   -0.54    1.87
   1  -4  -4   -0.70    7.16
   1  -4   4   -3.24    8.18
   2  -4  -4  491.77   17.37
   2  -4  -4  570.15   21.36
   2  -4  -4  743.30   38.17
   2  -4   4  733.07   39.60
   3  -4  -4   52.22    7.23
   3  -4  -4   36.86    3.47
   4  -4  -4  376.14   14.60
   4   4   4  433.96   19.52
   4  -4   4  505.62   13.96
   4  -4  -4  511.25   26.41
   4   4   4  515.71   33.11
   4   4  -4  528.77   30.61
   4   4  -4  419.84   13.50
   4  -4  -4  428.52   13.52
   5  -4  -4   20.98    3.24
   5   4   4   22.72    5.73
   5  -4  -4   17.54    2.46
   5  -4  -4   20.84   10.05
   5   4   4   39.33   11.68
   5   4  -4   23.27    9.83
   5   4  -4   20.13    2.52
   6  -4  -4  244.74   10.38
   6   4  -4  260.03    9.18
   6  -4  -4  254.51    9.13
   6   4   4  277.57   15.46
   6  -4  -4  362.84   19.94
   6   4   4  318.08   24.59
   6   4  -4  312.71   23.24
   7   4  -4   18.59    2.65
   7  -4  -4   19.08    2.72
   7  -4  -4   17.04    2.97
   7   4   4   19.86    5.83
   7   4   4   26.22   10.60
   7  -4  -4   23.90    8.09
   8   4  -4  160.49    6.71
   8  -4  -4  158.24    6.67
   8   4   4  167.83   12.71
   8  -4  -4  179.90   12.99
   8  -4  -4  142.48    7.21
   8   4  -4  142.17    6.17
   9   4  -4   -0.08    1.78
   9   4   4    0.42    6.03
   9   4  -4   -1.43    2.37
   9  -4  -4    1.00    2.57
  10   4   4  107.43   11.63
  10   4  -4  101.19    5.60
  10  -4  -4   95.76    5.56
  10   4  -4   94.54    5.13
  11   4  -4    3.99    3.11
  11  -4  -4   -0.49    2.74
  11   4  -4    0.48    2.24
  11   4   4    0.48    6.97
  12   4  -4   68.44    5.25
  12  -4  -4   75.10    5.40
  13   4  -4    1.56    3.57
  13  -4  -4   -0.35    3.60
  -8  -4  -5  238.54    8.87
  -8   4  -5  223.90    8.83
  -7  -4  -5    5.45    2.63
  -7   4  -5    4.83    2.46
  -6  -4  -5  305.58   10.59
  -6   4  -5  299.83   10.66
  -5  -4  -5    1.14    2.23
  -5   4  -5    3.78    2.27
  -4  -4  -5  321.33   10.58
  -4   4  -5  302.71   10.51
  -3  -4   5    5.48    2.64
  -2  -4   5  126.27    7.73
  -1   4   5    7.15    3.79
  -1  -4  -5    4.50    6.07
  -1  -4   5    2.89    3.12
  -1  -4   5   10.51    7.94
   0  -4  -5  193.26   15.71
   0  -4   5  237.53   18.03
   0  -4   5  154.87    9.04
   0   4   5  198.85   11.48
   1  -4  -5    1.70    6.38
   1   4   5    6.10    4.60
   1  -4   5    7.12    7.83
   2  -4  -5  169.87    7.69
   2   4   5  219.57   13.13
   2  -4  -5  172.13   10.22
   2  -4  -5  247.19   19.01
   2  -4   5  271.31   20.74
   3  -4  -5    9.63    8.80
   3  -4  -5    8.44    2.22
   3  -4   5    5.78    8.84
   3  -4   5   11.10    1.00
   3  -4  -5    8.71    5.65
   4  -4  -5  416.62   22.43
   4   4   5  390.18   26.79
   4   4  -5  358.58   23.95
   5  -4  -5    1.01    1.92
   5   4  -5    1.58    2.28
   5  -4  -5    2.33    2.35
   5   4   5    0.73    8.17
   5   4  -5    0.61    7.57
   5  -4  -5   -4.40   10.89
   6  -4  -5  214.85    9.50
   6   4   5  231.01   14.98
   6   4  -5  282.88    9.91
   6   4   5  310.90   22.79
   6   4  -5  301.18   20.92
   6  -4  -5  274.43    9.82
   7   4   5   -0.75    5.19
   7   4   5    0.73    8.63
   7   4  -5   -1.28    7.35
   7  -4  -5    2.08    2.30
   7  -4  -5   15.66    8.31
   7   4  -5    6.41    2.80
   7  -4  -5    4.72    2.75
   8  -4  -5  203.81    9.03
   8   4  -5  219.83    8.68
   8  -4  -5  217.32    8.73
   8   4   5  212.56   15.04
   9   4   5    3.16    6.51
   9  -4  -5   14.56    7.92
   9   4  -5    2.45    2.94
   9  -4  -5    2.32    2.80
  10   4  -5  138.37    6.93
  10   4   5  133.32   13.17
  10  -4  -5  133.75    6.81
  11   4  -5    3.85    3.36
  11  -4  -5    2.71    3.11
  11   4   5   -3.03    7.64
  12   4  -5   79.50    5.65
  12  -4  -5   69.69    5.61
  13   4  -5    1.76    3.65
  13  -4  -5    1.98    4.11
  -7  -4  -6    0.75    2.88
  -7   4  -6    0.10    2.79
  -6  -4  -6  237.54    9.23
  -6   4  -6  220.63    9.03
  -5  -4  -6   37.38    3.66
  -5   4  -6   35.25    3.76
  -3  -4   6    5.79    2.79
  -2  -4   6  130.69    7.77
  -1   4   6   11.08    4.43
  -1  -4   6    6.63    2.95
   0  -4  -6  311.00   17.50
   0  -4   6  306.72   18.48
   0   4   6  287.98   14.51
   1   4   6   13.14    5.34
   1  -4  -6   19.28    6.48
   1  -4   6   12.74    1.46
   1  -4  -6    7.77    3.44
   2   4   6  339.54   16.91
   2  -4  -6  331.46   15.71
   2  -4  -6  385.79   20.63
   2  -4   6  379.72   21.79
   3   4   6    1.74    4.95
   3  -4  -6    4.25    2.02
   3  -4  -6    2.89    6.24
   3  -4   6    3.82    7.17
   3  -4   6    2.54    1.34
   3  -4  -6    6.65    6.39
   4   4   6  214.32   13.63
   4  -4  -6  166.52    7.29
   5  -4  -6   22.21    2.64
   5   4   6   32.34    7.13
   5   4   6   38.20    9.84
   5   4  -6   32.14    8.61
   5  -4  -6   33.16    9.68
   5   4  -6   33.31    3.68
   5  -4  -6   29.52    3.53
   6  -4  -6  150.45    7.46
   6  -4  -6  304.80   17.79
   6   4   6  229.42   17.99
   6   4  -6  210.43   16.00
   6   4  -6  233.88    8.91
   6  -4  -6  219.98    8.81
   7   4   6   -0.62    7.47
   7  -4  -6    0.91    2.04
   7   4  -6    0.11    2.96
   7  -4  -6    1.38    3.18
   7  -4  -6    2.30    7.85
   8   4  -6  110.40    6.37
   8  -4  -6  111.88    6.46
   9   4   6    3.74    6.78
   9  -4  -6   10.66    8.32
   9   4  -6    0.23    3.25
   9  -4  -6    0.44    3.27
  10   4  -6   70.60    5.66
  10  -4  -6   76.99    5.57
  10   4   6   90.50   11.60
  11  -4  -6    5.17    3.64
  11   4  -6    4.91    3.60
  12   4  -6   36.13    4.81
  12  -4  -6   38.69    4.73
  -6  -4  -7  138.43    7.15
  -6   4  -7  121.26    6.79
  -5  -4  -7    5.83    3.38
  -5   4  -7    3.30    3.45
  -3  -4   7    8.44    3.13
  -2  -4   7  247.47   10.66
  -2  -4   7  207.27    7.51
  -1   4   7   -2.38    4.32
  -1  -4   7   -1.29    2.80
  -1  -4   7    5.94    1.55
   0  -4  -7  299.74   15.89
   0   4   7  281.07   14.51
   1  -4  -7    2.04    4.36
   1   4   7   -0.72    5.14
   1  -4   7    0.38    4.67
   1  -4  -7    0.95    3.73
   1  -4   7    0.14    1.30
   2   4   7  316.64   17.03
   2  -4  -7  272.23   15.75
   2  -4   7  260.99    9.21
   2  -4  -7  270.05   16.14
   2  -4   7  300.85   17.47
   3   4   7    2.93    5.18
   3  -4  -7    9.53    6.72
   3  -4  -7    7.73    5.15
   3  -4   7    7.60    6.06
   4   4   7  182.35   13.19
   4  -4  -7  174.66   15.16
   4  -4   7  169.73   15.54
   5   4  -7    1.91    5.72
   5   4   7    9.80    5.96
   5  -4  -7    3.48    1.87
   5  -4  -7    9.70    7.28
   6   4   7  149.10   12.25
   6  -4  -7   74.44    4.55
   6  -4  -7  165.58   12.89
   6   4   7  114.53   12.72
   6   4  -7  114.14   11.82
   6   4  -7  126.75    6.84
   6  -4  -7  111.32    6.60
   7  -4  -7    5.09    1.98
   7   4   7   10.79    6.52
   7   4  -7    7.33    3.64
   7  -4  -7   10.69    3.95
   7  -4  -7   21.83    8.53
   8   4  -7   45.63    5.07
   8  -4  -7   46.49    5.10
   9   4  -7   -2.84    4.10
   9  -4  -7   -0.27    4.00
  10   4  -7   54.71    5.37
  10  -4  -7   47.70    5.30
  11   4  -7    1.56    4.31
  11  -4  -7    3.07    3.98
  -3  -4   8   10.68    2.11
  -2  -4  -8   63.92    5.33
  -2  -4   8   65.22    3.63
  -1   4   8   -2.47    5.49
  -1  -4   8    0.71    2.99
  -1  -4  -8    0.50    2.63
  -1  -4   8    0.41    1.46
   0  -4   8   26.93    2.46
   0  -4   8   34.96    4.51
   1   4   8   -0.74    5.82
   1  -4   8   -3.53    2.60
   1  -4   8    0.33    4.22
   1  -4  -8    2.38    4.06
   2  -4   8   84.36    8.37
   2  -4   8   99.63    4.48
   2  -4  -8   84.71    8.17
   3  -4  -8    9.87    4.58
   3  -4   8    6.63    4.75
   3   4   8   16.98    6.69
   3  -4  -8    3.82    7.75
   4   4   8  101.91   10.42
   4  -4  -8   91.25   10.77
   4  -4  -8   61.97    7.91
   4  -4   8   63.68    8.35
   5   4   8    4.60    6.28
   5  -4  -8    4.61    5.87
   5  -4   8    4.83    6.54
   5  -4  -8   -0.34    6.69
   6   4  -8  104.96   11.04
   6   4  -8  111.47    7.30
   6  -4  -8  106.66    7.22
   7   4   8   12.56    6.70
   7   4  -8    2.08    4.04
   7  -4  -8    3.37    3.97
   7  -4  -8   13.58    7.90
   8   4   8  101.54   11.26
   8  -4  -8  116.56   12.05
   8   4  -8   72.17    6.56
   8  -4  -8   67.58    6.45
   9   4  -8   -1.73    4.58
   9  -4  -8   -2.94    4.38
  10   4  -8   61.44    6.41
  10  -4  -8   65.69    6.23
  -3  -4  -9    2.84    2.54
  -3  -4   9    2.25    1.82
  -2  -4  -9   47.83    4.66
  -2  -4   9   44.53    3.44
  -1   4   9    1.26    5.18
  -1  -4   9    0.31    3.41
  -1  -4  -9    1.65    3.31
   0  -4   9   56.71    5.43
   0   4   9   84.23    9.05
   1   4   9   -0.37    5.92
   1  -4  -9   -2.61    5.45
   2  -4  -9   62.07    6.31
   2  -4   9   64.36    6.80
   3  -4   9    2.24    3.30
   3   4   9    6.12    6.12
   3  -4  -9    0.95    3.34
   4  -4  -9   56.87    8.23
   4  -4  -9   42.11    5.93
   4  -4   9   45.61    6.31
   5   4   9    9.46    6.77
   5  -4  -9    0.60    3.96
   5  -4   9    0.31    4.10
   5  -4  -9    3.14    6.00
   6   4   9  121.88   11.59
   6  -4  -9  122.42   11.05
   6  -4  -9   65.21    8.67
   6  -4   9   74.77    9.11
   7   4   9    6.08    6.85
   7   4  -9    0.34    4.45
   7  -4  -9    2.15    4.26
   7  -4  -9    9.35    7.58
   8   4  -9   48.30    6.35
   8  -4  -9   43.19    5.99
   9   4  -9    1.59    4.75
   9  -4  -9   -1.92    4.97
  -6  -4 -10   22.38    3.12
  -5  -4 -10   -0.94    2.32
  -4  -4 -10   20.50    3.20
  -3  -4 -10   -1.96    2.79
  -2  -4 -10   50.93    5.68
  -1  -4 -10   -1.57    4.21
   0  -4 -10   77.60    8.25
   0   4  10  136.28   10.86
   1   4  10    1.44    6.49
   1  -4 -10   -9.48    6.71
   2   4  10  154.72   12.84
   2  -4 -10   88.53    9.78
   3   4  10    0.69    6.03
   4   4  10   63.95    9.38
   4  -4  10   24.38    4.28
   5   4  10    4.73    6.38
   5  -4 -10    8.11    6.72
   6   4  10   54.67    9.35
   7   4 -10   -2.06    5.40
   7  -4 -10   -1.11    5.15
  -4  -4 -11   10.35    3.30
  -3  -4 -11    0.22    3.72
  -2  -4 -11   16.95    4.90
  -1  -4 -11    1.02    4.34
   0   4  11   38.83    7.71
   0  -4 -11    6.93    5.37
   1   4  11    1.93    6.74
   2   4  11   56.18    9.05
   3   4  11    6.06    7.34
   4   4  11   32.23    8.05
   0   4  12   20.14    6.79
   1   4  12   -1.19    6.02
   2   4  12   20.75    7.64
  -2  -5   0   89.73   20.37
  -2  -5   0  189.65   10.13
  -1  -5   0   10.93   12.70
  -1  -5   0   -0.92    3.01
   0  -5   0  280.43   11.99
   0  -5   0   97.10   20.36
   1  -5   0    0.17    2.83
   1  -5   0   -6.00   12.90
   2  -5   0   92.13   21.86
   3   5   0    0.68    2.89
   4   5   0  144.43   25.33
   4  -5   0  155.75    8.91
   4   5   0  174.21    9.33
   5  -5   0   -0.18    2.89
   5   5   0    0.20    3.47
   5  -5   0   -1.00    8.64
   6   5   0   80.10    7.09
   6  -5   0   75.34   10.85
   7   5   0    2.11    4.11
   7  -5   0   -0.39    4.56
   8   5   0   94.51    7.59
   8  -5   0  114.41    7.02
   9   5   0   -0.23    3.99
  10   5   0   53.97    6.75
  11   5   0    1.71    4.79
  12   5   0   65.85    7.31
  13   5   0    0.52    5.03
  -2  -5   1   64.72    6.04
  -2  -5  -1   62.88    6.01
  -2  -5  -1   48.00   15.88
  -1  -5  -1   -1.27    9.81
  -1  -5   1    2.13    3.10
  -1  -5  -1    1.18    2.72
   0  -5   1  132.13    8.29
   0  -5  -1   78.94   18.45
   1  -5   1    1.07    3.31
   1  -5  -1    1.41   10.75
   2  -5  -1   62.55    5.56
   2  -5   1   68.61    6.18
   2  -5  -1   61.20   18.35
   2   5   1   64.37    6.02
   3   5   1   20.51    4.17
   3  -5   1   24.77    4.07
   3  -5  -1   21.43    4.00
   4  -5   1  159.45   11.20
   4  -5  -1  151.81   11.64
   4   5  -1  181.92   27.88
   4  -5  -1  137.11    8.10
   4   5  -1  124.89    7.45
   4   5   1  162.39    9.88
   5   5  -1    9.15    2.96
   5  -5  -1    9.22    3.18
   5   5   1   14.13    4.70
   5   5  -1   10.18    1.39
   5  -5   1    4.42    6.65
   5  -5  -1    6.44    9.13
   6   5   1  130.88    9.25
   6  -5   1  114.49    9.39
   6   5  -1   81.01    3.59
   6  -5  -1   84.80    3.63
   6  -5  -1   83.89   13.03
   6   5  -1   99.45    6.56
   7   5  -1    5.28    3.56
   7   5   1    7.90    4.61
   7   5  -1    4.89    1.65
   7  -5  -1    4.40    1.66
   7  -5  -1    5.78    6.01
   7  -5   1   10.30    3.25
   8   5  -1  145.72    8.65
   8   5   1  150.34   10.03
   8  -5  -1  141.04    9.17
   8   5  -1  108.83    4.87
   8  -5  -1  110.12    4.85
   9   5  -1   -0.60    3.77
   9   5   1    2.13    4.61
   9   5  -1    1.55    2.02
   9  -5  -1   -0.80    1.99
  10   5  -1   75.78    6.32
  10   5   1   79.91    8.09
  10   5  -1   62.27    4.03
  10  -5  -1   65.42    4.09
  11   5  -1    2.03    4.25
  11   5   1    2.36    5.56
  11   5  -1    1.43    2.57
  11  -5  -1    0.94    2.41
  12   5  -1   79.43    7.44
  12   5   1   86.75    9.19
  12   5  -1   63.96    4.71
  12  -5  -1   59.28    4.61
  13   5  -1   -0.22    4.47
  13   5   1   -0.32    6.30
  13   5  -1    2.58    3.31
  13  -5  -1    0.49    3.20
 -10   5  -2   76.49    4.56
  -9  -5  -2    1.89    2.17
  -9   5  -2    2.82    2.23
  -8  -5  -2  138.01    5.69
  -8   5  -2  140.09    5.81
  -7  -5  -2    1.98    1.84
  -7   5  -2    0.05    1.63
  -6  -5  -2  102.49    4.15
  -6   5  -2   94.48    4.12
  -5  -5  -2    7.09    1.46
  -5   5  -2    7.88    1.51
  -4  -5  -2  106.07    3.75
  -4   5  -2  104.80    3.78
  -3  -5   2    0.24    4.12
  -3  -5  -2    2.02    0.81
  -3   5  -2    1.85    0.83
  -2  -5   2   38.03    5.35
  -2  -5  -2   58.42   16.37
  -2  -5   2   56.55   17.88
  -1  -5   2    3.10    3.62
  -1  -5  -2   -4.44   10.52
  -1  -5   2   -1.23   10.95
   0  -5   2   57.92    5.90
   0  -5  -2   46.51    4.59
   0  -5  -2   60.95   16.54
   0  -5   2   63.23   16.46
   1  -5   2    1.33    3.40
   1  -5  -2    3.82    2.80
   1  -5  -2    6.30   11.83
   1  -5   2    2.76   13.09
   2  -5  -2   40.36    4.46
   2  -5  -2   55.02   17.70
   2  -5   2   42.80   16.77
   2   5   2   34.36    5.37
   2  -5   2   39.37    5.05
   3  -5   2    2.47    3.04
   3   5   2    4.44    4.19
   3  -5  -2    0.94    2.64
   3   5  -2    2.04    0.80
   3  -5  -2   15.63   14.82
   3  -5   2    1.67   13.34
   3  -5  -2    2.00    0.79
   4   5   2  142.41    9.75
   4  -5  -2  118.44    7.15
   4   5   2  135.63   24.26
   4  -5   2  138.04    9.38
   4  -5  -2  140.61   11.76
   4   5  -2   97.18    3.65
   4  -5  -2  101.07    3.68
   4   5  -2  156.37   23.56
   5   5   2    9.59    5.07
   5   5  -2    6.52    1.37
   5  -5  -2    6.07    1.45
   5  -5   2    8.72    5.95
   5  -5  -2    2.69    9.79
   6   5   2  138.16    9.67
   6   5  -2   96.87    4.18
   6  -5  -2  102.72    4.25
   6  -5  -2  144.33   16.78
   6  -5   2  110.51    6.11
   6   5  -2   99.91    6.09
   7   5  -2   -0.13    2.67
   7   5   2    3.27    4.80
   7   5  -2   -0.26    1.61
   7  -5  -2    0.51    1.72
   7  -5  -2    2.20    7.34
   7  -5   2    4.27    1.96
   8   5   2  161.97   11.18
   8   5  -2  127.87    5.52
   8  -5  -2  129.35    5.50
   8  -5  -2  149.77   10.80
   8   5  -2  147.95    7.88
   9   5  -2    1.94    3.32
   9   5   2    2.52    5.20
   9   5  -2    1.21    2.14
   9  -5  -2   -0.07    2.04
   9  -5  -2   12.38    5.45
  10   5  -2   91.07    6.60
  10   5   2   99.69    9.97
  10   5  -2   77.01    4.59
  10  -5  -2   73.87    4.55
  11   5  -2    3.16    3.94
  11   5   2   -0.35    6.04
  11   5  -2    3.35    2.85
  11  -5  -2    1.39    2.81
  12   5  -2   64.96    6.25
  12   5   2   74.28    9.46
  12   5  -2   60.75    4.74
  12  -5  -2   59.92    4.68
  13   5  -2    0.91    3.30
  13  -5  -2   -0.10    3.23
  -9  -5  -3   -0.43    2.32
  -9   5  -3    1.52    2.32
  -8  -5  -3   62.01    3.81
  -8   5  -3   65.97    3.87
  -7  -5  -3   -0.27    1.85
  -7   5  -3   -0.06    1.83
  -6  -5  -3   67.87    3.38
  -6   5  -3   68.85    3.41
  -5  -5  -3    8.07    1.56
  -5   5  -3    6.96    1.58
  -4  -5  -3  115.19    4.14
  -4   5  -3  111.47    4.14
  -3  -5   3    0.99    3.79
  -3  -5  -3    1.03    1.04
  -3   5  -3    1.84    1.03
  -2  -5   3  152.31    9.43
  -2  -5  -3  144.44    4.55
  -2   5  -3  147.32    4.60
  -1  -5  -3    5.16    0.83
  -1   5  -3    4.45    0.85
  -1  -5   3    3.15    3.84
  -1  -5  -3    5.67    9.14
  -1  -5   3    3.25   10.97
   0  -5  -3  177.41    9.06
   0  -5  -3  198.05    5.68
   0   5  -3  194.82    5.72
   0   5  -3  193.56    5.71
   0  -5  -3  193.74    5.71
   1  -5  -3   10.63   11.37
   1  -5   3   10.73   11.85
   1   5   3    9.84    4.18
   1  -5   3    8.38    3.92
   1  -5  -3    4.96    2.72
   1   5  -3    4.25    0.85
   1  -5  -3    4.91    0.87
   2   5  -3  141.08    4.57
   2  -5  -3  146.87    4.59
   2  -5  -3  137.55    7.49
   2  -5   3  154.94    9.48
   3   5   3    0.88    4.49
   3  -5  -3    1.44    2.50
   3  -5  -3    5.60   12.33
   3  -5   3    4.59   14.66
   3  -5  -3    0.62    4.41
   3   5  -3    0.96    1.02
   3  -5  -3    1.11    1.00
   4   5   3  158.81   10.99
   4  -5  -3  114.03    6.66
   4   5  -3  112.33    4.18
   4  -5  -3  108.78    4.15
   4  -5   3  179.38    9.28
   4  -5  -3  149.39   13.35
   5   5  -3    9.10    1.59
   5  -5  -3    7.76    1.58
   5   5   3   10.92    5.21
   5  -5  -3    5.41   10.24
   5  -5   3    6.86    3.76
   6   5  -3   64.22    3.41
   6  -5  -3   66.33    3.38
   6  -5   3   73.22    3.23
   7   5  -3    0.27    1.77
   7  -5  -3    0.59    1.76
   7   5  -3   -0.33    2.22
   7   5   3    5.26    5.26
   7  -5  -3   -2.11    8.85
   8   5   3   78.14    8.88
   8   5  -3   57.87    3.65
   8  -5  -3   55.38    3.61
   8  -5  -3   77.06    9.88
   8   5  -3   57.86    4.35
   9   5  -3    0.70    2.37
   9   5  -3    0.07    2.35
   9  -5  -3    0.07    2.29
   9   5   3    1.09    5.69
   9  -5  -3    8.35    6.94
  10   5   3   53.34    8.52
  10   5  -3   48.21    4.08
  10  -5  -3   43.61    3.92
  10   5  -3   41.84    4.29
  11   5  -3    4.19    2.96
  11   5  -3    3.17    2.80
  11   5   3    0.40    6.22
  11  -5  -3    1.73    2.96
  12   5  -3   43.40    4.36
  12  -5  -3   40.31    4.33
  13   5  -3   -0.44    3.44
  -9   5  -4   -0.39    2.49
  -8  -5  -4   61.51    3.96
  -8   5  -4   62.58    3.95
  -7  -5  -4    8.77    2.28
  -7   5  -4   10.98    2.33
  -6  -5  -4   63.13    3.45
  -6   5  -4   60.16    3.42
  -5  -5  -4    4.69    1.77
  -5   5  -4    3.01    1.74
  -4  -5  -4   89.07    3.83
  -4   5  -4   91.65    3.92
  -3  -5  -4   22.15    1.99
  -3   5  -4   20.78    1.99
  -2  -5  -4  103.52    3.93
  -2   5  -4  101.79    3.98
  -1  -5   4    2.96    3.78
  -1  -5  -4    2.47    8.18
  -1  -5  -4    0.10    1.36
  -1   5  -4   -0.26    1.37
  -1  -5   4   -1.90    9.61
   0  -5   4  126.15    9.20
   0  -5  -4  148.19   17.45
   0  -5   4  131.60   17.98
   1  -5   4   -0.22    3.44
   1  -5  -4    1.75    8.67
   1  -5   4   -2.97   10.11
   1  -5  -4   -0.13    2.35
   2  -5  -4   91.40    5.80
   2  -5  -4  111.80   16.53
   2   5  -4  102.62    4.02
   2  -5  -4   96.39    3.92
   2  -5   4   95.37    7.71
   3   5   4   27.46    6.51
   3  -5  -4   17.49    3.14
   3  -5  -4   28.89   13.11
   3  -5   4   22.48   13.80
   3  -5  -4   18.41    5.46
   3   5  -4   21.58    2.04
   3  -5  -4   20.00    2.01
   4   5  -4   91.51    4.16
   4  -5  -4   91.00    4.13
   4   5   4  121.19   10.91
   4  -5   4  138.81    6.75
   4  -5  -4  108.44   12.54
   5   5   4    9.14    5.10
   5  -5  -4    2.55    9.47
   5  -5   4    3.20    1.04
   5   5  -4    1.87    1.77
   5  -5  -4    3.47    1.77
   6   5   4   67.79    8.84
   6   5  -4   57.08    3.43
   6  -5  -4   58.03    3.44
   7   5   4   10.96    6.00
   7   5  -4   10.86    2.26
   7  -5  -4    8.17    2.22
   8   5   4   72.57    9.14
   8   5  -4   58.68    3.98
   8  -5  -4   60.33    3.92
   8  -5  -4   72.97   10.91
   9   5  -4    1.59    2.42
   9  -5  -4    0.54    2.46
   9   5   4    6.56    6.57
   9  -5  -4    8.44    7.49
  10   5   4   40.36    8.31
  10   5  -4   45.36    3.89
  10  -5  -4   50.23    4.07
  11   5  -4    3.64    3.25
  11  -5  -4    0.68    3.07
  11   5   4    2.72    7.16
  12   5  -4   44.44    4.65
  12  -5  -4   42.30    4.67
  13   5  -4    2.62    4.01
  -8   5  -5   83.49    4.80
  -7  -5  -5    0.36    2.39
  -7   5  -5    1.32    2.46
  -6  -5  -5   93.07    4.69
  -6   5  -5   93.95    4.67
  -5  -5  -5    1.23    2.10
  -5   5  -5    1.77    2.03
  -4  -5  -5   64.27    3.66
  -4   5  -5   59.49    3.63
  -3  -5   5    0.91    2.98
  -3  -5  -5    3.66    1.97
  -3   5  -5    2.19    1.97
  -2  -5  -5   41.07    2.95
  -2   5  -5   37.41    2.94
  -1  -5   5   -0.68    3.20
  -1  -5   5    0.83    9.31
  -1  -5  -5    7.18    8.42
   0   5   5   27.83    5.98
   0  -5   5   22.33    4.90
   0  -5  -5   29.67    9.48
   0  -5   5   30.27    9.92
   1   5   5    1.93    4.83
   1  -5   5    3.07    3.56
   1  -5  -5   -0.70    7.43
   1  -5   5    7.15    8.77
   2  -5   5   30.92    5.25
   2   5   5   38.89    7.24
   2  -5  -5   30.32    5.43
   2  -5  -5   36.58   10.76
   2  -5   5   37.52   11.43
   3  -5  -5   -2.49    5.90
   3  -5  -5    1.69    8.98
   3  -5   5   -3.67   10.90
   3   5  -5    1.04    1.94
   3  -5  -5    2.16    1.92
   4  -5  -5   84.04   15.86
   4  -5   5   96.63   17.81
   4  -5   5   60.37    3.01
   4  -5   5   39.46    1.59
   4  -5  -5   71.32   11.80
   4   5  -5   63.31    3.63
   4  -5  -5   61.90    3.59
   5  -5  -5  -10.53   13.11
   5   5  -5   -0.34    2.05
   5  -5  -5   -0.40    2.16
   6   5  -5   96.97    4.83
   6  -5  -5   86.89    4.74
   6   5   5   91.97   10.04
   7   5   5   -2.47    5.92
   7  -5  -5    2.72    9.21
   7   5  -5    0.70    2.36
   7  -5  -5   -0.77    2.45
   8   5   5   79.76   10.01
   8   5  -5   79.68    4.85
   8  -5  -5   85.93    4.86
   8  -5  -5  103.59   12.68
   9   5   5    2.68    6.32
   9  -5  -5   10.23    8.47
   9   5  -5    0.90    2.67
   9  -5  -5   -0.09    2.61
  10   5  -5   69.59    4.92
  10  -5  -5   61.58    4.75
  11   5  -5    1.98    3.24
  11  -5  -5    0.61    3.38
  12   5  -5   39.64    4.58
  -7   5  -6    1.37    2.65
  -6  -5  -6   77.93    4.65
  -6   5  -6   67.01    4.48
  -5  -5  -6    9.95    2.84
  -5   5  -6    6.80    2.70
  -4  -5  -6   79.04    4.62
  -4   5  -6   69.54    4.40
  -3  -5   6    1.93    3.38
  -3  -5  -6    4.91    2.66
  -3   5  -6    2.60    2.50
  -2  -5   6   39.61    5.06
  -1  -5   6   -1.34    3.16
   0  -5  -6   58.68    9.59
   0  -5   6   78.06   11.72
   0   5   6   61.20    7.76
   0  -5   6   39.31    5.56
   1  -5   6    4.36    3.39
   1   5   6    4.57    5.16
   1  -5  -6    5.78    3.83
   1  -5  -6   -0.56    6.36
   1  -5   6    3.14    7.59
   2  -5  -6   70.90    7.57
   2  -5  -6   81.55   11.79
   2  -5   6  100.88   13.60
   2   5   6   93.91   10.06
   3   5   6    2.49    5.49
   3  -5  -6    1.22    6.10
   3  -5   6    3.75    0.95
   3  -5  -6    4.96    6.74
   3  -5   6    6.18    7.79
   4   5   6   61.20    9.24
   4  -5  -6   68.39   12.90
   4  -5   6   85.75   14.49
   4  -5  -6   75.71   11.45
   4   5  -6   68.56    4.50
   4  -5  -6   70.23    4.50
   5  -5  -6    6.46    8.24
   5  -5   6   14.77   11.42
   5   5  -6   10.07    3.02
   5  -5  -6    7.88    2.85
   5  -5  -6    3.35   11.71
   6   5  -6   67.04    4.65
   6  -5  -6   66.89    4.63
   7  -5  -6   -3.95    8.64
   7   5  -6   -0.96    2.75
   7  -5  -6   -1.12    3.10
   8   5  -6   44.58    4.15
   8  -5  -6   45.97    4.39
   8   5   6   41.87    8.59
   9   5   6   -1.88    6.87
   9  -5  -6   12.41    9.19
   9   5  -6   -1.88    3.20
   9  -5  -6    2.26    3.19
  10   5  -6   43.84    4.64
  10  -5  -6   46.49    4.51
  11   5  -6    6.63    3.61
  11  -5  -6    5.81    3.96
  12   5  -6   32.17    4.71
  -5   5  -7    0.20    2.99
  -4  -5  -7   52.48    4.37
  -4   5  -7   52.66    4.37
  -3  -5   7    7.10    4.03
  -2  -5   7   82.65    6.89
  -1  -5   7   -0.22    3.34
   0  -5  -7   56.80    5.78
   0  -5   7   56.86    2.96
   0   5   7   59.95    8.06
   0  -5   7   39.10    5.73
   1  -5   7   -0.73    3.23
   1   5   7   -1.12    5.16
   1  -5  -7    0.47    3.51
   1  -5  -7    0.86    4.68
   1  -5   7    0.49    6.03
   2  -5  -7   73.98    8.60
   2  -5   7   66.21   10.38
   2   5   7   86.18   10.42
   3  -5  -7    3.98    6.06
   3  -5   7    3.28    6.89
   3   5   7    0.88    6.75
   3  -5  -7    4.61    7.14
   4   5   7   50.95    9.20
   4  -5  -7   39.35    8.62
   4  -5  -7   51.10   10.97
   4  -5   7   45.20    9.95
   5   5   7   -2.18    6.69
   5  -5  -7    1.94    7.27
   5  -5   7   -0.68    8.24
   5   5  -7    1.30    3.22
   5  -5  -7    1.59    2.99
   5  -5  -7   -2.84    9.92
   6   5   7   43.93    9.09
   6  -5  -7   47.99    9.98
   6   5  -7   47.00    4.62
   6  -5  -7   43.96    4.69
   7   5  -7    1.02    3.37
   7  -5  -7    2.54    3.55
   7  -5  -7    7.55    8.91
   8   5  -7   21.58    4.08
   8  -5  -7   24.90    4.26
   9   5  -7   -0.24    3.58
   9  -5  -7   -0.24    3.71
  10   5  -7   29.60    4.70
  10  -5  -7   30.48    4.66
  11   5  -7    4.14    4.07
  -2  -5   8   40.26    5.30
  -1  -5   8    0.20    3.80
   0   5   8   14.86    6.57
   0  -5   8   16.61    4.82
   1  -5   8   -0.24    3.48
   1   5   8   -1.93    6.45
   1  -5  -8    1.17    4.74
   1  -5  -8   -1.13    4.42
   1  -5   8    1.28    5.04
   2   5   8   38.06    8.76
   2  -5  -8   17.40    5.62
   2  -5   8   16.33    5.56
   2  -5  -8   24.34    7.42
   3   5   8    1.84    6.79
   3  -5  -8    0.78    4.85
   3  -5  -8   -0.82    6.20
   4  -5  -8   13.96    5.67
   4  -5   8   18.89    6.64
   4   5   8   19.92    8.31
   4  -5  -8   25.72    9.61
   5   5   8   -0.87    6.67
   5   5  -8    1.53    3.64
   5  -5  -8    1.00    3.52
   5  -5  -8    1.83    5.32
   5  -5  -8   -0.37    7.20
   5  -5   8    1.91    5.93
   6   5   8   85.93   11.30
   6  -5  -8   32.87    8.70
   6  -5  -8   69.68   10.51
   6  -5   8   36.13    9.45
   6   5  -8   46.06    5.01
   6  -5  -8   48.51    5.14
   7  -5   8    3.05    7.78
   7   5  -8    5.33    4.09
   7  -5  -8    4.82    3.90
   7  -5  -8   14.59    8.09
   8   5  -8   28.71    4.73
   8  -5  -8   28.45    5.05
   9   5  -8    0.42    3.94
  10   5  -8   37.31    5.58
  -3  -5  -9    1.96    2.62
  -2  -5  -9   16.88    3.46
  -1  -5  -9    0.41    3.18
   0   5   9   21.57    7.40
   1   5   9   -3.49    6.82
   2  -5  -9   20.56    5.36
   2  -5  -9   29.88    7.16
   3   5   9    2.27    7.21
   3  -5  -9    2.33    3.98
   3  -5   9    1.56    3.93
   3  -5  -9  -10.45    8.66
   4   5   9   39.17   10.12
   4  -5  -9   21.44    7.93
   5  -5   9   -0.37    4.50
   5   5   9    1.70    7.42
   6   5  -9   31.73    5.26
   6  -5  -9   35.64    5.38
   6  -5   9   24.43    6.61
   7  -5   9   -2.74    5.94
   7   5  -9    1.72    4.34
   7  -5  -9    2.63    4.79
   8  -5   9   20.15    8.37
   8   5  -9   24.56    5.44
   1   5  10   -5.34    7.03
   2   5  10   72.30   10.16
   3   5  10    0.87    7.52
   6   5 -10    8.70    5.21
   7   5 -10   -1.03    4.54
   1   5  11   -1.09    7.17
  -2  -6   0  150.71   25.63
  -1  -6   0    9.73   13.78
   0  -6   0  216.35   28.95
   1  -6   0    3.54   14.30
   2  -6   0  142.60   26.19
   3  -6   0   -4.04   17.18
   4  -6   0  419.62   21.00
   4  -6   0  146.31   31.07
   5   6   0   -0.83    3.46
   5  -6   0   -4.47    9.41
   6  -6   0  198.07   17.62
   6   6   0  188.99   10.77
   7   6   0   -0.22    4.27
   7  -6   0   -1.28    5.89
   8  -6   0  158.82    9.38
   8   6   0  161.76   10.76
   9   6   0    1.55    4.91
  10   6   0   86.76    8.85
  11   6   0    3.33    5.75
  -1  -6  -1    1.52   12.63
   0  -6  -1  281.53   32.74
   1  -6  -1    1.66   12.68
   2  -6  -1  285.12   33.47
   3  -6  -1    7.67   17.09
   4  -6   1  369.69   19.10
   4  -6  -1  335.21   19.22
   4   6   1  320.23   15.33
   5   6   1   -0.25    4.07
   5  -6   1   -2.33    8.00
   5  -6  -1   -0.63    9.84
   6  -6  -1  189.23   19.62
   6  -6   1  249.77   16.07
   6   6  -1  201.89   10.61
   6   6   1  239.15   12.99
   7   6  -1    5.04    3.71
   7   6   1    2.84    5.12
   7  -6  -1   -1.44    7.91
   7  -6   1    3.29    4.29
   8   6   1  191.17   12.55
   8  -6  -1  174.12   11.42
   8   6  -1  165.48    9.70
   9   6  -1   -1.40    4.04
   9   6   1    1.86    5.72
   9  -6  -1    9.69    5.04
  10   6   1  120.64   11.16
  10   6  -1  101.46    8.37
  11   6  -1    1.13    4.66
  11   6   1    3.49    5.91
  12   6  -1   58.26    7.11
  -1  -6  -2    8.18   14.03
  -1  -6   2   12.21   14.33
   0  -6  -2  299.79   31.41
   0  -6   2  227.15   29.42
   1  -6  -2    4.41   12.95
   1  -6   2   11.19   16.30
   2  -6  -2  252.94   30.79
   2  -6   2  254.54   32.57
   3   6   2    3.53    4.66
   3  -6  -2  -13.08   17.36
   3  -6   2   -5.24   16.40
   4  -6   2  305.95   16.47
   4  -6  -2  304.71   18.82
   4  -6  -2  343.35   38.65
   4  -6   2  314.75   39.54
   4   6   2  293.27   15.36
   5   6   2    7.97    5.05
   5  -6   2   -1.10    6.99
   5  -6  -2    0.70   10.76
   6  -6  -2  275.58   23.42
   6  -6   2  246.12   12.64
   6   6   2  255.56   15.02
   7   6   2   -2.40    5.64
   7  -6  -2   -4.53    9.85
   8   6  -2  154.03    6.06
   8   6  -2  144.35    8.27
   9   6  -2   -0.33    3.17
   9   6   2   10.22    6.59
   9   6  -2    1.96    2.22
   9  -6  -2   10.29    6.63
  10   6  -2   80.69    4.66
  10   6  -2   81.72    6.52
  -6   6  -3  140.74    5.25
  -5   6  -3    2.32    1.38
  -3  -6   3    2.48    4.65
  -2  -6   3  251.88   13.57
  -1  -6  -3    8.39   11.47
  -1  -6   3    2.78   13.56
   0  -6  -3  448.44   34.72
   0  -6   3  409.15   35.83
   1  -6  -3    6.22   10.96
   1  -6   3   -1.38   12.26
   2  -6  -3  377.46   33.71
   2  -6   3  357.24   34.47
   3   6   3    3.10    4.63
   3  -6  -3    2.52    5.79
   3  -6  -3    1.34   12.10
   3  -6   3    1.46   13.18
   4  -6   3  361.96   15.31
   4  -6  -3  267.53   18.61
   4   6  -3  241.21    7.23
   4  -6  -3  246.04    7.22
   4  -6  -3  301.50   32.99
   4  -6   3  327.59   35.59
   4   6   3  306.87   15.73
   5   6   3    5.03    5.79
   5  -6  -3    1.67   14.85
   5  -6   3   -8.85   18.80
   5   6  -3    1.41    1.33
   5  -6   3    1.01    5.53
   5  -6  -3   -2.28   12.41
   6   6   3  210.66   14.10
   6  -6  -3  247.52   22.56
   7   6   3   15.05    6.74
   7   6  -3    1.18    1.82
   7  -6  -3   -4.57   10.31
   8   6  -3  104.24    4.89
   8  -6  -3  121.24   13.31
   9   6   3    8.71    6.52
   9   6  -3    0.14    2.39
   9  -6  -3    6.48    7.98
  -5   6  -4    1.81    1.63
  -4   6  -4  170.00    5.64
  -3  -6   4    2.49    4.71
  -3   6  -4    4.32    1.14
  -2   6  -4  230.17    6.56
  -2  -6   4  164.64   11.77
  -1  -6  -4    6.38   10.47
  -1  -6   4    1.65    4.25
  -1  -6   4    8.52   12.20
  -1   6  -4    0.03    0.47
   0  -6  -4  270.64   24.78
   0  -6   4  289.23   27.13
   1   6  -4   -0.05    0.53
   1  -6   4    2.28   11.04
   1   6  -4    0.21    0.46
   2   6  -4  223.39    6.53
   2  -6  -4  227.34    6.50
   2  -6  -4  273.25   26.23
   2  -6   4  242.22   26.25
   3   6  -4    4.90    1.19
   3  -6  -4    5.19    1.16
   3   6   4    6.30    5.44
   3  -6  -4    1.32    5.04
   3  -6  -4   -1.10   10.94
   3  -6   4   -3.63   12.13
   4  -6   4  278.28   11.30
   4  -6  -4  213.10   17.07
   4  -6  -4  252.57   27.60
   4  -6   4  235.52   28.62
   4   6   4  224.87   14.28
   5   6  -4    2.28    1.55
   5   6   4    1.21    6.06
   5  -6  -4   -2.93   14.81
   5  -6   4    3.13   15.56
   5  -6  -4   -0.72   12.14
   6   6   4  151.72   13.09
   6   6  -4  122.99    5.04
   7   6  -4    0.68    2.00
   7   6   4    7.50    7.44
   7  -6  -4    4.08    9.93
   8   6   4   97.23   11.04
   8   6  -4   83.72    4.59
   8  -6  -4  108.91   13.48
   9   6  -4    0.37    2.56
   9  -6  -4    6.69    8.60
  10  -6  -4   92.46   11.29
  -4   6  -5  130.05    5.04
  -3   6  -5    1.00    1.56
  -3  -6   5    0.61    3.90
  -2  -6   5   65.32    7.84
  -2   6  -5  149.41    4.94
  -1  -6   5    0.28    3.81
  -1   6  -5   -0.20    1.43
   0  -6  -5  150.36   17.45
   0  -6   5  135.92   18.44
   0   6  -5  143.16    5.07
   1   6  -5    0.32    1.45
   1  -6  -5    3.29    8.74
   1  -6   5   -0.93    9.92
   2  -6  -5  123.74   10.00
   2  -6  -5  166.12   18.73
   2  -6   5  161.05   20.12
   2   6  -5  145.77    5.21
   3  -6  -5    1.58    6.07
   3   6  -5    1.80    1.59
   3  -6  -5   -1.83   10.59
   3  -6   5    4.01   11.13
   4   6  -5  125.28    4.97
   4  -6  -5  122.80   14.62
   4  -6  -5  137.72   18.48
   4  -6   5  169.72   21.51
   5   6   5    4.55    6.80
   5  -6  -5    3.32   11.30
   5  -6   5    1.19   11.80
   5  -6  -5   -3.24   10.16
   5   6  -5   -0.05    1.80
   6   6   5  154.45   13.89
   6   6  -5  117.79    5.23
   6  -6  -5  150.16   22.89
   6  -6   5  142.30   22.80
   7   6  -5    0.40    2.25
   7   6   5    0.49    7.02
   7  -6  -5   -4.00    9.99
   8   6  -5   84.50    4.69
   8  -6  -5  134.84   15.15
   9  -6  -5   19.31   10.96
  10  -6  -5   70.04   10.90
  -3  -6   6    0.84    4.73
  -2  -6   6   97.55    8.49
  -1  -6   6    1.12    3.71
  -1   6  -6    1.14    2.12
   0  -6  -6  150.59   16.46
   0  -6   6  169.89   18.77
   1  -6  -6    5.78    8.31
   1  -6  -6    2.88    4.12
   1  -6   6    0.72    8.29
   2   6  -6  157.25    6.19
   2  -6  -6  153.36   16.47
   2   6   6  146.08   12.62
   2  -6   6  175.72   18.26
   3   6   6   -3.75    6.12
   3  -6  -6   -1.46    8.00
   3  -6   6    4.83    9.43
   3  -6  -6   -6.52    7.63
   3   6  -6    1.27    2.18
   4  -6  -6  107.36   15.32
   4  -6   6  110.67   16.46
   4   6  -6  109.45    5.15
   5  -6  -6    5.11    9.05
   5  -6   6   -2.74   10.21
   5  -6  -6  -11.35   13.17
   5   6  -6    1.07    2.25
   6   6  -6   88.75    4.92
   6  -6  -6  108.21   17.93
   6  -6   6  113.26   18.52
   6  -6  -6  137.01   16.37
   7  -6   6    7.38   12.59
   7  -6  -6   -1.94   10.16
   7   6  -6    0.54    2.50
   8  -6  -6   79.22   12.85
  -1  -6   7   -1.32    4.29
   0  -6  -7   80.22    7.13
   1  -6  -7    6.60    6.61
   1  -6  -7   -1.55    4.12
   1  -6   7    0.64    7.45
   2  -6  -7  105.77   12.00
   2  -6   7  112.90   13.10
   2  -6  -7   83.31    9.44
   2   6   7   81.71   10.54
   3   6   7   -0.44    6.19
   3  -6  -7   -0.58    6.51
   3  -6   7    3.79    7.56
   3  -6  -7   -4.00    8.05
   3   6  -7    1.17    2.68
   4  -6  -7   50.12   10.47
   4  -6   7   74.51   12.12
   4   6   7   67.54   10.78
   4  -6  -7   92.45   12.88
   4   6  -7   75.43    4.91
   5  -6  -7  -12.92   12.50
   5   6  -7   -1.65    2.98
   5  -6  -7    0.64    7.23
   5  -6   7    7.48    8.66
   6   6  -7   62.45    4.64
   6  -6  -7   47.69   11.60
   6  -6   7   55.66   12.80
   6  -6  -7   86.00   12.26
   7  -6  -7    1.69    8.98
   7  -6   7   -6.05    9.66
   8  -6   7   23.71   13.00
  -1  -6  -8   -1.50    3.36
   0  -6  -8   29.28    4.92
   1  -6  -8   -3.31    5.08
   2   6   8   64.35   10.29
   2  -6  -8   50.71    8.59
   2  -6   8   49.28    9.25
   3  -6   8    2.42    6.13
   3   6  -8    1.87    3.33
   3  -6  -8    0.91    5.71
   4  -6  -8   35.98    8.15
   4  -6   8   43.33    9.54
   4   6  -8   48.21    4.75
   5  -6  -8   -2.04    6.64
   5  -6   8    3.24    7.21
   6  -6  -8   38.97    8.92
   6  -6   8   44.90   10.08
   7  -6   8    0.62    7.60
   3  -6   9    0.81    5.64
   4  -6   9   27.84    6.69
  -1  -7   0   -4.15   15.58
   0  -7   0   24.17   16.01
   1  -7   0    1.96   14.98
   2  -7   0   10.23   16.74
   3  -7   0    2.11   16.36
   4  -7   0   59.59   10.22
   4  -7   0   12.88   16.90
   5  -7   0    4.82   18.64
   5  -7   0   -8.45   11.26
   6  -7   0   19.06   21.70
   6  -7   0   32.43   13.24
   8   7   0   42.45    6.85
  -1  -7  -1    1.96   17.61
   0  -7  -1   31.58   17.45
   1  -7  -1    5.58   16.18
   2  -7  -1   19.29   17.38
   3  -7  -1    8.03   19.41
   4  -7   1   52.39    9.70
   4  -7  -1   59.94   10.66
   4  -7  -1   34.76   19.63
   5  -7  -1   -4.60   19.80
   5  -7   1   -7.06   10.13
   5  -7  -1  -11.84   12.92
   6  -7  -1   39.13   25.48
   6  -7  -1   38.69   15.10
   6   7   1   51.75    7.47
   7   7   1    6.89    5.77
  -1  -7  -2    5.25   17.39
  -1  -7   2    1.91   17.96
   0  -7  -2   42.38   18.31
   0  -7   2   27.27   17.25
   1  -7  -2   -8.24   16.07
   1  -7   2    8.89   16.01
   2  -7  -2   29.15   18.93
   2  -7   2   42.22   19.06
   3  -7  -2   -5.36   16.76
   3  -7   2   11.34   17.38
   3  -7  -2    3.41    6.91
   4  -7   2   46.42    8.58
   4  -7  -2   54.47   10.98
   4  -7  -2   46.95   19.22
   4  -7   2   47.54   21.76
   5   7   2    5.08    5.54
   5  -7  -2    8.21   19.64
   5  -7   2   -8.56   19.28
   5  -7  -2   -7.35   14.90
   6  -7  -2   57.68   24.36
   6  -7   2   75.01   27.70
   6  -7  -2   39.00   16.09
   6   7   2   59.04    8.17
   7   7   2    1.66    5.67
   7  -7  -2   -9.42   11.58
  -1  -7   3   -4.98   16.78
  -1  -7  -3   -2.96   14.32
   0  -7   3   22.68   15.58
   0  -7  -3   47.60   16.57
   1  -7  -3   -1.40   13.80
   1  -7   3    1.53   15.31
   2  -7  -3   50.90   18.86
   2  -7   3   44.49   19.03
   3  -7  -3    1.51   15.12
   3  -7   3    4.89   16.19
   3  -7  -3   -1.21    6.97
   4  -7  -3   59.76   11.63
   4  -7  -3   62.00   19.57
   4  -7   3   28.24   17.97
   5   7   3    0.36    5.66
   5  -7  -3   13.75   17.67
   5  -7  -3  -11.01   14.96
   5  -7   3   -5.45   18.36
   6  -7  -3   47.72   22.12
   6  -7   3   29.24   21.37
   6  -7  -3   46.36   16.60
   7  -7  -3  -10.50   12.22
   8  -7  -3   33.64   11.38
   0  -7  -4   40.86   15.15
   0  -7   4   44.41   17.08
   1  -7  -4    1.13   11.61
   1  -7   4    2.49   13.45
   2  -7  -4   29.91   13.44
   2  -7  -4   44.74    7.86
   3  -7  -4   -1.26   12.51
   3  -7   4    1.37   14.16
   3  -7  -4   -3.69    6.48
   4   7   4   37.01    8.26
   4  -7  -4   37.65   11.10
   4  -7  -4   32.69   14.66
   4  -7   4   46.53   17.79
   5  -7  -4   -5.58   12.88
   5  -7  -4   -1.35   15.16
   5  -7   4    4.29   14.47
   6  -7  -4   41.31   18.98
   6  -7   4   46.56   20.14
   6  -7  -4   40.53   17.01
   7  -7  -4   -3.35   12.81
   8  -7  -4   35.03   12.31
   0  -7   5   24.11   15.26
   0  -7  -5   24.58   12.33
   1  -7  -5    2.11    4.96
   1  -7  -5   -0.92    9.56
   1  -7   5   -9.30   13.01
   2  -7  -5   13.07    5.76
   2  -7  -5   32.14   13.13
   2  -7   5   34.26   14.91
   3  -7  -5   -2.04   11.46
   3  -7   5    1.11   11.89
   3  -7  -5   -2.30    7.77
   4  -7  -5   26.37   13.22
   4  -7   5   25.03   14.18
   4  -7  -5   11.82   10.61
   5  -7  -5   -4.94   13.78
   5  -7  -5   -3.27   10.92
   5  -7   5    1.16   13.38
   6  -7  -5   35.77   15.47
   1  -7  -6   -0.81    9.48
   1  -7   6    1.84   11.54
   2  -7  -6   27.34   10.50
   2  -7   6   28.34   11.99
   3  -7  -6   -3.26    8.58
   3  -7   6   -1.77    9.81
   4  -7  -6   24.00   10.81
   4  -7   6   19.28   12.32
   1  -7  -7    6.12    8.02
   2  -7  -7   18.86    8.15
   2  -7   7   14.63    9.08
   3  -7  -7    2.56    7.92
   3  -7   7   -6.16    8.99
   4  -7   7   14.45   10.12
   3  -7   8    2.25    7.39
   3  -8  -1    1.04    8.72
   3  -8  -2   -4.36    8.36
   4  -8  -2   96.07   15.40
   2  -8  -3  107.66   11.92
   3  -8  -3   -2.48    8.40
   4  -8  -3   76.98   15.91
   0   0   0    0.00    0.00
;
_shelx_hkl_checksum              23100
loop_
_space_group_symop_operation_xyz
'x, y, z'
'-x+1/2, -y, z'
'-x, y, -z'
'x+1/2, -y, -z'
'-x, -y, -z'
'x-1/2, y, -z'
'x, -y, z'
'-x-1/2, y, z'
loop_
_atom_site_label
_atom_site_type_symbol
_atom_site_fract_x
_atom_site_fract_y
_atom_site_fract_z
_atom_site_U_iso_or_equiv
_atom_site_adp_type
_atom_site_occupancy
_atom_site_site_symmetry_order
_atom_site_calc_flag
_atom_site_refinement_flags_posn
_atom_site_refinement_flags_adp
_atom_site_refinement_flags_occupancy
_atom_site_disorder_assembly
_atom_site_disorder_group
C2 C 0.2500 0.269(13) 0.416(10) 0.149(10) Uani 0.5 2 d DS TU P . .
H2A H 0.1855 0.3223 0.4482 0.224 Uiso 0.25 1 d R U P . .
H2B H 0.3069 0.3241 0.4642 0.224 Uiso 0.25 1 d R U P . .
H2C H 0.2500 0.3086 0.3278 0.224 Uiso 0.5 2 d R U P . .
C3 C 0.323(4) 0.0000 0.542(4) 0.130(11) Uani 0.5 2 d DS TU P . .
H3A H 0.3515 -0.1366 0.5328 0.156 Uiso 0.25 1 d R U P . .
H3B H 0.3807 0.0921 0.5529 0.156 Uiso 0.25 1 d R U P . .
C4 C 0.2500 0.0000 0.668(4) 0.117(10) Uani 1 4 d DS TU P . .
H4A H 0.2055 -0.1173 0.6534 0.140 Uiso 0.25 1 d R U P . .
H4B H 0.2055 0.1173 0.6534 0.140 Uiso 0.25 1 d R U P . .
N2 N 0.2500 0.0000 0.820(4) 0.102(7) Uani 1 4 d DS TU P . .
H1D H 0.1839 0.0000 0.8490 0.152 Uiso 0.5 2 d R U P . .
H1E H 0.2830 -0.1140 0.8490 0.152 Uiso 0.25 1 d R U P . .
H1F H 0.2830 0.1140 0.8490 0.152 Uiso 0.25 1 d R U P . .
N1 N 0.2500 0.018(13) 0.417(4) 0.102(7) Uani 0.5 2 d DS TU P . .
Pb1 Pb 0.5000 0.5000 0.0000 0.0312(5) Uani 1 4 d S TU P . .
Br2 Br 0.5507(2) 0.5000 0.2984(2) 0.0704(8) Uani 1 2 d S TU P . .
Br3 Br 0.2500 0.5000 0.0457(4) 0.0737(11) Uani 1 4 d S TU P . .
Br4 Br 0.5000 0.0000 0.0000 0.0683(12) Uani 1 4 d S TU P . .
C1 C 0.364(2) 0.0000 0.355(4) 0.149(10) Uani 1 2 d DS TU P . .
H1A H 0.3739 -0.1476 0.3558 0.224 Uiso 0.5 1 d R U P . .
H1B H 0.3679 0.0496 0.2687 0.224 Uiso 0.5 1 d R U P . .
H1C H 0.4172 0.0652 0.4051 0.224 Uiso 0.5 1 d R U P . .
loop_
_atom_site_aniso_label
_atom_site_aniso_U_11
_atom_site_aniso_U_22
_atom_site_aniso_U_33
_atom_site_aniso_U_23
_atom_site_aniso_U_13
_atom_site_aniso_U_12
C2 0.150(16) 0.157(16) 0.141(13) 0.006(13) 0.000 0.000
C3 0.134(16) 0.128(16) 0.128(13) 0.000 0.002(10) 0.000
C4 0.125(16) 0.109(16) 0.116(13) 0.000 0.000 0.000
N2 0.081(11) 0.116(14) 0.108(12) 0.000 0.000 0.000
N1 0.081(11) 0.116(14) 0.108(12) 0.000 0.000 0.000
Pb1 0.0272(6) 0.0224(6) 0.0441(7) 0.000 0.0030(3) 0.000
Br2 0.0769(17) 0.0928(17) 0.0416(12) 0.000 -0.0139(11) 0.000
Br3 0.0249(13) 0.130(3) 0.067(2) 0.000 0.000 0.000
Br4 0.101(3) 0.0227(18) 0.081(3) 0.000 0.0037(15) 0.000
C1 0.150(16) 0.157(16) 0.141(13) 0.006(13) 0.000 0.000
loop_
_atom_type_symbol
_atom_type_description
_atom_type_scat_dispersion_real
_atom_type_scat_dispersion_imag
_atom_type_scat_source
C C 0.0033 0.0016 'International Tables Vol C Tables 4.2.6.8 and 6.1.1.4'
H H 0.0000 0.0000 'International Tables Vol C Tables 4.2.6.8 and 6.1.1.4'
N N 0.0061 0.0033 'International Tables Vol C Tables 4.2.6.8 and 6.1.1.4'
Br Br -0.2901 2.4595 'International Tables Vol C Tables 4.2.6.8 and 6.1.1.4'
Pb Pb -3.3944 10.1111 'International Tables Vol C Tables 4.2.6.8 and 6.1.1.4'
loop_
_geom_angle_atom_site_label_1
_geom_angle_atom_site_label_2
_geom_angle_atom_site_label_3
_geom_angle
_geom_angle_site_symmetry_1
_geom_angle_site_symmetry_3
_geom_angle_publ_flag
N1 C3 N1 8(6) 2 . ?
N1 C3 C4 109(4) 2 . ?
N1 C3 C4 109(4) . . ?
N1 C3 C1 50.8(13) 2 . ?
N1 C3 C1 50.8(13) . . ?
C4 C3 C1 160(4) . . ?
N1 C3 C3 55(2) 2 2 ?
N1 C3 C3 55(2) . 2 ?
C4 C3 C3 54.8(19) . 2 ?
C1 C3 C3 105.2(19) . 2 ?
N2 C4 C3 144.8(19) . . ?
N2 C4 C3 144.8(19) . 2 ?
C3 C4 C3 70(4) . 2 ?
N1 N1 C1 86(3) 2 . ?
N1 N1 C1 86(3) 2 2 ?
C1 N1 C1 131(5) . 2 ?
N1 N1 C3 86(3) 2 2 ?
C1 N1 C3 148(4) . 2 ?
C1 N1 C3 78(2) 2 2 ?
N1 N1 C3 86(3) 2 . ?
C1 N1 C3 78(2) . . ?
C1 N1 C3 148(4) 2 . ?
C3 N1 C3 71(4) 2 . ?
N1 N1 C2 179(4) 2 . ?
C1 N1 C2 94(4) . . ?
C1 N1 C2 94(4) 2 . ?
C3 N1 C2 95(5) 2 . ?
C3 N1 C2 95(5) . . ?
Br2 Pb1 Br2 180.0 5_665 . ?
Br2 Pb1 Br4 90.0 5_665 1_565 ?
Br2 Pb1 Br4 90.0 . 1_565 ?
Br2 Pb1 Br4 90.0 5_665 . ?
Br2 Pb1 Br4 90.0 . . ?
Br4 Pb1 Br4 180.0 1_565 . ?
Br2 Pb1 Br3 93.28(10) 5_665 5_665 ?
Br2 Pb1 Br3 86.72(10) . 5_665 ?
Br4 Pb1 Br3 90.0 1_565 5_665 ?
Br4 Pb1 Br3 90.0 . 5_665 ?
Br2 Pb1 Br3 86.72(10) 5_665 . ?
Br2 Pb1 Br3 93.28(10) . . ?
Br4 Pb1 Br3 90.0 1_565 . ?
Br4 Pb1 Br3 90.0 . . ?
Br3 Pb1 Br3 180.0 5_665 . ?
Pb1 Br3 Pb1 163.03(16) 2_565 . ?
Pb1 Br4 Pb1 180.0 1_545 . ?
N1 C1 N1 8(6) 2 . ?
N1 C1 C3 51.0(15) 2 . ?
N1 C1 C3 51.0(15) . . ?
loop_
_geom_bond_atom_site_label_1
_geom_bond_atom_site_label_2
_geom_bond_distance
_geom_bond_site_symmetry_2
_geom_bond_publ_flag
C2 N1 1.51(2) . ?
C3 N1 1.49(2) 2 ?
C3 N1 1.49(2) . ?
C3 C4 1.50(2) . ?
C3 C1 1.88(5) . ?
C3 C3 1.73(9) 2 ?
C4 N2 1.482(19) . ?
C4 C3 1.50(2) 2 ?
N1 N1 0.22(16) 2 ?
N1 C1 1.489(19) . ?
N1 C1 1.489(19) 2 ?
N1 C3 1.49(2) 2 ?
Pb1 Br2 2.960(2) 5_665 ?
Pb1 Br2 2.960(2) . ?
Pb1 Br4 3.0053(2) 1_565 ?
Pb1 Br4 3.0053(2) . ?
Pb1 Br3 3.0091(6) 5_665 ?
Pb1 Br3 3.0091(6) . ?
Br3 Pb1 3.0091(6) 2_565 ?
Br4 Pb1 3.0053(2) 1_545 ?
C1 N1 1.489(19) 2 ?
