#------------------------------------------------------------------------------
#$Date: 2021-02-04 05:31:20 +0200 (Thu, 04 Feb 2021) $
#$Revision: 261502 $
#$URL: file:///home/coder/svn-repositories/cod/cif/4/13/55/4135514.cif $
#------------------------------------------------------------------------------
#
# This file is available in the Crystallography Open Database (COD),
# http://www.crystallography.net/
#
# All data on this site have been placed in the public domain by the
# contributors.
#
data_4135514
loop_
_publ_author_name
'Zhang, Han-Yue'
'Zhang, Zhi-Xu'
'Chen, Xiao-Gang'
'Song, Xian-Jiang'
'Zhang, Yi'
'Xiong, Ren-Gen'
_publ_section_title
;
 Large Electrostrictive Coefficient in a Two-Dimensional Hybrid Perovskite
 Ferroelectric.
;
_journal_issue                   3
_journal_name_full               'Journal of the American Chemical Society'
_journal_page_first              1664
_journal_page_last               1672
_journal_paper_doi               10.1021/jacs.0c12907
_journal_volume                  143
_journal_year                    2021
_chemical_formula_moiety         'Br4 Pb, C5 H16 N P '
_chemical_formula_sum            'C5 H16 Br4 N P Pb'
_chemical_formula_weight         647.96
_space_group_crystal_system      monoclinic
_space_group_IT_number           4
_space_group_name_Hall           'P 2yb'
_space_group_name_H-M_alt        'P 1 21 1'
_atom_sites_solution_hydrogens   geom
_audit_creation_method           SHELXL-2014/7
_cell_angle_alpha                90
_cell_angle_beta                 90.154(5)
_cell_angle_gamma                90
_cell_formula_units_Z            2
_cell_length_a                   6.0691(4)
_cell_length_b                   12.1645(6)
_cell_length_c                   10.0438(5)
_cell_measurement_reflns_used    3644
_cell_measurement_temperature    448(2)
_cell_measurement_theta_max      29.6370
_cell_measurement_theta_min      2.0070
_cell_volume                     741.51(7)
_computing_structure_refinement  'SHELXL-2014/7 (Sheldrick, 2014)'
_diffrn_ambient_temperature      448(2)
_diffrn_measured_fraction_theta_full 0.963
_diffrn_measured_fraction_theta_max 0.802
_diffrn_measurement_device_type  'XtaLAB Synergy R, HyPix'
_diffrn_radiation_type           MoK\a
_diffrn_radiation_wavelength     0.71073
_diffrn_reflns_av_R_equivalents  0.0562
_diffrn_reflns_av_unetI/netI     0.0727
_diffrn_reflns_Laue_measured_fraction_full 0.963
_diffrn_reflns_Laue_measured_fraction_max 0.802
_diffrn_reflns_limit_h_max       8
_diffrn_reflns_limit_h_min       -7
_diffrn_reflns_limit_k_max       15
_diffrn_reflns_limit_k_min       -17
_diffrn_reflns_limit_l_max       12
_diffrn_reflns_limit_l_min       -14
_diffrn_reflns_number            6687
_diffrn_reflns_point_group_measured_fraction_full 0.971
_diffrn_reflns_point_group_measured_fraction_max 0.806
_diffrn_reflns_theta_full        25.242
_diffrn_reflns_theta_max         31.716
_diffrn_reflns_theta_min         2.028
_diffrn_source                   'micro-focus sealed X-ray tube'
_exptl_absorpt_coefficient_mu    22.224
_exptl_absorpt_correction_T_max  0.003
_exptl_absorpt_correction_T_min  0.002
_exptl_absorpt_correction_type   multi-scan
_exptl_absorpt_process_details
;
CrysAlisPro 1.171.40.39a (Rigaku Oxford Diffraction, 2019)
Empirical absorption correction using spherical harmonics,
 implemented in SCALE3 ABSPACK scaling algorithm.
;
_exptl_crystal_colour            yellow
_exptl_crystal_density_diffrn    2.902
_exptl_crystal_description       sheet
_exptl_crystal_F_000             580
_exptl_crystal_size_max          0.3
_exptl_crystal_size_mid          0.28
_exptl_crystal_size_min          0.26
_refine_diff_density_max         4.175
_refine_diff_density_min         -5.692
_refine_diff_density_rms         0.735
_refine_ls_abs_structure_details
;
 Refined as an inversion twin.
;
_refine_ls_abs_structure_Flack   0.09(2)
_refine_ls_extinction_method     none
_refine_ls_goodness_of_fit_ref   1.017
_refine_ls_hydrogen_treatment    constr
_refine_ls_matrix_type           full
_refine_ls_number_parameters     104
_refine_ls_number_reflns         3474
_refine_ls_number_restraints     86
_refine_ls_restrained_S_all      1.012
_refine_ls_R_factor_all          0.0963
_refine_ls_R_factor_gt           0.0823
_refine_ls_shift/su_max          0.000
_refine_ls_shift/su_mean         0.000
_refine_ls_structure_factor_coef Fsqd
_refine_ls_weighting_details
'w=1/[\s^2^(Fo^2^)+(0.1563P)^2^] where P=(Fo^2^+2Fc^2^)/3'
_refine_ls_weighting_scheme      calc
_refine_ls_wR_factor_gt          0.2139
_refine_ls_wR_factor_ref         0.2206
_reflns_Friedel_coverage         0.931
_reflns_Friedel_fraction_full    0.980
_reflns_Friedel_fraction_max     0.811
_reflns_number_gt                2745
_reflns_number_total             3474
_reflns_threshold_expression     'I > 2\s(I)'
_cod_data_source_file            ja0c12907_si_004.cif
_cod_data_source_block           P21
_cod_depositor_comments
'Adding full bibliography for 4135512--4135514.cif.'
_cod_original_sg_symbol_H-M      'P 21'
_cod_original_formula_sum        'C5 H16 Br4 N P Pb '
_cod_database_code               4135514
_shelx_shelxl_version_number     2014/7
_shelx_space_group_comment
;
The symmetry employed for this shelxl refinement is uniquely defined
by the following loop, which should always be used as a source of
symmetry information in preference to the above space-group names.
They are only intended as comments.
;
_shelx_res_file
;

    P21.res created by SHELXL-2014/7

TITL P21 in P2(1)
CELL 0.71073   6.0691  12.1645  10.0438  90.000  90.154  90.000
ZERR    6.00   0.0004   0.0006   0.0005   0.000   0.005   0.000
LATT -1
SYMM -X, 0.5+Y, -Z
SFAC C  H  N  P  Br Pb
UNIT 10 32 2 2 8 2
L.S. 400
ACTA
BOND
FMAP 2
PLAN 20
twin
DFIX 1.48 0.02 C5 N1
isor 0.02
DFIX 2.94 0.020 C1 C2 C2 C3 C3 C1
DFIX 1.48 0.02 C5 N1
DFIX 1.51 0.02 C4 C5
DFIX 1.80 0.02 P1 C1 P1 C2 P1 C3 P1 C4
DFIX 2.88 0.02 C4 C1 C4 C2 C4 C3
eadp c1 c5
WGHT    0.156300
BASF   0.09220
FVAR       0.31200
BR1   5    0.502211    0.917054    0.778133    11.00000    0.05963    0.06660 =
         0.04928   -0.00747   -0.00595    0.00072
BR2   5    0.508450    1.107404    0.456169    11.00000    0.09750    0.03657 =
         0.07360    0.00080    0.00092    0.00616
BR3   5    0.527444    0.818020    0.199821    11.00000    0.09359    0.07191 =
         0.05607   -0.01176   -0.00189   -0.01291
BR4   5    1.002974    0.840259    0.506388    11.00000    0.02559    0.08819 =
         0.09200   -0.01618   -0.00326    0.00127
C1    1    0.382736    0.632569   -0.078401    11.00000    0.05166    0.08617 =
         0.09984    0.00823   -0.02863    0.00743
AFIX  33
H1A   2    0.434209    0.678137   -0.006745    11.00000   -1.50000
H1B   2    0.446513    0.560644   -0.070420    11.00000   -1.50000
H1C   2    0.425117    0.664550   -0.161876    11.00000   -1.50000
AFIX   0
C2    1   -0.032341    0.756607   -0.079734    11.00000    0.15992    0.06220 =
         0.13305    0.03113   -0.00764    0.02541
AFIX  33
H2A   2    0.020765    0.799640   -0.006233    11.00000   -1.50000
H2B   2    0.010456    0.790792   -0.161841    11.00000   -1.50000
H2C   2   -0.190088    0.751929   -0.075784    11.00000   -1.50000
AFIX   0
C3    1   -0.008139    0.537855   -0.203542    11.00000    0.09823    0.15281 =
         0.05770   -0.01567   -0.00153    0.04800
AFIX  33
H3A   2    0.025814    0.572710   -0.286750    11.00000   -1.50000
H3B   2    0.064899    0.467953   -0.198899    11.00000   -1.50000
H3C   2   -0.164469    0.527192   -0.197046    11.00000   -1.50000
AFIX   0
C4    1    0.023604    0.561071    0.084538    11.00000    0.05906    0.03632 =
         0.06916    0.00442   -0.01011    0.01162
AFIX  23
H4A   2   -0.128153    0.536054    0.084124    11.00000   -1.20000
H4B   2    0.117042    0.497064    0.096079    11.00000   -1.20000
AFIX   0
C5    1    0.057081    0.637034    0.201192    11.00000    0.05166    0.08617 =
         0.09984    0.00823   -0.02863    0.00743
AFIX  23
H5A   2    0.211901    0.656371    0.206614    11.00000   -1.20000
H5B   2   -0.025172    0.704171    0.185402    11.00000   -1.20000
AFIX   0
N1    3   -0.010864    0.590914    0.328212    11.00000    0.09332    0.07520 =
         0.07431   -0.01361   -0.01395    0.02283
AFIX  33
H1D   2    0.013224    0.639764    0.392591    11.00000   -1.50000
H1E   2   -0.153716    0.574559    0.325043    11.00000   -1.50000
H1F   2    0.066319    0.530194    0.344731    11.00000   -1.50000
AFIX   0
P1    4    0.082541    0.621862   -0.071088    11.00000    0.06752    0.04719 =
         0.07160    0.00184   -0.01199   -0.00144
PB1   6    0.503691    0.853875    0.491221    11.00000    0.02691    0.03548 =
         0.04361   -0.00267   -0.00190   -0.00141
HKLF 4

REM  P21 in P2(1)
REM R1 =  0.0823 for    2745 Fo > 4sig(Fo)  and  0.0963 for all    3474 data
REM    104 parameters refined using     86 restraints

END

WGHT      0.1562      0.0000

REM Highest difference peak  4.175,  deepest hole -5.692,  1-sigma level  0.735
Q1    1  -0.1017  0.6074 -0.0764  11.00000  0.05    4.17
Q2    1   0.6603  0.6114 -0.0682  11.00000  0.05    2.05
Q3    1   0.1021  0.5976  0.0755  11.00000  0.05    1.91
Q4    1   0.2958  0.8534  0.4134  11.00000  0.05    1.89
Q5    1   0.6657  0.7867  0.4971  11.00000  0.05    1.89
Q6    1   0.3790  0.8035  0.2037  11.00000  0.05    1.70
Q7    1   0.3360  0.9212  0.4950  11.00000  0.05    1.68
Q8    1   0.3361  0.7832  0.4942  11.00000  0.05    1.66
Q9    1  -0.2377  0.4814  0.4772  11.00000  0.05    1.53
Q10   1   0.6882  0.7987  0.5662  11.00000  0.05    1.53
Q11   1   0.6685  0.9188  0.5033  11.00000  0.05    1.52
Q12   1   1.1987  0.8813  0.6180  11.00000  0.05    1.48
Q13   1   0.3848  0.9042  0.2015  11.00000  0.05    1.47
Q14   1   0.2045  0.6362  0.3108  11.00000  0.05    1.45
Q15   1   0.7080  0.8904  0.5832  11.00000  0.05    1.44
Q16   1   1.1693  0.9073  0.5264  11.00000  0.05    1.41
Q17   1   0.8193  0.8201  0.4417  11.00000  0.05    1.36
Q18   1   0.1317  0.6041 -0.3195  11.00000  0.05    1.34
Q19   1   0.2469  0.9830  0.4581  11.00000  0.05    1.34
Q20   1   0.7565  0.7227  0.5140  11.00000  0.05    1.34
;
_shelx_res_checksum              87688
_shelx_hkl_file
;
   0 -17  -3   12.66   11.09
   0 -17  -4    4.27   12.49
   0 -16  -1  111.73    9.34
   0 -16  -2  103.18   11.12
   0 -16  -3   96.98   12.73
   0 -16   3   71.45   12.85
   0 -16  -4   76.72   13.35
   0 -16  -5   48.03   14.30
   0 -15   0    1.63    5.66
   0 -15  -1    0.74    7.15
   0 -15   1   -0.07    4.97
   0 -15  -2    8.43    7.92
   0 -15  -3   25.62    9.57
   0 -15   4   -0.88   10.09
   0 -15  -4    3.31   10.00
   0 -15   5   11.80    8.93
   0 -15  -5   20.23   12.31
   0 -15  -6   28.86   14.31
   0 -14   0   85.75    7.62
   0 -14   1   51.97    5.27
   0 -14  -1   64.02    8.11
   0 -14   2   64.80    5.03
   0 -14  -2   67.80    8.75
   0 -14  -3   63.80    9.78
   0 -14  -4   88.09   12.16
   0 -14   4   77.34   11.95
   0 -14  -5   75.91   12.85
   0 -14   5   68.04   10.28
   0 -14   6   35.25    8.22
   0 -14  -6   51.48   13.24
   0 -14  -7   71.12   14.98
   0 -14   7   53.38    8.20
   0 -13   0   -0.29    5.26
   0 -13   1   23.55    4.61
   0 -13  -1   20.79    6.24
   0 -13  -2   14.62    6.84
   0 -13   2   14.32    3.86
   0 -13  -3   13.32    8.05
   0 -13  -4   19.59    7.63
   0 -13   4   22.92    9.29
   0 -13  -4   21.10    9.76
   0 -13  -5   34.78   10.94
   0 -13   5   19.01    8.17
   0 -13  -5   24.76    8.48
   0 -13  -6   24.02   12.29
   0 -13   6   25.28    7.72
   0 -13   7    2.76    6.77
   0 -13  -7   14.21   12.22
   0 -13   8   13.53    7.20
   0 -13  -8   20.65   14.23
   0 -12   0  396.08   17.81
   0 -12   0  399.68   14.79
   0 -12  -1  464.39   19.44
   0 -12   1  495.01   16.24
   0 -12  -1  510.79   18.30
   0 -12   2  462.93   14.37
   0 -12  -2  489.31   19.84
   0 -12  -3  277.89   15.00
   0 -12  -3  279.60   14.91
   0 -12   4  213.27   14.29
   0 -12  -4  227.27   14.36
   0 -12  -4  227.55   13.44
   0 -12  -5  230.85   13.44
   0 -12   5  206.71   13.24
   0 -12  -6   90.20    9.92
   0 -12  -6  114.17   13.78
   0 -12   6   83.88    9.19
   0 -12  -7   62.01   13.48
   0 -12   7   43.66    7.39
   0 -12  -8   79.56   15.21
   0 -12   8   50.87    8.52
   0 -12   9   31.48    7.76
   0 -11   0    1.15    5.90
   0 -11   0    3.62    4.42
   0 -11   0   -1.84    6.97
   0 -11  -1   -1.30    4.99
   0 -11   1   -0.16    6.09
   0 -11  -1   -0.46    6.46
   0 -11   1    1.97    3.77
   0 -11  -1    4.40    7.58
   0 -11   2    8.31    7.43
   0 -11  -2    4.36    6.12
   0 -11   2    7.34    6.51
   0 -11  -2    8.37    7.34
   0 -11   2    4.38    2.92
   0 -11  -2    6.51    5.56
   0 -11  -3   90.09    9.13
   0 -11   3   87.38   10.11
   0 -11  -3   91.10    8.87
   0 -11  -3   86.80   11.16
   0 -11  -4   11.26    6.30
   0 -11   4    5.85    7.13
   0 -11   4   15.72    7.62
   0 -11  -4   12.86    8.07
   0 -11  -4   18.23    7.87
   0 -11  -5   43.37    9.27
   0 -11  -5   44.02    9.51
   0 -11   5   45.19    7.99
   0 -11  -5   38.39    7.40
   0 -11   5   45.67    8.45
   0 -11  -6   39.29    9.07
   0 -11  -6   35.52    6.98
   0 -11  -6   43.42   10.41
   0 -11   6   38.03    7.75
   0 -11   6   42.99    8.03
   0 -11   7   31.51    7.46
   0 -11  -7   33.23    9.70
   0 -11   7   20.61    6.86
   0 -11  -7   36.77   10.90
   0 -11  -8   28.95   12.38
   0 -11   8   14.93    7.25
   0 -11   8   20.13    7.89
   0 -11   9   12.10    6.99
   0 -11  -9   17.11   13.06
   0 -11  10   21.58    8.39
   0 -10   0  318.11   12.34
   0 -10   0  314.42   14.89
   0 -10   0  329.86   16.55
   0 -10   1  303.51   14.42
   0 -10  -1  311.03   14.36
   0 -10  -1  312.14   12.71
   0 -10  -1  303.64   16.11
   0 -10   1  294.07   10.75
   0 -10   2  433.16   17.76
   0 -10  -2  419.13   16.96
   0 -10   2  390.07   12.18
   0 -10  -2  418.46   19.07
   0 -10   2  466.09   18.79
   0 -10  -3  229.82   14.11
   0 -10   3  262.14   13.66
   0 -10  -3  251.36   12.33
   0 -10  -4  210.93   13.76
   0 -10   4  194.26   12.92
   0 -10   4  240.07   13.09
   0 -10  -4  212.74   11.28
   0 -10  -5  370.55   15.21
   0 -10  -5  341.67   17.73
   0 -10   5  383.19   16.44
   0 -10   5  350.49   16.83
   0 -10  -5  388.83   18.40
   0 -10   6  238.38   12.38
   0 -10  -6  226.84   11.39
   0 -10  -6  239.53   15.13
   0 -10  -6  206.89   13.54
   0 -10   6  215.68   12.67
   0 -10   7  119.80    8.83
   0 -10  -7  117.73    8.62
   0 -10  -7  118.26   10.92
   0 -10  -7  131.68   12.91
   0 -10   7   99.03    9.34
   0 -10   8  164.59   10.80
   0 -10  -8  154.89   12.79
   0 -10  -8  172.93   15.59
   0 -10   8  162.56   11.17
   0 -10   9  139.43   10.13
   0 -10   9  117.66   10.32
   0 -10  10   44.74    9.18
   0  -9   0    0.16    5.35
   0  -9   0   -0.78    4.68
   0  -9   0    0.70    3.54
   0  -9   1    4.69    3.26
   0  -9  -1   13.09    6.39
   0  -9   1    6.66    4.85
   0  -9  -1    3.48    4.52
   0  -9  -2   50.39    7.67
   0  -9   2   36.26    6.47
   0  -9   2   47.39    3.48
   0  -9  -2   50.79    6.29
   0  -9   2   52.56    7.19
   0  -9   3   93.65    8.31
   0  -9  -3   80.10    8.57
   0  -9  -3   93.69    7.56
   0  -9   4   54.51    8.44
   0  -9   4   72.81    7.65
   0  -9  -4   59.65    7.93
   0  -9  -4   68.16    6.60
   0  -9   5  108.07    9.06
   0  -9  -5  123.40    8.46
   0  -9  -5  117.25   10.06
   0  -9   5  121.71    8.94
   0  -9   6   53.12    7.38
   0  -9  -6   57.86    6.70
   0  -9  -6   55.49    8.14
   0  -9   6   59.05    6.66
   0  -9  -7   12.06    6.62
   0  -9  -7   10.57    4.87
   0  -9   7   13.45    5.36
   0  -9   7   10.42    6.01
   0  -9  -8   34.45    8.02
   0  -9   8   38.14    6.75
   0  -9  -8   28.75    5.33
   0  -9   8   26.94    7.00
   0  -9  -9   54.52   12.01
   0  -9   9   42.57    7.13
   0  -9   9   44.69    7.61
   0  -9 -10    4.34   11.65
   0  -9  10    8.64    8.59
   0  -8   0 1179.78   34.87
   0  -8   0 1181.50   36.00
   0  -8  -1 1498.16   44.61
   0  -8   1 1533.06   39.89
   0  -8  -1 1546.62   43.12
   0  -8   1 1602.98   44.53
   0  -8   2 2007.10   55.91
   0  -8   2 2125.23   56.00
   0  -8   2 2044.08   50.29
   0  -8  -2 2031.18   54.28
   0  -8  -3  807.97   27.80
   0  -8  -3  787.14   24.89
   0  -8   4  460.21   19.04
   0  -8   4  524.02   18.10
   0  -8  -4  478.70   16.70
   0  -8  -4  471.14   18.84
   0  -8  -5  892.15   27.01
   0  -8  -5  874.14   29.62
   0  -8   5  885.89   29.61
   0  -8   6  404.52   16.78
   0  -8   6  423.27   15.37
   0  -8  -6  413.60   14.74
   0  -8  -6  377.73   16.57
   0  -8  -7  109.83    6.85
   0  -8  -7   98.84    8.41
   0  -8   7  125.06    9.29
   0  -8   7  103.25    7.38
   0  -8  -8   96.34    9.06
   0  -8   8   98.83    9.07
   0  -8  -8  107.78    7.27
   0  -8  -8  104.64   11.15
   0  -8   8  106.47    7.85
   0  -8  -9  161.30   12.16
   0  -8   9  163.29    9.67
   0  -8   9  137.36   10.70
   0  -8  -9  156.78   13.97
   0  -8 -10   39.16   11.47
   0  -8  10   40.78    9.53
   0  -8 -11    9.81   11.62
   0  -7   0    2.27    3.59
   0  -7   0    0.12    4.10
   0  -7  -1  366.42   15.02
   0  -7   1  386.12   15.00
   0  -7  -1  361.20   13.79
   0  -7   2   34.45    5.40
   0  -7  -2   38.59    4.36
   0  -7  -2   35.07    5.57
   0  -7   2   41.24    2.50
   0  -7   2   38.47    5.27
   0  -7  -3   29.98    4.08
   0  -7  -3   25.10    5.08
   0  -7   3   33.83    4.91
   0  -7  -4  200.69    8.97
   0  -7   4  195.67   10.72
   0  -7   4  206.06    9.84
   0  -7  -4  191.61   10.51
   0  -7  -5  222.86   11.34
   0  -7   5  224.27   11.65
   0  -7  -5  229.17    9.71
   0  -7   5  239.55   10.69
   0  -7   6   13.70    5.29
   0  -7   6   12.05    4.14
   0  -7  -6   11.48    4.79
   0  -7  -6   16.33    3.94
   0  -7  -7   45.93    6.33
   0  -7   7   55.70    5.45
   0  -7   7   61.37    7.83
   0  -7  -7   59.56    5.22
   0  -7   8  148.17    8.01
   0  -7  -8  123.16    6.52
   0  -7   8  138.32   10.09
   0  -7  -8  132.82    9.55
   0  -7  -9   31.32    8.27
   0  -7  -9   30.47    3.88
   0  -7   9   29.76    7.67
   0  -7  -9   27.44    9.14
   0  -7  10   24.71    9.61
   0  -7 -10   22.51   10.58
   0  -7 -11   10.30   11.12
   0  -6   0  463.11   15.86
   0  -6   0  468.99   16.55
   0  -6  -1 1102.55   32.48
   0  -6  -1 1102.04   31.12
   0  -6   1 1131.74   32.28
   0  -6  -2 1031.28   30.81
   0  -6  -2 1032.44   29.10
   0  -6   2 1041.35   30.71
   0  -6   2 1078.54   30.37
   0  -6   2 1035.14   25.98
   0  -6  -3  905.37   25.55
   0  -6   3  852.18   27.94
   0  -6  -3  858.05   27.03
   0  -6  -4  595.17   20.46
   0  -6   4  643.40   19.62
   0  -6   4  625.22   21.57
   0  -6  -4  606.72   18.48
   0  -6   5  739.66   21.19
   0  -6  -5  650.98   19.69
   0  -6   5  712.40   22.99
   0  -6  -5  619.53   21.47
   0  -6  -6  855.75   27.08
   0  -6  -6  920.06   25.44
   0  -6   6  929.78   26.16
   0  -6   6  967.43   29.46
   0  -6  -7  250.62    9.26
   0  -6  -7  227.17   10.60
   0  -6   7  251.77    9.95
   0  -6   7  270.80   12.99
   0  -6   8  358.17   16.23
   0  -6  -8  328.89   13.89
   0  -6  -8  339.44   11.37
   0  -6   8  342.94   12.42
   0  -6  -8  348.11   16.90
   0  -6   9  378.69   17.38
   0  -6  -9  324.76    9.88
   0  -6 -10  187.84   14.37
   0  -6 -11   52.22   11.88
   0  -6 -12   47.21   12.16
   0  -5   0    2.73    2.49
   0  -5   0    0.54    2.78
   0  -5  -1  504.15   16.01
   0  -5  -1  536.42   17.53
   0  -5   1  540.99   17.36
   0  -5  -2  192.11    7.62
   0  -5   2  195.67    9.05
   0  -5  -2  187.64    8.72
   0  -5  -3  899.90   25.10
   0  -5   3  936.34   28.60
   0  -5  -3  863.19   26.64
   0  -5   4  310.96   12.58
   0  -5  -4  282.58   11.50
   0  -5   4  313.29   11.10
   0  -5   5   94.71    7.03
   0  -5  -5   90.80    5.94
   0  -5   5   85.27    5.44
   0  -5   6  444.45   16.84
   0  -5   6  411.77   13.13
   0  -5  -7   50.30    5.06
   0  -5   7   60.05    7.20
   0  -5   7   58.34    4.64
   0  -5  -7   62.22    7.58
   0  -5   8   69.06    8.40
   0  -5  -8   68.60    8.28
   0  -5  -8   73.83    6.72
   0  -5   9   68.81    9.56
   0  -5  -9   65.58    9.43
   0  -5 -10   49.84    9.93
   0  -5 -10   38.41    2.79
   0  -5 -11   63.38   11.79
   0  -5 -12   13.66   10.39
   0  -4   0 4911.28  119.56
   0  -4   0 4784.67  119.98
   0  -4  -1 2635.74   70.15
   0  -4   1 2795.64   70.30
   0  -4  -1 2824.74   69.13
   0  -4   2 2672.50   67.41
   0  -4  -2 2601.50   64.95
   0  -4  -2 2572.00   66.58
   0  -4   3 2507.21   68.40
   0  -4  -3 2565.96   67.13
   0  -4   4 1893.53   46.71
   0  -4  -4 1745.34   47.41
   0  -4   4 1791.26   49.15
   0  -4   5 1076.02   31.30
   0  -4   5 1065.32   28.10
   0  -4  -5 1009.65   28.74
   0  -4  -6  782.17   22.98
   0  -4   6  839.93   26.32
   0  -4   6  843.41   22.41
   0  -4   7  786.12   21.07
   0  -4   7  682.33   24.21
   0  -4  -7  724.53   21.73
   0  -4  -7  801.78   26.39
   0  -4   8  109.67   10.08
   0  -4  -8   81.08    8.33
   0  -4  -9  157.93   11.08
   0  -4  -9  173.49   12.03
   0  -4 -10   96.88    4.44
   0  -4 -10  160.26   12.34
   0  -4 -11   34.70   10.32
   0  -4 -12   21.38   10.41
   0  -4 -13   27.73   10.89
   0  -3   0    0.87    1.31
   0  -3   0    0.69    1.59
   0  -3  -1  771.73   21.84
   0  -3   1  822.11   22.22
   0  -3  -1  778.15   20.97
   0  -3  -2   69.87    3.95
   0  -3   2   66.03    4.64
   0  -3   3  128.41    6.48
   0  -3  -3  113.92    5.24
   0  -3   3  119.69    5.04
   0  -3   4  585.90   18.66
   0  -3   4  596.43   16.07
   0  -3  -4  547.79   16.36
   0  -3   5  454.64   12.85
   0  -3   5  479.55   16.42
   0  -3   6   77.21    6.82
   0  -3  -6   84.62    7.32
   0  -3  -6   79.08    4.33
   0  -3   6   76.86    3.88
   0  -3   7  162.08   10.75
   0  -3  -7  137.36    9.31
   0  -3  -8  198.09   11.57
   0  -3  -9    9.59    6.00
   0  -3  -9    9.48    6.97
   0  -3 -10   76.72    9.78
   0  -3 -10   49.11    3.74
   0  -3 -11   29.99    9.43
   0  -3 -12   17.85    9.84
   0  -3 -13   24.17   11.32
   0  -2   0 1884.97   46.34
   0  -2   0 1841.51   46.51
   0  -2  -1 1725.62   43.91
   0  -2   1 1778.77   44.38
   0  -2  -2  625.21   16.90
   0  -2  -3 2842.24   71.36
   0  -2   3 2968.54   71.14
   0  -2   4 2284.28   55.40
   0  -2  -4 2265.74   55.75
   0  -2   4 2150.70   58.51
   0  -2   5  308.19    8.76
   0  -2   5  293.71   12.15
   0  -2  -5  292.26    8.91
   0  -2  -6 1188.85   37.27
   0  -2   6 1524.85   40.73
   0  -2  -7 1123.50   34.32
   0  -2  -8  535.15   20.70
   0  -2  -8  569.37   21.10
   0  -2  -9  198.76   12.42
   0  -2  -9  202.35   12.48
   0  -2 -10  400.37   17.90
   0  -2 -10  282.85   10.34
   0  -2 -11  131.12    6.03
   0  -2 -11  160.38   13.03
   0  -2 -12   21.76    9.47
   0  -2 -13   62.39   12.48
   0  -2 -14   35.34   12.64
   0  -1   0   -0.02    0.20
   0  -1  -1   48.77    2.01
   0  -1   1   48.44    2.42
   0  -1  -2   19.59    1.20
   0  -1  -3  758.38   22.00
   0  -1   3  772.38   19.13
   0  -1  -3  769.33   19.27
   0  -1  -4  206.11    8.94
   0  -1   5  204.22    9.84
   0  -1  -5  169.18    8.74
   0  -1  -6  196.54   10.11
   0  -1  -7  236.81   11.98
   0  -1  -8   13.49    5.97
   0  -1  -8   17.00    5.94
   0  -1  -9   13.30    6.33
   0  -1  -9    3.22    3.15
   0  -1  -9    5.69    6.13
   0  -1 -10   95.68   10.12
   0  -1 -10   83.20    5.77
   0  -1 -11   43.46    4.49
   0  -1 -11   74.31   10.11
   0  -1 -12    4.18    9.43
   0  -1 -13   20.77   11.62
   0  -1 -14   30.03   11.83
   0   0  -1 1863.58   42.68
   0   0   1 1597.34   42.87
   0   0   2 1505.35   40.38
   0   0  -2 1657.33   40.17
   0   0  -3 4929.83  121.22
   0   0  -4 3369.99   84.97
   0   0  -5  612.31   19.88
   0   0  -6  721.47   23.63
   0   0  -7 1927.68   54.27
   0   0  -7 1970.08   53.43
   0   0  -8   68.05    5.54
   0   0  -8   85.81    7.96
   0   0  -8   87.58    8.25
   0   0  -9   33.03    4.57
   0   0  -9   44.41    7.31
   0   0  -9   50.87    7.69
   0   0 -10  255.22   14.56
   0   0 -10  255.96   13.76
   0   0 -11   98.16   10.93
   0   0 -11   66.11    5.44
   0   0 -12   13.76    9.66
   0   0 -13   11.39   10.22
   0   0 -14   31.63   11.37
   0   1  -1   40.90    1.75
   0   1  -1   41.73    2.47
   0   1  -1   40.31    2.18
   0   1  -2   18.84    2.19
   0   1  -2   19.58    1.23
   0   1  -3  817.68   20.56
   0   1   3  823.52   20.44
   0   1  -3  814.65   23.09
   0   1  -4  179.89    8.20
   0   1  -5  197.78    9.58
   0   1  -6  204.93    9.07
   0   1  -6  234.86    9.95
   0   1  -6  218.74   10.79
   0   1  -7  246.11   12.17
   0   1  -7  229.01   10.17
   0   1  -8   11.03    4.13
   0   1  -8   17.58    6.16
   0   1  -8   15.38    5.60
   0   1  -9    7.42    4.19
   0   1  -9   14.06    6.81
   0   1  -9   11.09    6.41
   0   1 -10  133.10   10.57
   0   1 -10  107.12    7.59
   0   1 -10  140.43   11.43
   0   1 -11   43.55    5.92
   0   1 -11   57.43    9.91
   0   1 -12    2.24    8.94
   0   1 -13   17.80    9.96
   0   2   0 1833.59   46.16
   0   2   0 1871.97   46.10
   0   2  -1 1873.33   46.25
   0   2  -1 1837.09   47.04
   0   2  -2  479.37   15.00
   0   2  -2  473.05   13.00
   0   2  -2  446.63   14.15
   0   2  -3 2928.24   74.72
   0   2  -3 2989.95   72.73
   0   2  -3 3058.77   75.83
   0   2  -3 3033.51   72.64
   0   2   3 2855.43   72.52
   0   2  -4 2299.31   59.99
   0   2  -4 2267.17   57.34
   0   2  -4 2339.08   56.34
   0   2   4 2241.24   55.98
   0   2  -4 2224.92   58.79
   0   2  -5  255.06   11.76
   0   2  -5  274.57   10.09
   0   2  -5  248.90   10.59
   0   2   5  274.94    8.11
   0   2  -5  278.71    8.83
   0   2  -6 1207.63   35.61
   0   2  -6 1217.19   37.30
   0   2  -7 1047.17   32.60
   0   2  -7 1131.32   35.34
   0   2  -8  563.15   21.56
   0   2  -8  544.28   19.24
   0   2  -9  203.94   11.26
   0   2  -9  186.88   12.30
   0   2 -10  375.98   18.25
   0   2 -10  411.26   17.88
   0   2 -11  193.22   13.06
   0   2 -11  147.16    9.18
   0   2 -12   19.89    8.95
   0   2 -13   46.67   10.46
   0   3   0    0.43    1.31
   0   3   0    1.04    1.28
   0   3  -1  809.40   21.84
   0   3  -1  784.92   22.47
   0   3  -2   80.80    4.08
   0   3  -2   72.00    4.75
   0   3  -3   93.29    3.52
   0   3  -3   95.39    5.77
   0   3  -3   91.03    4.47
   0   3  -3   91.40    6.38
   0   3   3   98.38    4.41
   0   3  -4  496.14   17.24
   0   3  -4  508.87   14.65
   0   3  -4  516.67   18.57
   0   3  -4  519.49   15.11
   0   3   4  506.56   14.54
   0   3  -5  408.98   15.08
   0   3  -5  392.23   12.28
   0   3  -5  374.78   12.50
   0   3   5  401.89   11.70
   0   3  -5  399.45   16.03
   0   3  -6   88.09    7.00
   0   3  -6   98.65    8.63
   0   3   6   97.94    4.46
   0   3  -6   94.42    5.93
   0   3  -6   92.04    5.31
   0   3  -7  114.99    8.15
   0   3  -7  127.79   10.17
   0   3  -7  134.09    7.85
   0   3  -8  181.11   12.74
   0   3  -8  197.60   10.52
   0   3  -8  156.07    9.84
   0   3  -9   14.52    6.21
   0   3  -9   17.04    6.27
   0   3  -9   13.19    8.09
   0   3 -10   69.72    8.36
   0   3 -10   66.54    7.26
   0   3 -10   65.75   10.49
   0   3 -11   32.11    8.23
   0   3 -11   27.98    6.08
   0   3 -12   11.53    7.69
   0   3 -12    9.21    5.94
   0   4   0 4679.08  115.51
   0   4  -1 2913.90   74.01
   0   4  -1 2882.10   72.80
   0   4  -2 2795.35   69.07
   0   4  -2 2663.06   70.55
   0   4  -3 2881.22   71.48
   0   4  -3 2774.96   68.55
   0   4   4 1835.33   47.79
   0   4  -4 1846.22   46.41
   0   4  -4 1837.12   51.02
   0   4  -4 1989.04   48.76
   0   4  -5 1062.31   32.99
   0   4   5  969.25   26.88
   0   4  -5 1050.27   27.04
   0   4  -5  996.48   27.88
   0   4  -5  991.69   30.73
   0   4  -6  813.54   28.22
   0   4  -6  735.27   24.98
   0   4   6  762.28   20.87
   0   4  -6  715.61   21.41
   0   4  -6  764.55   22.02
   0   4  -7  684.53   21.99
   0   4   7  764.15   20.66
   0   4  -7  710.04   24.99
   0   4  -7  757.93   27.75
   0   4  -7  767.64   22.68
   0   4  -8   93.21    7.15
   0   4  -8   99.30    8.63
   0   4  -8  100.86   10.89
   0   4  -9  139.89    9.79
   0   4  -9  138.53   12.83
   0   4  -9  152.88    9.33
   0   4 -10  125.17    9.59
   0   4 -10  134.56   13.64
   0   4 -10  128.64    9.60
   0   4 -11   40.51    8.24
   0   4 -11   41.14    7.47
   0   4 -12   22.29    7.28
   0   5   0    0.45    2.23
   0   5  -1  509.16   17.30
   0   5  -1  521.79   16.34
   0   5  -2  213.62   10.19
   0   5  -2  230.76    9.40
   0   5  -3 1044.53   28.65
   0   5  -3 1006.10   30.91
   0   5   3  982.36   27.84
   0   5  -4  296.86   11.14
   0   5   4  288.22   10.40
   0   5   5  123.28    5.95
   0   5  -5  121.90    6.75
   0   5  -5  117.52    8.40
   0   5   6  429.70   13.74
   0   5  -6  435.83   13.30
   0   5  -6  415.82   17.41
   0   5  -6  431.43   14.87
   0   5  -7   59.41    9.01
   0   5  -7   56.03    4.77
   0   5  -7   62.53    5.60
   0   5   7   63.51    4.58
   0   5  -7   58.40    6.97
   0   5  -8   54.97    9.85
   0   5  -8   62.89    5.90
   0   5  -8   60.27    7.86
   0   5  -9   57.38    7.75
   0   5  -9   60.24    6.58
   0   5  -9   53.94   10.75
   0   5 -10   51.28   11.59
   0   5 -10   64.05    7.27
   0   5 -10   55.77    8.17
   0   5 -11   45.98    7.23
   0   5 -11   47.87    8.39
   0   5 -12   17.88    7.37
   0   6   0  341.98   12.88
   0   6  -1 1194.77   33.06
   0   6  -1 1111.23   33.75
   0   6  -2 1055.75   29.84
   0   6  -2  994.12   31.30
   0   6   3  820.58   24.63
   0   6  -3  857.11   27.88
   0   6  -3  908.91   25.86
   0   6  -4  610.30   19.59
   0   6  -4  555.59   21.33
   0   6   4  601.55   18.66
   0   6  -5  681.14   21.09
   0   6   5  645.84   19.76
   0   6  -5  619.77   23.24
   0   6  -6  893.01   26.02
   0   6   6  808.92   23.99
   0   6  -6  859.68   28.94
   0   6  -7  196.17    7.14
   0   6  -7  218.35   12.56
   0   6   7  216.34    8.85
   0   6  -7  230.88   10.64
   0   6   8  337.90   11.71
   0   6  -8  351.58   14.09
   0   6  -8  321.52   15.74
   0   6  -9  241.80   10.66
   0   6  -9  283.88   15.03
   0   6 -10  144.36   11.47
   0   6 -10  117.30    8.23
   0   6 -11   56.63    9.64
   0   6 -12   42.43    8.78
   0   7   0    2.62    3.31
   0   7  -1  365.71   13.86
   0   7  -2   47.64    5.40
   0   7  -2   49.34    6.36
   0   7  -3   28.33    4.89
   0   7  -3   26.98    5.52
   0   7   3   24.47    4.74
   0   7   4  173.57    8.70
   0   7  -4  172.25    9.33
   0   7  -4  166.21   11.00
   0   7  -5  199.87   10.06
   0   7   5  191.67    9.02
   0   7  -5  187.41   12.03
   0   7  -6   17.56    4.79
   0   7  -6   23.95    7.20
   0   7   6   23.58    4.14
   0   7  -7   52.58    8.67
   0   7   7   44.88    4.80
   0   7  -7   37.94    5.86
   0   7   8  113.93    6.90
   0   7  -8  114.98   10.86
   0   7  -8  107.81    8.99
   0   7  -9   40.66    8.74
   0   7 -10   17.54    8.28
   0   7 -11   16.72    8.30
   0   8   0 1241.61   36.05
   0   8  -1 1460.15   41.29
   0   8  -2 2109.95   56.73
   0   8  -2 2062.68   58.70
   0   8  -3  791.43   28.46
   0   8   3  799.05   25.29
   0   8  -3  845.75   26.47
   0   8   4  462.79   16.88
   0   8  -4  484.24   17.82
   0   8  -4  458.34   20.15
   0   8   5  858.23   26.42
   0   8  -5  866.80   30.95
   0   8  -5  930.17   28.08
   0   8  -6  350.42   17.57
   0   8  -6  351.09   14.87
   0   8   6  340.71   13.00
   0   8  -7   89.03    7.92
   0   8   7   96.89    6.57
   0   8  -7  105.55   10.89
   0   8   8   80.37    6.70
   0   8  -8   99.73    8.87
   0   8  -8   90.51   10.89
   0   8  -9  133.04   12.57
   0   8 -10   34.17    9.44
   0   9   0    1.46    5.02
   0   9  -1    6.66    5.52
   0   9  -2   47.30    6.44
   0   9  -3  122.68    9.01
   0   9  -3   97.85    9.61
   0   9   3  115.68    8.23
   0   9  -4   63.56    8.79
   0   9   4   67.29    6.67
   0   9  -4   62.35    7.35
   0   9   5  120.31    7.86
   0   9  -5  132.61   11.71
   0   9  -5  122.78    8.81
   0   9  -6   60.62    7.42
   0   9   6   59.05    5.94
   0   9  -6   76.13   10.20
   0   9  -7   10.71    6.13
   0   9  -7   17.79    8.61
   0   9   7   13.86    4.73
   0   9  -8   38.09    9.27
   0   9  -8   40.14    7.52
   0   9   8   37.36    5.75
   0   9   9   44.27    6.09
   0   9  -9   57.95   10.66
   0   9  -9   36.74    9.07
   0  10   0  221.00   12.31
   0  10  -1  357.20   16.07
   0  10  -2  443.99   18.31
   0  10  -3  220.86   12.29
   0  10   3  207.20   11.54
   0  10   4  171.78   10.46
   0  10  -4  194.75   11.66
   0  10  -5  355.10   15.66
   0  10   5  338.24   14.56
   0  10  -6  214.87   12.10
   0  10   6  217.41   11.31
   0  10  -6  213.47   15.12
   0  10  -7   90.98    9.20
   0  10  -7   99.75   11.86
   0  10   7   85.35    7.65
   0  10  -8  166.56   11.87
   0  10   8  149.07    9.40
   0  10   9  113.60    8.44
   0  10  -9  134.11   12.39
   0  11   0    3.32    5.94
   0  11  -1    6.06    6.34
   0  11   2    6.43    6.22
   0  11  -2   14.52    7.22
   0  11   3   85.09    8.61
   0  11  -3   97.28    9.33
   0  11   4    3.02    5.30
   0  11  -4    9.94    6.31
   0  11  -5   32.80    7.36
   0  11   5   32.75    6.68
   0  11   6   26.05    6.37
   0  11  -6   34.16    7.64
   0  11  -7   26.70    8.05
   0  11   7   21.46    6.20
   0  11  -8   22.30    8.99
   0  11   8   19.36    6.07
   0  11  -9   13.41    9.12
   0  11   9   18.01    6.37
   0  12   0  405.92   18.40
   0  12  -1  469.85   20.11
   0  12   2  481.07   20.05
   0  12  -2  512.24   20.81
   0  12  -3  218.34   13.00
   0  12   3  219.54   12.31
   0  12   4  198.06   12.33
   0  12  -4  219.55   13.45
   0  12   5  202.79   12.19
   0  12  -5  215.39   13.43
   0  12   6   72.50    8.32
   0  12  -6   78.48    9.72
   0  12  -7   45.48    9.69
   0  12   7   47.33    7.89
   0  12  -8   45.94    9.85
   0  12   8   46.11    7.54
   0  12   9   26.27    7.09
   0  13   0    1.55    6.58
   0  13  -1   21.01    7.40
   0  13  -2    9.15    7.21
   0  13   2   10.13    7.40
   0  13  -3   12.05    7.85
   0  13   3    9.28    7.30
   0  13   4   16.98    7.26
   0  13  -4   18.01    8.13
   0  13   5   36.02    7.88
   0  13  -5   34.22    9.23
   0  13  -6   17.52    8.17
   0  13   6   15.03    7.20
   0  13   7    5.34    7.17
   0  13  -7    1.86    8.96
   0  13  -8   18.65   10.73
   0  13   8   14.26    7.54
   0  13   9   10.79    7.24
   0  14   0   78.33   10.65
   0  14  -1   61.30   10.03
   0  14  -2   58.32   10.28
   0  14   2   48.78    9.24
   0  14  -3   58.08    9.56
   0  14   3   49.64    8.96
   0  14   4   71.86   10.31
   0  14  -4   64.84   10.70
   0  14   5   46.67    8.52
   0  14  -5   60.30   10.35
   0  14  -6   47.48   10.18
   0  14   6   43.02    9.08
   0  14  -7   45.14   10.73
   0  14   7   38.70    8.28
   0  14  -8   51.76   12.35
   0  14   8   45.55    9.22
   0  15   0    7.16    8.47
   0  15  -1   -2.69    8.54
   0  15  -2    4.66    9.16
   0  15   2    5.32    8.41
   0  15   3   26.73    9.42
   0  15  -3   24.35    9.83
   0  15  -4    3.73    9.11
   0  15   4    2.91    7.94
   0  15   5    3.48    8.41
   0  15  -5    9.75    9.88
   0  15   6   17.14    9.24
   0  15  -6   10.66    9.78
   1 -17  -4   13.48   14.80
   1 -17  -3   11.32   12.72
   1 -17   3    4.90   14.30
  -1 -17  -4    3.55   10.14
   1 -16  -5   64.47   18.58
   1 -16  -4   80.49   16.83
   1 -16  -3   76.45   13.93
   1 -16  -2   87.38   12.11
   1 -16  -1   97.49   10.70
  -1 -16  -1   82.99    8.60
  -1 -16  -2   76.04    9.46
  -1 -16  -3   56.38    9.38
  -1 -16  -4   59.51   10.79
   1 -16   4   45.65   14.71
   1 -16   5   29.36   12.88
  -1 -16  -5   35.58   12.01
   1 -15  -6   22.89   17.99
   1 -15  -5   22.28   14.77
   1 -15  -4   15.64   12.01
  -1 -15   3    7.31    7.79
   1 -15  -3   15.19   10.96
   1 -15  -2   21.83    9.54
   1 -15  -1    6.95    8.30
  -1 -15   1    0.85    5.58
   1 -15   0    2.30    6.59
  -1 -15   0    7.29    5.58
  -1 -15  -1    0.98    6.16
   1 -15   1    3.58    5.53
  -1 -15  -2    4.52    6.86
  -1 -15  -3   12.03    8.04
  -1 -15  -4    6.36    8.95
   1 -15   4   -1.52   12.61
  -1 -15  -5    5.44   10.32
   1 -15   5    5.28   11.28
   1 -15   6   22.54   11.13
  -1 -15  -6   22.27   11.89
   1 -15   7    5.52   10.56
   1 -14  -7   52.96   18.71
   1 -14  -6   48.47   16.26
   1 -14  -5   64.72   15.36
  -1 -14   5   52.76    6.57
  -1 -14   4   61.38    7.49
  -1 -14   3   42.33    8.52
  -1 -14   2   53.20    6.64
  -1 -14   1   56.44    6.31
   1 -14  -1   62.02    8.55
   1 -14   0   43.31    6.98
  -1 -14   0   35.79    6.06
  -1 -14  -1   40.35    7.00
   1 -14   1   52.40    6.56
   1 -14   2   62.37    8.60
  -1 -14  -2   41.93    7.77
   1 -14   2   50.54    5.61
  -1 -14  -3   36.23    8.21
   1 -14   4   39.91   11.96
  -1 -14  -4   48.42   10.27
   1 -14   5   46.96   12.04
  -1 -14  -5   66.25   12.26
  -1 -14  -6   52.55   12.94
   1 -14   6   38.46   11.65
   1 -14   7   35.61   11.02
  -1 -14  -7   41.12   13.86
   1 -14   8   36.70   10.71
  -1 -13   7    6.07    4.98
  -1 -13   6   10.54    4.89
  -1 -13   5   16.45    5.26
  -1 -13   4   17.42    5.84
  -1 -13   3   11.87    6.77
  -1 -13   2    5.80    5.16
  -1 -13   1    7.10    4.29
  -1 -13   0    2.26    4.84
  -1 -13  -1   10.63    5.72
   1 -13   1   10.44    5.20
   1 -13   2    7.36    4.00
  -1 -13  -2   11.19    6.59
  -1 -13  -3   10.22    7.63
   1 -13   3    6.04    4.06
   1 -13   3    8.45    2.49
  -1 -13  -4   14.54    9.21
   1 -13   4    8.77    9.37
   1 -13   5   14.38   10.25
  -1 -13  -5   20.35   10.87
   1 -13   6   16.27   10.38
  -1 -13  -6    4.32   11.28
   1 -13   7   10.47    9.30
  -1 -13  -7    8.02   12.66
   1 -13   8    0.20    9.31
   1 -13   9   10.84    9.98
  -1 -12   8   38.31    6.21
  -1 -12   7   38.33    5.66
   1 -12  -6   76.75   11.19
  -1 -12   6   53.41    5.91
   1 -12  -5  170.76   12.99
  -1 -12   5  136.72    8.54
   1 -12  -4  188.94   13.29
  -1 -12   4  135.03    9.03
   1 -12  -3  213.88   14.28
  -1 -12   3  151.45   10.71
  -1 -12   2  374.48   13.14
   1 -12  -2  372.47   17.62
  -1 -12   1  344.51   12.66
   1 -12  -1  363.16   17.02
  -1 -12   0  250.34   11.20
  -1 -12  -1  339.24   13.91
   1 -12   2  345.99   11.85
  -1 -12  -2  367.60   15.72
   1 -12   3  184.15    8.17
   1 -12   3  191.51    6.79
   1 -12   4  125.08   13.30
  -1 -12  -4  181.69   13.70
   1 -12   5  125.94   13.57
  -1 -12  -5  173.64   13.63
  -1 -12  -6   89.96   12.31
   1 -12   6   55.53   11.15
  -1 -12  -7   44.67   12.46
   1 -12   7   39.03    9.96
  -1 -12  -8   49.65   14.06
   1 -12   8   40.41   10.17
   1 -12   9   23.76    9.88
   1 -12  10    9.49    9.35
  -1 -11   8    9.58    5.46
   1 -11  -7   46.34    9.66
  -1 -11   7   34.24    5.31
   1 -11  -6   53.39   10.39
   1 -11  -6   60.89    9.63
  -1 -11   6   57.15    8.43
  -1 -11   6   41.85    5.73
  -1 -11   5   18.12    4.89
   1 -11  -5   17.91    9.17
  -1 -11   5   18.76    7.71
   1 -11  -5   27.54    7.95
  -1 -11   4   35.82    5.60
   1 -11  -4   41.89    9.15
  -1 -11   4   42.67    8.67
   1 -11  -4   45.91    7.89
   1 -11  -3   39.51    7.67
   1 -11  -3   33.02    8.31
  -1 -11   3   40.87    8.75
  -1 -11   3   32.63    6.40
   1 -11  -2   32.62    8.62
   1 -11  -2   41.31    7.43
  -1 -11   2   46.97    5.11
  -1 -11   2   40.48    9.26
   1 -11  -1    4.21    6.45
  -1 -11   1    1.20    4.05
   1 -11  -1    3.20    7.47
   1 -11   0    8.04    6.21
  -1 -11   0    5.71    4.08
   1 -11   0    8.33    7.84
  -1 -11   0    4.12    8.43
   1 -11   1   -0.31    5.95
  -1 -11  -1   -0.25    8.94
  -1 -11  -1    0.41    4.81
  -1 -11  -2   23.47    7.14
   1 -11   2   41.21    8.28
   1 -11   2   40.46    7.38
  -1 -11  -2   37.44    9.57
   1 -11   3   43.47    8.10
   1 -11   3   32.95    3.13
   1 -11   3   33.03    4.59
  -1 -11  -3   30.15    7.93
  -1 -11  -3   30.03    9.76
  -1 -11  -4   40.43    8.73
   1 -11   4   23.85    8.57
   1 -11   4   48.55    8.64
  -1 -11  -4   35.81    9.74
   1 -11   5   17.34    8.94
   1 -11   5   22.98    7.90
  -1 -11  -5   14.33    8.26
  -1 -11  -5    8.49    8.84
   1 -11   6   57.49   10.69
  -1 -11  -6   54.78   10.53
   1 -11   6   55.12    9.02
  -1 -11  -7   27.62   10.94
   1 -11   7   29.03    9.41
  -1 -11  -8   17.15   10.75
   1 -11   8    8.25    8.75
  -1 -11  -9   18.61   11.87
   1 -11   9   18.27    9.58
   1 -11  10   19.85   10.15
   1 -11  11   12.14    9.12
  -1 -10   9  106.26    8.70
  -1 -10   8  100.26    8.93
  -1 -10   8  107.96    8.41
   1 -10  -7   53.11    9.76
  -1 -10   7   55.40    7.69
   1 -10  -7   73.47    9.31
  -1 -10   7   55.86    6.16
  -1 -10   6  124.86    7.59
   1 -10  -6  147.63   10.96
  -1 -10   6  153.21   10.61
   1 -10  -6  138.17   12.10
   1 -10  -5  264.16   16.11
  -1 -10   5  282.85   14.32
  -1 -10   5  244.43   10.98
  -1 -10   4   87.10    9.41
   1 -10  -4   75.32    9.58
  -1 -10   4   78.56    6.63
   1 -10  -4   85.01    8.78
  -1 -10   3   62.65    8.99
  -1 -10   3   49.87    6.50
   1 -10  -3   50.88    8.47
   1 -10  -3   60.98    7.73
   1 -10  -2  273.33   13.45
  -1 -10   2  312.04   16.65
  -1 -10   2  270.40   10.40
   1 -10  -2  262.39   15.00
  -1 -10   1  145.14    7.27
   1 -10  -1  141.91    9.53
   1 -10  -1  149.47   11.59
   1 -10   0   51.45    8.13
  -1 -10   0   41.53    5.17
  -1 -10   0   49.66    9.09
   1 -10   0   51.80    7.73
   1 -10   1  122.88    9.27
  -1 -10  -1  110.79    8.47
  -1 -10  -1  143.03   12.36
  -1 -10  -2  341.43   14.99
   1 -10   2  295.06   15.40
  -1 -10  -2  302.74   17.74
   1 -10   2  304.36   14.73
  -1 -10  -3   63.51    8.35
   1 -10   3   64.21    8.23
   1 -10   3   60.29    8.12
  -1 -10  -3   71.09   10.42
   1 -10   3   60.42    5.22
  -1 -10  -4   69.98   10.35
  -1 -10  -4   73.76    8.90
   1 -10   4   82.15    9.00
   1 -10   4   60.79    9.81
   1 -10   5  302.85   14.99
  -1 -10  -5  273.30   15.62
  -1 -10  -5  238.64   15.94
   1 -10   5  217.18   15.57
   1 -10   5  285.90   15.18
   1 -10   6  143.76   10.75
   1 -10   6  143.04   12.60
  -1 -10  -6  137.20   12.24
  -1 -10  -6  155.46   12.90
   1 -10   7   52.28    8.08
   1 -10   7   43.15    9.76
  -1 -10  -7   49.31   10.23
  -1 -10  -7   43.55    9.16
  -1 -10  -8  100.16   13.18
  -1 -10  -8   83.77   10.74
   1 -10   8   93.36   11.29
   1 -10   9  105.28   12.31
   1 -10  10   29.26   10.04
   1 -10  11   24.65   10.54
   1 -10  12   31.06   13.10
  -1  -9   9   24.15    5.83
  -1  -9   8   39.22    6.42
  -1  -9   8   54.19    7.43
  -1  -9   7    8.38    5.46
   1  -9  -7    7.83    7.85
  -1  -9   7    8.32    4.85
   1  -9  -7   11.06    6.87
  -1  -9   6   42.82    5.63
   1  -9  -6   42.51    7.57
   1  -9  -6   29.34    7.54
  -1  -9   6   42.17    6.58
  -1  -9   5   80.17    8.24
   1  -9  -5   93.84    8.64
   1  -9  -5   72.95    9.11
  -1  -9   5   73.38    5.98
  -1  -9   4    9.88    4.21
  -1  -9   4   14.28    6.22
   1  -9  -4   11.44    6.00
   1  -9  -4   10.84    6.02
  -1  -9   3   25.26    6.99
   1  -9  -3   14.56    6.11
  -1  -9   3   21.05    5.04
   1  -9  -3   25.22    5.68
  -1  -9   2   60.53    8.73
  -1  -9   2   74.35    5.22
   1  -9  -2   57.37    7.68
   1  -9  -2   63.89    6.97
   1  -9  -1   32.40    5.79
  -1  -9   1   35.82    4.08
   1  -9  -1   32.24    6.91
   1  -9   0    5.71    4.87
  -1  -9   0    7.09    6.40
   1  -9   0    4.93    5.49
  -1  -9   0    5.03    3.77
  -1  -9  -1   20.77    5.46
  -1  -9  -1   26.43    7.61
   1  -9   1   29.06    6.07
   1  -9   2   60.89    6.95
  -1  -9  -2   44.01    6.57
   1  -9   2   54.98    7.40
  -1  -9  -2   59.01    9.44
   1  -9   3   23.93    6.01
   1  -9   3   23.82    4.00
  -1  -9  -3   25.12    8.17
  -1  -9  -3   21.64    6.57
  -1  -9  -4   11.45    6.67
  -1  -9  -4    8.50    7.34
   1  -9   4    9.07    7.68
   1  -9   4   11.11    6.12
   1  -9   4    7.68    5.73
   1  -9   5   47.22    9.14
  -1  -9  -5   65.65    9.03
   1  -9   5   79.69    8.77
  -1  -9  -5   65.77    9.23
   1  -9   5   79.59    8.11
   1  -9   6   43.48    9.14
  -1  -9  -6   31.70    7.69
   1  -9   6   38.04    7.02
  -1  -9  -6   45.15    9.13
   1  -9   7    2.75    7.75
  -1  -9  -7   15.43    7.93
  -1  -9  -7   10.76    8.85
   1  -9   7    6.12    6.49
  -1  -9  -8   32.38    8.54
   1  -9   8   41.78    9.05
   1  -9   9   22.45    9.38
   1  -9  10   16.04    9.53
  -1  -9 -10   20.24   10.92
   1  -9  11   11.79   11.12
   1  -9  12   23.64   12.61
   1  -8 -11    5.36   12.05
  -1  -8  10   26.01    5.50
  -1  -8   9   92.01    6.84
  -1  -8   8   75.65    8.12
  -1  -8   8   65.83    6.59
  -1  -8   7   29.65    4.99
   1  -8  -7   25.23    7.42
  -1  -8   7   37.59    6.00
   1  -8  -6  208.11   12.39
  -1  -8   6  230.16   10.11
  -1  -8   5  427.95   14.81
   1  -8  -5  410.57   18.13
  -1  -8   4  260.55   12.97
  -1  -8   4  255.39   10.36
   1  -8  -4  240.84   12.74
  -1  -8   3  403.51   14.77
   1  -8  -3  363.70   16.31
   1  -8  -2 1168.19   34.58
  -1  -8   2 1243.58   31.96
  -1  -8   2 1208.37   37.12
   1  -8  -1  947.53   28.52
  -1  -8   1  949.51   26.12
   1  -8  -1  913.13   30.18
   1  -8   0  388.23   16.25
  -1  -8   0  376.90   13.28
  -1  -8   0  388.00   17.29
   1  -8   0  367.97   14.53
   1  -8   1  933.01   30.01
  -1  -8  -1  942.35   32.93
  -1  -8  -2 1238.08   35.34
  -1  -8  -2 1125.18   37.89
   1  -8   2 1178.04   35.69
   1  -8   2 1182.31   35.11
   1  -8   3  414.93   13.65
  -1  -8  -3  408.59   18.78
   1  -8   3  415.68   16.54
   1  -8   4  246.25   11.92
   1  -8   4  212.40   14.64
  -1  -8  -4  220.68   12.72
   1  -8   4  255.62   12.84
  -1  -8  -4  238.91   14.05
   1  -8   5  419.98   20.47
  -1  -8  -5  497.32   20.04
   1  -8   5  459.22   18.47
   1  -8   5  461.57   17.69
  -1  -8  -5  478.44   20.38
   1  -8   6  237.96   14.87
  -1  -8  -6  266.16   13.35
   1  -8   6  245.52   12.30
  -1  -8  -6  233.17   13.44
  -1  -8  -7   37.67    7.60
   1  -8   7   36.65    8.91
  -1  -8  -7   37.42    7.27
   1  -8   8   70.48   10.78
  -1  -8  -8   78.20   11.04
  -1  -8  -8   61.05    8.25
   1  -8   9   91.11   11.22
  -1  -8  -9   74.07    8.67
  -1  -8 -10   27.10   10.81
   1  -8  10   20.12    9.63
   1  -8  11    6.03   10.84
  -1  -8 -11    9.48   12.25
   1  -8  12   29.41   11.87
  -1  -7  10    3.83    4.14
  -1  -7   9   43.07    5.03
  -1  -7   8  131.51    7.61
  -1  -7   7  101.55    6.94
  -1  -7   7  125.15    8.24
  -1  -7   6   13.15    4.07
  -1  -7   6    9.00    4.40
   1  -7  -6   10.45    5.93
  -1  -7   5  135.02    8.64
   1  -7  -5  132.94    9.17
  -1  -7   5  138.07    7.23
   1  -7  -4  512.60   19.11
  -1  -7   4  553.61   19.01
  -1  -7   4  508.36   16.20
  -1  -7   3   17.64    3.66
   1  -7  -3   20.25    4.97
  -1  -7   3   25.20    5.18
   1  -7  -2   23.35    5.02
  -1  -7   2   25.70    3.62
  -1  -7   2   20.46    5.26
  -1  -7   1  264.62    9.55
   1  -7  -1  273.11   12.61
   1  -7  -1  276.16   11.35
  -1  -7   0   29.39    5.95
   1  -7   0   29.23    4.53
  -1  -7   0   32.53    3.92
   1  -7   0   32.47    5.10
  -1  -7  -1  293.27   14.25
   1  -7   1  271.35   11.98
   1  -7   2   24.16    4.77
  -1  -7  -2   14.53    5.23
   1  -7   2   20.85    4.91
  -1  -7  -2   11.16    4.66
   1  -7   3   25.60    4.78
  -1  -7  -3   39.27    6.09
   1  -7   3   23.99    3.79
  -1  -7  -3   30.80    6.46
  -1  -7  -4  500.82   20.42
   1  -7   4  544.67   18.68
   1  -7   4  486.21   22.28
   1  -7   4  565.85   19.60
  -1  -7  -4  529.67   20.17
   1  -7   4  509.81   13.83
   1  -7   5  130.90   11.62
   1  -7   5  132.62    8.37
   1  -7   5  141.16    9.49
  -1  -7  -5  108.02    9.53
   1  -7   6   11.05    6.93
  -1  -7  -6   10.43    6.02
  -1  -7  -6   11.32    5.63
   1  -7   6    9.41    4.96
  -1  -7  -7   89.10    7.87
  -1  -7  -7   87.11    8.58
   1  -7   7  106.96   10.29
   1  -7   8  127.70   11.86
  -1  -7  -8  110.59    8.33
   1  -7   9   47.60    9.53
  -1  -7  -9   32.61    9.70
  -1  -7  -9   33.06    6.40
  -1  -7 -10   10.01   10.32
   1  -7  10    8.20    9.08
   1  -7  11   44.58   12.25
  -1  -7 -11   43.82   12.37
   1  -6 -12   55.01   13.05
  -1  -6   9  203.85    8.28
  -1  -6   8  114.90    6.42
  -1  -6   7  200.19   10.54
  -1  -6   7  161.79    7.91
  -1  -6   6  317.89   12.10
   1  -6  -6  328.78   14.52
  -1  -6   6  355.09   12.79
   1  -6  -5  412.81   16.24
  -1  -6   5  463.27   14.79
  -1  -6   5  440.76   15.53
   1  -6  -4   79.44    6.68
  -1  -6   4   78.29    4.81
  -1  -6   4   86.53    6.54
  -1  -6   3  122.66    8.02
   1  -6  -3  136.82    8.13
  -1  -6   2  420.97   12.56
  -1  -6   2  398.93   15.72
  -1  -6   1  115.11    5.50
   1  -6  -1  115.59    7.35
  -1  -6   0  103.24    5.62
  -1  -6   0  100.18    7.57
   1  -6   0  100.30    6.22
   1  -6   0   99.47    6.73
  -1  -6  -1   97.74    7.68
   1  -6   1   95.89    6.20
  -1  -6  -1   86.85    6.36
   1  -6   2  420.09   14.13
   1  -6   2  391.61   14.94
  -1  -6  -2  426.35   17.18
  -1  -6  -3  113.56    8.29
  -1  -6  -3   94.43    7.61
   1  -6   3  111.93    7.19
   1  -6   4   92.45    6.73
   1  -6   4  103.87    4.35
   1  -6   4   86.59    9.30
  -1  -6  -4   91.46    7.79
   1  -6   4   96.35    7.35
   1  -6   5  403.40   18.98
  -1  -6  -5  387.90   16.41
   1  -6   5  436.55   15.53
   1  -6   5  450.93   16.81
  -1  -6  -5  405.55   16.24
   1  -6   6  341.20   17.31
  -1  -6  -6  313.07   14.23
  -1  -6  -6  336.26   16.34
  -1  -6  -6  357.25   15.26
  -1  -6  -7  134.41    8.94
   1  -6   7  164.13   12.20
  -1  -6  -7  140.48    8.60
  -1  -6  -8   86.57    6.74
   1  -6   8  115.64   11.05
   1  -6   9  229.93   15.01
  -1  -6  -9  239.03   15.06
  -1  -6  -9  190.95   10.03
  -1  -6 -10   92.80   12.53
   1  -6  10  118.55   12.78
   1  -6  11   37.90   11.86
  -1  -6 -11   29.67   10.94
  -1  -6 -12   51.64   13.18
   1  -5 -12   21.67   10.81
  -1  -5   9   44.41    3.91
  -1  -5   8  114.68    5.88
  -1  -5   7   65.50    4.67
  -1  -5   6  410.47   14.92
  -1  -5   6  357.99   12.86
   1  -5  -5   97.92    6.95
  -1  -5   5  102.66    6.07
  -1  -5   5   97.92    5.93
   1  -5  -4   95.05    6.58
  -1  -5   4   85.48    6.02
  -1  -5   4  101.24    5.35
  -1  -5   3  369.60   13.39
  -1  -5   3  353.65   11.12
   1  -5  -3  358.51   13.49
  -1  -5   2  436.38   12.91
   1  -5  -2  384.39   14.42
  -1  -5   1  443.45   12.94
   1  -5  -1  393.03   14.46
   1  -5   0    5.13    3.02
  -1  -5   0    9.53    2.39
  -1  -5   0    7.95    3.84
  -1  -5  -1  388.14   15.22
  -1  -5  -1  403.27   14.12
   1  -5   1  391.86   13.50
  -1  -5  -2  330.36   13.77
   1  -5   2  409.25   12.50
   1  -5   3  334.10   16.11
  -1  -5  -3  350.39   14.48
   1  -5   3  364.79   13.48
   1  -5   4   76.84    8.12
   1  -5   4   77.03    5.67
  -1  -5  -4   84.64    6.91
   1  -5   4   77.71    4.07
   1  -5   4   91.66    6.71
  -1  -5  -4   80.84    6.21
  -1  -5  -5  116.71    8.67
  -1  -5  -5  108.77    8.06
   1  -5   5   98.39    6.83
  -1  -5  -5  101.19    7.18
   1  -5   5   96.20    7.40
   1  -5   5  101.75    8.91
  -1  -5  -6  363.34   14.50
   1  -5   6  377.91   17.88
  -1  -5  -6  412.35   17.35
   1  -5   7   71.95    8.94
  -1  -5  -7   57.30    5.56
  -1  -5  -8   91.40    6.20
   1  -5   8  122.07   10.91
  -1  -5  -9   37.98    8.99
   1  -5   9   46.16    9.41
  -1  -5  -9   42.91    5.06
   1  -5  10   50.78   10.81
  -1  -5 -10   40.18   10.27
  -1  -5 -11   28.68   11.24
   1  -5  11   43.85   11.32
  -1  -5 -12   30.26   12.30
   1  -4 -13   23.09   12.24
   1  -4 -12   11.44    9.82
   1  -4  -9   68.01    8.73
   1  -4  -8   53.12    7.39
  -1  -4   8   78.67    4.12
  -1  -4   7  162.99    6.54
  -1  -4   6  412.08   13.00
  -1  -4   5  184.46    8.81
  -1  -4   5  181.53    7.63
  -1  -4   4  762.56   23.03
  -1  -4   4  826.99   22.40
   1  -4  -4  806.71   23.97
  -1  -4   3 1387.24   35.84
  -1  -4   3 1277.25   33.72
   1  -4  -3 1308.49   35.79
   1  -4  -2  919.79   27.32
  -1  -4   2  975.67   24.93
  -1  -4   1 1353.95   34.73
   1  -4  -1 1283.59   35.98
  -1  -4   0 1572.30   44.39
   1  -4   0 1569.78   42.97
  -1  -4   0 1695.28   42.13
  -1  -4  -1 1355.53   38.33
   1  -4   2  911.29   25.79
  -1  -4  -2  887.18   27.39
  -1  -4  -3 1491.98   41.94
   1  -4   3 1590.43   41.61
  -1  -4  -3 1561.16   41.08
   1  -4   3 1424.96   40.40
   1  -4   3 1529.47   39.35
  -1  -4  -4  737.49   23.26
   1  -4   4  711.80   20.19
   1  -4   4  758.93   26.65
  -1  -4  -4  714.57   24.36
   1  -4   5  209.28   12.47
  -1  -4  -5  191.24    9.23
   1  -4   5  190.82    9.75
  -1  -4  -6  432.73   17.69
   1  -4   6  462.17   18.96
  -1  -4  -7  164.19    7.84
  -1  -4  -7  192.50   11.99
   1  -4   7  172.82   12.04
  -1  -4  -8   72.72    4.93
   1  -4   8   86.49    9.87
  -1  -4  -8   88.93    8.71
  -1  -4  -8   92.55   10.08
  -1  -4  -9   63.33    9.84
   1  -4   9   69.01   10.17
  -1  -4  -9   70.77    5.07
   1  -4  10   96.98   12.92
  -1  -4 -10  100.89   11.64
  -1  -4 -11   23.23   11.14
  -1  -4 -12   11.47   10.72
  -1  -4 -13   31.44   11.55
   1  -3 -13   19.74   11.34
   1  -3 -12    8.67    9.55
   1  -3  -9   23.52    6.42
   1  -3  -8  194.25   12.78
  -1  -3   8  245.60    7.12
  -1  -3   7  251.50    7.96
  -1  -3   6   44.34    3.16
  -1  -3   5  265.01    9.13
  -1  -3   4 1012.51   27.72
  -1  -3   3   63.40    4.28
  -1  -3   3   48.40    3.12
  -1  -3   2    4.60    1.05
   1  -3  -2    7.33    2.45
  -1  -3   1 1233.67   31.26
   1  -3  -1 1098.48   31.48
  -1  -3   0  126.83    6.77
   1  -3   0  128.51    6.02
   1  -3   1 1195.43   31.32
  -1  -3  -1 1059.78   31.81
  -1  -3  -2    9.63    3.10
   1  -3   2    7.34    2.57
   1  -3   3   72.63    4.13
  -1  -3  -3   59.92    5.04
  -1  -3  -3   77.20    5.82
   1  -3   3   64.08    4.45
  -1  -3  -4  973.69   28.11
  -1  -3  -4  928.02   29.27
   1  -3   4  929.39   26.04
   1  -3   5  258.34   13.18
  -1  -3  -5  266.28   12.38
  -1  -3  -5  241.34    9.88
  -1  -3  -6   37.69    5.54
   1  -3   6   50.01    7.02
  -1  -3  -6   39.80    6.41
  -1  -3  -6   38.01    3.84
  -1  -3  -7  198.86   11.42
  -1  -3  -7  191.38   12.23
  -1  -3  -7  198.02    7.77
  -1  -3  -8  297.50   15.39
  -1  -3  -8  248.74    8.61
   1  -3   8  258.62   14.87
  -1  -3  -8  316.35   14.96
  -1  -3  -9   15.13    8.30
   1  -3   9   27.37    9.44
  -1  -3  -9   25.18    7.38
  -1  -3 -10   85.17   11.80
  -1  -3 -11   99.73   12.93
  -1  -3 -12    7.17   10.18
  -1  -3 -13   27.61   11.46
   1  -2 -14   22.32   11.34
   1  -2 -13   28.91   11.30
   1  -2 -12   21.97    9.41
   1  -2  -9   84.06    8.53
   1  -2  -8   78.02    8.01
   1  -2  -7  926.95   30.13
  -1  -2   7  928.36   23.27
  -1  -2   6  284.54    8.56
  -1  -2   5   21.54    2.38
  -1  -2   4  726.12   20.10
  -1  -2   3  762.92   21.65
  -1  -2   0 1760.42   46.55
  -1  -2  -1   22.62    3.21
  -1  -2  -1   23.46    2.84
  -1  -2  -2  249.47    9.84
   1  -2   2  246.57    8.94
   1  -2   2  225.67   11.35
  -1  -2  -3  635.51   22.93
   1  -2   3  724.19   21.15
   1  -2   3  875.65   21.37
  -1  -2  -3  801.85   22.89
  -1  -2  -4  791.75   23.81
   1  -2   4  717.05   21.85
  -1  -2  -4  794.67   22.77
   1  -2   4  737.52   22.17
  -1  -2  -5    8.12    3.65
  -1  -2  -5   17.52    2.94
  -1  -2  -5   11.64    4.36
   1  -2   6  293.07   14.21
  -1  -2  -6  262.34   13.03
  -1  -2  -6  261.46    9.08
  -1  -2  -6  285.73   13.11
   1  -2   7  955.82   32.12
  -1  -2  -7 1019.20   30.87
  -1  -2  -7  898.16   24.28
  -1  -2  -7 1055.11   31.77
  -1  -2  -8   98.78    9.84
  -1  -2  -8   87.60    8.77
   1  -2   8   88.89   10.29
  -1  -2  -9   81.21    9.43
  -1  -2  -9   96.60   10.55
   1  -2   9   97.58   11.65
  -1  -2 -10  262.07   16.66
  -1  -2 -11  143.47   13.22
  -1  -2 -12   16.79    9.90
  -1  -2 -13   29.95   11.59
   1  -1 -14   29.07   11.44
   1  -1 -13   26.74   11.05
   1  -1 -12    2.42    8.89
   1  -1 -11   49.92    9.06
   1  -1 -10  139.46   11.47
   1  -1  -9   19.39    6.43
   1  -1  -8   37.30    6.35
   1  -1  -7  304.60   13.71
   1  -1  -6  277.34   12.58
  -1  -1   6  283.32    7.91
  -1  -1   5   30.01    2.33
  -1  -1   0   57.87    3.86
  -1  -1  -1   21.30    2.28
   1  -1   2  266.22   10.84
  -1  -1  -2  205.71    8.34
   1  -1   3  474.68   14.74
  -1  -1  -3  459.30   15.79
   1  -1   3  469.46   17.10
  -1  -1  -3  433.09   15.23
  -1  -1  -4  110.36    7.38
  -1  -1  -4  103.91    6.76
   1  -1   4  111.40    5.86
  -1  -1  -5   30.44    5.10
  -1  -1  -5   32.07    4.62
  -1  -1  -5   29.78    3.09
  -1  -1  -6  329.84   14.40
  -1  -1  -6  301.67    9.54
  -1  -1  -6  333.55   13.99
  -1  -1  -7  270.25   13.52
  -1  -1  -7  260.18   13.76
   1  -1   8   58.55    9.21
  -1  -1  -8   46.15    7.19
  -1  -1  -8   55.57    8.48
  -1  -1  -9   21.39    8.14
  -1  -1  -9   18.01    7.08
  -1  -1 -10  124.14   12.40
  -1  -1 -11   56.16    9.95
  -1  -1 -12    8.08    9.58
  -1  -1 -13   24.40   10.39
  -1  -1 -14   36.49   12.53
   1   0 -13   23.64    9.77
   1   0 -12    4.71    8.55
   1   0 -12    1.02    5.77
   1   0 -11   38.84    6.51
   1   0 -11   49.32    8.94
   1   0 -10   90.57    9.70
   1   0  -9    6.88    6.45
   1   0  -8   53.10    6.93
   1   0  -7  437.82   16.87
   1   0  -6  274.18   11.62
  -1   0   6  283.13    8.07
  -1   0   6  299.07    7.81
   1   0  -5   24.89    4.10
  -1   0   0 2418.96   62.83
   1   0   0 2492.45   63.05
   1   0   1 1548.85   42.47
  -1   0  -1 1709.30   42.60
  -1   0  -1 1721.56   42.63
   1   0   1 1517.57   42.59
   1   0   2  120.62    6.14
  -1   0  -2  108.53    5.54
  -1   0  -3 2550.42   61.49
  -1   0  -3 2488.67   62.10
   1   0   3 2368.31   58.52
   1   0   4 1623.26   46.54
  -1   0  -4 1722.02   45.40
  -1   0  -4 1698.09   46.08
   1   0   5   12.38    3.80
  -1   0  -5   11.05    4.15
  -1   0  -5   13.15    4.14
  -1   0  -6  322.55    9.03
  -1   0  -6  286.61   13.52
  -1   0  -6  292.89    9.54
  -1   0  -6  304.91   13.82
  -1   0  -7  606.94   23.07
  -1   0  -7  664.87   23.56
  -1   0  -8  122.91   10.30
  -1   0  -8  140.34   10.73
  -1   0  -9    5.09    6.40
  -1   0  -9    5.04    6.71
  -1   0 -10  141.59   11.75
  -1   0 -11   68.67   10.71
  -1   0 -12   -1.01    8.89
  -1   0 -13   15.96   10.98
  -1   0 -14   22.78   11.99
   1   1 -13   23.58   10.11
   1   1 -12    2.73    6.08
   1   1 -12    8.47    8.62
   1   1 -11   56.36    8.90
   1   1 -11   37.15    6.82
   1   1 -10  137.59   10.94
   1   1  -9   29.91    7.03
   1   1  -8   33.72    6.39
   1   1  -7  382.13   15.67
   1   1  -6  276.35   12.12
  -1   1   6  313.60    8.47
   1   1  -5   41.52    4.30
  -1   1   5   38.46    2.31
  -1   1   4  156.37    5.59
   1   1  -4  129.33    6.11
   1   1  -3  554.91   16.13
   1   1  -1   41.27    3.48
   1   1   0   54.51    4.34
   1   1   0   68.08    3.05
   1   1   1   29.94    2.40
   1   1   1   35.52    3.10
  -1   1  -1   28.77    3.65
   1   1   2  284.89   10.07
  -1   1  -2  280.26   10.44
  -1   1  -2  254.32   11.19
   1   1   2  290.31   10.12
  -1   1  -3  439.78   14.24
   1   1   3  402.73   14.05
  -1   1  -3  448.89   15.76
   1   1   4  144.37    8.31
  -1   1  -4  123.42    7.95
  -1   1  -4  149.54    6.04
  -1   1  -4  114.74    6.79
  -1   1  -5   30.38    2.42
  -1   1  -5   27.74    4.86
  -1   1  -5   25.73    4.30
  -1   1  -6  352.69   15.31
  -1   1  -6  361.16   14.14
  -1   1  -6  330.79    9.55
  -1   1  -7  275.54   14.03
  -1   1  -7  245.55   12.41
  -1   1  -8   41.94    7.21
  -1   1  -8   48.50    7.79
  -1   1  -9   34.47    8.13
  -1   1  -9   24.42    7.67
  -1   1 -10  117.85   10.86
  -1   1 -11   53.09    9.61
  -1   1 -12    2.34    9.01
  -1   1 -13   29.11   11.07
   1   2 -12   20.93    7.24
   1   2 -12   26.38    8.09
   1   2 -11   93.11    9.85
   1   2 -11   69.86    8.79
   1   2 -10  265.39   13.00
   1   2 -10  267.67   14.86
   1   2  -9   78.04    8.72
   1   2  -8  105.92    8.68
   1   2  -7  908.25   28.11
  -1   2   7  884.73   22.45
   1   2  -6  302.25   12.38
  -1   2   6  281.21    8.62
  -1   2   5   34.37    2.57
   1   2  -5   36.82    4.26
   1   2  -4  566.71   18.60
  -1   2   4  688.03   17.60
   1   2  -3  999.96   25.11
  -1   2   3  880.08   24.52
   1   2  -2  213.94    6.38
   1   2  -2  197.49    7.99
   1   2  -1   30.86    3.28
  -1   2   0 1824.38   47.19
   1   2   0 1862.64   47.51
  -1   2  -1   19.35    2.35
   1   2   1   18.73    2.90
   1   2   2  214.59    6.29
   1   2   2  198.77    8.42
  -1   2  -2  224.17    7.79
  -1   2  -3  638.48   23.30
  -1   2  -3  665.55   21.32
  -1   2  -4 1012.08   29.33
  -1   2  -4  930.73   25.60
  -1   2  -5   17.09    2.12
  -1   2  -5   12.61    3.86
  -1   2  -5   12.06    4.75
  -1   2  -6  247.60    7.94
  -1   2  -6  224.18   13.08
  -1   2  -6  228.15   11.07
  -1   2  -7  985.55   30.38
  -1   2  -7  966.48   25.06
  -1   2  -7 1001.59   33.66
  -1   2  -8   95.67    8.64
  -1   2  -8  107.27   11.05
  -1   2  -9   84.28   10.53
  -1   2  -9   69.06    8.62
  -1   2 -10  233.38   14.48
  -1   2 -11  145.16   12.70
  -1   2 -12   16.68    9.27
  -1   2 -13   27.77   11.19
   1   3 -12    3.93    6.90
   1   3 -12    5.24    7.98
   1   3 -11   70.08   11.13
   1   3 -11   65.84    8.38
   1   3 -11   55.33    8.53
   1   3 -10   96.58   10.76
   1   3 -10   95.09    8.96
   1   3 -10   84.15    9.21
   1   3  -9   17.00    6.40
   1   3  -9   24.75    5.68
   1   3  -9   24.44    6.88
   1   3  -8  158.33   11.02
   1   3  -8  149.36   10.95
   1   3  -7  282.62   12.95
  -1   3   7  214.08    7.16
   1   3  -6   64.84    6.38
  -1   3   6   56.99    3.40
  -1   3   5  230.47    7.88
   1   3  -5  207.04    9.97
  -1   3   4  975.30   26.41
   1   3  -4 1016.92   28.35
   1   3  -3   57.19    4.03
  -1   3   3   73.83    4.11
   1   3  -2    4.86    2.31
   1   3  -1 1162.71   31.35
   1   3  -1 1089.29   29.85
   1   3   0  129.58    6.34
   1   3   0  122.97    5.69
  -1   3   0  118.82    5.52
   1   3   1 1024.22   29.03
   1   3   1 1025.47   28.42
  -1   3  -2   12.16    2.21
   1   3   2   13.29    1.82
  -1   3  -2    8.16    2.42
  -1   3  -3   94.01    4.82
  -1   3  -3   92.32    5.72
  -1   3  -4  930.18   25.47
  -1   3  -4  943.02   30.85
  -1   3  -4  944.51   27.49
  -1   3  -5  234.21    8.58
  -1   3  -5  249.78   10.57
  -1   3  -5  261.10   14.14
  -1   3  -6   42.41    8.13
  -1   3  -6   37.86    5.24
  -1   3  -6   45.23    3.52
  -1   3  -7  196.14    7.27
  -1   3  -7  179.04   10.37
  -1   3  -7  175.51   12.71
  -1   3  -8  255.02   15.68
  -1   3  -8  246.67   12.42
  -1   3  -8  226.27    8.14
  -1   3  -9   22.49    9.21
  -1   3  -9   19.11    6.82
  -1   3 -10   84.43    9.78
  -1   3 -11   75.39   10.28
  -1   3 -12   12.14    8.83
   1   4 -12    9.15    7.79
   1   4 -11   38.27    8.34
   1   4 -11   36.99   10.32
   1   4 -11   21.34    7.80
   1   4 -10   63.06    7.73
   1   4 -10   46.17    8.39
   1   4 -10   57.58   10.11
   1   4  -9   65.27    7.07
   1   4  -9   58.41    9.51
   1   4  -9   46.45    8.21
   1   4  -8   80.75    6.32
  -1   4   8   81.43    3.96
   1   4  -8   77.71    8.97
   1   4  -8   74.14    8.22
  -1   4   7  170.26    6.41
   1   4  -7  144.08   10.40
   1   4  -7  150.66   10.80
   1   4  -6  391.02   15.75
  -1   4   6  369.31   11.61
   1   4  -5  166.40    9.81
  -1   4   5  210.94    7.97
  -1   4   4  856.11   23.64
   1   4  -4  797.69   23.89
   1   4  -3 1412.25   37.44
  -1   4   3 1367.90   34.95
   1   4  -2  983.37   25.78
   1   4  -2  970.04   28.44
   1   4  -1 1333.65   35.51
   1   4  -1 1237.60   33.16
   1   4   0 1682.02   44.37
  -1   4   0 1674.85   43.43
   1   4   0 1629.13   43.01
   1   4   1 1275.40   35.50
  -1   4  -1 1382.54   35.58
  -1   4  -2  828.74   24.55
   1   4   2  918.33   23.97
   1   4   3 1431.40   40.34
  -1   4  -3 1585.19   40.05
  -1   4  -4  760.21   23.65
  -1   4  -4  777.67   22.22
  -1   4  -5  247.99    9.51
  -1   4  -5  249.24   11.19
  -1   4  -6  398.64   18.97
  -1   4  -6  396.49   15.33
  -1   4  -6  380.71   12.74
  -1   4  -7  181.02    7.76
  -1   4  -7  189.57   10.02
  -1   4  -7  209.93   14.76
  -1   4  -8  105.82    8.63
  -1   4  -8  103.48    5.97
  -1   4  -8  111.09   12.33
  -1   4  -9   38.93    4.38
  -1   4  -9   38.64    6.81
  -1   4  -9   36.34    9.91
  -1   4 -10   74.02    8.45
  -1   4 -11   18.78    7.82
   1   5 -12   24.95    8.10
   1   5 -11   27.51    8.64
   1   5 -11   34.37   12.09
   1   5 -10   25.06    8.01
   1   5 -10   39.53    6.66
   1   5 -10   32.26   10.85
   1   5  -9   77.84    6.68
   1   5  -9   66.47   10.67
   1   5  -9   53.72    8.78
  -1   5   9   49.55    3.82
   1   5  -8  107.14    6.35
  -1   5   8   89.40    5.02
   1   5  -8   82.39    9.35
   1   5  -8  109.84   11.23
   1   5  -7   72.19    9.32
   1   5  -7   61.90    8.56
   1   5  -7   75.47    5.06
  -1   5   7   70.22    4.55
   1   5  -6  332.70   15.62
   1   5  -6  313.55   10.19
   1   5  -6  297.79   15.23
  -1   5   5   94.84    5.32
   1   5  -5   82.09    4.93
   1   5  -5   73.52    7.55
   1   5  -4   95.08    6.88
  -1   5   4   91.42    5.53
   1   5  -4   86.92    3.78
   1   5  -3  351.89    9.90
  -1   5   3  372.96   12.61
   1   5  -3  372.61   14.00
   1   5  -2  438.84   12.18
   1   5  -2  434.18   15.60
   1   5  -1  423.43   15.01
   1   5   0    6.96    2.95
  -1   5   0    6.28    2.62
   1   5   1  373.03   12.89
  -1   5  -1  360.77   12.82
  -1   5  -2  313.79   12.36
   1   5   2  402.47   12.41
   1   5   3  391.81   13.92
  -1   5  -3  395.93   13.71
   1   5   4   84.42    5.71
  -1   5  -4   80.65    5.61
  -1   5  -5   97.12    6.00
  -1   5  -5   77.51    5.84
  -1   5  -6  399.54   13.47
  -1   5  -6  356.59   14.07
  -1   5  -7   62.74    7.01
  -1   5  -7   72.86    5.66
  -1   5  -8   77.28    7.71
  -1   5  -8   90.74    6.33
  -1   5  -9   49.35    5.35
  -1   5  -9   44.54    7.39
  -1   5 -10   31.52    7.77
  -1   5 -11   23.84    7.99
   1   6 -12   53.83   10.16
   1   6 -11   34.25    8.82
   1   6 -10   90.09    6.80
   1   6 -10   89.06   10.36
  -1   6   9  185.91    7.54
   1   6  -9  185.83    8.45
   1   6  -9  179.66   13.44
   1   6  -8  129.01    5.97
  -1   6   8  113.58    6.27
   1   6  -8  119.35   10.96
   1   6  -7  157.43   12.03
  -1   6   7  165.65    7.54
   1   6  -7  173.05    6.06
   1   6  -7  166.49    7.10
  -1   6   6  297.03   10.99
   1   6  -6  278.21   15.30
   1   6  -5  455.56   17.25
  -1   6   5  439.83   14.82
   1   6  -5  404.16   18.51
  -1   6   4  133.49    7.10
   1   6  -4  113.05    9.33
   1   6  -4  129.72    8.30
   1   6  -3  129.73    9.40
   1   6  -3  143.30    8.71
  -1   6   3  161.71    8.07
   1   6  -2  422.47   17.14
   1   6  -2  411.53   15.71
   1   6  -1  161.29    8.55
  -1   6   0  106.17    6.66
   1   6   0  106.87    7.37
   1   6   0  103.15    6.75
  -1   6  -1  121.13    7.19
   1   6   1  136.79    7.48
  -1   6  -2  537.98   17.53
   1   6   2  478.47   16.29
  -1   6  -3  112.89    7.11
   1   6   3  118.51    7.08
   1   6   4  137.72    7.68
  -1   6  -4  149.09    7.95
   1   6   5  435.47   15.29
  -1   6  -5  413.17   14.96
  -1   6  -6  335.57   13.09
  -1   6  -7  146.88    8.29
  -1   6  -7  161.24    8.34
  -1   6  -8  129.56    8.02
  -1   6  -8  106.46    8.52
  -1   6  -9  180.01   10.43
  -1   6  -9  213.90   10.38
  -1   6 -10   67.49    7.88
   1   7 -12   33.08   10.05
   1   7 -11   35.24    9.94
  -1   7  10    2.10    3.68
   1   7 -10    8.99    8.20
   1   7  -9   48.12   10.01
  -1   7   9   31.65    4.28
  -1   7   8   96.33    6.20
   1   7  -8  100.32   11.22
   1   7  -7   72.94    9.36
  -1   7   7   89.89    6.07
   1   7  -6   19.09    7.18
  -1   7   6   10.23    4.05
   1   7  -6    8.99    5.93
   1   7  -5  132.27    9.02
  -1   7   5  126.98    7.33
  -1   7   4  507.25   17.07
   1   7  -4  466.62   20.46
   1   7  -4  503.68   18.64
   1   7  -3   17.09    5.64
   1   7  -3   21.58    4.83
  -1   7   3   24.37    4.33
   1   7  -2   18.74    4.38
   1   7  -1  246.67   11.34
  -1   7   0   34.10    4.91
   1   7   0   35.12    5.37
   1   7   0   35.97    4.89
  -1   7  -1  322.26   13.00
   1   7   1  286.61   12.48
  -1   7  -2   13.19    4.25
  -1   7  -3   34.85    5.01
   1   7   3   30.47    4.83
  -1   7  -4  501.62   17.62
   1   7   4  490.45   17.17
   1   7   5  121.35    7.63
  -1   7  -5  109.81    7.30
  -1   7  -6   10.06    4.48
  -1   7  -7   75.44    6.75
  -1   7  -8  120.15    8.65
  -1   7  -9   37.39    6.71
   1   8 -12   24.72   10.85
   1   8 -11   19.94    9.79
  -1   8  10   15.45    4.52
   1   8 -10    9.79    8.55
  -1   8   9   69.55    5.87
   1   8  -9   77.44   11.27
  -1   8   8   72.31    6.10
   1   8  -8   72.72   10.43
   1   8  -7   19.68    9.16
  -1   8   7   19.69    4.76
   1   8  -6  219.46   12.55
  -1   8   6  224.99   10.17
   1   8  -6  224.43   15.23
   1   8  -5  441.41   18.34
  -1   8   5  452.42   16.11
   1   8  -5  442.95   21.00
  -1   8   4  276.35   11.97
   1   8  -4  271.99   16.41
   1   8  -4  273.49   13.14
  -1   8   3  378.28   14.63
   1   8  -3  340.45   16.97
   1   8  -3  366.32   15.67
   1   8  -2 1211.31   36.36
   1   8  -1 1060.34   32.31
  -1   8   0  356.22   14.37
   1   8   0  348.49   14.73
   1   8   0  359.72   15.54
   1   8   1 1139.22   34.28
  -1   8  -1 1120.73   33.57
  -1   8  -2 1232.27   36.10
  -1   8  -3  446.38   16.69
   1   8   3  418.20   16.31
  -1   8  -4  219.16   11.11
   1   8   4  240.79   11.16
   1   8   5  465.13   17.47
  -1   8  -5  519.65   18.47
  -1   8  -6  259.96   12.51
   1   8   6  255.50   11.57
  -1   8  -7   16.94    5.92
  -1   8  -8   87.15    8.35
  -1   8  -9   85.76    8.71
   1   9 -12   31.50   12.10
   1   9 -11   11.79   10.09
  -1   9  10    8.55    5.06
   1   9 -10   16.85   10.39
  -1   9   9   27.95    5.42
   1   9  -9   42.99   10.58
  -1   9   8   39.51    5.47
   1   9  -8   39.09   10.03
  -1   9   7   10.53    5.22
   1   9  -7    6.76    8.12
   1   9  -6   42.82    9.29
  -1   9   6   43.24    5.85
   1   9  -6   33.62    7.19
  -1   9   5   85.78    7.36
   1   9  -5   71.53    8.52
   1   9  -5   67.44    9.85
   1   9  -4   15.47    6.04
  -1   9   4   15.37    5.19
   1   9  -4   16.34    7.68
   1   9  -3   16.95    5.92
  -1   9   3   24.37    5.71
   1   9  -3   21.78    7.40
   1   9  -2   75.40    7.88
   1   9  -1   30.53    5.85
   1   9  -1   34.55    7.23
  -1   9   0    5.60    5.06
   1   9   0    6.58    5.30
   1   9   0    7.59    5.97
  -1   9  -1   25.95    5.50
  -1   9  -2   52.57    6.80
   1   9   3   20.14    5.65
  -1   9  -3   21.06    5.70
   1   9   4   14.24    5.29
  -1   9  -4   14.85    5.59
  -1   9  -5   66.43    7.73
   1   9   5   69.62    7.26
   1   9   6   44.39    6.04
  -1   9  -6   51.65    7.54
  -1   9  -7   15.64    6.62
  -1   9  -8   37.09    7.30
  -1   9  -9   28.27    8.11
   1  10 -11   21.90   11.98
  -1  10  10   16.99    5.77
   1  10 -10   29.93   11.83
   1  10  -9   94.72   13.58
  -1  10   9   95.22    7.45
  -1  10   8   93.36    7.63
   1  10  -8  104.58   13.34
  -1  10   7   60.96    7.40
   1  10  -7   48.84   10.45
  -1  10   6  131.58    9.29
   1  10  -6  118.50   12.60
   1  10  -6  131.92   11.14
  -1  10   5  285.09   13.63
   1  10  -5  265.02   16.89
   1  10  -5  293.01   15.31
   1  10  -4   75.91   10.44
  -1  10   4   69.37    7.72
   1  10  -4   73.16    8.78
  -1  10   3   49.43    6.73
   1  10  -3   54.01    7.73
   1  10  -2  300.77   14.96
   1  10  -1  152.91   10.40
   1  10  -1  146.74   12.07
  -1  10   0   26.44    6.45
   1  10   0   18.49    6.27
  -1  10  -1  132.88    9.98
  -1  10  -2  359.46   16.24
  -1  10  -3   46.95    7.49
   1  10   3   47.45    7.07
  -1  10  -4   70.85    8.37
   1  10   4   71.97    7.73
   1  10   5  290.40   13.57
  -1  10  -5  260.52   13.45
   1  10   6  127.00    9.14
  -1  10  -6  141.11   10.53
  -1  10  -7   56.74    8.53
  -1  10  -8   97.28    9.41
  -1  10  -9  117.71   11.09
  -1  11  10    6.39    5.79
   1  11 -10   15.04   12.59
  -1  11   9   21.23    6.09
   1  11  -9   13.23   10.77
  -1  11   8   11.40    6.14
   1  11  -8    7.81   10.24
   1  11  -7   22.41    8.98
  -1  11   7   31.39    6.94
   1  11  -7   24.43   10.42
  -1  11   6   47.27    7.39
   1  11  -6   32.96    8.71
   1  11  -6   39.56   11.09
   1  11  -5   16.80    9.55
  -1  11   5   21.56    6.88
   1  11  -5   31.22    8.23
   1  11  -4   35.63    7.93
  -1  11   4   40.78    7.21
   1  11  -4   30.43    9.33
   1  11  -3   28.84    7.62
  -1  11   3   30.78    7.27
  -1  11   2   41.92    7.52
   1  11  -2   39.55    7.86
   1  11  -1    1.72    6.47
  -1  11   0    6.32    5.83
   1  11   0    5.91    6.16
  -1  11  -1    4.67    6.07
   1  11   2   29.97    7.17
  -1  11  -2   27.26    7.36
   1  11   3   27.15    7.11
  -1  11  -3   27.56    7.48
  -1  11  -4   35.43    7.54
   1  11   4   30.25    6.73
   1  11   5   13.44    6.81
  -1  11  -5   11.46    7.08
   1  11   6   43.72    7.32
  -1  11  -6   59.15    8.77
  -1  11  -7   29.08    8.45
  -1  11  -8   10.90    8.01
  -1  11  -9   18.51    9.06
  -1  12   9   14.30    6.73
  -1  12   8   31.16    7.58
   1  12  -8   59.62   13.44
   1  12  -7   16.93    8.87
  -1  12   7   32.56    6.94
   1  12  -7   26.68   12.27
   1  12  -6   52.28    9.84
  -1  12   6   66.93    8.53
   1  12  -6   61.47   12.62
  -1  12   5  162.35   11.38
   1  12  -5  167.20   13.10
   1  12  -5  148.73   15.11
  -1  12   4  161.17   11.59
   1  12  -4  153.29   14.85
   1  12  -4  160.56   12.34
  -1  12   3  166.30   11.54
   1  12  -3  173.36   13.11
   1  12  -2  370.96   18.11
  -1  12   2  357.45   16.92
   1  12  -1  397.84   18.69
  -1  12   0  243.13   14.16
   1  12   0  265.03   14.75
  -1  12  -1  400.49   18.12
  -1  12  -2  375.14   17.34
   1  12   2  367.16   17.53
  -1  12  -3  206.16   13.37
   1  12   3  181.61   12.39
  -1  12  -4  145.43   11.50
   1  12   4  144.44   11.12
   1  12   5  156.26   11.52
  -1  12  -5  170.80   12.51
   1  12   6   59.27    8.47
  -1  12  -6   73.88   10.13
  -1  12  -7   37.19    8.77
  -1  12  -8   48.08    9.90
  -1  13   9    9.89    7.70
  -1  13   8   12.01    7.38
  -1  13   7    5.87    7.48
   1  13  -7    4.55   11.18
  -1  13   6   17.66    7.52
   1  13  -6   11.82    9.05
   1  13  -6   11.88   11.73
  -1  13   5   25.64    8.09
   1  13  -5   12.32    9.17
   1  13  -4   13.86    8.44
  -1  13   4   20.97    8.24
   1  13  -3    4.62    7.85
  -1  13   3   14.58    8.12
   1  13  -2   14.34    8.58
  -1  13   2   11.71    7.97
   1  13  -1   12.72    8.20
   1  13   0    6.37    8.04
  -1  13   0    4.58    7.33
  -1  13  -1    8.00    7.61
  -1  13  -2   14.32    8.29
   1  13   2   13.30    8.32
   1  13   3   10.87    7.28
  -1  13  -3   12.09    8.95
   1  13   4   18.43    7.97
  -1  13  -4   29.16    9.19
  -1  13  -5   22.46    9.09
   1  13   5   11.46    7.58
   1  13   6   12.12    7.58
  -1  13  -6   11.44    8.69
  -1  13  -7    8.12    9.38
  -1  13  -8   11.39   10.42
  -1  14   9   19.50    8.22
  -1  14   8   33.91    8.27
  -1  14   7   30.35    8.66
   1  14  -6   28.36   10.89
  -1  14   6   29.93    8.28
   1  14  -5   66.30   11.05
  -1  14   5   53.85    9.86
   1  14  -4   46.87   10.72
  -1  14   4   60.71   10.01
  -1  14   3   39.72    9.53
   1  14  -3   34.34    9.77
  -1  14   2   55.26   10.32
   1  14  -2   48.37   10.16
   1  14  -1   48.40   10.72
   1  14   0   34.06    9.68
  -1  14   0   42.37    9.40
  -1  14  -1   47.52    9.80
  -1  14  -2   57.17   10.26
   1  14   2   52.29   10.02
  -1  14  -3   41.95   10.18
   1  14   3   27.79    8.88
   1  14   4   56.04    9.77
  -1  14  -4   54.79   10.51
  -1  14  -5   52.97   10.67
   1  14   5   50.78    9.39
  -1  14  -6   22.08    9.16
   1  14   6   30.29    9.08
  -1  14  -7   47.40   11.13
  -1  14  -8   39.54   11.55
  -1  15   6   10.28    8.28
   1  15  -6    7.83   11.44
   1  15  -5    3.45   10.08
  -1  15   5    3.46    8.53
  -1  15   4    5.84    8.24
   1  15  -4    3.46   10.01
   1  15  -3    4.67   10.24
  -1  15   3    7.53    9.46
  -1  15   2   18.09    9.71
   1  15  -2    4.31    8.98
   1  15  -1    1.55    9.09
  -1  15   0    7.57    9.59
   1  15   0    2.85    8.94
  -1  15  -1    3.13    8.93
  -1  15  -2   12.71    9.80
   1  15   2    8.06    9.49
  -1  15  -3   14.77    9.95
   1  15   3    6.54    9.43
  -1  15  -4    9.39    9.85
   1  15   4   -0.60    9.20
  -1  15  -5    7.83    9.07
   1  15   5    6.80    8.51
   1  15   6    7.68    8.57
  -1  15  -6   19.23   10.60
  -2 -16  -2   54.13    8.08
  -2 -16  -3   63.15    9.83
  -2 -16  -4   56.51   10.40
   2 -16   4   56.72   17.40
   2 -16   5   30.70   15.43
  -2 -15   1    6.59    8.12
  -2 -15   0    0.12    7.25
  -2 -15  -1    8.72    6.82
  -2 -15  -2    3.44    6.76
  -2 -15  -3   19.49    8.73
  -2 -15  -4   -2.81    8.91
   2 -15   4   11.69   14.73
  -2 -15  -5    7.88   10.55
   2 -15   5    6.52   13.22
   2 -15   6   15.23   14.21
   2 -15   7    7.37   12.93
  -2 -14   3   56.68    5.22
  -2 -14   2   73.30    8.56
  -2 -14   1   72.49    8.91
  -2 -14   0   72.95    8.45
  -2 -14  -1   41.94    6.80
  -2 -14  -2   60.70    8.11
  -2 -14  -3   57.36    8.49
   2 -14   3   52.06    5.36
  -2 -14  -3   47.27    9.00
  -2 -14  -4   67.28   10.62
   2 -14   4   51.57   14.43
  -2 -14  -5   51.78   11.15
   2 -14   5   39.76   13.81
   2 -14   6   33.51   13.70
  -2 -14  -6   32.12   11.28
   2 -14   7   36.62   13.37
   2 -14   8   37.07   13.49
  -2 -13   4   12.77    3.03
  -2 -13   3    9.13    3.76
  -2 -13   2   20.29    7.27
  -2 -13   1   16.01    6.75
  -2 -13   0    2.47    5.90
  -2 -13  -1   11.24    5.77
  -2 -13  -2    9.18    6.76
   2 -13   2    8.93    8.52
  -2 -13  -3    7.57    6.22
  -2 -13  -3    3.54    7.53
   2 -13   3    9.59    6.88
  -2 -13  -4   13.57    7.97
  -2 -13  -4   11.76    8.97
   2 -13   4    7.32    2.61
   2 -13   4    6.58    3.36
   2 -13   4    4.51   11.41
   2 -13   5   16.21   12.41
  -2 -13  -5   17.74    9.22
  -2 -13  -6   20.58   10.04
   2 -13   6   12.81   11.39
   2 -13   7    5.47   11.45
  -2 -13  -7    3.53   10.79
   2 -13   8    0.29   12.37
   2 -13   9   12.64   13.01
  -2 -12   5  160.96    5.87
  -2 -12   4  168.76    6.34
  -2 -12   3  171.27    7.36
  -2 -12   2  392.77   15.92
  -2 -12   1  394.66   15.58
  -2 -12   0  273.45   12.37
  -2 -12  -1  314.57   13.99
  -2 -12  -2  366.82   16.58
   2 -12   2  446.75   18.80
  -2 -12  -3  211.82   11.64
  -2 -12  -3  229.39   13.67
   2 -12   3  247.53   12.19
  -2 -12  -4  179.97   11.78
  -2 -12  -4  177.06   12.75
   2 -12   4  185.06    8.16
  -2 -12  -5  167.14   13.52
   2 -12   5  147.77   16.76
  -2 -12  -6  108.80   12.74
   2 -12   6   75.08   13.40
   2 -12   7   47.90   12.55
  -2 -12  -7   53.48   12.15
  -2 -12  -8   53.94   12.56
   2 -12   8   32.25   12.62
   2 -12   9   20.81   12.72
   2 -12  10   13.60   13.21
   2 -11  -6   59.90   13.93
  -2 -11   5   28.46    3.35
   2 -11  -5   46.23   12.39
  -2 -11   4   17.48    2.89
   2 -11  -4   24.00   10.34
  -2 -11   3   44.15    4.01
   2 -11  -3   58.18   10.53
  -2 -11   2   15.17    5.73
   2 -11  -2   14.28    8.36
  -2 -11   1    8.24    5.28
   2 -11  -1   13.37    7.61
  -2 -11   0    6.87    5.19
   2 -11   0    5.22    6.99
  -2 -11  -1   13.89    5.64
   2 -11   2    6.29    7.11
  -2 -11  -2    3.39    6.12
  -2 -11  -3   29.29    6.18
  -2 -11  -3   32.56    8.19
   2 -11   3   38.29    6.89
  -2 -11  -4    7.22    7.62
  -2 -11  -4    7.38    6.71
   2 -11   4   12.68    4.94
   2 -11   4    3.87    9.85
  -2 -11  -5   14.40    9.00
  -2 -11  -5   16.34    6.69
   2 -11   5   21.83   11.32
  -2 -11  -6   17.73    9.92
   2 -11   6   18.54   11.27
   2 -11   7   20.23   10.76
  -2 -11  -7   22.39   10.66
   2 -11   8   11.45   11.73
  -2 -11  -8    7.61   10.60
   2 -11   9    8.20   11.39
   2 -11  10   16.52   13.25
  -2 -10   9   92.28    9.07
  -2 -10   8  105.04    9.76
  -2 -10   7  112.51   10.28
  -2 -10   6  208.86   13.57
  -2 -10   5  313.46   16.98
  -2 -10   4  208.63    6.91
  -2 -10   4  199.16   14.18
   2 -10  -4  204.24   15.88
   2 -10  -3  239.97   15.83
  -2 -10   3  200.38    7.24
  -2 -10   3  238.00   15.24
  -2 -10   2  369.27   19.81
   2 -10  -2  349.24   19.48
  -2 -10   2  370.74   15.06
   2 -10  -2  391.64   18.19
  -2 -10   1  276.39   12.37
   2 -10  -1  308.18   15.67
   2 -10  -1  282.38   17.28
  -2 -10   0  206.51   10.40
  -2 -10   0  240.27   16.41
   2 -10   0  243.37   13.56
   2 -10   0  238.54   15.55
  -2 -10  -1  237.92   12.16
  -2 -10  -1  266.20   17.52
   2 -10   1  268.80   13.86
  -2 -10  -2  361.73   21.21
  -2 -10  -2  356.29   16.12
   2 -10   2  394.64   16.76
   2 -10   2  381.91   18.99
   2 -10   2  355.67   16.49
  -2 -10  -3  237.08   11.65
  -2 -10  -3  233.63   13.03
  -2 -10  -3  226.56   17.12
   2 -10   3  232.68   11.88
   2 -10   3  231.95   15.22
  -2 -10  -4  191.94   11.26
   2 -10   4  194.54    9.33
  -2 -10  -4  192.34   13.30
  -2 -10  -4  185.71   16.26
   2 -10   4  225.80   12.95
  -2 -10  -5  277.26   13.70
   2 -10   5  299.19    9.71
  -2 -10  -5  280.69   19.25
  -2 -10  -5  318.20   17.23
   2 -10   5  257.68   19.16
  -2 -10  -6  179.19   10.99
  -2 -10  -6  190.59   14.65
  -2 -10  -6  174.45   16.35
   2 -10   6  164.14   15.92
  -2 -10  -7   93.60   12.89
   2 -10   7  105.96   13.40
  -2 -10  -7   93.98   12.17
  -2 -10  -8  111.97   13.25
  -2 -10  -8  110.04   13.72
   2 -10   8  110.37   14.51
   2 -10   9   86.09   13.68
   2 -10  10   47.44   12.96
   2 -10  11   26.59   13.50
  -2  -9   9   26.10    6.65
  -2  -9   8   34.48    7.12
  -2  -9   7   14.68    7.10
  -2  -9   6   37.28    7.62
  -2  -9   5   76.51    8.94
  -2  -9   4   48.58    2.98
  -2  -9   4   42.68    8.19
   2  -9  -3   34.35    8.66
  -2  -9   3   36.19    2.77
  -2  -9   3   42.08    8.71
  -2  -9   2   45.46    9.21
  -2  -9   2   65.20    6.67
   2  -9  -2   51.77    8.89
   2  -9  -1   18.23    7.84
  -2  -9   1   14.71    4.98
  -2  -9   0    6.20    7.74
   2  -9   0    3.85    6.54
  -2  -9   0    2.36    4.03
   2  -9   0    5.29    5.42
  -2  -9  -1   16.54    5.62
  -2  -9  -1   12.96    8.96
   2  -9   1   14.21    5.85
   2  -9   2   32.72    8.16
  -2  -9  -2   21.28    6.35
   2  -9   2   41.21    7.26
  -2  -9  -2   32.99    9.30
  -2  -9  -3   35.35    5.99
   2  -9   3   34.30    8.25
   2  -9   3   37.08    6.56
  -2  -9  -3   38.12    7.35
  -2  -9  -3   39.35   10.12
  -2  -9  -4   32.65    6.17
  -2  -9  -4   36.28    9.84
   2  -9   4   37.82    5.39
   2  -9   4   45.59    7.37
  -2  -9  -4   42.86    8.49
   2  -9   4   34.12    9.58
  -2  -9  -5   54.07    7.00
   2  -9   5   71.41    4.94
  -2  -9  -5   60.85   11.34
  -2  -9  -5   45.00    9.78
   2  -9   5   64.68   11.40
   2  -9   5   84.32    9.16
  -2  -9  -6   24.37    9.90
  -2  -9  -6   32.31    6.47
   2  -9   6   29.28   10.45
  -2  -9  -6   34.27    9.39
   2  -9   6   40.28    8.31
  -2  -9  -7   18.78    9.97
  -2  -9  -7   12.91    9.75
   2  -9   7   22.67    9.91
   2  -9   8   34.95   11.29
  -2  -9  -8   24.20    9.41
   2  -9   9   33.09   11.79
   2  -9  10    7.09   11.26
  -2  -9 -10   10.84   11.04
   2  -9  11   16.31   12.11
  -2  -8   9  116.03    8.08
  -2  -8   8  102.09    8.42
  -2  -8   7  106.68    8.94
  -2  -8   6  378.53   16.35
  -2  -8   5  669.70   24.33
  -2  -8   4  452.95   19.65
  -2  -8   3  657.91   16.94
  -2  -8   3  648.48   25.13
   2  -8  -3  675.82   26.14
  -2  -8   2 1471.17   47.84
   2  -8  -2 1450.72   47.25
  -2  -8   1 1354.29   37.63
   2  -8  -1 1281.70   41.86
  -2  -8   0  844.76   26.13
  -2  -8   0  896.53   32.20
   2  -8   0  887.40   30.61
  -2  -8  -1 1172.11   35.50
  -2  -8  -1 1246.53   41.40
   2  -8   1 1239.70   36.63
  -2  -8  -2 1689.60   44.19
  -2  -8  -2 1641.54   46.37
   2  -8   2 1662.83   47.06
  -2  -8  -2 1501.95   50.90
   2  -8   2 1446.08   47.63
  -2  -8  -3  730.14   25.05
   2  -8   3  687.95   23.56
  -2  -8  -3  670.62   28.39
   2  -8   3  662.79   24.08
   2  -8   4  458.23   15.98
  -2  -8  -4  417.95   16.49
  -2  -8  -4  479.81   20.34
  -2  -8  -4  470.46   22.86
   2  -8   4  465.34   18.17
  -2  -8  -5  650.86   22.94
  -2  -8  -5  651.77   27.73
  -2  -8  -5  740.58   27.14
   2  -8   5  604.60   28.91
   2  -8   5  772.41   25.24
   2  -8   5  684.39   20.15
  -2  -8  -6  418.65   16.91
   2  -8   6  390.55   12.39
   2  -8   6  362.58   21.82
   2  -8   6  415.02   17.81
  -2  -8  -6  397.14   20.30
   2  -8   7   99.44   12.95
  -2  -8  -7   90.48    8.88
  -2  -8  -7  104.99   11.66
   2  -8   7  107.65   10.80
  -2  -8  -8  105.34   11.51
   2  -8   8   87.23   12.70
   2  -8   9  136.19   15.38
  -2  -8  -9  153.43   14.50
   2  -8  10   31.21   12.03
  -2  -8 -10   30.47   11.41
   2  -8  11   12.12   12.47
  -2  -7  10   11.75    4.54
  -2  -7   9   22.59    5.06
  -2  -7   8   98.18    7.70
  -2  -7   7   45.84    6.43
  -2  -7   6   18.08    5.71
  -2  -7   5  142.09    9.93
  -2  -7   4  160.10   10.76
  -2  -7   3   16.89    6.43
  -2  -7   2   24.05    1.84
  -2  -7   2   23.93    5.18
  -2  -7   2   21.94    6.96
  -2  -7   1  297.06   12.44
   2  -7  -1  289.54   14.83
   2  -7   0   14.75    6.30
  -2  -7   0   19.07    4.24
  -2  -7   0   15.61    7.27
  -2  -7  -1  175.77    8.04
  -2  -7  -1  137.87    8.78
  -2  -7  -2   21.36    5.66
  -2  -7  -2   16.33    4.11
   2  -7   2   23.99    6.28
  -2  -7  -2   18.92    7.89
   2  -7   3   19.51    5.72
  -2  -7  -3    5.73    5.52
  -2  -7  -3   11.59    7.22
  -2  -7  -3    9.30    4.09
   2  -7   3   22.76    5.33
  -2  -7  -4  131.04    8.53
   2  -7   4  120.34   13.30
  -2  -7  -4  131.67   11.00
  -2  -7  -4  133.48   12.26
   2  -7   4  162.22    9.57
   2  -7   4  151.37    8.40
   2  -7   5  107.62   12.13
  -2  -7  -5  129.56    8.89
  -2  -7  -5  128.55   11.88
   2  -7   5  133.12    7.22
   2  -7   5  141.22    9.56
   2  -7   6   22.51    7.18
   2  -7   6   20.75    9.58
   2  -7   6   22.19    4.13
  -2  -7  -6   16.53    6.01
  -2  -7  -6   15.17    7.84
   2  -7   7   43.32    8.33
  -2  -7  -7   45.83    7.34
  -2  -7  -7   38.67    8.36
   2  -7   7   36.31   10.91
   2  -7   8   99.77   13.29
  -2  -7  -8   89.92   10.15
  -2  -7  -8   62.64   11.10
   2  -7   9   31.55   11.13
  -2  -7  -9   14.73    9.87
  -2  -7  -9   18.28    7.42
  -2  -7 -10    8.15   10.73
   2  -7  10   10.89   11.36
  -2  -7 -11   17.64   10.98
   2  -7  11   15.42   12.16
   2  -7  12   26.05   14.74
  -2  -6  10  116.08    6.46
  -2  -6   9  245.26   10.06
  -2  -6   8  228.66   10.40
  -2  -6   7  239.16   10.92
  -2  -6   6  664.53   22.00
  -2  -6   5  588.78   20.93
  -2  -6   4  556.92   21.11
  -2  -6   3  801.76   27.59
  -2  -6   2  992.03   29.70
  -2  -6   2  921.14   32.43
  -2  -6   1  839.01   22.11
  -2  -6   1  998.69   27.42
  -2  -6   0  478.29   13.96
  -2  -6   0  464.80   16.27
  -2  -6   0  460.04   20.51
  -2  -6  -1  961.30   28.62
  -2  -6  -1  945.34   26.19
  -2  -6  -1  895.71   32.37
  -2  -6  -2  992.58   34.10
  -2  -6  -2 1000.10   30.24
   2  -6   2 1068.47   31.86
  -2  -6  -3  775.02   23.63
   2  -6   3  812.08   26.13
  -2  -6  -3  767.46   29.16
  -2  -6  -3  787.08   26.27
   2  -6   3  744.85   24.33
  -2  -6  -4  501.22   18.10
  -2  -6  -4  512.53   22.64
   2  -6   4  553.44   18.90
   2  -6   4  533.68   17.73
  -2  -6  -5  643.91   25.62
  -2  -6  -5  622.12   21.48
   2  -6   5  604.55   19.24
   2  -6   5  653.26   21.83
   2  -6   5  565.09   27.47
  -2  -6  -6  680.23   22.57
  -2  -6  -6  627.81   24.27
   2  -6   6  656.67   19.10
   2  -6   6  700.87   28.57
  -2  -6  -7  258.12   13.14
   2  -6   7  242.09   16.92
   2  -6   7  281.75   13.54
   2  -6   8  252.54   17.16
  -2  -6  -8  209.66   12.11
   2  -6   9  298.68   19.31
  -2  -6  -9  248.12   13.33
  -2  -6  -9  269.46   17.46
   2  -6  10  146.18   15.18
  -2  -6 -10  137.66   14.17
   2  -6  11   50.50   12.87
  -2  -6 -11   28.40   11.14
   2  -6  12   60.96   16.49
  -2  -5  10   34.51    3.75
  -2  -5   9   36.36    4.24
  -2  -5   8   63.49    5.34
  -2  -5   7   64.71    5.96
  -2  -5   6  261.84   11.78
  -2  -5   5   64.14    6.53
  -2  -5   4  139.57    9.16
  -2  -5   3  516.95   19.78
  -2  -5   2  211.59    9.69
  -2  -5   2  178.73   10.99
  -2  -5   1  327.44   13.20
  -2  -5   0   61.40    3.53
  -2  -5   0   72.09    6.06
  -2  -5   0   69.60    7.60
  -2  -5  -1  430.00   12.86
  -2  -5  -1  398.40   17.93
  -2  -5  -1  402.12   14.47
  -2  -5  -2  123.28    6.83
  -2  -5  -2  104.37    7.72
   2  -5   2  216.07   11.57
  -2  -5  -2  181.49   11.55
  -2  -5  -3  511.53   16.58
   2  -5   3  457.39   17.80
  -2  -5  -3  509.11   21.03
   2  -5   3  461.85   16.61
  -2  -5  -4  133.19    8.41
  -2  -5  -4  133.06   10.88
   2  -5   4  150.70    8.51
   2  -5   4  152.33    8.55
  -2  -5  -5   36.28    5.89
   2  -5   5   64.79    5.50
  -2  -5  -5   34.78    7.72
  -2  -5  -5   57.69    8.19
   2  -5   5   56.80    9.92
   2  -5   5   80.00    6.65
  -2  -5  -6  262.38   15.37
  -2  -5  -6  267.83   13.57
   2  -5   6  294.61   13.03
   2  -5   6  252.71   10.63
   2  -5   6  269.56   17.22
  -2  -5  -6  228.94   13.46
  -2  -5  -7   61.37    7.79
   2  -5   7   68.25   10.97
  -2  -5  -7   53.03    7.52
   2  -5   7   68.21    7.80
   2  -5   8   65.86   11.88
  -2  -5  -8   91.86    9.62
  -2  -5  -8   69.82    7.49
  -2  -5  -9   39.04    6.34
   2  -5   9   42.66   11.40
  -2  -5  -9   37.73   10.29
   2  -5  10   46.74   11.56
  -2  -5 -10   39.76   10.98
  -2  -5 -11   36.47   11.52
   2  -5  11   46.87   13.30
   2  -5  12   21.49   14.16
  -2  -5 -12   22.58   11.35
  -2  -4  10   96.63    4.14
  -2  -4   9  140.78    6.23
  -2  -4   8  115.63    6.07
  -2  -4   7  522.80   16.56
  -2  -4   6  767.05   23.54
  -2  -4   5  852.08   26.23
  -2  -4   4 1528.78   43.00
  -2  -4   3 2161.95   59.38
  -2  -4   2 2420.20   63.22
  -2  -4   1 2879.53   75.52
  -2  -4   0 3239.41   90.09
  -2  -4   0 3507.14   86.70
  -2  -4   0 3358.83   82.67
  -2  -4  -1 2445.20   68.97
  -2  -4  -1 2484.85   62.76
  -2  -4  -1 2460.66   65.13
   2  -4   1 2580.31   68.07
  -2  -4  -2 2118.18   55.20
   2  -4   2 2171.42   59.53
  -2  -4  -2 2119.50   60.38
   2  -4   3 2279.19   59.09
  -2  -4  -3 2290.76   61.37
  -2  -4  -4 1794.83   45.85
   2  -4   4 1556.57   45.05
  -2  -4  -4 1835.73   48.00
   2  -4   4 1483.88   44.01
  -2  -4  -4 1629.68   48.07
  -2  -4  -5  883.60   28.29
   2  -4   5  873.80   26.88
  -2  -4  -5  939.61   31.13
  -2  -4  -5  885.23   30.40
   2  -4   5  925.93   27.24
  -2  -4  -6  794.00   26.73
   2  -4   6  762.38   24.29
  -2  -4  -6  807.93   29.26
   2  -4   6  807.79   31.59
  -2  -4  -6  765.52   27.51
   2  -4   6  861.41   25.60
  -2  -4  -7  645.80   24.79
   2  -4   7  584.70   26.34
  -2  -4  -7  613.67   22.21
   2  -4   8  129.38   13.75
  -2  -4  -8  142.68   12.64
  -2  -4  -8  129.09    8.67
   2  -4   9  175.67   15.43
  -2  -4  -9  146.51    8.64
  -2  -4  -9  178.45   14.14
  -2  -4 -10  126.78   13.06
   2  -4  10  120.13   13.31
  -2  -4 -11   54.34   11.18
   2  -4  11   48.75   15.50
  -2  -4 -12   13.14   11.49
   2  -3  -9    9.90    7.06
  -2  -3   9   11.43    2.61
  -2  -3   8  104.43    5.41
  -2  -3   7   94.38    5.71
  -2  -3   6   69.58    5.53
  -2  -3   5  221.21   10.33
  -2  -3   4  425.19   16.28
  -2  -3   3  135.53    8.74
  -2  -3   1  528.08   18.68
  -2  -3   0   40.73    2.91
  -2  -3  -1  346.58   11.84
   2  -3   1  456.19   17.38
   2  -3   2    8.26    5.13
  -2  -3  -2    3.75    2.78
  -2  -3  -3  139.38    9.80
  -2  -3  -3  114.80    7.02
   2  -3   3  130.23    8.68
   2  -3   3  128.78   10.88
  -2  -3  -3  125.13    8.42
  -2  -3  -4  442.08   18.30
  -2  -3  -4  345.25   14.79
   2  -3   4  447.49   15.87
  -2  -3  -4  360.33   16.70
   2  -3   4  439.86   13.93
   2  -3   5  258.01   11.88
  -2  -3  -5  283.20   13.67
  -2  -3  -5  277.86   12.65
   2  -3   5  240.88   10.65
  -2  -3  -5  286.95   14.09
  -2  -3  -6   77.41    9.14
   2  -3   6   81.07    6.80
  -2  -3  -6   79.26    7.92
   2  -3   6   85.49    6.62
  -2  -3  -7   92.65    8.00
  -2  -3  -7   86.08   10.12
   2  -3   8  123.68   12.98
  -2  -3  -8  109.92    7.75
  -2  -3  -8  125.05   12.07
  -2  -3  -9    9.42    3.82
  -2  -3  -9   12.50    8.79
   2  -3   9   17.80    9.06
  -2  -3 -10   41.06    3.26
  -2  -3 -10   37.62   10.02
   2  -3  11   46.31   13.48
  -2  -3 -11   30.06   11.00
  -2  -3 -12    5.67   11.17
  -2  -3 -13   22.28   12.25
   2  -2  -9  215.85   13.19
  -2  -2   9  182.97    5.88
  -2  -2   8  357.18   11.05
  -2  -2   7  917.88   25.36
  -2  -2   6  861.18   25.22
  -2  -2  -1 1593.44   41.84
  -2  -2  -2  558.91   18.33
   2  -2   2  665.97   24.46
   2  -2   2  653.41   22.19
  -2  -2  -2  566.71   19.86
  -2  -2  -3 2334.31   59.52
   2  -2   3 2103.69   58.87
  -2  -2  -3 2142.66   57.51
   2  -2   3 2174.56   63.30
   2  -2   4 1720.53   49.06
  -2  -2  -4 1857.46   51.05
   2  -2   4 1803.21   54.79
   2  -2   4 1831.48   46.85
   2  -2   5  402.40   19.86
   2  -2   5  396.71   15.86
  -2  -2  -5  479.52   18.88
   2  -2   5  481.86   15.21
   2  -2   6  855.91   27.66
  -2  -2  -6  811.80   30.31
   2  -2   6 1003.56   26.52
  -2  -2  -6  935.07   29.82
  -2  -2  -7 1091.11   35.18
  -2  -2  -7 1018.16   31.56
  -2  -2  -8  461.57   20.44
  -2  -2  -8  404.88   15.30
  -2  -2  -8  469.30   19.69
  -2  -2  -9  128.08   12.22
  -2  -2  -9  137.03    6.28
   2  -2  10  350.27   22.61
  -2  -2 -10  309.76   18.78
  -2  -2 -11  151.33   14.72
  -2  -2 -12   33.88   11.86
  -2  -2 -13   37.70   12.83
   2  -1 -14   25.47   11.45
   2  -1 -10   89.86    9.59
   2  -1  -9    5.70    5.75
  -2  -1   8   10.39    2.28
   2  -1  -8   11.50    6.03
  -2  -1   7  167.31    7.41
   2  -1   0  100.02    8.41
  -2  -1  -1   95.48    6.02
  -2  -1  -1   84.54    6.93
  -2  -1  -2   48.85    5.71
   2  -1   2   35.26    6.35
   2  -1   3  297.03   15.12
   2  -1   3  321.02   13.29
   2  -1   4   92.13    6.61
   2  -1   4   87.11    9.25
   2  -1   5   57.98    8.53
   2  -1   5   57.55    6.04
  -2  -1  -5   45.17    6.78
   2  -1   6  150.61   12.04
   2  -1   6  139.17    8.57
  -2  -1  -6  116.28    9.41
  -2  -1  -6   96.99    9.43
  -2  -1  -7  149.17   11.12
  -2  -1  -7  144.42   11.72
  -2  -1  -8   12.79    8.03
  -2  -1  -8   16.87    7.20
  -2  -1  -8   13.61    4.00
  -2  -1  -9   14.59    3.67
  -2  -1  -9   10.17    2.68
  -2  -1  -9   13.63    7.84
  -2  -1  -9   13.22    8.93
  -2  -1 -10   62.51   11.17
  -2  -1 -11   34.94   10.65
  -2  -1 -12    7.39   10.81
  -2  -1 -13   23.49   12.56
   2   0 -13    4.79    9.34
   2   0 -10  183.70   12.38
   2   0  -9   34.25    6.97
  -2   0   8  135.96    5.55
  -2   0   8  129.93    5.29
   2   0  -7 1201.81   36.74
   2   0  -1 2453.37   66.65
   2   0   0 5232.81  152.09
  -2   0   0 6627.69  150.53
   2   0   1 2341.24   71.04
   2   0   1 2495.51   71.21
   2   0   2 1310.36   40.74
  -2   0  -2 1424.02   40.50
  -2   0  -3 3570.28   88.68
   2   0   3 3225.81   90.14
   2   0   4 2671.93   79.94
   2   0   4 2691.46   77.60
  -2   0  -4 3241.39   78.25
  -2   0  -4 3256.85   79.46
   2   0   5  520.97   21.59
  -2   0  -5  566.71   20.86
  -2   0  -5  572.05   20.61
   2   0   5  543.42   15.10
   2   0   6  710.90   26.66
   2   0   6  630.34   22.48
  -2   0  -6  669.14   24.79
  -2   0  -6  688.66   24.61
  -2   0  -7 1524.45   45.47
  -2   0  -7 1572.02   45.35
  -2   0  -8  175.49    9.00
  -2   0  -8  185.29   12.85
  -2   0  -8  188.01   13.32
  -2   0  -8  208.56    9.15
  -2   0  -9   44.84    2.82
  -2   0  -9   42.15    9.37
  -2   0  -9   39.76    3.11
  -2   0  -9   48.93    9.49
  -2   0 -10  214.48   15.31
  -2   0 -11  146.02   14.08
  -2   0 -12   14.90   11.41
  -2   0 -13   12.58   10.98
  -2   0 -14   33.78   12.19
   2   1 -13   19.74    9.21
   2   1 -10  111.47   10.13
   2   1  -9    6.85    5.97
  -2   1   9    9.07    1.24
   2   1  -8   11.42    5.26
  -2   1   8   12.90    2.48
   2   1  -7  195.67   10.23
  -2   1   7  210.01    8.13
   2   1  -6  213.07   10.08
   2   1  -2   61.42    6.36
   2   1  -1   41.43    6.76
   2   1   0   83.74    7.59
   2   1   0  108.20    6.52
   2   1   1   89.13    5.88
  -2   1  -1   76.37    6.67
   2   1   1   70.52    6.86
   2   1   2   59.90    5.22
   2   1   2   64.23    6.56
  -2   1  -2   45.80    5.95
   2   1   3  350.91   14.27
  -2   1  -3  304.38   14.06
  -2   1  -3  311.30   14.50
  -2   1  -4   64.08    6.81
  -2   1  -4   63.54    8.00
   2   1   5   84.59    8.05
   2   1   5   72.03    7.13
  -2   1  -5   60.01    7.57
  -2   1  -5   68.17    7.38
  -2   1  -6  104.06    8.74
  -2   1  -6  117.56   10.08
  -2   1  -7  154.69   12.20
  -2   1  -7  155.98   11.37
  -2   1  -8   13.77    3.38
  -2   1  -8   18.87    7.50
  -2   1  -8   14.69    7.69
  -2   1  -9   18.86    2.65
  -2   1  -9   17.21    8.28
  -2   1  -9   19.73    8.56
  -2   1  -9   14.82    3.09
  -2   1 -10   74.15   11.00
  -2   1 -11   33.95    9.98
  -2   1 -12   11.70    9.78
  -2   1 -13   15.87   10.80
   2   2 -12   11.10    7.67
   2   2 -12   19.20    8.17
   2   2 -11  137.55   12.20
   2   2 -10  241.12   14.14
   2   2  -9  239.67   12.29
  -2   2   9  138.57    4.91
  -2   2   8  355.90   10.83
   2   2  -8  351.72   15.22
  -2   2   7  941.27   25.27
   2   2  -7  891.35   28.46
   2   2  -6  918.42   26.86
  -2   2   6  911.53   25.56
   2   2  -5  321.09   12.13
  -2   2   5  406.75   13.27
   2   2  -4 1860.85   48.40
   2   2  -3 1831.20   51.72
   2   2  -2  551.96   21.17
   2   2  -1 1201.23   31.19
   2   2  -1 1126.68   36.66
   2   2   0 2179.98   63.42
   2   2   0 2366.86   58.60
   2   2   1 1465.38   39.38
   2   2   1 1478.87   42.80
   2   2   2  529.42   17.42
   2   2   2  518.51   18.80
  -2   2  -2  520.66   19.41
   2   2   3 2111.28   58.12
   2   2   3 2180.36   59.28
  -2   2  -3 2203.82   59.88
  -2   2  -4 1882.81   53.48
  -2   2  -4 1903.20   51.58
   2   2   5  487.00   20.63
  -2   2  -5  421.58   17.99
  -2   2  -5  469.20   20.48
  -2   2  -5  454.83   16.74
  -2   2  -6  865.45   31.84
  -2   2  -6  901.70   26.23
  -2   2  -7 1096.75   35.10
  -2   2  -7 1045.02   30.17
  -2   2  -8  422.99   13.69
  -2   2  -8  403.53   18.30
  -2   2  -8  455.15   21.69
  -2   2  -9  153.35    6.30
  -2   2  -9  128.54   13.50
  -2   2  -9  112.56   11.11
  -2   2 -10  266.07   15.57
  -2   2 -11  122.89   12.35
  -2   2 -12   36.43   11.01
   2   3 -12    2.53    7.84
   2   3 -12    6.34    7.69
   2   3 -11   12.99    7.96
   2   3 -11   26.60    9.60
   2   3 -10   76.30   10.16
   2   3  -9   16.15    6.75
  -2   3   9   12.85    2.42
  -2   3   8   97.58    5.16
   2   3  -8  111.13    9.00
  -2   3   7   95.55    5.42
   2   3  -7  107.39    7.60
  -2   3   6   75.71    5.06
   2   3  -6   64.21    5.84
   2   3  -5  134.10    7.00
  -2   3   5  171.12    7.73
   2   3  -4  361.20   11.91
   2   3  -4  329.72   15.34
   2   3  -3  120.14    4.50
   2   3  -3  118.92    8.99
   2   3  -2   24.64    5.01
   2   3  -1  474.66   18.84
   2   3   0   48.40    2.99
   2   3   0   50.01    6.02
   2   3   1  419.65   13.47
   2   3   1  359.29   15.06
  -2   3  -2   11.71    4.24
   2   3   2   20.01    3.52
   2   3   2   14.31    4.92
  -2   3  -2    9.54    3.86
   2   3   3  122.63    7.81
   2   3   3  115.80    8.07
  -2   3  -3  109.86    8.56
  -2   3  -3  125.56    7.88
   2   3   4  332.54   15.08
  -2   3  -4  323.43   15.41
   2   3   4  378.35   10.20
  -2   3  -4  365.66   14.27
  -2   3  -5  262.30   13.56
  -2   3  -5  240.87   10.60
  -2   3  -6   90.16   10.44
  -2   3  -6   78.74    8.40
  -2   3  -6   87.44    6.08
  -2   3  -7   80.70    5.91
  -2   3  -7   77.67   11.06
  -2   3  -7   64.08    8.57
  -2   3  -8  109.04    6.43
  -2   3  -8  108.13   10.50
  -2   3  -8  113.86   13.14
  -2   3  -9   11.38    3.58
  -2   3  -9    4.13    6.94
  -2   3  -9    6.25    9.81
  -2   3 -10   40.85    9.28
  -2   3 -11   20.92    9.50
  -2   3 -12   14.11    9.92
   2   4 -12   13.80    9.09
   2   4 -11   20.65    8.81
   2   4 -11   24.60    7.01
   2   4 -10   60.50   10.02
  -2   4  10   80.56    3.79
   2   4  -9  124.69   11.03
  -2   4   9  113.71    5.34
  -2   4   8  123.43    6.11
   2   4  -8  121.58   10.07
  -2   4   7  506.00   15.45
   2   4  -7  432.92   18.14
  -2   4   6  683.94   20.69
   2   4  -6  710.21   22.95
  -2   4   5  763.17   22.45
   2   4  -5  777.56   23.06
   2   4  -4 1323.20   35.86
   2   4  -4 1281.37   40.36
  -2   4   4 1414.73   37.28
   2   4  -3 1919.24   56.27
  -2   4   3 2126.33   54.05
   2   4  -2 2031.80   56.56
   2   4  -1 2339.19   63.22
   2   4   0 3265.34   86.01
  -2   4   0 3362.43   85.68
   2   4   1 2380.91   65.13
  -2   4  -1 2481.03   64.64
  -2   4  -2 2164.28   55.26
   2   4   2 1915.79   55.52
  -2   4  -3 2076.57   56.94
   2   4   3 2146.29   52.78
  -2   4  -3 2144.26   55.25
  -2   4  -4 1736.76   46.42
  -2   4  -4 1668.97   43.46
  -2   4  -5  831.07   25.20
  -2   4  -5  821.27   28.64
  -2   4  -6  768.28   23.29
  -2   4  -6  708.12   26.13
  -2   4  -7  564.56   18.35
  -2   4  -7  574.59   22.73
  -2   4  -8  149.19    8.11
  -2   4  -8  131.90   11.14
  -2   4  -9  144.72    7.65
  -2   4  -9  121.10   11.52
  -2   4 -10   92.89   11.16
  -2   4 -10  104.89    6.45
  -2   4 -11   47.64   10.14
   2   5 -12    9.08    9.26
   2   5 -11   26.77    9.87
   2   5 -10   26.74    9.21
   2   5 -10   31.60    6.29
  -2   5  10   36.54    3.53
   2   5 -10   35.54   11.04
   2   5  -9   59.36   10.08
  -2   5   9   46.86    4.31
   2   5  -8   48.95    8.82
  -2   5   8   54.19    4.65
  -2   5   7   69.80    5.77
   2   5  -7   58.15    8.75
   2   5  -7   78.86    9.26
  -2   5   6  299.48   11.77
   2   5  -6  285.95   14.82
  -2   5   5  100.96    6.54
   2   5  -5  100.79    8.58
  -2   5   4  141.42    7.93
   2   5  -4  134.48    9.19
  -2   5   3  467.64   16.02
   2   5  -3  429.49   16.46
   2   5  -2  268.56   12.15
   2   5  -1  249.61   10.98
   2   5   0   64.68    6.28
  -2   5   0   57.50    5.46
   2   5   1  412.80   15.91
  -2   5  -1  417.46   15.36
  -2   5  -2  153.34    8.47
   2   5   2  154.04    9.68
  -2   5  -3  543.42   18.08
   2   5   3  508.91   16.12
  -2   5  -4  126.18    8.06
   2   5   4  148.66    6.04
  -2   5  -5   57.90    5.80
  -2   5  -5   45.39    6.77
  -2   5  -6  276.75   11.69
  -2   5  -6  264.10   14.19
  -2   5  -7   79.88    6.87
  -2   5  -7   63.91    8.92
  -2   5  -8   76.98    6.67
  -2   5  -8   62.82    8.75
  -2   5  -9   49.06    6.29
  -2   5  -9   40.41    8.76
  -2   5 -10   48.73    6.32
  -2   5 -10   47.86    9.55
  -2   5 -11   29.09    9.54
   2   6 -12   27.98   10.32
   2   6 -11   45.96   10.64
  -2   6  10  100.84    5.73
   2   6 -10   85.18   12.34
   2   6  -9  258.82   10.05
  -2   6   9  222.92    9.40
   2   6  -9  271.12   15.67
   2   6  -9  203.51   15.45
  -2   6   8  234.21    9.72
   2   6  -8  252.97   13.83
  -2   6   7  231.68   10.04
   2   6  -7  211.91   11.65
   2   6  -7  198.71   14.41
  -2   6   6  676.58   21.09
   2   6  -6  630.20   21.57
   2   6  -6  653.75   26.89
  -2   6   5  598.11   19.80
   2   6  -5  608.36   20.03
  -2   6   4  555.93   18.74
   2   6  -4  543.76   17.69
  -2   6   3  700.12   22.47
   2   6  -3  703.11   21.85
   2   6  -2  980.18   28.41
   2   6  -1  880.85   26.62
  -2   6   0  435.20   16.46
   2   6   0  404.33   15.88
  -2   6  -1  946.55   28.50
   2   6   1  982.31   29.50
  -2   6  -2  929.42   28.85
   2   6   2  940.24   28.32
  -2   6  -3  726.93   23.56
   2   6   3  725.45   21.99
  -2   6  -4  496.90   18.25
  -2   6  -5  647.23   21.85
  -2   6  -6  675.02   22.73
  -2   6  -7  258.09   12.22
  -2   6  -7  202.68   12.09
  -2   6  -8  251.32   11.98
  -2   6  -8  221.78   13.14
  -2   6  -9  212.11   13.84
  -2   6  -9  240.80   11.78
  -2   6 -10  107.73   11.22
   2   7 -12   27.54   11.48
   2   7 -11   11.24    9.98
   2   7 -10   12.03    9.50
  -2   7  10   11.32    4.17
   2   7  -9   32.99   10.06
  -2   7   9   31.10    4.95
   2   7  -8   93.59    5.65
  -2   7   8   83.41    6.69
   2   7  -8  104.51    4.57
   2   7  -8   76.04   11.74
   2   7  -7   28.77    9.06
   2   7  -7   28.04    3.13
  -2   7   7   29.26    5.03
   2   7  -6   13.53    7.88
  -2   7   6   21.30    5.32
   2   7  -6   17.11    3.31
  -2   7   5  117.47    8.06
   2   7  -5  114.02    5.55
   2   7  -5  109.49   11.35
  -2   7   4  159.81    9.31
   2   7  -4  151.41   12.48
   2   7  -3   17.25    6.60
   2   7  -3   20.09    3.75
  -2   7   3   26.10    5.08
   2   7  -2   34.87    4.62
   2   7  -1  276.19   11.43
   2   7  -1  259.14   14.08
   2   7   0   13.47    5.65
   2   7   0   11.81    4.53
  -2   7   0   10.18    4.69
  -2   7  -1  182.57   10.66
   2   7   1  214.38   11.45
  -2   7  -2   13.62    4.61
   2   7   2   22.48    4.87
  -2   7  -3   11.54    4.84
   2   7   3   18.94    4.52
  -2   7  -4  119.98    8.59
  -2   7  -5  125.18    9.07
  -2   7  -6   19.72    6.14
  -2   7  -7   38.76    6.72
  -2   7  -8   76.30    8.00
  -2   7  -9   25.65    7.12
   2   8 -12   24.50   10.85
   2   8 -11    5.96   11.32
   2   8 -10   12.15   10.70
  -2   8  10   23.81    4.82
  -2   8   9   96.74    7.09
   2   8  -9   86.50   12.88
  -2   8   8   84.21    6.86
   2   8  -8   77.24   12.65
  -2   8   7   77.97    7.06
   2   8  -7   62.23   10.89
  -2   8   6  311.13   13.33
   2   8  -6  284.96   18.06
  -2   8   5  673.40   22.71
   2   8  -5  637.07   27.62
  -2   8   4  422.84   16.85
   2   8  -4  404.53   20.60
  -2   8   3  664.25   23.02
   2   8  -1 1421.54   44.41
  -2   8   0  906.58   29.27
   2   8   0  921.38   31.09
  -2   8  -1 1180.45   36.73
   2   8   1 1265.90   37.84
  -2   8  -2 1616.37   45.16
   2   8   2 1494.71   44.36
  -2   8  -3  706.08   24.30
   2   8   3  685.08   22.80
  -2   8  -4  469.56   19.02
  -2   8  -5  720.19   25.26
  -2   8  -6  395.74   16.91
  -2   8  -7   97.91    8.87
  -2   8  -8   99.73    9.48
  -2   8  -9  142.66   10.99
   2   9 -11   17.75   11.44
   2   9 -10   -0.33   12.70
  -2   9  10    8.01    4.78
   2   9  -9   24.75   10.68
  -2   9   9   34.93    6.16
   2   9  -8   46.45   11.55
  -2   9   8   35.21    6.17
   2   9  -7   16.11    9.75
  -2   9   7   14.01    5.63
   2   9  -6   48.37   10.51
  -2   9   6   48.59    6.99
  -2   9   5  101.52    8.48
   2   9  -5  116.52   12.55
   2   9  -4   47.18    9.74
  -2   9   4   47.58    7.23
  -2   9   3   52.12    7.37
   2   9  -1   18.80    7.83
   2   9  -1   20.48    6.96
   2   9   0   -1.07    6.51
  -2   9   0    1.61    5.81
   2   9   0    7.66    6.09
  -2   9  -1   14.04    6.07
   2   9   1   17.54    6.81
  -2   9  -2   27.97    7.07
   2   9   2   45.05    7.19
  -2   9  -3   46.27    7.63
  -2   9  -4   47.81    7.71
  -2   9  -5   82.41    8.86
  -2   9  -6   39.69    7.67
  -2   9  -7   11.70    6.72
  -2   9  -8   28.76    8.22
  -2   9  -9   35.48    9.85
  -2  10  10   30.07    6.25
   2  10 -10   21.01   11.65
  -2  10   9   86.91    7.91
   2  10  -9   86.11   13.86
  -2  10   8  111.23    8.80
   2  10  -8  140.49   16.67
  -2  10   7   84.02    8.40
   2  10  -7   75.53   12.98
  -2  10   6  165.25   10.97
   2  10  -6  188.70   16.24
  -2  10   5  290.03   14.29
   2  10  -5  312.93   19.64
  -2  10   4  193.08   11.64
   2  10  -4  218.19   16.23
  -2  10   3  179.83   11.80
   2  10  -2  380.04   18.83
  -2  10   2  357.64   16.85
   2  10  -2  394.58   20.14
   2  10  -1  296.21   16.20
   2  10  -1  300.62   17.30
   2  10   0  181.71   12.96
  -2  10   0  180.35   12.23
   2  10   0  199.69   13.50
  -2  10  -1  248.02   14.13
   2  10   1  258.32   14.74
   2  10   2  368.06   17.78
  -2  10  -2  374.61   17.43
   2  10   2  399.15   17.79
  -2  10  -3  199.34   12.77
  -2  10  -4  149.03   11.31
  -2  10  -5  292.43   15.39
  -2  10  -6  187.55   12.58
  -2  10  -7   82.79   10.08
  -2  10  -8  119.45   11.60
  -2  10  -9  123.83   12.68
  -2  11   9   11.27    6.60
   2  11  -9    8.98   11.62
  -2  11   8   20.95    7.23
   2  11  -8   15.00   11.45
  -2  11   7   14.16    6.80
   2  11  -7   20.50   11.86
  -2  11   6   32.81    7.17
   2  11  -6   26.88   10.92
  -2  11   5   25.17    7.41
   2  11  -5   26.34   10.11
  -2  11   4   11.12    6.96
  -2  11   3   43.96    8.05
  -2  11   2   12.20    7.06
   2  11  -2    9.94    9.16
   2  11  -2    6.33    7.73
   2  11  -1    7.04    7.98
   2  11  -1   14.90    8.83
  -2  11   0    2.43    6.61
   2  11   0   -2.22    7.52
   2  11   0    1.31    8.41
  -2  11  -1    6.15    7.02
   2  11   1   10.16    8.55
  -2  11  -2    4.93    6.71
   2  11   2    7.94    7.54
  -2  11  -3   31.19    8.19
  -2  11  -4    8.00    7.53
  -2  11  -5   13.65    8.23
  -2  11  -6   21.92    8.51
  -2  11  -7   18.07    8.54
  -2  11  -8   12.43    9.87
  -2  11  -9   19.33   10.81
  -2  12   9   23.39    7.01
  -2  12   8   39.45    8.39
   2  12  -8   42.25   13.14
  -2  12   7   38.49    8.25
   2  12  -7   40.47   12.81
  -2  12   6   62.98    9.30
   2  12  -6   53.37   13.28
  -2  12   5  143.17   11.44
   2  12  -5  184.22   17.18
  -2  12   4  175.43   12.99
  -2  12   3  184.03   13.17
   2  12  -3  220.78   17.52
   2  12  -2  351.85   19.25
  -2  12   2  324.45   17.27
   2  12  -1  372.83   19.75
   2  12  -1  448.34   22.32
   2  12   0  315.79   17.92
  -2  12   0  280.86   16.25
  -2  12  -1  338.72   17.52
   2  12   2  382.41   19.03
  -2  12  -2  372.17   18.38
  -2  12  -3  201.85   13.81
  -2  12  -4  183.20   13.82
  -2  12  -5  173.12   13.31
  -2  12  -6   89.37   11.16
  -2  12  -7   52.88   10.19
  -2  12  -8   52.04   11.27
  -2  13   9    8.14    7.55
  -2  13   8   10.23    7.91
  -2  13   7    6.16    7.88
  -2  13   6    7.40    7.76
   2  13  -6   11.04   12.95
  -2  13   5   25.94    8.40
   2  13  -5   28.48   12.89
  -2  13   4   12.17    8.17
   2  13  -3   10.43   11.41
  -2  13   3    6.61    7.49
  -2  13   2   13.16    8.84
   2  13  -2    7.46    9.39
   2  13  -2   10.15   11.44
   2  13  -1    8.52    9.73
   2  13  -1   15.92   11.24
  -2  13   0   -0.41    8.24
   2  13   0   -0.23    8.85
  -2  13  -1   13.00    8.58
  -2  13  -2   10.70    9.20
  -2  13  -3    5.13    8.54
  -2  13  -4    9.49    9.30
  -2  13  -5   20.94    9.83
  -2  13  -6   21.14   10.18
  -2  13  -7    5.11   10.18
  -2  13  -8   22.96   12.13
  -2  14   8   30.63    8.99
  -2  14   7   43.57    9.65
  -2  14   6   31.18    9.77
  -2  14   5   39.82    9.04
  -2  14   4   56.62   10.42
   2  14  -4   69.75   15.90
  -2  14   3   57.08   10.40
   2  14  -3   58.81   14.92
  -2  14   2   51.58   10.57
   2  14  -1   53.05   11.77
  -2  14   0   56.80   10.55
   2  14   0   54.05   11.76
  -2  14  -1   48.68   10.61
  -2  14  -2   49.45   11.19
  -2  14  -3   56.48   10.97
  -2  14  -4   56.74   10.98
  -2  14  -5   46.71   10.67
  -2  14  -6   38.23   12.12
  -2  14  -7   42.97   12.18
  -2  14  -8   41.42   12.20
  -2  15   4    1.91    9.78
  -2  15   3   16.92    9.19
  -2  15   2    9.67   10.29
  -2  15   0   -1.73    9.11
  -2  15  -1   10.72    9.47
  -2  15  -2   12.29    9.87
  -2  15  -3   10.44    9.81
  -2  15  -4    1.94   10.57
  -3 -16  -3   38.12    9.53
  -3 -16  -4   49.83   10.20
  -3 -15   0    6.27    9.08
  -3 -15  -1   -3.10    9.01
  -3 -15  -2    4.20    8.87
  -3 -15  -3   12.04    8.27
  -3 -15  -4    4.37    8.85
  -3 -14   2   31.71    8.40
  -3 -14   1   66.87   10.90
  -3 -14   0   29.28    9.11
  -3 -14  -1   27.63    8.02
  -3 -14  -2   36.74    8.68
  -3 -14  -3   41.74    9.46
  -3 -14  -4   32.79    9.14
   3 -14   4   29.08   15.81
  -3 -14  -5   43.16   10.43
   3 -14   5   41.34   16.89
   3 -14   6   23.02   14.67
  -3 -13   2    5.22    7.97
  -3 -13   1    3.43    3.08
  -3 -13   1    6.85    8.33
  -3 -13   0    6.01    4.61
  -3 -13   0    1.89    8.10
  -3 -13  -1   10.72    5.40
  -3 -13  -1    5.24    7.55
   3 -13   1   12.01   11.65
  -3 -13  -2    0.93    5.38
  -3 -13  -2    2.07    7.00
   3 -13   2    7.78   11.70
  -3 -13  -3    6.28    6.47
  -3 -13  -3    7.14    7.79
  -3 -13  -4    6.27    6.97
  -3 -13  -4    4.25    8.51
   3 -13   4   -4.69   13.44
  -3 -13  -5   10.15    9.60
   3 -13   5    7.01   14.35
  -3 -13  -6    6.78   11.56
   3 -13   6    6.58   12.85
   3 -13   7    4.41   14.07
  -3 -12   2  202.48   13.03
  -3 -12   1  178.33    6.59
  -3 -12   1  223.00   12.96
  -3 -12   0  170.83    8.29
  -3 -12   0  159.77   11.99
  -3 -12  -1  167.36    9.31
  -3 -12  -1  159.41   11.98
  -3 -12  -2  202.37   10.52
  -3 -12  -2  180.54   11.91
  -3 -12  -3  144.11    9.60
  -3 -12  -3  131.42   11.17
   3 -12   3  168.87   13.16
  -3 -12  -4   92.87    9.05
  -3 -12  -4   93.65   11.27
   3 -12   4  110.33   10.15
   3 -12   4   74.24   15.59
  -3 -12  -5  119.41   13.27
   3 -12   5   88.89   17.13
   3 -12   6   41.35   13.32
  -3 -12  -6   83.21   13.15
  -3 -12  -7   35.87   12.46
   3 -12   7   31.04   14.50
   3 -12   8   26.38   14.66
  -3 -11   2   37.75    7.90
  -3 -11   1    1.50    2.43
  -3 -11   1    6.53    7.37
  -3 -11   0   11.47    4.14
  -3 -11   0    9.10    7.15
  -3 -11  -1   -1.56    4.64
  -3 -11  -1    0.16    7.16
   3 -11   1    6.24    9.92
  -3 -11  -2    7.10    7.16
  -3 -11  -2    5.29    5.34
   3 -11   2   21.42   10.19
  -3 -11  -3   13.97    6.12
  -3 -11  -3   15.10    7.29
   3 -11   3   18.65    8.64
  -3 -11  -4    7.30    6.08
  -3 -11  -4   15.10    9.29
   3 -11   4   18.74    8.13
   3 -11   4    3.97   11.38
  -3 -11  -5    5.72    7.06
   3 -11   5   14.79    6.93
  -3 -11  -5   14.43   10.60
   3 -11   5   11.79   13.73
   3 -11   6   27.41    5.53
  -3 -11  -6   27.40   11.28
   3 -11   6    9.57   11.93
  -3 -11  -7   10.29   11.86
   3 -11   7   21.18   12.54
  -3 -11  -8    9.02   12.06
   3 -11   8    2.42   13.41
   3 -11   9   11.47   13.08
  -3 -10   2  156.35   11.33
  -3 -10   1  148.36    5.13
  -3 -10   1  170.09   11.60
  -3 -10   0   59.16    5.15
  -3 -10   0   65.52   12.93
  -3 -10   0   43.54    7.64
  -3 -10  -1   75.78    6.86
  -3 -10  -1   70.43    8.91
  -3 -10  -1  125.17   15.74
   3 -10   1  131.15   12.88
  -3 -10  -2  205.45   10.48
  -3 -10  -2  205.07   12.52
   3 -10   2  219.37   15.56
  -3 -10  -3   72.30    7.51
  -3 -10  -3   62.37    8.95
   3 -10   3   73.59    9.93
  -3 -10  -4   55.27    7.57
   3 -10   4   81.72    9.74
   3 -10   4   46.63   12.49
  -3 -10  -4   59.69   10.26
  -3 -10  -5  132.40   10.52
   3 -10   5  168.67   10.82
  -3 -10  -5  138.29   13.74
   3 -10   5  133.70   17.47
  -3 -10  -6  126.04   14.33
   3 -10   6   89.90   14.98
   3 -10   6  117.93    8.57
   3 -10   7   40.48    5.20
  -3 -10  -7   37.45   12.14
   3 -10   7   47.04   13.67
  -3 -10  -8   57.42   13.45
   3 -10   8   32.35   14.09
   3 -10   9   42.73   14.31
  -3  -9   9   10.48    7.40
  -3  -9   8   33.20    8.69
  -3  -9   7    8.04    7.28
  -3  -9   6   20.03    8.76
  -3  -9   5   28.88    9.09
  -3  -9   4   16.73    9.27
  -3  -9   3    7.92    8.81
  -3  -9   2   43.84    7.48
  -3  -9   2   32.37   10.13
  -3  -9   1   57.50    8.01
  -3  -9   0    5.21    3.23
  -3  -9   0    4.47    6.40
  -3  -9   0    8.86   10.59
  -3  -9  -1    3.17    4.21
  -3  -9  -1    4.97    6.42
   3  -9   1   26.24    8.80
  -3  -9  -1   35.55   12.45
  -3  -9  -2    5.29    5.24
  -3  -9  -2   -0.48    6.18
   3  -9   2   22.24    9.10
  -3  -9  -2   29.91   11.46
  -3  -9  -3    6.07    5.30
  -3  -9  -3    7.70    6.64
   3  -9   3   11.34    7.76
  -3  -9  -3    6.26   10.60
   3  -9   3    4.30    7.06
  -3  -9  -4   11.62    8.78
  -3  -9  -4   16.72    6.22
   3  -9   4   14.24    7.58
  -3  -9  -4    9.34   11.09
   3  -9   4   12.65   10.50
   3  -9   4   16.72    7.62
   3  -9   5   41.83    7.83
  -3  -9  -5   17.42    6.79
  -3  -9  -5   22.66   13.26
   3  -9   5   25.14   11.47
  -3  -9  -5   10.52    9.55
  -3  -9  -6   15.67   12.09
  -3  -9  -6   20.27    7.02
   3  -9   6   17.72    5.99
  -3  -9  -6   18.99   10.40
   3  -9   6   10.73   12.33
  -3  -9  -7   14.99   11.86
   3  -9   7   16.96    5.50
  -3  -9  -7   14.60   11.00
   3  -9   7   23.30   11.66
  -3  -9  -8   17.28   12.16
   3  -9   8   19.71   13.96
   3  -9   9   12.25   13.42
   3  -9  10    0.36   14.02
  -3  -8   9   60.58    7.97
  -3  -8   8   39.78    7.83
  -3  -8   7   46.85    8.62
  -3  -8   6  157.61   12.24
  -3  -8   5  285.56   16.14
  -3  -8   4  186.72   14.51
  -3  -8   3  330.81   19.21
  -3  -8   2  690.14   25.55
  -3  -8   2  746.23   30.12
  -3  -8   1  556.58   21.61
  -3  -8   0  249.89    9.04
  -3  -8   0  281.40   14.31
  -3  -8   0  300.20   19.08
  -3  -8  -1  498.98   16.50
  -3  -8  -1  466.30   19.83
  -3  -8  -1  597.63   27.38
   3  -8   1  547.57   23.37
  -3  -8  -2  687.59   22.13
   3  -8   2  783.04   29.25
  -3  -8  -2  732.33   31.64
  -3  -8  -3  348.48   14.23
  -3  -8  -3  334.52   16.00
   3  -8   3  287.18   16.83
  -3  -8  -3  338.39   21.71
   3  -8   3  304.25   15.56
  -3  -8  -4  143.93   10.17
  -3  -8  -4  139.05   12.76
   3  -8   4  171.90   12.21
  -3  -8  -4  173.44   17.14
   3  -8   4  121.91   15.44
   3  -8   4  182.09   11.76
  -3  -8  -5  336.29   15.28
  -3  -8  -5  366.12   19.30
   3  -8   5  320.40   15.25
  -3  -8  -5  312.84   20.70
   3  -8   5  285.95   21.12
   3  -8   5  313.13   15.39
   3  -8   6  172.36   10.21
   3  -8   6  145.72   17.56
  -3  -8  -6  207.12   12.31
  -3  -8  -6  202.31   17.52
  -3  -8  -6  221.14   16.60
   3  -8   6  179.64   13.00
   3  -8   7   41.66    9.25
   3  -8   7   42.13   13.00
  -3  -8  -7   39.07   11.20
   3  -8   7   40.66    6.38
   3  -8   8   37.08   13.24
  -3  -8  -8   36.92   11.50
   3  -8   9   51.50   14.71
  -3  -8  -9   83.48   13.92
   3  -8  10   22.56   13.84
  -3  -8 -10   32.02   12.26
  -3  -7   9   16.73    5.89
  -3  -7   8   71.73    7.98
  -3  -7   7   46.30    8.19
  -3  -7   6    5.38    6.70
  -3  -7   5  100.82   10.51
  -3  -7   4  205.36   14.23
  -3  -7   3   22.38    8.07
  -3  -7   2   19.98    8.16
  -3  -7   2   22.10    6.39
  -3  -7   1  106.22    9.92
  -3  -7   0   70.81    4.27
  -3  -7   0   84.72   11.15
  -3  -7   0   78.52    8.52
  -3  -7  -1  133.74    6.99
  -3  -7  -1  127.76    9.77
   3  -7   1  120.02   11.36
  -3  -7  -1  130.23   13.47
  -3  -7  -2   15.43    6.01
  -3  -7  -2   20.85    9.12
  -3  -7  -2   11.76    4.57
   3  -7   2   19.74    8.71
  -3  -7  -3   21.61    9.05
  -3  -7  -3   20.68    5.44
   3  -7   3   16.20    7.74
  -3  -7  -3   21.64    6.90
   3  -7   3   22.40    6.51
  -3  -7  -4  162.98   10.36
  -3  -7  -4  176.45   13.23
   3  -7   4  195.37   12.29
  -3  -7  -4  181.24   16.39
   3  -7   4  205.19   12.13
  -3  -7  -5   63.42    8.16
  -3  -7  -5   74.46   11.65
   3  -7   5   92.48    9.01
   3  -7   5   82.76   13.32
  -3  -7  -5   82.67   13.02
   3  -7   5   96.76    9.70
   3  -7   6    3.55    7.29
   3  -7   6    7.11    5.76
  -3  -7  -6    6.93    6.50
   3  -7   6   -0.37   10.14
  -3  -7  -6    1.46   10.34
   3  -7   7   63.69    7.15
   3  -7   7   66.15   13.77
  -3  -7  -7   17.99    7.66
  -3  -7  -7   24.53   10.36
   3  -7   7   68.20    9.49
  -3  -7  -8   87.30   13.64
  -3  -7  -8   84.47   12.60
   3  -7   8   68.67   14.24
   3  -7   8   75.77   10.42
   3  -7   9   24.28   14.20
  -3  -7  -9    9.41   11.40
   3  -7  10   16.84   13.76
  -3  -7 -10    3.63   11.91
   3  -7  11   29.97   15.30
  -3  -6   9  114.72    8.26
  -3  -6   8   73.69    7.78
  -3  -6   7   93.75    8.99
  -3  -6   6  241.54   13.68
  -3  -6   5  221.19   12.99
  -3  -6   4   90.41   10.19
  -3  -6   3  129.60   11.56
  -3  -6   2  278.08   13.77
  -3  -6   2  288.55   16.76
  -3  -6   1  226.56   13.55
  -3  -6   0   73.78    4.36
  -3  -6   0   90.53    8.88
  -3  -6   0   84.90   11.43
  -3  -6  -1  101.29    6.21
   3  -6   1  153.12   12.46
  -3  -6  -1  107.17    9.02
  -3  -6  -1  156.24   13.55
  -3  -6  -2  303.73   14.82
   3  -6   2  307.67   18.26
  -3  -6  -2  330.94   12.51
  -3  -6  -2  298.58   18.07
  -3  -6  -3   81.55    7.33
  -3  -6  -3   95.03    9.28
   3  -6   4   97.07    9.86
  -3  -6  -4  118.11    8.45
   3  -6   4   89.99    8.81
  -3  -6  -4  109.16   12.43
  -3  -6  -5  200.53   12.05
   3  -6   5  241.94   13.46
  -3  -6  -5  233.26   17.09
  -3  -6  -6  231.31   13.21
   3  -6   6  226.22   12.16
   3  -6   6  237.48   19.82
  -3  -6  -6  261.20   18.06
   3  -6   6  268.04   13.73
  -3  -6  -7   96.20   10.01
   3  -6   7  100.56    8.10
  -3  -6  -7  105.76   12.86
   3  -6   7   82.94   14.91
   3  -6   7  116.53   10.20
   3  -6   8   85.31   14.39
  -3  -6  -8   69.70   11.29
  -3  -6  -8   63.16   12.70
   3  -6   8  105.30   10.52
   3  -6   9  138.48   17.30
  -3  -6  -9  138.98   15.43
   3  -6  10   67.94   14.83
  -3  -6 -10   56.07   13.71
   3  -6  11   26.83   14.68
  -3  -6 -11   25.93   12.04
  -3  -5  10   18.93    4.54
  -3  -5   9   22.63    5.41
  -3  -5   8   57.35    6.62
  -3  -5   7   37.48    6.64
  -3  -5   6  130.53    9.79
  -3  -5   5   70.24    8.08
  -3  -5   4   74.56    9.28
  -3  -5   3  172.72   12.47
  -3  -5   2  147.06   12.05
  -3  -5   2  171.17   10.52
  -3  -5   1  221.65   12.90
  -3  -5   0    2.53    5.26
  -3  -5   0    1.73    6.34
   3  -5   0    0.82    5.43
  -3  -5   0   -0.47    2.48
  -3  -5  -1  155.77   13.11
  -3  -5  -1  104.32    6.29
  -3  -5  -1  102.69    8.97
   3  -5   1  146.85   12.35
  -3  -5  -2  105.05   12.02
  -3  -5  -2   20.35    4.84
   3  -5   2  114.74   11.48
  -3  -5  -2   39.33    6.42
   3  -5   3  167.78   13.01
   3  -5   3  163.91   15.01
  -3  -5  -3  193.75    9.95
  -3  -5  -3  180.42   13.97
  -3  -5  -4   48.31    6.53
   3  -5   4   71.46    9.04
  -3  -5  -4   70.42   10.88
   3  -5   5   71.73    8.94
  -3  -5  -5   75.29    8.15
   3  -5   5   78.85    7.66
  -3  -5  -5   79.05   10.82
  -3  -5  -6  163.12   11.03
   3  -5   6  137.00    9.86
  -3  -5  -6  147.46   13.29
   3  -5   6  157.90   10.19
   3  -5   7   38.26    7.36
  -3  -5  -7   40.29   10.25
   3  -5   7   29.31   12.33
  -3  -5  -7   45.93    8.49
   3  -5   7   42.06    7.16
   3  -5   8   70.15    7.57
   3  -5   8   67.89   13.93
  -3  -5  -8   58.76   11.12
   3  -5   8   73.01    8.71
  -3  -5  -9   23.89    8.48
   3  -5   9   32.51   14.20
  -3  -5  -9   13.63   11.66
   3  -5  10   35.04   13.07
  -3  -5 -10   34.87   11.85
   3  -5  11   41.24   14.57
  -3  -5 -11   28.27   12.68
  -3  -4  10   43.99    4.65
  -3  -4   9   45.27    5.25
  -3  -4   8   59.87    6.37
  -3  -4   7  152.34    9.44
  -3  -4   6  232.58   12.58
  -3  -4   5  197.38   12.36
  -3  -4   4  449.88   19.69
  -3  -4   3  831.23   30.00
  -3  -4   1  725.03   25.85
  -3  -4   0 1102.02   33.98
   3  -4   0  962.34   36.23
  -3  -4  -1  949.52   29.86
  -3  -4  -1  885.19   25.01
  -3  -4  -2  376.15   14.83
   3  -4   2  561.14   22.77
  -3  -4  -3  843.21   31.02
  -3  -4  -3  865.37   25.63
  -3  -4  -4  456.28   21.40
  -3  -4  -4  391.24   16.40
   3  -4   4  449.29   18.86
   3  -4   4  455.64   24.40
  -3  -4  -4  379.76   17.96
  -3  -4  -5  217.24   15.31
  -3  -4  -5  259.14   12.70
   3  -4   5  180.75   16.84
   3  -4   5  190.01   12.55
  -3  -4  -5  242.73   14.45
   3  -4   5  180.40   10.16
  -3  -4  -6  223.94   13.08
   3  -4   6  248.50   13.35
   3  -4   6  258.86   11.30
  -3  -4  -6  238.39   15.72
   3  -4   7  151.60   10.32
  -3  -4  -7  184.19   12.17
  -3  -4  -7  166.56   13.21
   3  -4   7  158.53   10.08
   3  -4   8   56.06    7.76
  -3  -4  -8   89.90   13.17
  -3  -4  -8   75.38   10.19
   3  -4   8   51.57    7.76
  -3  -4  -9   52.16   12.36
  -3  -4  -9   39.16    8.21
  -3  -4 -10  101.25   14.92
   3  -4  10   59.57   14.81
   3  -4  11   16.86   12.81
  -3  -4 -11   26.06   13.00
  -3  -4 -12   26.38   12.83
  -3  -3  10   35.42    3.94
  -3  -3   9   18.55    4.33
  -3  -3   8  124.77    7.69
  -3  -3   7  123.12    8.50
  -3  -3   6   40.06    6.50
  -3  -3   1  301.28   15.16
  -3  -3   0  272.09   14.87
  -3  -3  -1  410.13   14.41
   3  -3   1  362.79   20.95
   3  -3   2    4.69    7.56
  -3  -3  -2   10.61    4.20
  -3  -3  -3   65.83    6.57
   3  -3   3   86.12    9.89
  -3  -3  -3   56.92    7.75
   3  -3   3   85.51   12.43
  -3  -3  -4  236.08   12.60
   3  -3   4  380.54   21.92
   3  -3   4  349.64   16.47
  -3  -3  -4  235.86   14.26
   3  -3   5  140.19   15.88
  -3  -3  -5  159.51   10.54
  -3  -3  -5  162.81   11.79
   3  -3   5  137.90   10.14
   3  -3   5  161.27    8.71
   3  -3   6   41.73    7.93
   3  -3   6   51.79   11.67
  -3  -3  -6   26.76    8.28
  -3  -3  -6   25.94    6.93
  -3  -3  -6   36.16    8.54
   3  -3   6   55.82    5.94
   3  -3   7  156.16   10.48
  -3  -3  -7   69.41    9.52
  -3  -3  -7   10.97   11.07
   3  -3   7  186.49    9.73
  -3  -3  -7  103.44   10.86
  -3  -3  -8  193.41   13.05
  -3  -3  -8  208.36   15.56
  -3  -3  -8  163.34   12.74
  -3  -3  -9   15.70    7.51
  -3  -3  -9   12.38   10.27
   3  -3  10   78.89   14.92
  -3  -3 -10   48.68   12.42
   3  -3  11   41.98   15.98
  -3  -3 -11   42.91   12.59
   3  -3  12   31.37   16.47
  -3  -3 -12   14.36   11.71
  -3  -2  10   92.81    5.03
  -3  -2   9   44.25    4.68
  -3  -2   8   84.39    6.42
  -3  -2   7  444.55   16.58
   3  -2  -1   66.62    8.59
  -3  -2   1   28.39    5.94
   3  -2   2   19.00    7.64
  -3  -2  -2    3.01    5.59
  -3  -2  -2    9.15    4.53
   3  -2   2   23.37    7.86
  -3  -2  -3  238.99   12.71
   3  -2   3  464.18   21.46
   3  -2   3  404.24   20.55
  -3  -2  -3  277.49   14.73
  -3  -2  -4  731.72   24.80
  -3  -2  -4  740.72   23.60
   3  -2   5   38.99    7.62
   3  -2   5   47.15   10.62
  -3  -2  -5   25.62    7.18
  -3  -2  -5   32.54    7.08
   3  -2   6  196.70   18.43
   3  -2   6  231.57   13.06
  -3  -2  -6  132.50   11.67
  -3  -2  -6  147.86   12.58
   3  -2   6  278.13   10.14
  -3  -2  -7  464.72   20.74
   3  -2   7  512.00   26.32
   3  -2   7  445.79   19.67
  -3  -2  -7  518.88   21.67
  -3  -2  -7  490.08   22.04
   3  -2   7  495.23   16.93
  -3  -2  -8   99.98   11.68
  -3  -2  -8   90.80    9.62
  -3  -2  -9   46.86   10.90
  -3  -2  -9   43.56    7.76
  -3  -2 -10  117.47   13.33
  -3  -2 -11  103.78   13.38
   3  -2  11   83.78   17.87
  -3  -2 -12   11.87   11.11
   3  -1 -10   78.65    9.05
  -3  -1  10   59.29    4.17
  -3  -1  10   80.41    4.95
  -3  -1   9   15.37    4.00
   3  -1  -9   17.74    7.50
   3  -1  -1   26.41    7.07
   3  -1   0   95.95   11.43
  -3  -1  -1    9.22    5.72
   3  -1   1   12.38    5.71
   3  -1   2   80.04   10.13
  -3  -1  -2   43.42    7.38
  -3  -1  -3  156.86   11.26
   3  -1   3  166.96   16.06
  -3  -1  -3  143.68   10.55
   3  -1   4   39.31    8.35
   3  -1   4   37.94    8.98
  -3  -1  -4   15.75    6.80
  -3  -1  -4   16.23    6.28
   3  -1   5   35.40    7.19
   3  -1   5   40.03    8.76
  -3  -1  -5   35.84    7.65
  -3  -1  -5   34.56    7.34
   3  -1   6  186.46   15.37
   3  -1   6  157.35   11.38
  -3  -1  -6  158.68   12.32
   3  -1   6  174.99    7.80
   3  -1   7  173.77   16.23
   3  -1   7  164.42   11.80
   3  -1   7  189.46    8.24
   3  -1   8   25.40   10.74
  -3  -1  -8   24.37    8.82
  -3  -1  -9   15.48    6.40
  -3  -1  -9   11.14    9.34
   3  -1   9   26.57   11.72
  -3  -1 -10   66.46   12.22
  -3  -1 -10   72.16    9.85
  -3  -1 -11   37.61   11.47
  -3  -1 -12    5.04   11.35
  -3  -1 -13   13.38   13.23
  -3   0  10   56.59    4.03
  -3   0  10   59.69    3.89
  -3   0   9   15.48    4.13
   3   0  -9   20.27    6.60
  -3   0   9    7.20    3.77
   3   0  -8   22.50    7.27
   3   0  -2  146.02   11.53
   3   0  -1  765.89   31.03
   3   0   0 1594.65   55.14
  -3   0   0 1911.39   52.38
  -3   0  -1 1102.14   35.58
   3   0   1 1182.17   37.88
   3   0   2   75.98    8.95
  -3   0  -2   94.42   10.67
   3   0   3 1313.74   44.19
  -3   0  -3 1400.42   43.59
   3   0   4  930.04   33.16
  -3   0  -4  949.16   31.69
   3   0   5   76.70   10.11
   3   0   5   53.99    8.52
  -3   0  -5   77.75    9.44
   3   0   6  189.84   14.72
   3   0   6  173.17   11.78
   3   0   6  208.59    7.63
   3   0   7  409.01   22.29
  -3   0  -7  480.26   20.53
  -3   0  -8  134.19   12.28
  -3   0  -8  135.44   12.82
  -3   0  -9   -1.02    8.24
   3   0   9   22.03   12.40
  -3   0  -9    5.50    8.97
   3   0  10   88.31   15.69
  -3   0 -10  100.74   13.18
  -3   0 -10  108.62    8.24
  -3   0 -11   48.81   11.92
  -3   0 -12    1.84   11.26
  -3   0 -13    5.47   12.57
  -3   1  10   83.06    4.63
   3   1 -10  113.96   10.79
  -3   1   9   21.22    4.04
   3   1  -9   23.79    6.93
  -3   1   8   22.15    5.05
   3   1  -8   14.83    5.27
   3   1  -7  239.49   12.05
   3   1  -3  250.50   15.30
   3   1  -2  132.15   12.00
   3   1  -1   22.82    7.21
   3   1   0  138.69   10.49
   3   1   0  107.03   12.29
   3   1   1   21.04    8.26
   3   1   1   13.82    5.73
  -3   1  -1   10.75    5.01
   3   1   2   83.13    8.69
   3   1   2  101.98   10.10
  -3   1  -2   76.93    8.96
   3   1   3  218.32   13.49
  -3   1  -3  165.94   13.15
   3   1   4   57.10    8.14
  -3   1  -4   24.66    7.33
   3   1   5   35.67    8.60
   3   1   5   34.75    7.73
  -3   1  -5   25.48    7.68
   3   1   6  192.09   14.14
   3   1   6  178.77   12.26
  -3   1  -6  207.84   14.55
  -3   1  -6  172.69   12.83
   3   1   7  198.35   14.97
   3   1   7  167.35   11.98
  -3   1  -7   98.15   11.86
  -3   1  -7   95.27   12.40
  -3   1  -8   34.15    8.30
   3   1   8   36.79   11.96
  -3   1  -8   29.23    9.92
  -3   1  -8   28.35   10.29
  -3   1  -9   20.21    6.93
   3   1   9   29.84   12.02
  -3   1  -9   18.07    9.51
  -3   1 -10   73.62    7.16
  -3   1 -10   58.12   11.70
  -3   1 -11   27.85   11.26
  -3   1 -12    3.15   12.53
  -3   1 -13   19.90   14.39
  -3   2  10  121.88    5.78
   3   2 -10  165.36   12.19
  -3   2   9   53.21    5.10
   3   2  -9   64.54    8.14
   3   2  -8  104.49    8.40
  -3   2   8   91.66    6.59
   3   2  -7  361.14   15.13
  -3   2   7  441.55   15.48
   3   2  -6  234.21   10.69
   3   2  -4  348.52   18.83
   3   2  -3  563.94   24.67
   3   2  -2    8.77    7.86
   3   2  -1   82.09    6.63
   3   2  -1   53.84   10.53
   3   2   0  962.25   29.66
   3   2   0  958.71   36.26
   3   2   1   88.12    7.40
   3   2   1   89.58   10.18
   3   2   2   10.18    4.82
   3   2   2    1.75    6.70
  -3   2  -2    3.13    4.90
   3   2   3  506.24   20.46
   3   2   3  544.92   21.96
   3   2   4  617.27   24.84
  -3   2  -4  739.93   26.92
   3   2   5   46.75    8.67
  -3   2  -5   15.89    7.30
   3   2   6  225.97   15.37
   3   2   6  192.30   13.12
   3   2   7  597.29   27.70
  -3   2  -7  498.14   23.58
  -3   2  -7  562.68   25.31
  -3   2  -7  534.69   21.40
  -3   2  -8   95.38   11.60
  -3   2  -8  106.22   12.92
  -3   2  -8  109.30    9.45
  -3   2  -9   46.58    6.93
  -3   2  -9   40.54   10.32
  -3   2 -10  120.85    8.24
  -3   2 -10   92.26   12.90
  -3   2 -11  105.01   14.11
  -3   2 -12    6.54   11.19
   3   3 -10   78.17   10.51
  -3   3  10   49.80    4.61
   3   3  -9   33.18    7.45
  -3   3   9   22.52    4.47
  -3   3   8   91.92    6.77
   3   3  -8   69.54    7.64
   3   3  -7  204.23    9.84
  -3   3   7  151.36    8.66
   3   3  -6   72.00    5.65
  -3   3   6   65.51    6.67
   3   3  -5   88.05    5.49
   3   3  -5   89.69   10.63
   3   3  -4  334.18   10.91
   3   3  -4  298.14   18.07
   3   3  -3   84.81   10.99
   3   3  -2    4.30    7.62
   3   3  -2    6.31    2.67
   3   3  -1  255.88    9.57
   3   3  -1  282.74   17.35
   3   3   0  234.06    9.76
   3   3   0  251.07   16.07
   3   3   1  412.68   15.02
   3   3   1  423.93   20.95
   3   3   2   16.13    4.63
   3   3   2    6.99    5.94
   3   3   3   75.35    7.29
  -3   3  -3   61.49    8.63
   3   3   4  302.65   14.94
   3   3   4  304.81   16.21
   3   3   5  175.19   13.75
  -3   3  -5  168.32   13.08
  -3   3  -5  131.75   10.94
  -3   3  -6   29.06    6.88
  -3   3  -6   27.57    8.44
  -3   3  -7   74.63   11.51
  -3   3  -7   96.18    9.18
  -3   3  -8  148.03   13.28
  -3   3  -8  153.34   10.39
  -3   3  -9   16.78    6.30
  -3   3  -9    9.72   10.03
  -3   3 -10   53.09    7.50
  -3   3 -10   35.61   11.46
  -3   3 -11   36.40   12.35
  -3   3 -12    3.88   12.47
   3   4 -13    2.17    9.59
   3   4 -12   -1.53    9.95
  -3   4  10   38.53    4.55
  -3   4   9   51.86    5.47
   3   4  -9   85.65   10.20
  -3   4   8   51.24    5.78
   3   4  -8   54.14    8.05
  -3   4   7  151.22    8.83
   3   4  -7  146.25    9.53
   3   4  -7  130.51   14.16
   3   4  -6  233.65   10.18
   3   4  -6  215.53   16.11
  -3   4   6  205.93   10.47
   3   4  -5  151.22   13.84
  -3   4   5  156.33    9.86
   3   4  -4  485.24   23.37
  -3   4   4  530.50   19.10
   3   4  -3  656.44   28.44
  -3   4   3  720.04   24.47
   3   4  -2  573.70   25.53
   3   4  -1  665.12   27.63
   3   4   0 1034.97   28.71
   3   4   0 1180.04   38.01
   3   4   1  848.17   25.35
   3   4   1  839.88   30.84
  -3   4  -1  883.76   29.67
   3   4   2  496.67   18.13
   3   4   2  464.50   20.74
   3   4   3  854.35   28.43
  -3   4  -3  916.79   30.38
   3   4   3  926.41   31.90
   3   4   4  517.03   21.07
  -3   4  -4  475.64   19.33
   3   4   5  204.60   13.60
  -3   4  -5  226.67   14.56
  -3   4  -5  240.19   12.48
  -3   4  -6  211.40   15.15
  -3   4  -6  205.26   11.90
  -3   4  -7  218.11   15.06
  -3   4  -7  184.97   11.19
  -3   4  -8   85.52    8.62
  -3   4  -8   88.32   11.50
  -3   4  -9   43.13    7.28
  -3   4  -9   36.25    9.82
  -3   4 -10   60.06   11.30
  -3   4 -11   15.47   10.83
   3   5 -12   11.24   10.48
   3   5 -11   22.74   10.56
  -3   5  10   26.06    4.67
  -3   5   9   37.07    5.77
   3   5  -9   67.40   11.32
   3   5  -9   45.83   13.26
  -3   5   8   63.86    6.24
   3   5  -8   88.67   10.45
   3   5  -8   61.69   12.76
  -3   5   7   40.63    5.86
   3   5  -7   65.02    8.31
   3   5  -7   49.20   11.31
  -3   5   6  129.97    8.81
   3   5  -6  133.26    8.52
   3   5  -6  130.58   13.72
   3   5  -5   91.65   10.97
  -3   5   5   82.60    7.53
   3   5  -4   77.77   10.59
  -3   5   4   84.59    7.20
   3   5  -3  165.69   13.29
  -3   5   3  155.12    9.85
   3   5  -2  241.98   14.61
   3   5  -1  214.72   14.31
  -3   5   0    2.30    4.95
   3   5   0    4.47    6.81
   3   5   1  128.09   10.61
  -3   5  -1  129.79    9.95
   3   5   2   93.68   10.92
  -3   5  -2   75.27    8.85
   3   5   3  192.54   12.74
  -3   5  -3  203.76   11.97
   3   5   4   67.68    9.34
   3   5   4   79.58    6.21
   3   5   5   76.33    9.51
  -3   5  -5   50.12    8.78
   3   5   5   61.82    4.11
  -3   5  -5   62.02    7.83
  -3   5  -6  165.42   10.94
  -3   5  -6  145.09   12.24
  -3   5  -7   43.38    7.56
  -3   5  -7   37.94    9.25
  -3   5  -8   49.87    8.10
  -3   5  -8   46.82   10.46
  -3   5  -9   30.12   10.73
  -3   5  -9   29.78    7.94
  -3   5 -10   32.76   11.57
   3   6 -12   14.62   11.76
   3   6 -11    5.05   10.88
   3   6 -10   43.03   11.92
  -3   6  10   53.09    5.62
  -3   6   9  112.36    7.84
  -3   6   8  102.24    7.75
   3   6  -8  134.33   13.97
  -3   6   7  108.11    8.09
   3   6  -7  119.99   12.70
  -3   6   6  211.23   11.08
   3   6  -6  212.70   15.17
  -3   6   5  271.09   12.97
   3   6  -5  294.95   16.44
  -3   6   4  115.62    9.00
   3   6  -4  127.62   11.13
   3   6  -3  201.26   12.42
  -3   6   3  189.47   11.03
   3   6  -2  255.23   14.95
   3   6  -1  237.26   13.27
   3   6   0   95.35    9.26
  -3   6   0   78.53    7.62
   3   6   1  170.22   12.12
  -3   6  -1  131.70   10.42
   3   6   2  350.06   16.72
  -3   6  -2  316.96   15.02
   3   6   3  154.73   12.48
   3   6   3  169.54    9.69
  -3   6  -4  133.36    9.92
   3   6   4  149.89   11.95
   3   6   4  137.51    8.12
  -3   6  -5  215.94   12.92
   3   6   5  228.16    8.86
  -3   6  -6  211.30   12.89
  -3   6  -7  105.03    9.75
  -3   6  -7   84.20   10.19
  -3   6  -8   78.18    9.23
  -3   6  -8   74.70   10.19
  -3   6  -9  168.76   12.48
  -3   6  -9  128.25   12.96
  -3   6 -10   48.77   10.61
   3   7 -11   24.78   11.90
   3   7 -10    3.63    9.82
  -3   7  10   10.66    5.12
   3   7  -9   22.21   11.10
  -3   7   9   20.64    5.49
   3   7  -8   44.40   11.44
  -3   7   8   64.93    7.42
  -3   7   7   66.72    7.56
   3   7  -7  100.64   10.52
   3   7  -6   11.79    6.78
  -3   7   6    6.59    5.55
  -3   7   5   95.57    8.31
   3   7  -5  111.02    9.20
  -3   7   4  195.71   11.70
   3   7  -4  222.63   12.69
  -3   7   3   16.67    5.99
   3   7  -3   11.79    6.76
   3   7  -2   20.53    6.49
   3   7  -1  120.26   10.38
  -3   7   0   74.67    8.39
   3   7   0   95.15    9.22
  -3   7  -1  127.41   10.09
   3   7   1  161.59   11.23
   3   7   1  154.59   11.82
   3   7   2   20.73    7.26
  -3   7  -2    4.46    5.61
   3   7   2   16.84    7.45
   3   7   3   21.54    5.99
   3   7   3   26.55    8.16
  -3   7  -3   15.65    6.30
  -3   7  -4  160.76   11.81
   3   7   4  212.86   10.13
  -3   7  -5   58.43    8.23
  -3   7  -6    6.00    6.61
  -3   7  -7   27.68    7.98
  -3   7  -8   82.61   10.45
  -3   7  -9   15.76    8.91
   3   8 -10   13.22   12.05
  -3   8  10   13.38    5.88
   3   8  -9   56.18   13.32
  -3   8   9   42.23    6.82
   3   8  -8   36.54   11.60
  -3   8   8   39.15    6.91
  -3   8   7   24.11    6.91
   3   8  -7   27.96   11.55
   3   8  -7   21.03    5.32
  -3   8   6  135.42    9.88
   3   8  -6  110.96    7.56
   3   8  -6  144.31   14.77
  -3   8   5  274.71   13.81
   3   8  -5  240.60   11.61
   3   8  -5  285.13   18.68
  -3   8   4  201.90   12.19
   3   8  -4  232.50   10.97
   3   8  -4  201.65   15.71
  -3   8   3  218.32   12.68
   3   8  -3  220.32   12.34
   3   8  -2  747.52   25.37
   3   8  -2  769.42   30.59
   3   8  -1  643.60   23.34
   3   8  -1  718.17   28.42
   3   8   0  334.66   15.97
   3   8   0  367.65   18.33
  -3   8  -1  493.38   21.43
   3   8   1  606.08   22.90
  -3   8  -2  665.18   26.08
   3   8   2  889.23   28.28
  -3   8  -3  343.05   16.41
   3   8   3  342.21   15.48
  -3   8  -4  137.09   11.48
   3   8   4  181.63   10.00
  -3   8  -5  334.64   16.50
  -3   8  -6  177.98   12.55
  -3   8  -7   30.09    9.23
  -3   8  -8   54.83   10.09
  -3   8  -9   80.66   11.38
   3   9 -10   10.48   12.87
  -3   9  10    4.96    5.73
   3   9  -9   34.75   13.02
  -3   9   9   18.43    6.76
   3   9  -8   47.56   13.44
  -3   9   8   28.42    6.96
   3   9  -7   15.47   11.98
  -3   9   7    1.69    6.68
  -3   9   6   14.55    7.33
   3   9  -6   24.52   11.31
   3   9  -6   23.71    3.86
  -3   9   5   58.05    8.37
   3   9  -5   78.41    5.97
   3   9  -5   64.04   12.06
   3   9  -4   27.49    5.45
  -3   9   4   23.66    7.43
   3   9  -3   12.16    5.57
  -3   9   3    4.85    6.97
   3   9  -2   56.75   11.58
   3   9  -2   61.39    7.44
  -3   9   2   38.73    7.64
   3   9  -1   55.03   10.75
   3   9  -1   57.01    7.71
   3   9   0   14.72    8.23
  -3   9   0    5.54    6.31
   3   9   1   27.53    8.90
  -3   9  -1   10.89    6.92
  -3   9  -2    7.79    7.27
   3   9   2   37.67    8.73
  -3   9  -3    9.95    7.31
   3   9   3   13.83    7.20
  -3   9  -4   15.22    7.75
   3   9   4    7.36    6.15
  -3   9  -5   20.43    8.06
  -3   9  -6   16.78    8.66
  -3   9  -7   14.60    9.15
  -3   9  -8   19.71    9.46
  -3   9  -9   13.41   10.75
   3  10  -9   46.99   14.67
  -3  10   9   51.14    7.78
  -3  10   8   71.34    8.98
   3  10  -8   95.59   15.84
   3  10  -7   53.59   14.14
  -3  10   7   46.68    8.49
  -3  10   6   80.64    9.76
   3  10  -6  101.66   15.03
  -3  10   5  159.82   12.05
   3  10  -5  196.45   17.50
  -3  10   4   76.55   10.25
  -3  10   3   66.06    9.58
   3  10  -3   73.63   13.24
  -3  10   2  163.09   12.59
   3  10  -2  240.31   17.80
   3  10  -1  240.75   17.12
   3  10   0   49.03   10.85
  -3  10   0   35.98    8.25
  -3  10  -1  103.65   11.21
   3  10   1  170.83   13.85
  -3  10  -2  230.88   14.49
   3  10   2  277.36   15.94
  -3  10  -3   63.85    9.80
   3  10   3   69.11    9.57
  -3  10  -4   55.96   10.11
  -3  10  -5  141.58   13.80
  -3  10  -6  124.78   12.72
  -3  10  -7   39.22   10.34
  -3  10  -8   62.16   11.76
  -3  10  -9   91.74   13.53
  -3  11   9    8.10    7.04
   3  11  -8   22.26   14.45
  -3  11   8    9.98    7.19
   3  11  -7   31.45   13.87
  -3  11   7   19.54    7.84
   3  11  -6   17.20   12.95
  -3  11   6   12.71    8.10
  -3  11   5   22.30    8.26
  -3  11   4   12.22    8.47
   3  11  -3   24.44   11.78
  -3  11   3   18.13    8.54
   3  11  -2   47.00   12.13
  -3  11   2   18.99    8.74
   3  11  -1    6.44   12.43
  -3  11   0    2.16    8.47
   3  11   0   12.62    9.36
  -3  11  -1   -3.51    8.93
   3  11   1    6.64    9.93
  -3  11  -2    2.39    9.32
   3  11   2   18.15    9.87
  -3  11  -3    9.10    9.20
   3  11   3   22.81    9.30
  -3  11  -4    9.09    9.74
  -3  11  -5    5.57    9.28
  -3  11  -6   24.84   10.21
  -3  11  -7   12.38   10.33
  -3  11  -8   12.56   11.30
  -3  12   9   10.89    7.90
  -3  12   8   26.09    8.85
  -3  12   7   28.90    9.15
   3  12  -7   22.27   14.86
   3  12  -6   60.03   17.35
  -3  12   6   30.95    9.01
  -3  12   5   88.33   11.20
  -3  12   4  103.45   11.43
   3  12  -4  153.29   19.12
  -3  12   3   89.46   11.39
   3  12  -3  142.22   16.67
  -3  12   2  196.66   15.07
   3  12  -2  263.88   18.55
   3  12  -1  298.63   20.59
  -3  12   0  180.70   15.19
   3  12   0  260.97   18.12
  -3  12  -1  206.11   16.27
   3  12   1  289.64   18.70
  -3  12  -2  212.97   15.80
   3  12   2  283.64   17.99
  -3  12  -3  156.71   14.01
  -3  12  -4   94.18   12.59
  -3  12  -5  113.17   13.61
  -3  12  -6   47.64   11.50
  -3  12  -7   42.13   12.99
  -3  12  -8   42.58   12.60
  -3  13   9   14.67    8.89
  -3  13   8    8.97    8.89
  -3  13   7    5.95    9.21
  -3  13   6    8.59    8.93
  -3  13   5    7.57    8.96
  -3  13   4   11.12    9.00
   3  13  -4    5.00   13.25
  -3  13   3    8.33    9.08
   3  13  -3    9.68   12.95
  -3  13   2    5.75    9.11
   3  13  -2   14.77   13.51
   3  13  -1   12.45   13.40
  -3  13   0    6.90    9.11
   3  13   0    5.75   12.63
  -3  13  -1   10.61    9.60
   3  13   1   23.73   12.61
  -3  13  -2    7.52    9.56
  -3  13  -3    3.46    9.48
  -3  13  -4   14.73   10.95
  -3  13  -5    5.66   10.32
  -3  13  -6    4.55   10.82
  -3  13  -7   14.14   12.28
  -3  13  -8    5.30   12.83
  -3  14   5   40.81   10.56
  -3  14   4   51.99   11.91
  -3  14   3   34.89   10.40
   3  14  -3   50.51   15.95
  -3  14   2   30.04   10.69
   3  14  -2   54.18   16.19
   3  14  -1   59.01   15.57
  -3  14   0   42.40   11.06
   3  14   0   45.07   15.20
  -3  14  -1   27.92   11.20
  -3  14  -2   42.84   11.80
  -3  14  -3   37.98   11.48
  -3  14  -4   41.17   12.57
  -3  14  -5   35.86   12.33
   3  15  -1    2.24   14.30
  -4 -15  -1   12.64   10.26
  -4 -15  -2   -0.39   10.33
  -4 -15  -3   -4.10   10.55
  -4 -14   1   59.93   11.93
  -4 -14   0   60.78   12.47
  -4 -14  -1   44.52   10.94
  -4 -14  -2   38.74   11.24
  -4 -14  -3   32.83   10.53
  -4 -14  -4   42.89   11.88
  -4 -13   2    1.94    9.03
  -4 -13   1    4.45   10.04
  -4 -13   0    5.54    9.58
  -4 -13  -1    0.99    9.46
  -4 -13  -2   -0.95    9.36
  -4 -13  -3    6.20    9.73
  -4 -13  -4   -3.54   10.94
   4 -13   4   -2.91   15.96
  -4 -13  -5   13.89   10.96
  -4 -12   2  130.70   12.91
  -4 -12   1  215.75   15.33
  -4 -12   0  186.97   14.33
  -4 -12  -1  121.82    6.96
  -4 -12  -1  139.99   13.56
  -4 -12  -2  178.82    9.93
  -4 -12  -2  172.43   14.12
  -4 -12  -3  149.97   10.30
  -4 -12  -3  131.48   13.27
  -4 -12  -4   96.60   13.37
   4 -12   4   77.54   18.59
  -4 -12  -5   84.05   12.37
   4 -12   5   64.09   18.12
  -4 -12  -6   81.44   14.14
   4 -12   6   42.56   16.51
  -4 -11   2   16.02    8.46
  -4 -11   1   14.35    9.73
  -4 -11   0    9.84    9.04
   4 -11   0    4.17   12.09
  -4 -11  -1    9.05    4.43
  -4 -11  -1    5.13    9.11
   4 -11   1   17.44   12.67
  -4 -11  -2    4.99    5.00
  -4 -11  -2   -1.79    8.87
   4 -11   2   18.68   12.68
  -4 -11  -3    6.95    6.51
  -4 -11  -3    0.62    9.15
   4 -11   3   17.10   11.70
  -4 -11  -4    9.98    9.81
  -4 -11  -4   10.03    7.59
   4 -11   4   17.28   11.17
   4 -11   4    6.38   14.68
  -4 -11  -5   -3.67    8.00
  -4 -11  -5    4.62   10.01
   4 -11   5    0.47   14.54
  -4 -11  -6    5.12   12.19
   4 -11   6    2.56   14.07
  -4 -11  -7   12.40   12.29
   4 -11   7   11.72   15.18
  -4 -10   2  208.59   14.49
  -4 -10   1  211.38   15.47
  -4 -10   0  195.58   14.88
   4 -10   0  203.16   18.14
  -4 -10  -1  125.95   12.43
  -4 -10  -1  120.51    6.72
  -4 -10  -2  220.33   10.70
  -4 -10  -2  189.11   14.19
   4 -10   2  226.84   19.12
  -4 -10  -3  192.98   11.25
   4 -10   3  181.00   16.38
  -4 -10  -4  120.24   10.16
  -4 -10  -4  111.17   12.80
   4 -10   4   91.42   17.87
  -4 -10  -5  161.69   12.15
   4 -10   5  166.39   12.56
  -4 -10  -5  154.53   14.77
   4 -10   6  105.53   10.76
   4 -10   6   96.55   17.93
  -4 -10  -6  140.85   14.97
  -4 -10  -7   67.17   13.45
   4 -10   7   71.01   17.99
   4 -10   8   47.67   16.63
  -4  -9   2   27.56    8.90
  -4  -9   1   34.24    9.63
  -4  -9   0    7.58    8.37
   4  -9   0   10.31   10.55
  -4  -9  -1    5.23    8.47
  -4  -9  -1   10.72    4.03
   4  -9   1   18.53   11.14
  -4  -9  -2   13.69    8.99
  -4  -9  -2   18.42    5.53
   4  -9   2   22.96   11.70
  -4  -9  -3    5.95    5.78
  -4  -9  -3    0.65    8.86
   4  -9   3   -0.27   10.18
  -4  -9  -4   13.86    7.42
  -4  -9  -4   16.76    9.69
   4  -9   4   23.82   10.46
   4  -9   4    5.94   13.49
   4  -9   5   42.51    9.43
  -4  -9  -5   12.26    8.44
  -4  -9  -5   11.75   10.48
   4  -9   5   10.15   13.89
   4  -9   6    4.98    8.67
  -4  -9  -6   12.29   11.28
   4  -9   6    8.21   14.10
   4  -9   7   16.37    8.79
  -4  -9  -7    7.84   12.30
   4  -9   7   16.47   13.93
   4  -9   8   10.35   15.28
  -4  -9  -8   15.17   13.38
  -4  -8   5  311.11   19.30
  -4  -8   4  253.04   17.71
  -4  -8   3  400.83   22.14
  -4  -8   2  632.34   25.78
  -4  -8   2  696.15   30.26
  -4  -8   1  821.05   31.14
  -4  -8   0  462.27   20.92
  -4  -8   0  479.66   24.49
  -4  -8  -1  580.37   24.31
   4  -8   1  644.31   29.40
  -4  -8  -1  597.97   28.33
  -4  -8  -2  698.60   22.40
  -4  -8  -2  684.87   27.20
   4  -8   2  717.94   31.31
  -4  -8  -2  669.05   31.34
  -4  -8  -3  432.00   17.21
  -4  -8  -3  407.39   20.65
   4  -8   3  402.11   22.62
  -4  -8  -3  404.17   24.84
  -4  -8  -4  293.14   14.56
  -4  -8  -4  288.07   17.88
   4  -8   4  301.79   19.11
  -4  -8  -4  248.55   19.83
   4  -8   4  306.71   17.91
  -4  -8  -5  337.64   16.61
   4  -8   5  284.90   16.82
  -4  -8  -5  315.65   19.23
  -4  -8  -6  304.17   16.03
   4  -8   6  228.14   15.08
   4  -8   6  228.35   23.56
  -4  -8  -6  311.58   20.65
   4  -8   7   88.14   10.91
   4  -8   7   80.68   17.57
   4  -8   8   84.18   10.04
   4  -8   8   66.12   18.10
  -4  -8  -9  105.88   15.40
   4  -8   9   67.43   18.04
  -4  -7   9    7.30    6.62
  -4  -7   8   25.98    8.13
  -4  -7   7   22.72    8.92
  -4  -7   6   14.53    8.80
  -4  -7   5   30.81   10.03
  -4  -7   4   88.48   12.21
  -4  -7   3   14.21    8.97
  -4  -7   2   11.05    7.61
  -4  -7   2   10.50    9.79
  -4  -7   1  114.49   11.64
  -4  -7   0    9.80    9.83
  -4  -7   0   16.35    8.24
   4  -7   0   18.25    9.67
   4  -7   1   68.00   12.96
  -4  -7  -1   15.84    8.31
  -4  -7  -1    4.83    4.28
  -4  -7  -1   54.89   11.51
  -4  -7  -2   10.37    8.42
   4  -7   2   10.83   10.58
  -4  -7  -2    9.98    4.76
  -4  -7  -2   11.55    9.88
  -4  -7  -3   27.87    9.01
   4  -7   3   16.91   10.72
  -4  -7  -3   33.98    6.82
   4  -7   3   14.18   10.57
  -4  -7  -3   25.31   10.45
  -4  -7  -4   43.19    7.77
   4  -7   4   74.49   11.52
  -4  -7  -4   41.64   10.79
  -4  -7  -4   55.30   13.58
  -4  -7  -5   26.51   12.59
   4  -7   5   32.46    9.72
  -4  -7  -5   24.01   10.29
  -4  -7  -5   29.14    7.59
   4  -7   5   47.61    9.47
  -4  -7  -6   11.61   12.03
   4  -7   6   14.04    8.72
  -4  -7  -6    8.45    8.45
   4  -7   6   16.18    8.26
   4  -7   7   24.80    9.82
  -4  -7  -7   19.16   12.48
   4  -7   7   21.60    9.16
   4  -7   7   33.72   15.24
   4  -7   8   44.13    9.05
   4  -7   8   48.70   17.34
  -4  -7  -8   22.86   12.55
  -4  -7  -8   22.52   12.33
   4  -7   9   22.54   16.39
  -4  -7  -9    9.53   12.26
  -4  -6   9  124.88   10.14
  -4  -6   8  104.21   10.17
  -4  -6   7  151.31   11.30
  -4  -6   6  317.38   17.12
  -4  -6   5  392.26   19.75
  -4  -6   4  352.04   19.44
  -4  -6   3  434.70   22.33
  -4  -6   2  653.23   28.60
  -4  -6   1  524.15   22.43
   4  -6  -1  393.84   21.64
  -4  -6   0  462.59   24.46
  -4  -6   0  541.94   23.51
   4  -6   0  466.07   24.64
  -4  -6  -1  546.53   26.91
  -4  -6  -1  562.70   23.87
   4  -6   1  595.35   28.92
  -4  -6  -2  631.13   29.61
  -4  -6  -2  601.82   20.94
  -4  -6  -2  603.83   25.72
  -4  -6  -3  454.44   17.50
  -4  -6  -3  458.60   21.51
   4  -6   3  441.53   23.81
   4  -6   3  439.15   27.34
  -4  -6  -3  419.90   23.44
  -4  -6  -4  315.89   15.41
   4  -6   4  361.36   27.38
  -4  -6  -4  304.54   19.10
   4  -6   4  357.43   19.87
  -4  -6  -4  337.39   21.11
  -4  -6  -5  432.77   18.79
   4  -6   5  383.05   20.18
   4  -6   5  357.01   27.42
   4  -6   5  426.07   18.58
  -4  -6  -5  389.57   23.01
  -4  -6  -6  330.97   17.43
   4  -6   6  316.55   17.26
   4  -6   6  383.00   17.38
  -4  -6  -6  327.86   21.44
   4  -6   7  199.30   14.50
  -4  -6  -7  208.06   18.80
  -4  -6  -7  168.95   16.41
   4  -6   7  219.64   14.13
   4  -6   8  136.60   20.16
   4  -6   8  118.38   11.15
  -4  -6  -8  121.16   15.72
  -4  -6  -8  108.24   15.27
   4  -6   8  133.35   12.48
   4  -6   9  137.13   21.04
   4  -6   9  156.34   12.24
  -4  -6  -9  128.84   16.62
   4  -6   9  163.22   13.46
  -4  -6 -10   83.78   15.68
   4  -6  10   79.87   18.94
  -4  -5   9   16.13    6.55
  -4  -5   8   36.30    7.34
  -4  -5   7   34.14    8.08
  -4  -5   6   72.65    9.80
  -4  -5   5   38.60    9.12
  -4  -5   4   21.39    8.45
  -4  -5   3   68.07   10.53
  -4  -5   2   82.41   11.41
  -4  -5   1   77.46   10.14
   4  -5  -1  108.59   12.44
  -4  -5   0   63.05   10.01
   4  -5   0   44.20   10.84
  -4  -5  -1  157.59   12.20
   4  -5   1  127.29   15.89
  -4  -5  -2   37.22    6.44
  -4  -5  -2   37.94    9.39
  -4  -5  -3   70.74   11.53
  -4  -5  -3   98.08    8.32
   4  -5   3   67.25   12.31
   4  -5   3   72.70   14.83
  -4  -5  -4   23.03   10.04
   4  -5   4   20.19    9.80
  -4  -5  -4   15.97    6.98
   4  -5   4   10.07   12.45
   4  -5   5   43.87   10.85
   4  -5   5   32.53   14.66
  -4  -5  -5   27.44    8.55
  -4  -5  -5   35.74   10.86
   4  -5   6   83.05   16.23
   4  -5   6   73.58   10.19
  -4  -5  -6   65.25    9.56
   4  -5   6   98.98    9.73
  -4  -5  -6   58.28   12.36
   4  -5   7   52.61   10.89
  -4  -5  -7   38.37   12.08
  -4  -5  -7   27.01   10.38
   4  -5   7   54.83    8.95
   4  -5   8   47.83    9.21
  -4  -5  -8   43.68   11.32
   4  -5   8   35.00    9.19
  -4  -5  -8   51.31   13.23
   4  -5   9   27.23    8.75
   4  -5   9   25.35    9.05
  -4  -5  -9   23.44   12.81
   4  -5  10   21.85   16.69
  -4  -5 -10   29.79   13.59
  -4  -4   9   78.92    7.25
  -4  -4   8  112.27    8.97
  -4  -4   7  220.44   12.90
  -4  -4   6  442.04   19.53
  -4  -4   5  423.46   20.32
  -4  -4   1 1253.28   41.36
  -4  -4   0 1650.45   47.78
   4  -4   0 1229.78   49.25
  -4  -4  -1 1619.58   47.42
   4  -4   1 1218.97   49.70
   4  -4   2 1185.99   45.31
   4  -4   3 1247.60   44.04
   4  -4   3 1176.00   48.83
   4  -4   4  887.40   39.82
   4  -4   4  812.66   31.78
   4  -4   5  472.77   22.41
  -4  -4  -5  511.40   19.91
  -4  -4  -6  441.24   22.48
   4  -4   6  469.55   21.19
  -4  -4  -6  500.14   20.74
   4  -4   6  434.57   17.20
   4  -4   7  255.52   23.84
   4  -4   7  273.02   16.91
   4  -4   7  205.94   11.81
  -4  -4  -7  247.81   16.42
   4  -4   8  141.26   12.42
  -4  -4  -8  173.91   16.39
  -4  -4  -8  139.02   13.34
   4  -4   8  128.71   10.86
   4  -4   9   99.78   11.17
  -4  -4  -9  101.56   15.16
  -4  -4 -10   91.18   15.58
  -4  -4 -11   46.12   14.21
  -4  -3   9   11.07    5.52
  -4  -3   8   26.04    6.49
  -4  -3   7   27.42    7.09
   4  -3  -2   11.83    7.86
  -4  -3   1  114.75   10.37
  -4  -3   0   46.82    9.18
   4  -3   1   93.61   13.76
   4  -3   2   14.86   10.72
   4  -3   2   19.00   11.34
   4  -3   3  127.24   17.05
   4  -3   3  129.50   15.94
  -4  -3  -3  120.67   12.39
  -4  -3  -3  111.50    9.17
   4  -3   4  174.97   19.72
   4  -3   4  177.98   14.62
  -4  -3  -4   96.92   10.57
  -4  -3  -4   80.98   11.71
  -4  -3  -5   57.32    9.04
   4  -3   5   37.74   10.77
   4  -3   5   45.59   13.71
   4  -3   6   47.04   10.42
   4  -3   6   68.87   15.78
  -4  -3  -6    1.10   10.53
  -4  -3  -6   22.59    8.73
   4  -3   6   52.62    7.15
  -4  -3  -7   21.87    9.32
   4  -3   7   43.18   10.18
   4  -3   7   58.96   16.45
  -4  -3  -7    3.79   10.04
  -4  -3  -7   22.56    9.25
   4  -3   7   55.34    7.20
   4  -3   8   33.05    7.11
   4  -3   8   36.25    9.82
   4  -3   8   32.25   14.96
  -4  -3  -8   30.41   11.48
  -4  -3  -8   26.37    9.31
   4  -3   9   25.82   15.87
  -4  -3  -9   19.38   11.63
  -4  -3 -10   25.43   13.20
  -4  -3 -11   12.72   12.94
  -4  -2  10   81.91    6.67
  -4  -2   9   81.83    7.37
  -4  -2   8  160.56   10.17
   4  -2  -2  495.03   24.29
   4  -2  -1  765.91   33.12
   4  -2   2  678.66   33.66
   4  -2   2  767.00   33.81
   4  -2   3 1232.60   44.42
  -4  -2  -3 1180.01   39.90
  -4  -2  -4  982.63   36.02
  -4  -2  -4 1012.83   33.31
   4  -2   5  532.34   29.66
  -4  -2  -5  508.82   21.97
  -4  -2  -5  476.31   22.93
   4  -2   6  419.49   26.10
   4  -2   6  424.30   19.64
  -4  -2  -6  351.86   18.65
   4  -2   7  646.74   35.90
   4  -2   7  532.62   24.54
  -4  -2  -7  658.95   26.40
  -4  -2  -7  620.82   27.96
   4  -2   7  532.86   19.52
  -4  -2  -8  180.36   13.95
   4  -2   8  207.23   21.55
   4  -2   8  182.77   14.30
   4  -2   8  164.96   10.14
  -4  -2  -9   85.06   14.91
  -4  -2  -9  102.29   11.54
   4  -2  10  155.64   20.53
  -4  -2 -10  150.44   17.72
  -4  -2 -11   60.27   15.42
  -4  -1  10   23.25    5.08
  -4  -1   9    6.25    5.12
   4  -1  -3   85.75   10.89
   4  -1  -2   30.38   10.33
   4  -1  -1   23.23   10.83
   4  -1   0  107.26   13.91
   4  -1   1   90.70   13.06
  -4  -1  -1   72.31    9.72
   4  -1   2   49.40   12.59
  -4  -1  -2   31.45    8.74
   4  -1   3   72.08   12.19
   4  -1   3   53.99   12.47
   4  -1   4   61.80   13.65
   4  -1   4   49.02   11.59
   4  -1   5    3.33    8.25
   4  -1   5   -3.44   11.25
  -4  -1  -5   -0.26    8.46
  -4  -1  -5    5.02    7.47
   4  -1   6   71.33   14.97
   4  -1   6   76.09   11.90
  -4  -1  -6   16.52   10.54
  -4  -1  -6   35.41   10.17
   4  -1   7  105.08   17.58
   4  -1   7   89.46   11.77
  -4  -1  -7   41.85   11.39
  -4  -1  -7   45.64   11.22
   4  -1   7   68.34    6.23
   4  -1   8    6.64    4.84
   4  -1   8   12.54   12.31
   4  -1   8    9.65    9.47
  -4  -1  -8    2.28   10.63
   4  -1   9   26.29   14.56
  -4  -1  -9   10.77   12.36
   4  -1  10   71.51   17.56
  -4  -1 -10   16.96   12.33
   4  -1  11   19.32   18.04
  -4  -1 -11    7.60   13.27
  -4  -1 -12    5.52   13.95
   4   0 -10   98.42   12.40
  -4   0  10   83.64    7.24
   4   0  -9   50.91   10.68
   4   0  -4  892.22   35.52
   4   0  -3 1508.92   51.91
   4   0  -2  716.36   32.89
   4   0  -1 1778.62   61.09
   4   0   0 3021.99   90.01
   4   0   0 2723.25   82.67
   4   0   1 2179.57   64.90
   4   0   1 2021.97   66.72
   4   0   2 1044.26   39.29
  -4   0  -2  815.97   32.84
   4   0   3 2135.49   65.70
  -4   0  -3 1834.31   60.56
   4   0   4 1866.70   60.69
  -4   0  -4 2095.96   57.60
   4   0   5  411.84   24.14
   4   0   5  359.23   20.32
  -4   0  -5  384.64   20.83
   4   0   6  479.77   24.07
  -4   0  -6  485.73   24.70
  -4   0  -6  469.55   22.84
   4   0   7  631.91   29.94
  -4   0  -7  677.96   27.50
  -4   0  -7  724.43   26.74
   4   0   8  251.85   21.03
  -4   0  -8  222.67   17.69
   4   0   9   55.89   15.73
  -4   0  -9   43.06   12.07
   4   0  10  162.02   23.42
  -4   0 -10   97.50   14.87
  -4   0 -11   85.46   15.28
  -4   0 -12   -3.87   14.16
  -4   1  10   43.52    6.08
  -4   1   9   11.25    6.19
   4   1  -9   18.19    7.93
   4   1  -8    7.06    7.21
   4   1  -5   -1.51    8.48
   4   1  -4   59.89   10.90
   4   1  -3   92.42   12.98
   4   1  -2   64.27   12.93
   4   1  -1   49.84   12.79
   4   1   0  117.31   12.51
   4   1   0   88.33   15.33
   4   1   1  115.91   12.26
   4   1   1   77.63   14.02
   4   1   2   50.86    9.84
   4   1   2   47.09   12.14
  -4   1  -2   35.73    8.39
   4   1   3   43.15   10.59
  -4   1  -3   18.72    9.77
   4   1   4   48.94   10.54
  -4   1  -4   29.05   10.23
   4   1   5    7.72    9.64
   4   1   5    5.86    8.76
  -4   1  -5    3.63    8.62
   4   1   6   84.36   13.45
   4   1   6  109.93   12.58
   4   1   7   94.50   14.64
   4   1   7   93.79   12.18
  -4   1  -7   42.15   11.54
   4   1   7   44.56    3.98
   4   1   8   13.84   12.55
  -4   1  -8    9.09   10.79
  -4   1  -9    7.01    9.08
   4   1   9   26.94   16.82
  -4   1  -9   12.79   12.31
  -4   1 -10    1.24   13.38
  -4   1 -11    3.51   13.93
  -4   1 -12   -3.89   14.67
  -4   2  10  103.13    7.53
   4   2  -9  204.12   13.01
  -4   2   9  133.77    9.34
   4   2  -8  147.48   10.77
  -4   2   8  158.66   10.83
   4   2  -7  475.20   18.24
   4   2  -7  423.78   25.22
   4   2  -6  360.85   22.75
   4   2  -5  361.04   22.82
   4   2  -4  860.45   37.20
   4   2  -3 1116.52   45.24
   4   2  -2  700.89   33.04
   4   2  -1  679.65   26.59
   4   2  -1  714.47   36.26
   4   2   0 1932.77   57.83
   4   2   0 2032.96   68.04
   4   2   1 1031.46   35.21
   4   2   1 1031.15   42.55
   4   2   2  621.34   25.63
  -4   2  -2  600.49   26.59
   4   2   3 1253.28   41.45
   4   2   3 1162.36   44.20
  -4   2  -3 1188.16   41.62
   4   2   4 1052.57   37.80
  -4   2  -4 1013.23   38.75
   4   2   5  480.44   23.93
  -4   2  -5  498.25   25.04
   4   2   6  428.23   23.26
   4   2   6  399.46   21.18
   4   2   7  663.60   31.18
   4   2   7  640.68   28.16
  -4   2  -7  658.04   29.14
   4   2   8  250.15   22.05
  -4   2  -8  210.26   17.04
  -4   2  -8  195.79   14.42
  -4   2  -9   90.69   14.47
  -4   2  -9   82.12   11.60
  -4   2 -10  138.09   17.06
  -4   2 -11   59.33   14.48
  -4   2 -12   23.89   15.24
  -4   3  10   31.18    5.80
  -4   3   9   13.56    5.87
   4   3  -9   15.39   13.47
  -4   3   8   28.82    6.71
   4   3  -8   30.91    7.39
   4   3  -8   19.12   13.49
   4   3  -7   72.22    6.87
   4   3  -7   41.73   12.62
  -4   3   7   48.06    7.19
   4   3  -6   51.10    5.16
   4   3  -6   55.10   14.04
  -4   3   6   51.15    8.24
   4   3  -5   29.07   12.33
   4   3  -4  184.35   18.74
   4   3  -3  116.55   15.24
   4   3  -2    4.98   11.76
   4   3  -2   13.37    5.21
   4   3  -1  128.55    8.85
   4   3  -1  100.19   15.67
   4   3   0   54.06    6.99
   4   3   0   58.29   12.60
   4   3   1   60.70    7.86
   4   3   1   92.44   13.73
   4   3   2   17.77    6.64
   4   3   2   10.86    9.91
   4   3   3  126.38   10.70
   4   3   3  105.54   13.24
  -4   3  -3  101.38   11.93
   4   3   4  154.86   12.79
   4   3   4  154.72   14.45
   4   3   5   37.93    9.72
   4   3   5   39.98   10.49
  -4   3  -5   47.10   10.33
   4   3   6   53.53   11.84
  -4   3  -6   45.12   11.55
  -4   3  -7   13.93    8.27
   4   3   7   38.25   13.25
  -4   3  -7   27.92   12.21
  -4   3  -8   18.12    9.23
  -4   3  -8   27.06   11.68
  -4   3  -9    4.65    8.42
  -4   3  -9    5.15   11.00
  -4   3 -10   30.22   13.23
  -4   3 -11   13.32   12.43
  -4   4  10   48.45    6.44
  -4   4   9   67.74    7.80
   4   4  -9   60.06   18.63
   4   4  -8  156.21   11.91
   4   4  -8  126.49   18.93
  -4   4   8  121.74    9.46
   4   4  -7  209.94   11.65
   4   4  -7  221.89   21.55
  -4   4   7  173.01   11.08
   4   4  -6  506.05   15.91
   4   4  -6  468.87   28.46
   4   4  -5  418.59   12.56
   4   4  -5  400.26   25.55
  -4   4   5  364.03   17.44
   4   4  -4  715.96   33.48
  -4   4   4  684.38   26.60
   4   4  -3 1281.29   49.01
   4   4  -2  991.91   26.60
   4   4  -2 1181.50   43.90
   4   4  -1 1250.21   34.68
   4   4  -1 1556.92   50.09
   4   4   0 1325.36   37.66
   4   4   0 1441.21   49.07
   4   4   1 1389.53   41.62
   4   4   1 1664.97   52.29
   4   4   2  961.33   31.41
   4   4   2 1090.06   38.16
   4   4   3 1095.52   36.72
   4   4   3 1182.79   40.88
   4   4   4 1116.26   38.07
   4   4   4 1120.57   39.66
  -4   4  -4  987.73   37.14
  -4   4  -4  985.93   35.48
   4   4   5  490.59   23.39
   4   4   5  498.30   23.14
  -4   4  -5  439.54   22.12
  -4   4  -5  407.60   20.23
   4   4   6  547.14   24.31
  -4   4  -6  521.85   24.14
  -4   4  -7  284.34   19.10
  -4   4  -7  275.61   16.38
  -4   4  -8  178.19   17.50
  -4   4  -8  137.27   12.45
  -4   4  -9   88.34   11.46
  -4   4  -9  116.41   15.66
  -4   4 -10   80.20   15.75
  -4   4 -11   53.07   14.74
  -4   5  10   14.14    5.71
  -4   5   9   24.10    6.51
  -4   5   8   34.12    7.22
   4   5  -8   53.71   17.53
   4   5  -7   67.35    7.59
   4   5  -7   59.41   15.71
  -4   5   7   36.32    7.02
   4   5  -6  124.13   16.50
  -4   5   6   95.92    8.80
   4   5  -5   60.55   15.03
  -4   5   5   50.76    8.41
   4   5  -4   56.76   13.72
  -4   5   4   53.56    8.29
   4   5  -3   84.34   15.48
  -4   5   3   52.04    8.26
   4   5  -2  155.73   15.97
   4   5  -1   97.34   14.07
  -4   5   0   36.21    8.03
   4   5   0   53.02   11.95
   4   5   1  154.23   14.51
  -4   5  -1  144.78   11.89
   4   5   2   68.95   12.04
  -4   5  -2   45.09    9.02
   4   5   3  128.61   14.35
  -4   5  -3   83.32   10.01
  -4   5  -4   17.59    7.71
   4   5   4   37.55   11.05
  -4   5  -5   23.97    8.36
   4   5   5   45.07   11.79
   4   5   5   37.78    6.23
  -4   5  -6   67.46   11.70
   4   5   6   36.57    3.98
  -4   5  -6   56.50    9.18
  -4   5  -7   40.67    9.18
  -4   5  -7   36.20   10.15
  -4   5  -8   39.87    9.60
  -4   5  -8   36.68   11.33
  -4   5  -9   17.47    9.44
  -4   5  -9   17.70   11.21
  -4   5 -10   15.48   11.87
  -4   6  10   57.86    7.59
  -4   6   9  127.54    9.63
  -4   6   8   88.73    8.78
  -4   6   7  196.73   12.03
   4   6  -7  248.67   22.26
  -4   6   6  283.36   14.73
   4   6  -6  383.30   24.51
   4   6  -5  464.30   25.90
  -4   6   5  349.63   16.84
   4   6  -4  457.38   23.77
  -4   6   4  320.40   15.98
   4   6  -3  445.77   22.79
  -4   6   3  373.67   17.79
   4   6  -2  790.61   32.92
   4   6  -1  537.41   26.08
   4   6   0  498.03   23.57
  -4   6   0  463.66   20.79
   4   6   1  579.97   25.30
  -4   6  -1  485.82   22.02
   4   6   2  828.51   31.59
  -4   6  -2  548.21   24.48
   4   6   3  561.33   24.83
  -4   6  -3  419.82   20.11
   4   6   4  375.24   20.41
   4   6   4  383.18   15.70
   4   6   5  415.95   15.82
  -4   6  -5  356.98   18.57
  -4   6  -6  248.16   15.42
  -4   6  -7  170.80   13.96
  -4   6  -8   94.30   11.21
  -4   6  -8   87.53   11.65
  -4   6  -9  126.94   13.07
  -4   6  -9  120.39   14.43
   4   7 -10    3.37   13.41
  -4   7  10    4.36    6.57
  -4   7   9   21.23    7.50
  -4   7   8   37.88    7.50
  -4   7   7   15.82    7.16
  -4   7   6   19.81    7.83
   4   7  -6   28.52   12.01
  -4   7   5   42.24    8.52
   4   7  -5   64.93   12.44
  -4   7   4   92.91    9.49
   4   7  -4  122.48   13.39
  -4   7   3   14.37    7.10
   4   7  -3    8.84   10.49
  -4   7   2   22.03    7.22
   4   7  -2   19.58   10.78
   4   7  -1  127.31   12.62
  -4   7   0    8.06    6.88
   4   7   0    8.21    9.30
  -4   7  -1   21.02    7.56
   4   7   1   33.91   11.46
  -4   7  -2    9.23    7.50
   4   7   2   34.16   10.65
   4   7   3   34.75    8.53
  -4   7  -3   19.59    7.53
   4   7   3   47.23   10.82
   4   7   4   72.24   12.56
   4   7   4   69.45    9.01
  -4   7  -5   25.38    8.99
   4   7   5   30.04    6.06
  -4   7  -6   11.44    9.00
  -4   7  -7   16.48    9.09
  -4   7  -8   26.55   10.05
  -4   7  -9   14.80   10.93
  -4   8  10   16.90    6.95
   4   8  -9   39.94   14.28
  -4   8   9   46.68    8.78
   4   8  -8   65.47   15.35
  -4   8   8   61.02    8.83
  -4   8   7   45.38    8.20
  -4   8   6  181.42   13.24
   4   8  -6  214.94   14.91
  -4   8   5  226.72   14.19
   4   8  -5  303.96   16.75
  -4   8   4  213.77   14.41
   4   8  -4  261.31   16.08
  -4   8   3  328.73   17.50
   4   8  -3  388.84   18.87
  -4   8   2  503.72   22.36
   4   8  -2  607.31   24.10
   4   8  -1  925.69   34.42
  -4   8   0  381.62   19.40
   4   8   0  496.91   22.18
   4   8   1  769.90   28.65
   4   8   1  844.80   30.58
   4   8   2  895.87   32.86
   4   8   2  915.90   31.11
   4   8   3  473.25   22.96
   4   8   3  523.33   21.59
  -4   8  -4  240.79   16.19
   4   8   4  340.54   15.85
  -4   8  -5  259.22   16.91
   4   8   5  301.89   13.31
  -4   8  -6  252.37   16.22
  -4   8  -7   69.05   10.95
  -4   8  -8   73.11   12.32
  -4   8  -9  101.84   14.84
  -4   9   9   17.47    8.01
  -4   9   8   27.57    9.05
   4   9  -8   17.46   13.74
   4   9  -7    1.03   13.18
  -4   9   7   12.18    7.83
   4   9  -6    8.89   12.19
  -4   9   6   22.52    8.36
  -4   9   5   54.99    9.46
   4   9  -4   35.12    9.12
  -4   9   4   23.74    8.63
   4   9  -3    8.34   11.87
   4   9  -3   13.31    8.62
  -4   9   3   10.25    7.82
   4   9  -2   33.34   11.89
   4   9  -2   48.01    9.56
  -4   9   2   33.67    8.94
   4   9  -1   33.15   11.33
   4   9  -1   44.94    9.25
   4   9   0    5.55   11.05
   4   9   0   20.66   10.04
  -4   9   0    6.12    8.26
   4   9   1   18.96   11.36
   4   9   1   26.12   10.41
  -4   9  -1    8.16    8.87
   4   9   2   27.99   10.96
   4   9   2   34.10   10.62
  -4   9  -2   12.70    8.74
   4   9   3    6.48    9.20
  -4   9  -3    5.41    7.96
  -4   9  -4   11.96    8.63
   4   9   4   25.69    8.58
  -4   9  -5   13.58    9.46
   4   9   5   16.01    7.48
  -4   9  -6    8.22    9.16
  -4   9  -7   17.21   10.09
  -4   9  -8   17.35   12.55
  -4  10   9   38.50    9.01
  -4  10   8   53.00   10.12
   4  10  -7   79.81   16.59
  -4  10   7   70.60   10.99
  -4  10   6   71.29   11.30
   4  10  -6   73.02   16.30
  -4  10   5  137.64   12.92
  -4  10   4  127.44   12.48
   4  10  -4  171.45   17.55
   4  10  -3  152.12   11.53
   4  10  -3  173.87   17.76
   4  10  -2  287.90   15.50
   4  10  -2  288.52   20.32
   4  10  -1  228.38   14.31
   4  10  -1  249.47   20.08
   4  10   0  217.11   14.65
   4  10   0  235.37   18.51
  -4  10  -1  105.11   12.77
   4  10   1  197.68   16.92
  -4  10  -2  189.41   15.94
   4  10   2  326.48   18.78
  -4  10  -3  137.09   13.52
   4  10   3  208.15   14.91
  -4  10  -4   77.98   12.09
   4  10   4  131.17   12.16
  -4  10  -5  156.65   14.69
  -4  10  -6   98.42   12.89
  -4  10  -7   68.49   13.46
  -4  10  -8   55.05   14.08
  -4  11   9   14.39    8.71
  -4  11   8   11.71    8.71
  -4  11   7    8.61    9.48
   4  11  -6   32.50   15.05
  -4  11   6   15.11    9.49
  -4  11   5    8.14    9.04
   4  11  -4   25.53   14.57
  -4  11   4   21.18    9.89
   4  11  -3    5.40   12.76
  -4  11   3   11.56    9.37
   4  11  -2   10.75   12.92
  -4  11   2   18.22    9.35
   4  11  -1    8.47   13.76
   4  11   0   -0.86   12.46
  -4  11   0   -0.67    8.74
   4  11   1   14.61   12.61
  -4  11  -1    7.29    9.62
  -4  11  -2   11.12   10.20
   4  11   2   15.87   11.60
  -4  11  -3    2.15   10.17
   4  11   3    5.58   11.23
  -4  11  -4    1.68   10.10
   4  11   4   18.39   10.10
  -4  11  -5   -0.50   10.90
  -4  11  -6    7.89   12.19
  -4  11  -7   14.62   12.35
  -4  11  -8    5.72   13.35
  -4  12   8   20.12   10.01
  -4  12   7   27.66    9.89
  -4  12   6   28.55   10.56
  -4  12   5   70.63   12.55
  -4  12   4   85.90   12.58
   4  12  -4  141.87   18.83
  -4  12   3   94.63   13.77
   4  12  -3  152.63   19.01
  -4  12   2  119.30   14.22
   4  12  -2  219.76   20.46
   4  12  -1  326.96   23.97
  -4  12   0  126.18   14.26
   4  12   0  253.22   20.18
  -4  12  -1  161.70   16.29
   4  12   1  275.73   20.52
  -4  12  -2  157.11   15.67
   4  12   2  278.19   19.25
  -4  12  -3  144.50   15.89
   4  12   3  193.36   16.64
  -4  12  -4   79.97   14.23
  -4  12  -5   76.51   14.87
  -4  12  -6   73.90   14.66
  -4  12  -7   29.88   12.68
  -4  12  -8   23.84   13.51
  -4  13   5   13.87   10.36
   4  13  -4   10.11   17.20
  -4  13   4    3.18   10.15
   4  13  -3   35.13   18.28
  -4  13   3    5.16   10.85
  -4  13   2   12.56   10.96
   4  13  -2   24.53   15.50
   4  13  -1   15.39   14.98
  -4  13   0    3.64   11.07
   4  13   0   10.57   14.90
  -4  13  -1    5.03   11.19
   4  13   1    9.37   14.54
  -4  13  -2    4.60   11.82
   4  13   2   14.83   13.85
  -4  13  -3    9.62   12.40
  -4  13  -4    0.27   11.48
  -4  13  -5    6.00   12.11
   4  14  -2   73.00   18.59
   4  14  -1   72.60   17.04
   4  14   0   78.92   18.09
   4  14   1   78.45   17.01
  -5 -14  -1   23.90   13.42
  -5 -14  -2   33.27   12.74
  -5 -13   1    0.20   10.35
  -5 -13   0    8.92   11.59
  -5 -13  -1    9.54   12.60
  -5 -13  -2    8.81   11.28
  -5 -13  -3    5.98   11.92
  -5 -12   1   71.46   12.22
  -5 -12   0   87.63   13.43
  -5 -12  -1   63.71   13.45
  -5 -12  -2   84.77   13.16
  -5 -12  -3   66.03   13.57
  -5 -12  -4   36.50   13.82
  -5 -11   1    4.36    9.93
  -5 -11   0    9.21   10.72
  -5 -11  -1    7.03   11.40
  -5 -11  -2    1.17   10.51
  -5 -11  -3   -1.82   12.13
  -5 -11  -4   -6.08   13.26
   5 -11   4    0.56   17.39
  -5 -11  -5    2.59   12.92
  -5 -10   1  108.01   13.17
  -5 -10   0   57.36   12.65
  -5 -10  -1   59.77   12.91
  -5 -10  -2   83.39   12.81
  -5 -10  -3   62.16    8.35
  -5 -10  -3   49.31   12.76
   5 -10   4   45.56   13.59
  -5 -10  -4   36.69   13.27
  -5 -10  -4   47.16    9.17
   5 -10   5   61.90   12.76
  -5 -10  -5   47.00   14.48
   5 -10   5   50.29   18.91
  -5 -10  -6   60.55   15.44
   5 -10   6   49.42   19.97
  -5  -9   1   25.76   10.47
  -5  -9   0    2.68   10.50
  -5  -9  -1    5.17   11.26
   5  -9   2   24.76   14.68
  -5  -9  -2    2.18    9.82
   5  -9   3    1.72   13.13
  -5  -9  -3    3.25   11.44
  -5  -9  -3    3.96    6.55
   5  -9   3   -6.15   15.88
   5  -9   4   17.61   13.03
  -5  -9  -4   -0.87   12.93
  -5  -9  -4    5.91    8.10
   5  -9   5   15.22   10.99
  -5  -9  -5   10.31   13.32
  -5  -9  -5    2.87    8.64
   5  -9   6   -5.04   11.84
  -5  -9  -6    3.62   12.67
   5  -9   7   24.65   17.67
  -5  -9  -7    2.86   15.10
  -5  -8   1  149.28   14.07
  -5  -8   0  161.45   15.19
   5  -8   1  148.52   19.61
  -5  -8  -1  158.10   15.71
   5  -8   2  257.19   22.26
  -5  -8  -2  220.49   16.49
   5  -8   3  131.49   18.60
  -5  -8  -3  139.37   10.37
  -5  -8  -3  137.83   15.54
   5  -8   3   94.34   19.32
   5  -8   4   87.22   14.69
  -5  -8  -4   88.51   10.30
  -5  -8  -4   74.79   14.28
   5  -8   4   91.99   20.60
   5  -8   5  112.33   14.08
  -5  -8  -5  148.15   12.98
  -5  -8  -5  138.04   17.08
  -5  -8  -6   96.39   16.00
   5  -8   6   68.99   13.18
  -5  -8  -7   42.79   15.51
  -5  -7   1   49.42   10.94
   5  -7   0   26.75   14.32
  -5  -7   0   19.15   10.47
   5  -7   1   22.08   14.42
  -5  -7  -1   16.73   11.15
   5  -7   2    8.01   14.20
  -5  -7  -2   13.28    9.78
   5  -7   3    5.92   13.34
  -5  -7  -3    2.50   10.59
   5  -7   3    0.53   14.40
  -5  -7  -3    5.04    6.55
   5  -7   4   33.22   13.15
  -5  -7  -4   16.13   12.08
   5  -7   4   37.82   18.82
  -5  -7  -4    8.86    8.45
   5  -7   5   35.29   12.11
  -5  -7  -5   18.07   12.98
   5  -7   5   28.30   17.23
  -5  -7  -5   29.23   10.06
   5  -7   6    0.78   11.30
   5  -7   6    9.41   17.58
  -5  -7  -8   14.71   15.43
   5  -6  -1  106.94   16.16
  -5  -6   1  152.76   14.20
  -5  -6   0   34.94   11.33
   5  -6   0   41.29   14.17
  -5  -6   0   46.60   11.24
  -5  -6  -1   78.50   13.21
   5  -6   1  118.77   17.87
  -5  -6  -1  116.45   14.36
   5  -6   2  107.33   18.53
  -5  -6  -2  124.05   13.55
   5  -6   3   97.24   16.87
  -5  -6  -3   83.93   13.00
   5  -6   3   69.47   19.97
  -5  -6  -4   74.60   10.11
   5  -6   4   64.44   14.27
  -5  -6  -4   64.25   12.69
   5  -6   4   75.42   20.47
   5  -6   5  132.92   23.26
   5  -6   5  105.20   15.38
  -5  -6  -5  110.53   12.33
   5  -6   6  144.06   23.40
   5  -6   6  103.97   14.47
   5  -6   6  121.19   13.10
   5  -6   7   31.27   18.95
  -5  -6  -7   36.54   14.95
  -5  -6  -8   35.35   16.30
  -5  -5   6   25.50    9.04
  -5  -5   5   12.13    9.23
  -5  -5   4   29.92   10.06
   5  -5  -1   22.22   12.05
  -5  -5   1   37.18    9.60
   5  -5   0   11.50   12.16
  -5  -5   0   10.06    9.74
   5  -5   1   20.60   13.65
  -5  -5  -1   23.55   10.69
   5  -5   2    9.97   13.42
  -5  -5  -2   11.54   10.85
   5  -5   2   11.40   12.96
   5  -5   3   41.59   15.79
  -5  -5  -3   50.23   11.55
   5  -5   3   58.05   19.22
  -5  -5  -4   28.02   11.72
   5  -5   4   25.56   14.00
   5  -5   4   42.13   18.54
  -5  -5  -4   15.67    7.82
   5  -5   5   21.63   12.25
   5  -5   5   28.27   18.78
  -5  -5  -5    9.33   11.72
  -5  -5  -5   14.16    9.14
   5  -5   6   12.22   11.99
   5  -5   6   38.69   19.98
  -5  -5  -6    4.27   12.95
   5  -5   6   21.36    9.31
   5  -5   7   19.53   20.06
  -5  -5  -7    4.35   12.68
   5  -5   7   26.41    8.86
   5  -5   8   19.75    9.94
   5  -5   8   20.10   20.91
  -5  -5  -8   14.92   13.97
   5  -5   9    5.22   20.57
  -5  -5  -9   11.76   16.11
  -5  -4   9   27.51    7.17
  -5  -4   8   23.02    7.93
  -5  -4   7   67.50   10.28
  -5  -4   6   70.26   10.88
   5  -4  -3  133.79   15.73
   5  -4   0  324.91   25.50
  -5  -4   0  373.61   20.75
   5  -4   1  199.48   21.50
  -5  -4  -1  259.93   17.64
   5  -4   2  246.97   24.82
  -5  -4  -2  218.12   17.49
   5  -4   3  280.31   27.95
   5  -4   3  216.05   22.73
   5  -4   4  201.87   25.21
   5  -4   4  174.76   18.84
   5  -4   5  132.57   24.60
   5  -4   5  125.58   16.48
  -5  -4  -5  143.09   12.34
  -5  -4  -6   66.05   13.64
   5  -4   6   84.94   13.95
  -5  -4  -6  106.99   13.06
  -5  -4  -6  109.56   16.46
   5  -4   6   81.44   21.89
  -5  -4  -7   85.31   13.35
  -5  -4  -7  114.74   16.36
   5  -4   7  132.76   24.65
   5  -4   7   73.87   10.31
   5  -4   8   27.84    9.29
  -5  -4  -8   36.11   11.19
   5  -4   8   38.11   21.64
  -5  -4  -8   48.30   15.36
   5  -4   9   44.15   21.48
  -5  -4  -9   28.16   14.84
  -5  -3   9    6.37    6.35
  -5  -3   8   22.15    7.21
   5  -3  -4   43.86   11.23
   5  -3  -3   39.48   11.19
   5  -3  -2    2.58    9.86
  -5  -3   0   52.72   11.11
   5  -3   1   44.00   15.80
   5  -3   2    4.63   14.28
   5  -3   2    7.21   14.48
   5  -3   3   52.40   16.00
   5  -3   3   30.30   18.58
   5  -3   4   46.26   13.87
   5  -3   4    8.06   17.63
  -5  -3  -4    1.13    9.98
   5  -3   5   52.36   14.41
   5  -3   5   86.60   21.33
   5  -3   6   26.60   12.68
   5  -3   6   34.46   20.29
  -5  -3  -6   10.35   12.10
  -5  -3  -6   10.92    9.70
   5  -3   7   52.11   20.99
  -5  -3  -7   12.67   14.24
   5  -3   7   41.93    8.22
   5  -3   8   46.13   20.52
  -5  -3  -8   49.97   14.55
  -5  -3  -8   33.91   10.46
   5  -3   8   37.61    9.37
   5  -3   9   21.18   19.11
  -5  -3  -9    6.96   14.72
  -5  -3 -10    7.83   16.09
  -5  -2   9   15.99    6.62
   5  -2  -5   32.11   11.02
   5  -2  -4  105.83   14.64
   5  -2  -3  165.74   17.55
   5  -2  -2   31.83   11.89
   5  -2  -1  112.84   18.00
   5  -2   1  169.14   21.19
   5  -2   2    6.57   14.67
  -5  -2  -2    1.14   10.67
   5  -2   3  255.64   27.10
   5  -2   3  160.51   19.69
   5  -2   4  315.24   30.11
   5  -2   4  239.84   24.30
   5  -2   5   39.57   15.18
   5  -2   5   46.14   20.07
  -5  -2  -5    1.46   11.70
   5  -2   6   74.03   13.71
  -5  -2  -6    3.46   13.57
  -5  -2  -7  127.42   17.30
   5  -2   7  108.67    9.54
   5  -2   8   88.14   22.53
  -5  -2  -8   83.33   15.65
   5  -2   8   58.35    9.15
   5  -2   9   48.33   19.44
  -5  -2  -9   20.91   15.74
   5  -2  10   56.11   20.46
  -5  -2 -10   45.02   16.82
   5  -1  -5   14.85   10.99
   5  -1  -4   31.52   11.71
   5  -1  -3   95.40   15.48
   5  -1  -2   13.51   12.22
   5  -1  -1    9.15   12.49
   5  -1   0   18.55   16.50
   5  -1   0   59.76   14.64
   5  -1   1   25.29   16.45
  -5  -1  -1   -0.27    9.68
   5  -1   2   20.88   14.60
  -5  -1  -2    0.29   10.23
   5  -1   3  124.47   19.23
   5  -1   3   83.73   20.28
   5  -1   4   47.34   16.20
   5  -1   4   32.76   16.73
  -5  -1  -4    0.32   11.23
   5  -1   5    1.77   13.29
   5  -1   5    7.95   16.80
  -5  -1  -5   -0.30   10.79
   5  -1   6   81.93   19.46
  -5  -1  -6   33.22   12.63
  -5  -1  -7   15.85   12.51
   5  -1   7   24.06    6.70
   5  -1   8    8.58   16.82
  -5  -1  -8   -2.42   13.34
   5  -1   8    6.52    6.87
   5  -1   9   23.32   18.64
  -5  -1  -9    8.14   13.97
   5  -1  10   58.12   19.96
  -5  -1 -10   11.28   15.19
  -5   0  10   14.46    7.98
   5   0  -6   49.97   13.95
   5   0  -5   32.25   12.77
   5   0  -4  159.30   18.23
   5   0  -3  250.79   22.23
   5   0  -2  126.99   18.02
   5   0  -1  132.10   19.79
   5   0   0  735.43   37.39
   5   0   0  598.15   39.38
   5   0   1  367.04   26.31
   5   0   1  263.12   28.81
   5   0   2  123.16   19.65
  -5   0  -2    9.10   12.30
   5   0   3  415.12   27.92
  -5   0  -3   10.48   19.35
   5   0   4  416.30   28.27
   5   0   4  279.16   23.09
   5   0   5   94.11   18.38
  -5   0  -5   93.52   15.07
   5   0   5   69.91   14.79
   5   0   6   51.10   17.18
  -5   0  -6   41.51   13.18
   5   0   7  206.20   23.26
  -5   0  -7  190.69   17.84
   5   0   8   31.76    5.93
   5   0   8   63.31   17.97
  -5   0  -8   71.38   14.09
   5   0   9   42.53   18.16
  -5   0  -9    8.47   13.05
   5   0  10   36.33   19.91
  -5   0 -10   53.35   15.40
  -5   0 -11   35.36   16.11
  -5   1  10   46.62    8.60
  -5   1   9   18.96    8.54
   5   1  -6   70.79   15.57
   5   1  -5   14.22   12.97
   5   1  -4   30.17   15.30
   5   1  -3  151.41   19.85
   5   1  -2   32.25   14.82
   5   1  -1   -9.54   16.45
   5   1  -1   -6.07   11.89
   5   1   0   37.72   18.30
   5   1   0   70.69   14.35
   5   1   1    8.17   16.76
   5   1   1   24.88   13.12
   5   1   2   23.74   15.90
   5   1   2   24.17   12.88
  -5   1  -2   -0.26    8.81
   5   1   3  109.89   17.07
  -5   1  -3   31.99   11.74
   5   1   4   22.53   13.98
  -5   1  -4    6.95   10.09
   5   1   5   18.70   13.28
   5   1   5   18.20   12.42
  -5   1  -5   12.55   11.83
   5   1   6   57.95   15.58
  -5   1  -6   42.73   13.93
   5   1   7   47.75   15.91
  -5   1  -7   20.17   14.04
   5   1   8    4.20    4.45
   5   1   8   10.91   14.76
  -5   1  -8    7.64   13.21
   5   1   9   21.37   18.29
  -5   1  -9    6.49   13.52
   5   1  10   54.39   19.92
  -5   1 -10   33.32   14.89
  -5   1 -11   17.56   15.16
  -5   2  10   36.19    7.37
  -5   2   9   27.58    8.06
  -5   2   8   56.61    9.83
   5   2  -7   80.95   17.93
   5   2  -6  121.92   18.89
   5   2  -5   45.51   16.71
   5   2  -4  166.20   21.76
   5   2  -3  274.19   24.02
   5   2  -2   34.25   17.23
   5   2  -2   67.19   12.78
   5   2  -1  118.39   14.39
   5   2  -1  116.42   22.32
   5   2   0  318.86   21.06
   5   2   0  283.57   30.31
   5   2   1  241.69   18.53
   5   2   1  230.73   25.45
   5   2   2   22.31   11.04
   5   2   2   34.47   15.70
   5   2   3  134.58   20.22
  -5   2  -3  136.29   15.44
   5   2   4  277.50   22.37
  -5   2  -4  265.37   19.36
   5   2   5   46.42   13.02
  -5   2  -5   33.36   12.27
   5   2   6  126.94   16.95
  -5   2  -6   75.03   14.91
   5   2   7  117.46   16.54
  -5   2  -7  149.38   18.38
  -5   2  -8   95.34   17.26
   5   2   8   87.89   18.03
  -5   2  -9    9.41   10.18
   5   2   9   47.63   19.09
  -5   2  -9   17.27   14.75
  -5   2 -10   58.73   16.65
  -5   2 -11   46.37   16.77
  -5   3  10   22.98    7.21
  -5   3   9   16.80    7.58
  -5   3   8   18.35    7.76
   5   3  -7   73.51   19.36
  -5   3   7   60.51   10.17
   5   3  -6   57.05    7.33
   5   3  -6   55.95   18.47
   5   3  -5   42.85   17.06
   5   3  -4   77.16   17.50
   5   3  -3  130.52   12.86
   5   3  -3   76.59   19.13
   5   3  -2   16.29   16.56
   5   3  -2   36.69   10.22
   5   3  -1   86.85   11.56
   5   3  -1   91.47   22.21
   5   3   0   74.81   10.86
   5   3   0  105.26   20.81
   5   3   1   75.10   11.19
   5   3   1   84.35   18.13
   5   3   2    7.61    9.38
   5   3   2    4.01   16.27
   5   3   3   25.97   10.60
   5   3   3   27.73   15.21
   5   3   4   28.72   11.58
   5   3   4   27.11   13.69
  -5   3  -4   15.97   10.64
   5   3   5   52.55   12.91
  -5   3  -5   54.51   12.33
   5   3   6   26.90   13.63
  -5   3  -6   18.49   12.52
  -5   3  -7   11.49    9.04
   5   3   7   40.42   16.83
  -5   3  -7   22.77   12.83
  -5   3  -8   31.99   10.40
   5   3   8   42.86   15.89
  -5   3  -8   40.58   14.37
  -5   3  -9   10.12   10.29
  -5   3  -9    1.38   13.69
  -5   3 -10    0.70   14.07
  -5   3 -11    7.43   15.52
  -5   4  10   14.99    7.41
  -5   4   9   24.66    8.00
  -5   4   8   12.47    8.11
   5   4  -8   24.04   22.81
   5   4  -7  102.48   24.19
  -5   4   7   71.29    9.69
   5   4  -6  130.15    7.95
   5   4  -6   98.63   20.94
   5   4  -5  107.89    5.48
   5   4  -5  118.83   21.23
   5   4  -4  258.23   10.46
   5   4  -4  190.87   25.70
   5   4  -3  247.60   10.90
   5   4  -3  243.75   26.10
   5   4  -2  301.13   13.21
   5   4  -2  351.90   30.55
   5   4  -1  200.41   11.91
   5   4  -1  212.21   24.81
   5   4   0  472.99   19.85
   5   4   0  608.65   33.06
   5   4   1  243.23   14.32
   5   4   1  269.97   24.70
   5   4   2  221.22   14.86
   5   4   2  291.78   23.79
   5   4   3  287.62   17.52
   5   4   3  276.31   22.49
   5   4   4  204.78   15.82
   5   4   5  156.24   16.66
   5   4   6   93.06   15.74
  -5   4  -6   76.72   13.93
  -5   4  -6   71.86   11.22
  -5   4  -7  116.55   14.79
  -5   4  -7   87.96   11.82
  -5   4  -8   33.67   10.84
  -5   4  -8   42.09   13.85
  -5   4  -9   26.81   10.66
  -5   4  -9   27.82   13.89
  -5   4 -10   35.30   14.90
  -5   5  10   13.92    7.51
  -5   5   9   18.36    8.14
  -5   5   8   17.67    8.02
  -5   5   7   13.68    7.71
   5   5  -7   69.70   22.50
  -5   5   6   25.18    9.06
   5   5  -6   42.47   22.16
  -5   5   5   30.68    8.78
   5   5  -5   55.72   20.61
  -5   5   4   45.55    9.41
   5   5  -4   75.61   20.89
  -5   5   3   35.46    9.34
   5   5  -3   73.72   20.98
  -5   5   2   32.90    9.55
   5   5  -2   80.75   19.87
   5   5  -1   50.96   15.86
   5   5   0    8.31    5.80
   5   5   0   13.03   15.06
   5   5   1   24.59    7.27
   5   5   1   14.25   14.99
  -5   5  -2    7.46    8.71
   5   5   2    9.67    7.66
   5   5   2   29.15   13.79
   5   5   3   56.29   10.25
  -5   5  -3   36.67    9.85
   5   5   3   56.87   13.97
  -5   5  -4   11.68    8.93
  -5   5  -5    9.36    8.83
   5   5   6   10.94    6.75
  -5   5  -6   12.36    9.53
  -5   5  -7    9.95    8.76
  -5   5  -8   12.25    9.94
  -5   5  -8   19.12   12.27
  -5   5  -9    4.64   10.06
  -5   5  -9    8.35   12.69
  -5   5 -10   11.72   12.00
  -5   6   9   34.62    8.65
  -5   6   8   40.77    9.40
  -5   6   7   28.85    8.59
   5   6  -6  172.69   26.16
  -5   6   6   86.78   10.26
   5   6  -5  183.28   26.02
  -5   6   5   80.20   10.24
   5   6  -4  139.84   21.56
  -5   6   4   71.95   10.66
   5   6  -3  168.90   20.67
  -5   6   3   96.47   11.39
   5   6  -2  191.42   21.30
  -5   6   2   87.95   11.01
   5   6  -1  203.52   21.42
  -5   6   0   41.84    9.04
   5   6   0   67.61   16.50
   5   6   1  173.80   18.90
  -5   6  -1  114.43   12.37
   5   6   2  186.28   18.38
  -5   6  -2   97.33   11.74
  -5   6  -3   76.94   10.93
  -5   6  -4   65.70   10.86
  -5   6  -5   69.03   11.39
   5   6   5   83.48   10.48
   5   6   6   70.66    7.77
  -5   6  -6   94.50   11.84
  -5   6  -7   26.72   10.15
  -5   6  -8   32.35   10.70
  -5   6  -9   51.64   12.62
  -5   7   9   11.54    8.30
  -5   7   8   22.32    8.40
  -5   7   7   23.72    9.19
  -5   7   6    4.37    8.70
  -5   7   5   34.90    9.20
   5   7  -5   91.90   17.68
  -5   7   4   35.55    8.83
   5   7  -4   82.00   16.33
  -5   7   3   15.35    8.70
   5   7  -3   33.03   16.22
  -5   7   2   10.37    8.29
   5   7  -2   -1.72   14.64
   5   7  -1   44.12   14.21
  -5   7   0   15.13    8.68
   5   7   0   33.38   13.47
  -5   7  -1   12.16    9.31
   5   7   1   29.55   13.83
  -5   7  -2    5.35    8.94
  -5   7  -3    1.98    8.30
   5   7   4   20.56   10.05
  -5   7  -4    7.19    8.66
   5   7   5   30.31    9.15
  -5   7  -5   15.90    9.62
  -5   7  -6   -0.22    8.50
   5   7   6    4.61    6.35
  -5   7  -7    4.73   10.31
  -5   7  -8   20.48   11.11
  -5   8   9   15.17    8.94
  -5   8   8   12.66    8.91
  -5   8   7   29.75    9.11
  -5   8   6   38.31   10.21
  -5   8   5   84.82   11.34
  -5   8   4   75.37   11.16
   5   8  -4  110.92   16.78
   5   8  -3  115.68   17.01
  -5   8   3   61.13   10.06
   5   8  -2  240.14   19.36
  -5   8   2  160.44   13.88
   5   8  -1  226.59   18.66
   5   8   0  222.74   19.53
  -5   8   0  110.78   12.37
   5   8   1  203.21   17.73
  -5   8  -1  113.30   12.57
  -5   8  -2  195.59   15.04
   5   8   3  162.97   15.73
  -5   8  -3  106.64   12.77
  -5   8  -4   45.78   10.59
   5   8   4   90.15   12.24
  -5   8  -5  110.44   13.23
   5   8   5  160.22   12.45
  -5   8  -6   68.77   12.42
   5   8   6   64.04    7.96
  -5   8  -7   37.21   11.52
  -5   8  -8   26.49   12.86
  -5   9   9   17.02    9.72
  -5   9   8   16.09    9.32
  -5   9   7    3.77    8.87
  -5   9   6    4.90    9.48
  -5   9   5   22.24    9.10
  -5   9   4   26.35   10.08
  -5   9   3   -0.65    9.33
   5   9  -3    7.91   11.16
  -5   9   2   19.08    9.79
   5   9  -2   27.67   12.95
   5   9  -1   34.95   13.49
   5   9   0   -6.80   13.41
  -5   9   0   -2.99    9.20
   5   9   0    6.39   11.53
   5   9   1   -0.58   13.19
  -5   9  -1   -4.61    9.15
   5   9   2    2.11   12.12
  -5   9  -2    8.90    9.75
   5   9   3    1.92   11.35
  -5   9  -3    3.36   10.01
   5   9   4   19.81   11.04
  -5   9  -4    7.88   10.29
  -5   9  -5    2.25   10.54
   5   9   5   18.18    9.37
  -5   9  -6    0.25   10.11
  -5   9  -7   11.47   11.72
  -5   9  -8    4.05   12.53
  -5  10   9   19.20   10.33
  -5  10   8   37.10   11.73
  -5  10   7   18.48    9.92
  -5  10   6   44.43   11.43
   5  10  -5   59.12   17.30
  -5  10   5   43.78   11.01
   5  10  -4   56.73   17.39
  -5  10   4   47.36   10.88
   5  10  -3   59.34   16.72
  -5  10   3   42.26   10.67
  -5  10   2   48.37   10.96
   5  10  -2   94.16   17.68
   5  10  -1  174.90   16.24
   5  10  -1  177.74   19.85
   5  10   0   45.49   14.15
  -5  10   0   27.41   10.61
  -5  10  -1   60.93   12.38
   5  10   1  121.42   17.87
  -5  10  -2   70.87   12.70
   5  10   2  125.49   16.52
   5  10   3   83.65   14.28
  -5  10  -3   64.80   11.72
  -5  10  -4   39.21   12.05
   5  10   4   60.71   12.01
  -5  10  -5   58.52   13.07
   5  10   5   69.32   11.10
  -5  10  -6   70.11   12.79
  -5  10  -7   16.16   12.88
  -5  10  -8   23.97   13.90
  -5  11   7    8.97   11.19
  -5  11   6    1.90   10.04
  -5  11   5   13.37   10.74
   5  11  -4    9.10   16.55
  -5  11   4    3.06    9.81
   5  11  -3   30.76   17.44
  -5  11   3   11.87   10.28
   5  11  -2   -3.08   16.77
  -5  11   2   13.02   10.79
   5  11  -1   11.06   15.27
   5  11   0   13.66   15.68
  -5  11   0    6.08   10.54
   5  11   1    5.90   14.50
  -5  11  -1   -0.26   10.54
   5  11   2    9.32   13.45
  -5  11  -2    4.29   11.31
  -5  11  -3    5.11   10.58
   5  11   3   16.73   12.25
  -5  11  -4    6.34   10.69
   5  11   4    6.32   11.82
  -5  11  -5   -2.12   11.49
  -5  11  -6    4.91   11.87
  -5  11  -7   -1.16   12.91
   5  12  -3   77.59   20.00
  -5  12   3   33.30   11.92
  -5  12   2   57.65   12.57
   5  12  -2  121.83   20.18
   5  12  -1  123.81   20.14
  -5  12   0   63.66   13.03
   5  12   0  123.66   19.88
  -5  12  -1   53.58   12.57
   5  12   1  102.03   19.22
  -5  12  -2   70.30   13.25
   5  12   2  155.32   18.05
   5  12   3  109.56   16.38
  -5  12  -3   65.24   13.96
   5  12   4   67.03   14.29
   5  13  -1    9.02   17.32
   5  13   0   20.36   16.83
   5  13   1   18.58   16.43
   5  13   2    5.96   15.73
   5  13   3   12.43   15.10
   5  14   1   51.55   19.23
   5  14   2   44.87   18.97
  -6 -13   0    4.99   12.91
  -6 -13  -1    3.36   13.37
  -6 -12   0   51.62   13.56
  -6 -12  -1   52.68   14.14
  -6 -12  -2   61.66   15.42
  -6 -11   0    8.09   11.50
  -6 -11  -1    6.72   13.25
  -6 -11  -2   11.73   13.53
  -6 -11  -3   -2.41   13.90
  -6 -10   0   94.01   14.22
  -6 -10  -1   84.56   15.01
  -6 -10  -2   97.77   16.29
  -6 -10  -3  101.92   16.55
  -6 -10  -4   61.62   15.09
  -6  -9   0    5.91   11.49
  -6  -9  -1    1.12   12.18
  -6  -9  -2   10.82   13.63
   6  -9   2    2.30   17.64
  -6  -9  -3   10.70   14.18
   6  -9   3    3.95   19.81
  -6  -9  -4    0.63   13.43
   6  -9   4    3.30   20.78
  -6  -8   0  157.88   15.87
  -6  -8  -1  205.46   18.55
   6  -8   2  206.73   25.54
  -6  -8  -2  216.74   19.73
   6  -8   3  174.86   27.47
  -6  -8  -3  193.25   19.38
  -6  -8  -4  119.09   17.65
   6  -8   4  104.70   26.16
  -6  -8  -5  128.67   18.67
   6  -8   5  105.40   26.62
  -6  -7   0   11.82   12.31
  -6  -7  -1    6.24   11.94
  -6  -7  -2    8.54   12.73
   6  -7   2    7.51   17.61
  -6  -7  -3   22.84   14.66
   6  -7   3   14.52   21.63
  -6  -7  -4   14.65   13.75
   6  -7   4    0.70   21.33
   6  -7   5   -0.76   23.73
  -6  -7  -5   -2.41   13.76
   6  -7   6   25.19   24.21
  -6  -7  -6    7.56   15.15
  -6  -6   0  257.18   19.76
  -6  -6  -1  263.46   19.96
   6  -6   2  199.13   27.39
  -6  -6  -2  277.45   20.07
   6  -6   3  246.69   32.03
  -6  -6  -3  223.66   20.08
   6  -6   4  163.25   28.45
  -6  -6  -4  190.41   19.32
   6  -6   5  256.10   34.09
   6  -6   6  204.16   32.01
  -6  -5   0   18.08   11.28
  -6  -5  -1   21.15   11.42
  -6  -5  -2   11.74   12.40
   6  -5   2    9.78   19.25
  -6  -5  -3   11.22   13.42
   6  -5   3   14.26   21.38
   6  -5   4    8.47   23.91
   6  -5   5   20.39   25.58
   6  -5   6   42.45   27.34
  -6  -5  -6    9.79   13.09
   6  -5   7   10.25   26.32
  -6  -5  -7    5.91   15.75
   6  -4   1  606.67   37.24
  -6  -4  -1  501.25   26.04
   6  -4   2  513.83   39.76
  -6  -4  -2  397.33   24.67
   6  -4   3  518.11   41.22
   6  -4   4  452.27   42.41
   6  -4   5  371.08   38.52
  -6  -4  -5  248.90   21.48
   6  -4   6  292.78   38.08
  -6  -4  -6  212.30   20.67
  -6  -4  -7  128.22   19.00
   6  -4   7  141.48   30.86
   6  -4   7   88.72   12.45
   6  -3   1   29.74   21.03
  -6  -3  -1   15.86   11.30
   6  -3   2   19.40   22.65
   6  -3   3   44.52   25.56
   6  -3   4   80.86   28.27
  -6  -3  -4   18.21   13.37
   6  -3   5   29.10   27.36
  -6  -3  -5   12.75   15.17
   6  -3   6   35.22   28.77
  -6  -3  -6    1.50   14.16
   6  -3   7   13.15   25.83
  -6  -3  -7   20.09   14.90
   6  -3   7   19.98    9.44
   6  -3   8   13.99   25.18
  -6  -3  -8   13.66   15.51
   6  -2   0  656.36   37.72
   6  -2   1  643.75   43.74
   6  -2   2  442.39   38.26
   6  -2   3  561.48   44.94
  -6  -2  -3  405.76   25.64
   6  -2   4  645.01   45.87
  -6  -2  -4  384.57   25.98
   6  -2   5  418.39   40.48
  -6  -2  -5  278.69   23.79
   6  -2   6  189.80   31.21
  -6  -2  -6  157.50   20.66
   6  -2   7  341.22   37.88
  -6  -2  -7  212.25   21.89
  -6  -2  -8  102.53   18.48
   6  -2   8  158.73   31.20
   6  -1  -1   -5.78   15.39
   6  -1   0   38.50   20.02
   6  -1   1   35.68   22.14
   6  -1   2   21.61   23.90
  -6  -1  -2    1.58   10.39
   6  -1   3   15.16   21.25
  -6  -1  -3    4.46   11.40
   6  -1   4   13.86   23.26
  -6  -1  -4   15.67   12.51
   6  -1   5    8.82   22.33
  -6  -1  -5    9.19   13.62
   6  -1   6   17.18   23.05
  -6  -1  -6    5.71   14.32
   6  -1   7   39.40   24.81
  -6  -1  -7    7.32   16.21
   6  -1   8   16.40   22.45
  -6  -1  -8   -0.41   15.93
  -6  -1  -9   13.64   16.87
   6   0  -1  748.11   41.53
   6   0   0 1059.90   51.50
   6   0   1 1159.31   56.73
   6   0   2  534.27   38.12
   6   0   3  925.93   45.89
  -6   0  -3   22.66   26.74
   6   0   4  891.18   47.17
  -6   0  -4  623.22   32.35
   6   0   5  332.78   32.44
  -6   0  -5  237.87   21.20
   6   0   6  308.54   31.82
  -6   0  -6  209.88   21.24
   6   0   7  219.44   28.75
  -6   0  -7  252.79   23.16
   6   0   8  162.13   26.33
  -6   0  -8  163.47   21.36
  -6   0  -9   43.74   18.50
   6   1  -2   40.76   18.46
   6   1  -1   -3.40   17.24
   6   1   0   68.11   21.64
   6   1   1   57.44   20.22
   6   1   2   11.55   18.89
   6   1   3    4.11   17.39
   6   1   4   15.37   17.43
  -6   1  -4   15.71   13.45
   6   1   5   -2.07   18.35
  -6   1  -5    6.86   12.29
   6   1   6   27.60   17.55
  -6   1  -6   16.77   14.30
   6   1   7   26.98   18.51
  -6   1  -7   12.44   14.64
   6   1   8   32.62   20.62
  -6   1  -8   12.41   15.67
  -6   1  -9    4.03   15.88
  -6   2   9   46.68   10.61
   6   2  -4  386.20   24.94
   6   2  -3  678.91   36.33
   6   2  -2  759.33   38.31
   6   2  -1  590.17   35.26
   6   2   0 1171.44   49.77
   6   2   1  679.83   36.67
   6   2   2  476.59   30.78
   6   2   3  533.19   33.25
   6   2   4  477.04   32.14
   6   2   5  269.65   24.69
  -6   2  -5  232.48   21.43
   6   2   6  177.16   22.86
  -6   2  -6  143.66   17.79
   6   2   7  218.98   24.58
  -6   2  -7  224.32   21.67
   6   2   8  111.16   22.06
  -6   2  -8  104.88   18.54
  -6   2  -9   61.40   17.49
  -6   3   9    8.80    9.78
  -6   3   8    7.34   10.31
  -6   3   7   26.64   10.94
   6   3  -5   19.03   15.65
   6   3  -4   85.29   17.77
   6   3  -3  118.14   19.79
   6   3  -2   49.65   17.14
   6   3  -1   21.94   15.41
   6   3   0   31.18   14.54
   6   3   1   21.33   14.74
   6   3   2    8.83   14.12
   6   3   3   35.85   14.95
   6   3   4   28.56   15.30
   6   3   5   14.24   14.23
   6   3   6   15.91   16.94
  -6   3  -6   13.32   13.57
   6   3   7    7.05   18.16
  -6   3  -7    9.26   14.15
  -6   3  -8    1.40    9.99
   6   3   8   11.73   19.72
  -6   3  -8    5.37   13.98
  -6   3  -9   14.45   15.55
  -6   4   9   31.57    9.37
  -6   4   8   38.58   10.32
  -6   4   7   41.88   10.61
  -6   4   6  137.22   14.16
   6   4  -3  702.29   26.59
   6   4  -2  633.95   26.49
   6   4  -1  679.32   28.60
   6   4   0  502.09   24.49
   6   4   1  663.27   28.64
   6   4   2  408.82   23.32
   6   4   3  392.68   24.57
   6   4   4  355.72   23.79
   6   4   5  222.72   21.60
   6   4   6  233.95   23.35
  -6   4  -6  144.20   14.54
  -6   4  -7   77.26   12.55
  -6   4  -8   87.65   16.43
  -6   4  -8   82.50   12.84
  -6   4  -9   46.78   16.01
  -6   4 -10   33.93   17.01
  -6   5   9    8.16    8.58
  -6   5   8   12.91    9.19
  -6   5   7   21.14   10.38
  -6   5   6   15.86    9.78
  -6   5   5   19.10   10.09
  -6   5   4   27.28   10.67
  -6   5   3   16.50   10.50
  -6   5   2   31.66   11.04
   6   5  -1   36.63    8.80
   6   5   0   19.88    9.13
   6   5   1   18.11   10.07
   6   5   2   16.44   12.60
  -6   5  -3   12.15   10.68
   6   5   3   22.80   12.55
  -6   5  -4    6.31   10.15
   6   5   4   12.26   12.84
  -6   5  -5    7.04   10.08
  -6   5  -6   14.24   10.23
  -6   5  -7    6.11   10.32
  -6   5  -8    9.45   10.42
  -6   6   9   32.35   10.60
  -6   6   8   30.83   10.10
  -6   6   7   69.12   11.44
  -6   6   6   78.46   11.58
  -6   6   5  124.43   13.46
  -6   6   4  127.27   13.59
  -6   6   3  142.01   13.49
  -6   6   2  221.25   16.28
  -6   6   0  209.62   16.14
  -6   6  -1  188.97   15.67
  -6   6  -2  209.31   16.20
  -6   6  -3  142.73   13.91
  -6   6  -4  115.57   13.39
  -6   6  -5  110.63   13.70
   6   6   6   63.75   11.14
  -6   6  -6   72.14   12.21
  -6   6  -7   68.81   12.22
  -6   6  -8   32.30   11.34
  -6   7   9   13.75   10.06
  -6   7   8   15.33   10.41
  -6   7   7   17.49    9.76
  -6   7   6   12.38   10.13
  -6   7   5   23.06    9.76
  -6   7   4   36.66   10.46
  -6   7   3    5.68    9.64
  -6   7   2   17.15   10.86
  -6   7   0    6.75   10.05
  -6   7  -1    0.50   10.22
  -6   7  -2    8.29    9.97
  -6   7  -3   12.57   10.59
  -6   7  -4   10.52    9.86
   6   7   5    1.80   11.66
  -6   7  -5    4.90   10.20
  -6   7  -6    6.69   10.27
  -6   7  -7    5.73   10.94
  -6   7  -8   11.14   11.81
  -6   8   8   20.89   10.80
  -6   8   7   23.11   10.51
  -6   8   6   57.43   11.51
  -6   8   5   59.17   11.40
  -6   8   4   77.69   12.20
  -6   8   3   94.15   12.39
  -6   8   2  132.83   13.51
  -6   8   0   94.38   12.21
  -6   8  -1  137.84   13.75
  -6   8  -2  140.26   13.98
  -6   8  -3  122.39   13.42
   6   8   4  103.47   15.38
  -6   8  -4   85.23   12.63
   6   8   5   97.76   13.72
  -6   8  -5   74.38   12.07
  -6   8  -6   90.17   13.98
  -6   8  -7   38.78   13.54
  -6   8  -8   31.89   12.06
  -6   9   6   10.10   10.88
  -6   9   5   19.69   11.56
  -6   9   4    6.59   10.12
  -6   9   3    8.44   10.08
  -6   9   2   13.44    9.96
  -6   9   0    2.62    9.89
  -6   9  -1    4.33   10.12
   6   9   2   -7.79   16.10
  -6   9  -2    5.29   10.00
   6   9   3    6.65   14.18
  -6   9  -3   11.81   11.05
   6   9   4    3.89   13.61
  -6   9  -4    4.55   10.85
  -6   9  -5   -1.30   11.52
  -6   9  -6   -1.34   12.22
  -6  10   3   37.42   12.02
   6  10  -2   77.94   21.79
  -6  10   2   63.89   13.17
   6  10  -1   89.83   20.05
  -6  10   0   85.15   13.21
   6  10   0   96.43   20.66
   6  10   1   65.23   17.93
  -6  10  -1   44.77   12.14
   6  10   2   96.84   18.86
  -6  10  -2   76.57   13.46
   6  10   3   84.15   17.39
  -6  10  -3   51.06   12.93
   6  10   4   65.07   15.40
   6  11  -2    6.68   18.08
   6  11  -1    3.14   17.51
   6  11   0    9.09   18.91
   6  11   1    1.77   18.19
   6  11   2    3.53   17.03
   6  11   3   14.96   16.60
   6  12   0   80.14   21.18
   6  12   1   90.22   20.60
   6  12   2   86.60   20.55
   6  13   2   13.23   18.02
  -7  -9  -1    6.09   14.73
  -7  -8  -1   43.28   14.63
  -7  -8  -2   62.29   16.03
  -7  -7  -1   11.17   13.87
   7  -7   1   23.47   20.28
   7  -7   2    8.59   23.05
  -7  -7  -2   16.28   13.94
  -7  -7  -3   -2.45   14.99
  -7  -6  -1   61.24   15.34
   7  -6   1   59.64   21.38
   7  -6   2   41.79   26.11
  -7  -6  -2   39.33   13.52
   7  -6   3   60.68   27.12
  -7  -6  -3   58.93   16.64
   7  -6   4   86.49   33.32
   7  -5   0    7.62   18.32
   7  -5   1    1.33   21.10
  -7  -5  -1    8.04   13.09
   7  -5   2    2.23   24.06
  -7  -5  -2    5.31   13.31
   7  -5   3    3.23   26.73
  -7  -5  -3    5.73   14.36
   7  -5   4    9.33   29.98
  -7  -5  -4   16.06   15.54
   7  -5   5   27.73   31.99
   7  -4   0   92.09   22.86
   7  -4   1   60.07   25.27
   7  -4   2   66.60   27.57
  -7  -4  -2   75.79   15.54
   7  -4   3   79.04   33.42
   7  -4   4  104.59   34.90
   7  -4   5  111.77   39.86
  -7  -4  -5   57.28   17.66
   7  -3  -1    7.04   17.37
   7  -3   0    7.57   20.93
   7  -3   1   26.03   24.33
   7  -3   2    2.41   24.77
   7  -3   3   23.45   33.28
   7  -3   4   32.60   32.92
  -7  -3  -4   -3.34   14.51
   7  -3   5    2.02   34.30
  -7  -3  -5   15.24   15.83
   7  -3   6   28.59   36.29
   7  -2  -1   26.14   19.48
   7  -2   0   44.61   24.47
   7  -2   1   93.11   27.18
   7  -2   2   23.64   30.75
   7  -2   3  128.71   35.09
  -7  -2  -3   65.65   16.04
   7  -2   4   83.22   36.69
  -7  -2  -4   62.05   15.19
   7  -2   5   64.51   39.09
  -7  -2  -5   52.12   17.00
   7  -2   6   52.42   36.35
   7  -1  -2    9.88   17.21
   7  -1  -1    1.24   21.06
   7  -1   0   24.50   23.81
   7  -1   1   19.78   29.39
   7  -1   2   16.64   30.45
   7  -1   3   44.09   32.04
  -7  -1  -3   10.61   12.31
   7  -1   4   10.83   30.76
  -7  -1  -4    3.71   14.74
   7  -1   5   -7.86   31.10
  -7  -1  -5    4.36   14.33
   7  -1   6   29.74   32.24
  -7  -1  -6   13.05   16.36
   7   0  -3   92.98   20.43
   7   0  -2   61.08   23.50
   7   0  -1   64.82   24.20
   7   0   0  256.29   35.25
   7   0   1  143.34   33.07
   7   0   2  152.50   34.01
   7   0   3   88.39   33.18
  -7   0  -4   93.88   15.80
   7   0   4  154.10   34.32
   7   0   5   52.73   31.01
  -7   0  -5   39.07   15.14
   7   0   6   53.30   29.07
  -7   0  -6   32.21   15.62
   7   0   7   92.51   28.01
   7   1  -4   18.67   18.86
   7   1  -3  111.48   25.95
   7   1  -2   17.14   22.49
   7   1  -1   38.33   28.45
   7   1   0   32.82   26.93
   7   1   1   27.57   28.18
   7   1   2   -7.90   26.86
   7   1   3    6.29   26.35
   7   1   4    9.44   26.00
   7   1   5   11.38   25.62
  -7   1  -5    6.08   14.35
   7   1   6   46.01   26.68
  -7   1  -6   14.24   15.64
   7   1   7   26.81   25.41
  -7   2   9   14.30   11.23
  -7   2   8   23.10   12.33
   7   2  -2  139.70   34.15
   7   2  -1  145.44   32.28
   7   2   0   93.84   30.30
   7   2   1  160.66   29.67
   7   2   2   36.89   25.19
   7   2   3  101.80   26.04
   7   2   4   93.07   25.83
   7   2   5   60.99   22.38
   7   2   6   45.54   23.27
   7   2   7   46.56   23.75
  -7   3   9    8.06   10.87
  -7   3   8   23.98   12.90
  -7   3   7   19.38   11.92
   7   3  -1   38.25   26.29
   7   3   0   32.79   23.81
   7   3   1   14.15   21.14
   7   3   2   13.66   21.24
   7   3   3   20.87   19.83
   7   3   4   10.95   18.41
   7   3   5   33.51   20.07
   7   3   6    8.56   19.77
  -7   3  -7   -6.72   11.05
   7   3   7   28.90   25.90
  -7   3  -8    8.94   11.66
  -7   4   8   11.11   12.24
  -7   4   7   31.72   11.48
  -7   4   6   12.76   11.58
  -7   4   5   33.32   12.57
   7   4   1  101.47   19.80
   7   4   2  112.28   20.08
   7   4   3   75.52   18.77
   7   4   4  105.88   20.93
   7   4   5   69.65   21.64
  -7   4  -6   20.99   11.65
   7   4   6   44.22   21.52
  -7   4  -7   35.72   12.69
  -7   4  -8   20.97   12.13
  -7   5   7   18.44   12.53
  -7   5   6   18.01   11.31
  -7   5   5   18.47   11.92
  -7   5   4   21.44   11.86
  -7   5   3    4.23   11.80
  -7   5   2   14.57   12.05
  -7   5  -2    4.83   11.21
  -7   5  -3   -2.13   10.82
   7   5   3    8.95   17.03
  -7   5  -4    2.30   10.68
  -7   5  -5    1.26   11.72
  -7   5  -6   -2.16   10.47
  -7   6   5   24.07   11.95
  -7   6   4   27.31   12.56
  -7   6   3   30.85   11.50
  -7   6   2   37.73   12.07
  -7   6   0   21.82   11.21
  -7   6  -1   66.41   13.15
  -7   6  -2   33.13   12.05
  -7   6  -3   36.86   11.35
  -7   6  -4   16.06   11.54
  -7   6  -5   32.45   11.78
  -7   7   3    6.59   11.56
  -7   7   2   12.30   11.89
  -7   7   0    3.67   11.45
  -7   7  -1   -1.05   10.97
  -7   7  -2    6.38   11.14
  -7   7  -3    5.73   11.89
   7   9   2  -10.36   20.35
   7   9   3   -7.98   18.28
   7  10   1    4.85   20.82
   7  10   2   26.09   20.48
   8  -5  -1   19.58   20.36
   8  -5   0    4.61   22.30
   8  -4  -2   78.76   21.74
   8  -4  -1   98.49   26.24
   8  -4   0  135.73   28.51
   8  -4   1  136.66   30.85
   8  -4   2  111.56   34.01
   8  -3  -2    6.02   19.66
   8  -3  -1   -5.12   23.74
   8  -3   0   20.07   25.11
   8  -3   1   29.35   29.85
   8  -3   2   11.01   32.66
   8  -3   3   22.96   37.48
   8  -2  -2  101.58   27.06
   8  -2  -1  137.75   29.22
   8  -2   0  198.62   33.37
   8  -2   1  231.70   39.31
   8  -2   2  212.90   41.69
   8  -2   3  224.26   46.85
   8  -2   4  241.57   50.60
   8  -1  -1   10.60   27.01
   8  -1   0   42.73   32.94
   8  -1   1   50.99   36.36
   8  -1   2   38.90   38.53
   8  -1   3   -3.11   41.67
   8  -1   4   -1.01   40.18
   8   0   0  393.56   46.78
   8   0   1  396.50   50.63
   8   0   2  251.91   48.75
   8   0   3  295.41   47.09
   8   0   4  244.60   47.55
   8   1   1   15.38   40.48
   8   1   2   -4.61   38.11
   8   1   3   16.31   37.42
   8   1   4   10.35   35.95
   8   1   5   26.44   34.52
   8   2   4  194.75   34.76
   8   2   5  119.01   33.41
   0   0   0    0.00    0.00
;
_shelx_hkl_checksum              38725
loop_
_space_group_symop_operation_xyz
'x, y, z'
'-x, y+1/2, -z'
loop_
_atom_site_label
_atom_site_type_symbol
_atom_site_fract_x
_atom_site_fract_y
_atom_site_fract_z
_atom_site_U_iso_or_equiv
_atom_site_adp_type
_atom_site_occupancy
_atom_site_site_symmetry_order
_atom_site_calc_flag
_atom_site_refinement_flags_posn
_atom_site_refinement_flags_adp
_atom_site_refinement_flags_occupancy
_atom_site_disorder_assembly
_atom_site_disorder_group
Br1 Br 0.5022(4) 0.91705(16) 0.77813(16) 0.0585(5) Uani 1 1 d . U . . .
Br2 Br 0.5085(4) 1.10740(15) 0.4562(2) 0.0692(6) Uani 1 1 d . U . . .
Br3 Br 0.5274(5) 0.81802(17) 0.1998(2) 0.0739(7) Uani 1 1 d . U . . .
Br4 Br 1.0030(3) 0.8403(3) 0.5064(2) 0.0686(6) Uani 1 1 d . U . . .
C1 C 0.3827(14) 0.6326(13) -0.0784(16) 0.079(5) Uani 1 1 d D U . . .
H1A H 0.4342 0.6781 -0.0067 0.119 Uiso 1 1 calc R U . . .
H1B H 0.4465 0.5606 -0.0704 0.119 Uiso 1 1 calc R U . . .
H1C H 0.4251 0.6645 -0.1619 0.119 Uiso 1 1 calc R U . . .
C2 C -0.032(3) 0.7566(8) -0.0797(18) 0.118(11) Uani 1 1 d D U . . .
H2A H 0.0208 0.7996 -0.0062 0.178 Uiso 1 1 calc R U . . .
H2B H 0.0105 0.7908 -0.1618 0.178 Uiso 1 1 calc R U . . .
H2C H -0.1901 0.7519 -0.0758 0.178 Uiso 1 1 calc R U . . .
C3 C -0.008(2) 0.5379(11) -0.2035(10) 0.103(9) Uani 1 1 d D U . . .
H3A H 0.0258 0.5727 -0.2867 0.154 Uiso 1 1 calc R U . . .
H3B H 0.0649 0.4680 -0.1989 0.154 Uiso 1 1 calc R U . . .
H3C H -0.1645 0.5272 -0.1970 0.154 Uiso 1 1 calc R U . . .
C4 C 0.024(2) 0.5611(8) 0.0845(8) 0.055(5) Uani 1 1 d D U . . .
H4A H -0.1282 0.5361 0.0841 0.066 Uiso 1 1 calc R U . . .
H4B H 0.1170 0.4971 0.0961 0.066 Uiso 1 1 calc R U . . .
C5 C 0.057(3) 0.6370(13) 0.2012(10) 0.079(5) Uani 1 1 d D U . . .
H5A H 0.2119 0.6564 0.2066 0.095 Uiso 1 1 calc R U . . .
H5B H -0.0252 0.7042 0.1854 0.095 Uiso 1 1 calc R U . . .
N1 N -0.011(3) 0.5909(13) 0.3282(10) 0.081(6) Uani 1 1 d D U . . .
H1D H 0.0132 0.6398 0.3926 0.121 Uiso 1 1 calc R U . . .
H1E H -0.1537 0.5746 0.3250 0.121 Uiso 1 1 calc R U . . .
H1F H 0.0663 0.5302 0.3447 0.121 Uiso 1 1 calc R U . . .
P1 P 0.0825(9) 0.6219(4) -0.0711(5) 0.0621(14) Uani 1 1 d D U . . .
Pb1 Pb 0.50369(9) 0.85388(6) 0.49122(4) 0.03534(10) Uani 1 1 d . U . . .
loop_
_atom_site_aniso_label
_atom_site_aniso_U_11
_atom_site_aniso_U_22
_atom_site_aniso_U_33
_atom_site_aniso_U_23
_atom_site_aniso_U_13
_atom_site_aniso_U_12
Br1 0.0596(12) 0.0666(9) 0.0493(7) -0.0075(7) -0.0060(8) 0.0007(9)
Br2 0.0975(17) 0.0366(6) 0.0736(10) 0.0008(10) 0.0009(11) 0.0062(11)
Br3 0.0936(18) 0.0719(11) 0.0561(9) -0.0118(8) -0.0019(10) -0.0129(11)
Br4 0.0256(8) 0.0882(15) 0.0920(12) -0.0162(9) -0.0033(8) 0.0013(9)
C1 0.052(8) 0.086(8) 0.100(9) 0.008(7) -0.029(6) 0.007(7)
C2 0.16(2) 0.062(10) 0.133(19) 0.031(13) -0.008(18) 0.025(14)
C3 0.098(18) 0.153(18) 0.058(10) -0.016(12) -0.002(11) 0.048(15)
C4 0.059(10) 0.036(6) 0.069(8) 0.004(6) -0.010(8) 0.012(6)
C5 0.052(8) 0.086(8) 0.100(9) 0.008(7) -0.029(6) 0.007(7)
N1 0.093(14) 0.075(10) 0.074(10) -0.014(8) -0.014(10) 0.023(9)
P1 0.068(3) 0.047(2) 0.072(3) 0.0018(18) -0.012(2) -0.001(2)
Pb1 0.0269(2) 0.03548(17) 0.04361(19) -0.0027(2) -0.00190(16) -0.0014(2)
loop_
_atom_type_symbol
_atom_type_description
_atom_type_scat_dispersion_real
_atom_type_scat_dispersion_imag
_atom_type_scat_source
C C 0.0033 0.0016 'International Tables Vol C Tables 4.2.6.8 and 6.1.1.4'
H H 0.0000 0.0000 'International Tables Vol C Tables 4.2.6.8 and 6.1.1.4'
N N 0.0061 0.0033 'International Tables Vol C Tables 4.2.6.8 and 6.1.1.4'
P P 0.1023 0.0942 'International Tables Vol C Tables 4.2.6.8 and 6.1.1.4'
Br Br -0.2901 2.4595 'International Tables Vol C Tables 4.2.6.8 and 6.1.1.4'
Pb Pb -3.3944 10.1111 'International Tables Vol C Tables 4.2.6.8 and 6.1.1.4'
loop_
_geom_angle_atom_site_label_1
_geom_angle_atom_site_label_2
_geom_angle_atom_site_label_3
_geom_angle
_geom_angle_site_symmetry_1
_geom_angle_site_symmetry_3
_geom_angle_publ_flag
Pb1 Br2 Pb1 163.38(7) 2_656 . ?
Pb1 Br4 Pb1 171.52(11) . 1_655 ?
C5 C4 P1 113.9(8) . . ?
N1 C5 C4 114.1(12) . . ?
C3 P1 C4 111.2(6) . . ?
C3 P1 C2 112.0(7) . . ?
C4 P1 C2 110.4(7) . . ?
C3 P1 C1 108.7(7) . . ?
C4 P1 C1 105.6(7) . . ?
C2 P1 C1 108.8(7) . . ?
Br3 Pb1 Br1 173.03(6) . . ?
Br3 Pb1 Br4 89.45(7) . . ?
Br1 Pb1 Br4 88.35(6) . . ?
Br3 Pb1 Br2 91.59(6) . 2_646 ?
Br1 Pb1 Br2 94.93(6) . 2_646 ?
Br4 Pb1 Br2 87.83(8) . 2_646 ?
Br3 Pb1 Br4 95.31(7) . 1_455 ?
Br1 Pb1 Br4 87.71(6) . 1_455 ?
Br4 Pb1 Br4 171.52(11) . 1_455 ?
Br2 Pb1 Br4 85.02(8) 2_646 1_455 ?
Br3 Pb1 Br2 91.93(6) . . ?
Br1 Pb1 Br2 81.58(6) . . ?
Br4 Pb1 Br2 92.88(8) . . ?
Br2 Pb1 Br2 176.413(19) 2_646 . ?
Br4 Pb1 Br2 93.97(8) 1_455 . ?
loop_
_geom_bond_atom_site_label_1
_geom_bond_atom_site_label_2
_geom_bond_distance
_geom_bond_site_symmetry_2
_geom_bond_publ_flag
Br1 Pb1 2.9824(17) . ?
Br2 Pb1 3.045(2) 2_656 ?
Br2 Pb1 3.104(2) . ?
Br3 Pb1 2.963(2) . ?
Br4 Pb1 3.0381(19) . ?
Br4 Pb1 3.0476(19) 1_655 ?
C1 P1 1.828(10) . ?
C2 P1 1.783(10) . ?
C3 P1 1.764(11) . ?
C4 C5 1.506(14) . ?
C4 P1 1.767(10) . ?
C5 N1 1.454(13) . ?
Pb1 Br2 3.045(2) 2_646 ?
Pb1 Br4 3.0476(19) 1_455 ?
