#------------------------------------------------------------------------------
#$Date: 2021-02-04 02:41:16 +0200 (Thu, 04 Feb 2021) $
#$Revision: 261455 $
#$URL: file:///home/coder/svn-repositories/cod/cif/4/13/55/4135581.cif $
#------------------------------------------------------------------------------
#
# This file is available in the Crystallography Open Database (COD),
# http://www.crystallography.net/
#
# All data on this site have been placed in the public domain by the
# contributors.
#
data_4135581
loop_
_publ_author_name
'Merzlyakova, Elena'
'Wolf, Silke'
'Lebedkin, Sergei'
'Bayarjargal, Lkhamsuren'
'Neumeier, B. Lilli'
'Bartenbach, Daniel'
'Holzer, Christof'
'Klopper, Wim'
'Winkler, Bjoern'
'Kappes, Manfred'
'Feldmann, Claus'
_publ_contact_author
;
      Prof. Dr. Clas Feldmann
      Karlsruhe Institute of Technology (KIT), CS
      Institut fuer Anorganische Chemie (AOC)
      Engesserstr. 15, Geb. 30.45
      76131 Karlsruhe 
      Deutschland
;
_publ_section_title
;
 18-Crown-6 Coordinated Metal Halides with Bright Luminescence and
 Nonlinear Optical Effects.
;
_journal_issue                   2
_journal_name_full               'Journal of the American Chemical Society'
_journal_page_first              798
_journal_page_last               804
_journal_paper_doi               10.1021/jacs.0c09454
_journal_volume                  143
_journal_year                    2021
_chemical_formula_moiety         '2(I), C12 O6 Sr'
_chemical_formula_sum            'C12 H24 I2 O6 Sr'
_chemical_formula_weight         581.54
_space_group_crystal_system      monoclinic
_space_group_IT_number           12
_space_group_name_Hall           '-C 2y'
_space_group_name_H-M_alt        'C 1 2/m 1'
_audit_creation_date             2020-03-23
_audit_creation_method
;
Olex2 1.3
(compiled 2020.02.04 svn.rd84adfe8 for OlexSys, GUI svn.r6032)
;
_cell_angle_alpha                90
_cell_angle_beta                 119.99(3)
_cell_angle_gamma                90
_cell_formula_units_Z            2
_cell_length_a                   12.996(3)
_cell_length_b                   10.864(2)
_cell_length_c                   8.0507(16)
_cell_measurement_reflns_used    3745
_cell_measurement_temperature    213(2)
_cell_measurement_theta_max      29.2
_cell_measurement_theta_min      1.15
_cell_volume                     984.5(5)
_computing_cell_refinement       'CELL, SELECT (STOE)'
_computing_data_collection       'EXPOSE (STOE)'
_computing_data_reduction        'INTEGRATE (STOE)'
_computing_molecular_graphics    'Olex2 1.3 (Dolomanov et al., 2009)'
_computing_publication_material  'Olex2 1.3 (Dolomanov et al., 2009)'
_computing_structure_refinement  'SHELXL 2018/3 (Sheldrick, 2015)'
_computing_structure_solution    'SHELXT 2014/5 (Sheldrick, 2014)'
_diffrn_ambient_temperature      213(2)
_diffrn_measured_fraction_theta_full 1.000
_diffrn_measured_fraction_theta_max 0.990
_diffrn_measurement_device_type  'STOE IPDS II'
_diffrn_measurement_method       'image plate'
_diffrn_radiation_type           MoK\a
_diffrn_radiation_wavelength     0.71073
_diffrn_reflns_av_R_equivalents  0.0478
_diffrn_reflns_av_unetI/netI     0.1066
_diffrn_reflns_Laue_measured_fraction_full 1.000
_diffrn_reflns_Laue_measured_fraction_max 0.990
_diffrn_reflns_limit_h_max       17
_diffrn_reflns_limit_h_min       -17
_diffrn_reflns_limit_k_max       14
_diffrn_reflns_limit_k_min       -14
_diffrn_reflns_limit_l_max       11
_diffrn_reflns_limit_l_min       -10
_diffrn_reflns_number            4626
_diffrn_reflns_point_group_measured_fraction_full 1.000
_diffrn_reflns_point_group_measured_fraction_max 0.990
_diffrn_reflns_theta_full        25.242
_diffrn_reflns_theta_max         29.219
_diffrn_reflns_theta_min         2.606
_diffrn_source                   'fine-focus sealed tube'
_exptl_absorpt_coefficient_mu    5.890
_exptl_absorpt_correction_T_max  0.874
_exptl_absorpt_correction_T_min  0.753
_exptl_absorpt_correction_type   numerical
_exptl_absorpt_process_details
'(X-RED, Data Reduction Program, Version 1.61.1, Stoe & Cie GmbH, Darmstadt 2014.; X-SHAPE, Crystal Optimisation for Numerical Absorption Correction, Version 2.17, Stoe & Cie GmbH, Darmstadt 2014.)'
_exptl_crystal_colour            colourless
_exptl_crystal_density_diffrn    1.962
_exptl_crystal_description       prism
_exptl_crystal_F_000             528
_exptl_crystal_size_max          0.13
_exptl_crystal_size_mid          0.09
_exptl_crystal_size_min          0.04
_refine_diff_density_max         0.467
_refine_diff_density_min         -0.455
_refine_diff_density_rms         0.104
_refine_ls_extinction_method     none
_refine_ls_goodness_of_fit_ref   0.641
_refine_ls_hydrogen_treatment    undef
_refine_ls_matrix_type           full
_refine_ls_number_parameters     80
_refine_ls_number_reflns         1400
_refine_ls_number_restraints     0
_refine_ls_restrained_S_all      0.641
_refine_ls_R_factor_all          0.0635
_refine_ls_R_factor_gt           0.0266
_refine_ls_shift/su_max          0.000
_refine_ls_shift/su_mean         0.000
_refine_ls_structure_factor_coef Fsqd
_refine_ls_weighting_details
'w=1/[\s^2^(Fo^2^)+(0.0101P)^2^] where P=(Fo^2^+2Fc^2^)/3'
_refine_ls_weighting_scheme      calc
_refine_ls_wR_factor_gt          0.0365
_refine_ls_wR_factor_ref         0.0393
_reflns_Friedel_coverage         0.000
_reflns_number_gt                761
_reflns_number_total             1400
_reflns_threshold_expression     'I > 2\s(I)'
_cod_data_source_file            ja0c09454_si_012.cif
_cod_data_source_block           SrI2(18-crown-6)
_cod_original_cell_volume        984.4(4)
_cod_database_code               4135581
_shelx_shelxl_version_number     2018/3
_shelx_space_group_comment
;
The symmetry employed for this shelxl refinement is uniquely defined
by the following loop, which should always be used as a source of
symmetry information in preference to the above space-group names.
They are only intended as comments.
;
_olex2_refinement_description
;
1. Others
 Fixed Sof: O1A(0.5) C1A(0.5) O1B(0.5) C1B(0.5) O2(0.5) C3(0.5)
;
_shelx_res_file
;
TITL c2m_nuabs_a.res in C2/m
    sri2_18c6.res
    created by SHELXL-2018/3 at 15:19:48 on 23-Mar-2020
REM Old TITL C2m_nuabs in C2/m
REM SHELXT solution in C2/m
REM R1 0.127, Rweak 0.013, Alpha 0.046, Orientation as input
REM Formula found by SHELXT: C28 I3
CELL 0.71073 12.9957 10.8641 8.0507 90 119.994 90
ZERR 2 0.0026 0.0022 0.0016 0 0.03 0
LATT 7
SYMM -X,+Y,-Z
SFAC C I O Sr
UNIT 24 4 12 2
EQIV $1 +X,1-Y,+Z
EQIV $2 1-X,+Y,1-Z

L.S. 20
PLAN  12
CONF
FREE O2 O1B
FREE O2 O1A
FREE O2 C1B
FREE C3 C3_$2
FREE O1A O1A_$2
FREE O1A C3_$2
FREE O1B O1B_$1
list 4
fmap 2 53
acta
MORE -1
REM <olex2.extras>
REM <HklSrc "%.\\SrI2_18c6.hkl">
REM </olex2.extras>

WGHT    0.010100
FVAR       0.28986
I1    2    0.766731    0.500000    0.870077    10.50000    0.03424    0.05103 =
         0.03611    0.00000    0.01398    0.00000
SR1   4    0.500000    0.500000    0.500000    10.25000    0.02840    0.02389 =
         0.03191    0.00000    0.01512    0.00000
PART 1
O1A   3    0.543649    0.742757    0.489516    10.50000    0.04625    0.02564 =
         0.05713    0.00719    0.02648    0.00139
C1A   1    0.617541    0.628559    0.210998    10.50000    0.06682    0.04455 =
         0.05325    0.00722    0.04713    0.00193
PART 2
O1B   3    0.596184    0.579007    0.288412    10.50000    0.03141    0.03926 =
         0.03671    0.00457    0.01375   -0.00863
C1B   1    0.640989    0.702503    0.315631    10.50000    0.05534    0.04101 =
         0.06100   -0.01225    0.03474   -0.01996
PART 0
O2    3    0.576809    0.669103    0.337820    10.50000    0.03739    0.04102 =
         0.04228    0.00327    0.01937    0.00114
C2    1    0.527204    0.780962    0.297093    11.00000    0.13088    0.02818 =
         0.12332    0.02254    0.09912    0.01165
C3    1    0.494169    0.832039    0.559975    10.50000    0.05266    0.02066 =
         0.09796   -0.00138    0.04498    0.00448
C4    1    0.680284    0.500000    0.284287    10.50000    0.04829    0.06198 =
         0.05688    0.00000    0.03651    0.00000
HKLF 4




REM  c2m_nuabs_a.res in C2/m
REM wR2 = 0.0393, GooF = S = 0.641, Restrained GooF = 0.641 for all data
REM R1 = 0.0266 for 761 Fo > 4sig(Fo) and 0.0635 for all 1400 data
REM 80 parameters refined using 0 restraints

END

WGHT      0.0101      0.0000

REM Highest difference peak  0.467,  deepest hole -0.455,  1-sigma level  0.104
Q1    1   0.7336  0.5608  0.8675  11.00000  0.05    0.47
Q2    1   0.7635  0.5000  0.4216  10.50000  0.05    0.46
Q3    1   0.7183  0.5000  0.1930  10.50000  0.05    0.43
Q4    1   0.5575  1.0000  0.2438  10.50000  0.05    0.41
Q5    1   0.5378  0.8246  0.2234  11.00000  0.05    0.39
Q6    1   0.7745  0.5736  0.7575  11.00000  0.05    0.36
Q7    1   0.7204  0.6851  0.4545  11.00000  0.05    0.32
Q8    1   0.3966  0.5000  0.5199  10.50000  0.05    0.32
Q9    1   0.6429  0.6833  0.6130  11.00000  0.05    0.32
Q10   1   0.6033  0.5000  0.6613  10.50000  0.05    0.32
Q11   1   0.4156  0.8400  0.4457  11.00000  0.05    0.31
Q12   1   0.4140  0.7324  0.1452  11.00000  0.05    0.30
;
_shelx_res_checksum              31267
_shelx_hkl_file
;
   2   0   0   83.89   66.09
  -2   0   0  124.09   67.29
   4   0   0 3047.30   47.90
  -4   0   0 3047.99   47.80
  -6   0   0  343.57   42.40
   6   0   0  371.56   41.40
  -8   0   0  747.23   40.10
   8   0   0  766.42   40.30
 -10   0   0   18.90   40.80
  10   0   0    9.60   39.70
  12   0   0  121.59   38.50
 -12   0   0  138.79   41.50
  14   0   0   -2.50   47.40
 -14   0   0   10.20   46.00
  -1  -1   0  736.93  135.19
  -1   1   0  719.23   61.29
   1  -1   0  740.93   67.69
   1   1   0  750.42  138.39
   3   1   0  344.67   58.29
  -3  -1   0  321.17   58.49
   3  -1   0  337.17   46.30
  -3   1   0  315.87   47.50
  -5   1   0  208.38   45.70
   5  -1   0  234.48   44.50
  -5  -1   0  209.58   49.99
   5   1   0  226.18   53.29
   7  -1   0  864.41   37.10
   7   1   0  859.71   41.90
  -7   1   0  857.11   37.80
  -7  -1   0  834.22   42.70
   9   1   0  114.09   43.50
  -9   1   0  116.59   35.20
  -9  -1   0  104.29   40.90
   9  -1   0   99.79   34.80
 -11   1   0  558.04   40.80
  11   1   0  583.34   41.90
  11  -1   0  562.64   40.90
 -11  -1   0  552.04   41.90
 -13  -1   0   54.49   47.10
  13   1   0   46.00   44.90
  13  -1   0   61.79   43.90
 -13   1   0   57.99   38.60
  15  -1   0  124.59   47.10
 -15   1   0  129.39   49.10
  15   1   0  124.29   53.39
 -15  -1   0  110.69   51.29
   0   2   0 2678.93   78.99
   0  -2   0 2608.54   76.39
  -2   2   0 3085.09   56.29
   2  -2   0 3055.29   51.39
   2   2   0 3176.98  114.39
  -2  -2   0 3233.88  113.49
  -4  -2   0 2205.58   65.59
  -4   2   0 2181.08   46.50
   4   2   0 2298.87   63.39
   4  -2   0 2183.28   45.80
  -6  -2   0  272.17   55.39
  -6   2   0  271.77   38.60
   6  -2   0  250.47   37.70
   6   2   0  289.57   49.30
   8  -2   0  703.03   35.10
  -8  -2   0  714.53   45.00
   8   2   0  737.93   43.70
  -8   2   0  716.73   35.50
 -10  -2   0   -4.80   44.50
  10  -2   0   -9.10   34.70
 -10   2   0    2.40   35.00
  10   2   0    7.00   40.00
  12  -2   0  106.39   36.80
 -12  -2   0   99.09   42.50
 -12   2   0  119.59   40.20
  12   2   0  116.69   46.30
  14   2   0    2.40   52.29
 -14   2   0   -5.20   42.70
 -14  -2   0    2.20   47.80
  14  -2   0   11.50   43.70
  -1  -3   0  166.28   55.99
   1   3   0  151.08   57.19
  -1   3   0  158.38   45.40
   1  -3   0  158.88   44.10
   3   3   0 1467.85   90.09
   3  -3   0 1246.78   43.30
  -3   3   0 1238.98   44.40
   5   3   0   13.60   66.39
   5  -3   0   16.70   39.10
  -5  -3   0    7.70   75.69
  -5   3   0   10.00   40.60
  -7   3   0 1008.20   34.30
   7   3   0 1063.39   49.20
   7  -3   0 1021.10   29.50
  -7  -3   0 1025.10   51.69
   9   3   0   89.89   43.20
  -9   3   0   64.19   34.80
   9  -3   0   84.49   34.10
  -9  -3   0   83.99   49.30
 -11   3   0  469.05   36.40
  11  -3   0  449.46   36.40
  11   3   0  505.85   45.50
 -11  -3   0  451.15   49.10
 -13   3   0   52.69   38.60
  13  -3   0   47.60   39.60
  13   3   0   30.90   54.29
 -13  -3   0   43.70   54.19
 -15   3   0  136.69   47.40
 -15  -3   0   93.29   63.29
  15  -3   0   83.79   48.60
   0  -4   0 4313.77   52.89
   0   4   0 4242.48   54.19
   2   4   0  638.24   75.19
   2   4   0  572.24   67.39
  -2   4   0  580.34   44.20
   2  -4   0  593.74   42.20
  -4   4   0 2716.53   45.60
   4   4   0 2919.41  108.59
   4  -4   0 2695.23   43.80
   6  -4   0   56.59   32.50
   6   4   0   51.79   61.69
  -6   4   0   71.39   33.60
  -6  -4   0   46.40   65.79
   8   4   0  483.35   52.39
   8  -4   0  464.55   33.20
  -8  -4   0  468.25   54.49
  -8   4   0  470.05   30.20
 -10  -4   0    0.60   56.39
  10  -4   0   25.10   35.60
  10   4   0   13.60   51.69
 -10   4   0   23.60   36.30
  12  -4   0   45.70   37.30
  12   4   0   60.99   53.69
 -12  -4   0   44.70   54.09
 -12   4   0   70.69   37.00
 -14  -4   0    5.10   62.39
  14   4   0   10.00   63.99
 -14   4   0    6.70   41.80
  14  -4   0   23.40   44.50
   1  -5   0   62.59   45.10
  -1  -5   0   63.49   53.09
  -1   5   0   73.29   41.90
   1   5   0   75.09   58.69
  -3   5   0  193.18   40.60
   3   5   0  225.28   75.49
   3   5   0  244.78   84.19
   3  -5   0  248.08   38.50
   5  -5   0   -4.00   32.30
  -5   5   0    6.80   29.10
   7   5   0  653.33   73.29
  -7   5   0  585.64   33.80
   7  -5   0  572.84   32.70
  -9   5   0   81.99   34.70
   9   5   0  108.69   61.59
  -9  -5   0   99.39   69.69
   9  -5   0  110.89   34.60
 -11   5   0  242.18   36.00
  11   5   0  292.17   60.09
 -11  -5   0  275.77   64.79
  11  -5   0  297.47   36.70
  13   5   0   33.60   70.29
 -13  -5   0   40.20   71.69
 -13   5   0   38.30   35.70
  13  -5   0   72.29   41.00
   0   6   0 1957.40   47.80
   0  -6   0 1951.10   45.90
  -2   6   0  122.79   37.10
   2  -6   0  452.85   35.80
   2   6   0  458.15   51.19
   4   6   0 1248.48   93.99
   4   6   0 1487.75  100.29
   4  -6   0 1253.67   33.80
  -4   6   0 1238.08   31.00
   6  -6   0   64.19   32.20
  -6   6   0   36.80   33.50
   8  -6   0  332.07   33.70
  -8   6   0  388.06   34.80
  10  -6   0    2.80   34.50
 -10   6   0   -8.50   30.90
  12  -6   0   66.29   39.30
 -12   6   0   67.09   34.40
 -14   6   0   16.40   40.00
  14  -6   0    5.80   46.70
   1  -7   0   93.79   38.30
  -1   7   0   24.90   40.10
   1   7   0   84.39   42.50
  -1  -7   0   68.99   40.00
   3   7   0  359.26   57.19
   3  -7   0  388.76   33.80
  -3   7   0  402.66   35.10
   3   7   0  412.36   58.39
  -5   7   0  -25.80   29.30
   5  -7   0   -9.00   31.60
   7  -7   0  359.46   33.30
  -7   7   0  388.76   34.80
  -9   7   0   37.60   35.10
   9  -7   0   31.50   34.00
  11  -7   0  229.48   39.10
 -11   7   0  188.88   38.70
 -13   7   0   16.30   37.60
  13  -7   0   17.20   43.70
   0  -8   0 1057.19   41.30
   0   8   0 1049.59   41.20
   2  -8   0  115.79   36.80
   2   8   0  129.59   46.40
  -2   8   0  127.19   35.30
  -4   8   0  766.92   36.10
   4   8   0  752.22   76.99
   4   8   0  883.81   76.69
   4  -8   0  744.33   34.20
  -6   8   0   25.90   30.70
   6  -8   0   20.60   29.80
   8  -8   0  173.68   30.00
  -8   8   0  192.38   31.30
 -10   8   0   19.00   38.60
  10  -8   0  -25.20   37.10
 -12   8   0    9.00   41.20
  12  -8   0   13.30   43.10
   1   9   0   35.40   43.80
  -1  -9   0   38.00   40.60
  -1   9   0   22.60   40.00
   1  -9   0   34.70   37.00
   3  -9   0  144.79   33.20
  -3   9   0  151.08   35.70
   3   9   0  144.39   57.39
   3   9   0  371.46   55.09
   5  -9   0   -2.50   34.80
  -5   9   0  -12.10   36.80
  -7   9   0  250.77   31.80
   7  -9   0  269.57   35.20
   9  -9   0   28.90   32.50
  -9   9   0    2.60   37.40
 -11   9   0  111.29   37.60
  11  -9   0  104.79   42.40
   0  10   0  461.35   41.10
   0 -10   0  469.05   41.20
  -2  10   0   57.09   39.80
   2  10   0   76.39   49.20
   2 -10   0   70.79   34.00
  -4  10   0  275.97   35.50
   4 -10   0  290.97   34.30
   4  10   0  303.27   72.59
   4  10   0  295.37   75.39
   6 -10   0    4.00   34.20
  -6  10   0   21.40   36.10
  -8  10   0  117.29   33.80
   8 -10   0  101.49   32.50
 -10  10   0   -2.80   42.40
  10 -10   0  -24.80   40.50
   1  11   0   30.90   48.10
  -1  11   0   28.30   37.10
   1 -11   0   22.70   38.60
   3  11   0   89.09   52.69
   3 -11   0   77.69   37.50
   3  11   0   81.79   58.39
  -3  11   0   87.19   36.50
   5 -11   0    2.90   36.00
  -5  11   0    0.60   37.40
  -7  11   0   82.69   38.80
   7 -11   0   85.59   32.40
  -9  11   0  -11.70   37.20
   9 -11   0    3.20   39.90
   0  12   0  284.97   43.40
   0 -12   0  281.97   40.40
   2  12   0   -4.00   50.49
   2  12   0   -3.40   54.69
  -2  12   0   -0.60   38.60
   2 -12   0    3.00   39.10
  -4  12   0  179.28   38.40
   4  12   0  159.38   89.09
   4  12   0  172.38   84.29
   4 -12   0  181.18   36.30
  -6  12   0    8.10   40.90
   6 -12   0    8.80   38.80
  -8  12   0   39.60   42.50
   8 -12   0   62.19   42.50
   1  13   0   17.00   51.59
   1 -13   0   17.70   41.00
  -1  13   0   32.30   45.60
   3  13   0   46.20   64.59
   3 -13   0   43.30   38.50
  -3  13   0   34.10   41.20
   3  13   0   39.80   68.69
   5 -13   0  -22.50   40.20
  -5  13   0   -9.80   42.80
  -7  13   0   19.20   45.90
   7 -13   0   31.40   43.30
   0  14   0   87.19   55.89
   2  14   0    1.60   60.19
  -2  14   0   13.10   48.70
   2 -14   0    8.60   46.20
   2  14   0  -22.90   67.29
  -4  14   0   47.50   46.80
   4 -14   0   39.90   43.00
 -16   0   1   51.29   51.79
  16   0  -1   74.89   53.89
  14   0  -1   19.70   43.70
 -14   0   1   10.80   43.60
  12   0  -1  176.78   40.30
 -12   0   1  156.78   40.00
  10   0  -1    5.60   38.20
 -10   0   1    2.70   39.20
  -8   0   1  185.58   39.90
   8   0  -1  151.58   35.50
  -6   0   1  380.76   46.80
   6   0  -1  360.76   45.90
   4   0  -1  -14.40   45.90
  -4   0   1   -7.20   44.90
  -2   0   1 1041.20   72.89
   0   0  -1  220.68   66.19
   0   0   1  278.37   74.59
   2   0   1 9919.81   68.29
  -2   0  -1 9999.00   69.89
  -4   0  -1  253.67   46.60
   4   0   1  229.48   45.90
   6   0   1 1748.23   39.70
  -6   0  -1 1759.52   44.20
  -8   0  -1  327.07   40.50
   8   0   1  334.87   40.00
 -10   0  -1  498.05   41.20
  10   0   1  509.05   41.20
 -12   0  -1   15.50   42.10
  12   0   1   19.40   40.10
  14   0   1  124.59   51.79
 -14   0  -1  120.69   50.09
  15  -1  -1    2.40   43.50
 -15  -1   1    3.40   50.79
  15   1  -1   -0.90   52.69
 -15   1   1   13.70   47.00
 -13   1   1  222.78   37.30
  13   1  -1  213.78   43.00
  13  -1  -1  217.88   38.00
 -13  -1   1  205.48   42.50
  11   1  -1  105.79   39.60
 -11  -1   1   91.69   39.60
  11  -1  -1  115.69   39.00
 -11   1   1   84.09   35.40
  -9   1   1 1350.96   40.30
   9  -1  -1 1404.76   37.00
   9   1  -1 1410.76   44.80
  -9  -1   1 1377.76   41.40
  -7  -1   1  424.66   48.30
  -7   1   1  420.46   38.00
   7   1  -1  435.16   42.80
   7  -1  -1  394.96   41.30
   5   1  -1 3247.18   55.89
  -5  -1   1 3184.38   54.79
   5  -1  -1 3179.88   46.10
  -5   1   1 3149.98   47.00
  -3  -1   1 1974.10   71.39
  -3   1   1 1984.90   48.00
   3  -1  -1 1986.60   53.39
  -1   1   1 2498.75   74.59
  -1  -1   1 2503.95   89.09
   1   1  -1 2393.56   82.59
   1   1   1   20.50   68.69
   1  -1   1   26.30   50.99
  -1   1  -1   32.20   52.89
  -1  -1  -1   14.20   69.59
   3   1   1 1847.72   47.60
   3  -1   1 1854.71   46.40
  -3   1  -1 1791.82   41.40
  -3  -1  -1 1815.12   53.29
  -5  -1  -1  -13.10   49.50
  -5   1  -1  -12.60   40.40
   5  -1   1  -10.30   39.50
   5   1   1    4.40   46.90
   7  -1   1   90.09   35.40
   7   1   1   89.59   40.30
  -7  -1  -1   73.49   41.00
  -7   1  -1   56.49   36.20
  -9  -1  -1   64.09   40.90
   9  -1   1   66.59   35.70
  -9   1  -1   65.19   36.10
   9   1   1   60.09   39.70
  11  -1   1    3.50   36.60
  11   1   1   -3.70   42.90
 -11   1  -1  -27.10   36.50
 -11  -1  -1    0.00   42.90
 -13   1  -1   90.79   46.10
 -13  -1  -1   79.39   46.30
  13  -1   1   95.29   47.10
  13   1   1  121.49   47.30
 -14   2   1   11.90   38.90
 -14  -2   1   10.90   52.99
  14   2  -1   13.90   50.69
  14  -2  -1    7.50   43.40
 -12  -2   1  214.28   44.20
 -12   2   1  153.28   36.20
  12  -2  -1  176.58   36.60
  12   2  -1  167.88   44.30
  10   2  -1   12.70   42.60
 -10   2   1   34.20   34.90
 -10  -2   1   10.40   43.70
  10  -2  -1   34.40   34.70
   8  -2  -1  258.97   34.50
  -8   2   1  266.67   34.80
  -8  -2   1  258.07   42.30
   8   2  -1  261.27   41.40
   6   2  -1  343.87   56.09
   6  -2  -1  364.16   40.20
  -6   2   1  348.57   40.20
  -6  -2   1  335.87   57.79
   4  -2  -1  -20.00   40.60
  -4   2   1  -16.50   40.60
  -4  -2   1  -15.20   62.49
  -2  -2   1 1271.67   91.29
   2   2  -1 1164.18   85.69
  -2   2   1 1241.38   52.99
   2  -2  -1 1233.38   51.89
   0   2   1 1135.49   66.09
   0  -2  -1 1094.89   66.19
   0  -2   1 1113.29   59.29
   0   2  -1 1102.29   61.49
  -2   2  -1 1830.12   41.20
  -2  -2  -1 1779.62   56.99
   2  -2   1 1826.22   41.00
   2   2   1 1828.32   57.69
  -4  -2  -1  948.31   59.49
  -4   2  -1  955.40   41.40
   4  -2   1  975.10   45.60
   4   2   1  952.40   53.39
   6   2   1 1592.74   47.50
  -6   2  -1 1535.75   37.20
  -6  -2  -1 1576.04   49.10
   6  -2   1 1566.64   36.20
   8  -2   1  243.88   35.00
  -8  -2  -1  251.97   42.60
   8   2   1  257.27   41.70
  -8   2  -1  264.17   36.60
 -10  -2  -1  488.05   45.90
  10  -2   1  525.15   36.30
 -10   2  -1  510.95   36.90
  10   2   1  537.05   42.10
  12   2   1   12.10   44.60
 -12   2  -1   -7.10   38.80
  12  -2   1   17.10   39.50
 -12  -2  -1   28.00   47.20
  14   2   1   92.69   57.79
 -14   2  -1   92.19   46.00
 -14  -2  -1   78.79   55.49
  14  -2   1  106.99   47.80
 -15  -3   1   -9.60   59.19
 -15   3   1  -10.60   42.70
  15  -3  -1    9.30   48.40
  15   3  -1   -2.40   60.19
  13   3  -1  205.08   50.09
 -13  -3   1  186.18   50.39
 -13   3   1  180.68   37.20
  13  -3  -1  184.98   38.60
 -11  -3   1   72.49   48.90
  11  -3  -1   76.09   35.40
  11   3  -1   89.59   47.00
 -11   3   1   50.89   35.20
  -9  -3   1 1110.19   51.99
   9   3  -1 1142.89   49.40
  -9   3   1 1079.49   35.40
   9  -3  -1 1084.19   35.10
   7  -3  -1  428.26   33.80
   7   3  -1  455.75   52.99
  -7   3   1  398.86   34.30
  -7  -3   1  425.96   58.99
   5  -3  -1 2864.11   46.40
  -5   3   1 2843.72   42.00
  -5  -3   1 3039.10  127.99
  -5  -3   1 2550.94  123.19
   3  -3  -1  167.68   40.80
  -3   3   1  149.49   41.00
   3   3  -1  134.29  103.29
  -1  -3   1 3559.24   61.89
   1  -3  -1 3609.64   50.19
   1   3  -1 3514.65   64.99
  -1   3   1 3652.43   50.69
  -1   3  -1  146.89   43.50
   1   3   1  176.28   50.29
   1  -3   1  166.58   41.40
   3  -3   1  944.61   41.30
  -3  -3  -1  949.90   64.89
   3   3   1  939.81   61.89
  -3   3  -1  963.60   43.30
   5  -3   1    9.60   30.90
   5   3   1   11.00   47.40
  -5   3  -1   10.20   32.10
  -5  -3  -1   -3.80   48.90
  -7  -3  -1  261.67   46.40
   7  -3   1  244.28   33.10
  -7   3  -1  269.17   34.40
   7   3   1  269.77   45.40
  -9  -3  -1  107.79   46.10
  -9   3  -1  120.29   36.50
   9  -3   1  115.39   36.20
   9   3   1  120.69   45.10
  11  -3   1  -13.10   37.10
  11   3   1    0.70   45.10
 -11   3  -1    7.40   37.20
 -11  -3  -1   13.50   46.30
 -13   3  -1   64.69   42.20
 -13  -3  -1   66.09   53.09
  13   3   1   76.49   54.99
  13  -3   1   68.89   42.70
 -14  -4   1   12.10   62.79
  14  -4  -1  -10.60   41.60
 -14   4   1   18.20   40.80
  14   4  -1    1.80   61.99
  12   4  -1  123.49   56.39
  12  -4  -1  111.29   36.20
 -12   4   1  111.69   34.90
 -12  -4   1  120.79   58.99
  10  -4  -1    3.70   35.40
  10   4  -1   -8.30   53.99
 -10   4   1   17.00   35.60
 -10  -4   1   -2.70   58.29
  -8   4   1   24.20   32.70
   8   4  -1   46.70   64.89
  -8  -4   1   44.40   71.39
   8  -4  -1   43.10   32.40
  -6   4   1  140.49   34.80
   6  -4  -1  141.59   30.00
  -4   4   1  114.69   43.00
   4  -4  -1  103.49   37.00
  -2   4   1 1669.13   44.20
   2   4  -1 1677.53   69.89
   2  -4  -1 1696.13   42.50
  -2  -4   1 1656.63   62.59
   0   4   1   62.39   44.30
   0   4  -1   61.29   43.70
   0  -4   1   62.89   44.90
   2   4   1 2262.97   68.89
   2  -4   1 2120.79   41.40
  -2   4  -1 2163.28   49.80
  -4  -4  -1  420.46   57.89
   4  -4   1  441.26   36.50
  -4   4  -1  399.46   38.50
   4   4   1  427.06   59.59
   6   4   1 1539.55   54.49
   6  -4   1 1469.95   34.70
  -6  -4  -1 1475.15   54.39
  -6   4  -1 1485.95   35.80
   8   4   1  132.39   45.50
  -8  -4  -1  133.59   48.00
   8  -4   1  143.89   34.70
  -8   4  -1  120.49   36.00
  10  -4   1  366.36   36.60
 -10  -4  -1  352.26   48.90
  10   4   1  365.36   49.90
 -10   4  -1  354.46   37.80
 -12  -4  -1   23.40   54.19
  12  -4   1   42.20   38.40
  12   4   1   52.39   54.19
 -12   4  -1   48.30   39.90
  15  -5  -1    7.30   44.90
 -15   5   1  -10.70   45.40
  13  -5  -1  180.78   39.60
 -13  -5   1  171.28   88.49
 -13   5   1  162.08   38.90
 -11   5   1   19.10   36.50
  11  -5  -1   11.50   36.10
   9  -5  -1  668.03   29.40
  -9   5   1  657.23   29.80
   7  -5  -1  328.27   28.40
  -7   5   1  201.48   32.90
   5  -5  -1 1859.41   32.70
  -5   5   1 1854.01   37.20
  -3  -5   1  255.47   74.39
  -3   5   1  238.38   39.60
   3  -5  -1  260.67   33.90
   3   5  -1  250.77   86.99
   1   5  -1 1721.73   59.29
  -1  -5   1 1716.23   53.79
  -1   5   1 1708.83   47.20
   1  -5  -1 1706.33   43.40
   1   5   1   50.59   47.10
   1  -5   1   39.10   40.20
  -1   5  -1   48.00   43.50
   1   5   1   36.80   56.39
   3  -5   1  448.96   36.10
  -3   5  -1  434.36   38.70
   3   5   1  447.16   57.79
  -5   5  -1   -6.90   29.10
  -5  -5  -1   -5.40   53.79
   5   5   1   -3.60   56.59
   5  -5   1   22.50   27.80
  -7   5  -1   92.39   34.10
   7  -5   1  109.69   32.20
   7   5   1  120.59   51.79
  -7  -5  -1  107.79   56.09
  -9   5  -1   60.19   31.80
  -9  -5  -1   57.59   55.69
   9  -5   1   74.39   35.30
   9   5   1   66.29   53.79
  11   5   1    2.60   59.09
  11  -5   1    9.30   37.70
 -11   5  -1    1.60   33.50
 -11  -5  -1   -1.20   57.99
 -13  -5  -1   45.60   70.59
  13  -5   1   50.89   44.70
  13   5   1   53.79   70.29
 -13   5  -1   53.69   44.30
 -14   6   1    6.20   43.00
  14  -6  -1   30.60   44.30
  12  -6  -1  168.68   38.30
 -12   6   1  166.98   33.60
  10  -6  -1   36.70   34.20
 -10   6   1   23.10   35.20
  -8   6   1  120.79   34.10
   8  -6  -1  109.79   33.40
  -6   6   1  134.19   32.80
   6  -6  -1  138.49   32.40
   4  -6  -1    6.00   32.90
  -4   6   1   18.80   33.60
   2  -6  -1  648.74   36.70
   2   6  -1  649.04   55.89
  -2  -6   1 1134.29   51.29
  -2   6   1  633.94   37.30
   0  -6   1   55.69   41.60
   0   6  -1   39.40   45.60
   0   6   1   57.29   45.70
  -2   6  -1 1241.98   38.30
   2   6   1 1246.78   45.00
   2   6   1 1262.07   50.49
   2  -6   1 1242.48   35.70
   4   6   1  222.68   53.09
   4   6   1  221.68   56.59
   4  -6   1  227.58   27.20
  -4   6  -1  236.68   33.40
  -6   6  -1  975.20   30.80
   6   6   1 1012.30   64.99
   6  -6   1  948.21   33.70
   8   6   1   63.09   61.79
  -8  -6  -1   64.99   68.19
  -8   6  -1   67.39   34.60
   8  -6   1   48.10   29.00
 -10   6  -1  278.17   38.00
  10   6   1  295.97   64.09
  10  -6   1  273.27   37.50
 -10  -6  -1  289.07   67.39
  12   6   1   13.70   77.49
 -12  -6  -1   11.30   83.29
  12  -6   1    3.80   40.30
 -12   6  -1    0.00   41.50
  13  -7  -1  122.79   36.50
 -13   7   1   98.79   40.30
  11  -7  -1    9.30   31.80
 -11   7   1   22.80   36.90
  -9   7   1  413.26   30.50
   9  -7  -1  403.06   29.30
   7  -7  -1  202.08   32.70
  -7   7   1  208.08   33.50
  -5   7   1  885.91   33.20
   5  -7  -1  874.01   29.00
   3   7  -1  138.99   60.59
   3  -7  -1  126.39   33.80
  -3  -7   1  133.19   49.99
  -3   7   1  108.59   38.00
   1  -7  -1  885.11   39.30
  -1  -7   1  936.71   39.40
  -1   7   1  911.71   40.20
   1   7  -1  905.51   46.20
  -1   7  -1   37.10   36.80
   1   7   1   44.50   42.40
   1  -7   1   32.00   34.00
   1   7   1   43.00   41.00
   3   7   1  421.16   48.30
   3  -7   1  403.96   32.50
   3   7   1  433.16   53.69
  -3   7  -1  385.36   35.70
   5   7   1   32.30   61.49
  -5   7  -1   11.30   34.90
   5   7   1   21.60   66.79
   5  -7   1   28.30   28.10
   7   7   1   88.49   74.99
  -7   7  -1   75.49   34.90
   7  -7   1  105.39   33.10
   7   7   1   99.09   83.39
  -9   7  -1   57.29   31.60
   9  -7   1   50.99   34.80
 -11   7  -1   20.10   39.60
  11  -7   1    4.00   35.70
 -12   8   1   57.59   41.10
  12  -8  -1   32.00   41.20
 -10   8   1    4.00   36.40
  10  -8  -1   12.60   35.80
   8  -8  -1   50.49   29.30
  -8   8   1   59.99   34.90
  -6   8   1   85.19   35.10
   6  -8  -1   78.49   34.20
   4   8  -1   41.40   80.29
  -4   8   1   30.50   34.90
   4  -8  -1   43.60   33.90
   2  -8  -1  478.55   33.80
   2   8  -1  512.05   50.79
  -2   8   1  481.95   35.00
  -2  -8   1  490.05   42.20
   0   8  -1   23.40   40.80
   0  -8   1   35.40   37.00
   0   8   1   27.20   38.10
  -2   8  -1  603.64   36.90
   2  -8   1  606.44   37.10
   2   8   1  611.44   46.10
   2   8   1  724.33   47.60
   4  -8   1   88.39   33.60
   4   8   1   92.89   63.59
   4   8   1   90.29   56.49
  -4   8  -1   98.99   35.70
  -6   8  -1  488.85   36.60
   6  -8   1  454.65   34.50
  -8   8  -1   30.80   36.70
   8  -8   1   41.30   35.40
  10  -8   1  148.89   39.70
 -10   8  -1  158.88   39.10
 -12   8  -1   19.80   45.50
  12  -8   1    3.20   46.80
 -13   9   1   61.49   47.00
  11  -9  -1   11.80   39.80
 -11   9   1   15.00   39.30
   9  -9  -1  241.98   30.80
  -9   9   1  237.48   31.90
  -7   9   1   31.30   35.70
   7  -9  -1   -2.40   34.10
  -5   9   1  719.93   36.40
   5  -9  -1  749.62   35.30
   3   9  -1   15.40   56.49
  -3  -9   1   23.70   46.60
   3  -9  -1   16.20   32.90
  -3   9   1   17.00   38.40
   1   9  -1  527.25   43.20
   1  -9  -1  553.24   38.60
  -1  -9   1  548.05   38.90
  -1   9   1  528.05   39.20
   1  -9   1    3.30   33.20
   1   9   1    2.70   42.80
   1   9   1    5.60   42.10
  -1   9  -1   -1.80   41.00
  -3   9  -1  200.18   39.50
   3   9   1  192.98   49.99
   3  -9   1  164.98   33.10
   3   9   1  196.38   53.19
   5   9   1   11.70   83.69
   5  -9   1    1.20   34.10
  -5   9  -1   -8.40   36.70
   5   9   1    2.50   81.79
   7  -9   1   41.70   35.60
  -7   9  -1   41.30   37.40
   9  -9   1   35.10   38.10
  -9   9  -1   41.40   40.40
  11  -9   1    9.60   45.50
 -11   9  -1    4.80   40.20
  12 -10  -1   45.80   40.30
 -12  10   1   26.20   41.00
  10 -10  -1    9.90   34.70
 -10  10   1    4.30   40.40
  -8  10   1   36.10   37.50
   8 -10  -1   40.10   36.20
   6 -10  -1   42.30   34.30
  -6  10   1   43.90   35.80
   4  10  -1    8.80   70.99
  -4  10   1    1.10   35.40
   4  10  -1    8.40   67.19
   4 -10  -1   -2.50   34.60
   2  10  -1  130.39   49.90
   2 -10  -1  147.89   37.10
  -2  10   1  128.39   34.80
  -2 -10   1  124.89   41.20
   0 -10   1    6.40   37.20
   0  10  -1   10.90   41.00
   0  10   1   -5.30   42.70
   2 -10   1  297.37   34.20
   2  10   1  319.67   48.80
  -2  10  -1  315.67   40.90
   2  10   1  346.87   47.60
   4  10   1   46.20   66.59
   4 -10   1   40.60   33.70
   4  10   1   39.90   62.99
  -4  10  -1   45.90   35.50
  -6  10  -1  251.97   36.60
   6 -10   1  272.67   30.90
   8 -10   1   -6.70   38.80
  -8  10  -1    9.40   40.40
  10 -10   1   74.19   45.30
 -10  10  -1   89.49   45.90
 -11  11   1  -26.40   40.30
  -9  11   1  140.49   35.90
   9 -11  -1  123.69   39.50
  -7  11   1   41.60   37.80
   7 -11  -1   27.20   36.20
  -5  11   1  171.58   37.30
   5 -11  -1  183.98   35.80
   3  11  -1   36.80   58.59
   3 -11  -1   48.20   34.20
  -3  11   1    1.20   39.50
   1  11  -1  197.58   46.60
  -1  11   1  186.18   40.50
  -1 -11   1  212.08   41.60
   1  11   1  -16.40   47.40
   1 -11   1   -0.10   38.30
  -1  11  -1   -1.30   41.30
   1  11   1    4.60   42.40
   3 -11   1  111.79   34.20
   3  11   1  112.49   55.49
   3  11   1  108.49   57.09
  -3  11  -1  106.19   40.60
  -5  11  -1   18.00   38.80
   5 -11   1    4.00   36.10
   7 -11   1   29.20   39.00
  -7  11  -1   19.60   41.10
   9 -11   1   34.40   37.80
  -9  11  -1   14.70   43.50
   8 -12  -1   31.40   41.30
  -8  12   1   33.50   37.10
  -6  12   1   25.30   39.30
   6 -12  -1   27.60   38.10
   4  12  -1   13.50   70.69
  -4  12   1   17.00   38.00
   4 -12  -1   26.00   36.10
   4  12  -1    5.90   76.99
  -2  12   1  116.19   38.60
   2  12  -1  126.09   52.89
  -2 -12   1  121.89   43.90
   2 -12  -1  117.49   40.50
   0  12   1   -1.20   42.40
   0 -12   1    6.60   39.60
   0  12   1    6.80   46.70
   0  12  -1   13.00   44.00
   2 -12   1  208.98   39.50
   2  12   1  193.28   54.49
   2  12   1  204.98   50.59
  -2  12  -1  206.88   44.00
   4  12   1    2.10   80.49
   4 -12   1   11.70   37.50
   4  12   1   -8.20   79.09
  -4  12  -1   12.90   40.20
   6 -12   1  123.79   39.70
  -6  12  -1  114.09   42.10
   8 -12   1    4.80   44.60
  -8  12  -1  -11.40   46.70
  -7  13   1  -12.70   44.40
   7 -13  -1   10.70   42.10
  -5  13   1   99.59   46.00
   5 -13  -1   89.39   39.70
   3 -13  -1   13.30   41.60
   3  13  -1   -1.60   61.59
  -3  13   1    0.90   40.20
   3  13  -1    6.30   65.59
   1  13  -1  117.09   53.69
  -1 -13   1  113.69   43.90
  -1  13   1  110.39   45.10
   1  13   1    7.00   55.79
   1 -13   1    3.10   42.10
  -1  13  -1   -0.90   46.60
   1  13   1   -8.70   51.09
   3 -13   1   49.00   43.50
   3  13   1   30.60   66.59
  -3  13  -1   65.79   47.10
   3  13   1   47.30   69.39
  -5  13  -1   -0.50   44.50
   5 -13   1  -12.20   41.60
   4 -14  -1    5.40   46.10
  -4  14   1   -0.70   48.80
  -2  14   1    0.20   50.29
   2  14  -1   27.70   63.39
   0 -14   1   16.30   45.90
   0  14   1   -7.80   50.49
   0  14   1   -8.80   54.09
   0  14  -1   15.40   56.49
   2  14   1   55.49   62.09
  -2  14  -1   80.99   51.49
   2 -14   1   67.19   46.70
   2  14   1   67.49   71.19
  -4  14  -1   -7.20   49.00
  16   0  -2   31.10   54.09
 -16   0   2   18.90   48.80
  14   0  -2  296.67   43.80
 -14   0   2  266.97   42.10
  12   0  -2  139.99   39.90
 -12   0   2  119.29   39.30
  10   0  -2  839.82   35.70
 -10   0   2  862.71   39.00
   8   0  -2  162.68   39.20
  -8   0   2  170.58   35.10
   6   0  -2 1452.45   47.20
  -6   0   2 1439.76   46.10
  -4   0   2   -2.60   38.70
  -4   0   2   -9.80   40.60
   2   0  -2  280.37   53.29
  -2   0   2  291.17   54.69
   0   0  -2   -2.70   49.00
   0   0   2    4.80   41.80
  -2   0  -2  378.76   49.20
   2   0   2  458.85   46.60
   4   0   2 1511.55   41.60
  -4   0  -2 1430.96   43.80
  -6   0  -2   19.30   41.60
   6   0   2   -0.40   35.90
   8   0   2  462.05   36.20
  -8   0  -2  447.96   37.00
  10   0   2   92.99   37.10
 -10   0  -2   92.59   41.50
 -12   0  -2  160.58   45.10
  12   0   2  167.68   47.30
 -15   1   2   20.10   43.20
  15   1  -2    9.60   45.00
 -15  -1   2   21.70   48.60
  15  -1  -2   29.80   45.30
 -13   1   2   10.30   36.50
  13  -1  -2    3.70   37.20
 -13  -1   2    7.40   40.60
  13   1  -2   11.50   44.80
  11   1  -2  182.68   38.70
 -11  -1   2  173.48   38.90
  11  -1  -2  159.88   39.30
 -11   1   2  176.48   39.20
  -9   1   2   19.10   38.50
   9   1  -2   -2.40   40.70
  -9  -1   2   12.70   37.10
   9  -1  -2   13.40   34.50
  -7   1   2 1458.35   39.20
   7   1  -2 1462.65   50.39
  -7  -1   2 1452.95   49.30
   7  -1  -2 1475.45   39.50
  -5   1   2  305.67   40.80
  -5  -1   2  305.97   51.89
  -5  -1   2  294.77   46.70
   5  -1  -2  284.47   42.00
   3   1  -2 4689.43   61.09
  -3   1   2 4495.45   46.80
  -3  -1   2 4571.34   56.19
  -3   1   2 4730.33   53.09
  -1  -1   2 2374.56   57.39
  -1   1   2 2317.47   53.69
   1  -1  -2 2328.27   54.29
   1   1  -2 2445.16   57.19
   1  -1   2 3455.25   45.40
  -1   1  -2 3174.28   45.90
  -1  -1  -2 3100.59   50.09
   1   1   2 3083.39   49.90
  -3  -1  -2  295.67   48.20
   3   1   2  292.37   52.09
   3  -1   2  288.37   45.50
  -3   1  -2  309.37   41.70
  -5  -1  -2 1735.03   41.60
   5  -1   2 1714.63   33.00
   5   1   2 1742.83   40.20
  -5   1  -2 1679.53   33.80
  -7  -1  -2  127.99   41.00
   7  -1   2  106.29   35.80
   7   1   2  113.89   39.20
  -7   1  -2  129.79   37.00
  -9   1  -2  241.48   37.30
   9  -1   2  248.28   36.80
   9   1   2  256.07   37.00
  -9  -1  -2  236.88   37.00
 -11  -1  -2    7.20   43.80
  11   1   2    9.20   44.50
  11  -1   2  -14.00   38.80
 -11   1  -2    0.80   38.30
  13  -1   2   12.80   51.19
 -13  -1  -2   26.00   49.30
 -13   1  -2   49.40   45.90
  13   1   2   49.30   47.00
  16   2  -2    8.50   56.19
 -16   2   2   22.10   43.70
  16  -2  -2   20.40   50.99
 -16  -2   2    7.90   59.19
  14  -2  -2  315.47   38.70
  14   2  -2  332.27   47.10
 -14  -2   2  307.37   46.70
 -14   2   2  307.37   37.90
 -12   2   2   96.69   35.80
  12   2  -2   99.79   43.10
 -12  -2   2   77.89   43.10
  12  -2  -2  105.99   36.10
  10   2  -2  843.92   46.40
 -10   2   2  752.62   35.70
  10  -2  -2  842.32   36.10
 -10  -2   2  845.52   44.10
   8  -2  -2   51.39   33.60
   8   2  -2   44.90   40.70
  -8   2   2   44.70   33.50
  -8  -2   2   53.59   43.30
  -6  -2   2 1673.33   58.79
   6  -2  -2 1635.64   42.80
  -6   2   2 1616.54   42.40
  -6  -2   2 1637.44   65.69
  -4  -2   2  -11.20   50.79
   4  -2  -2   -1.90   35.60
  -4   2   2  -34.10   40.50
   4   2  -2  -22.90   53.69
   2   2  -2 1278.37   48.50
  -2  -2   2 1277.47   54.29
  -2   2   2 1268.37   44.70
   0  -2   2   54.49   45.00
   0   2  -2   70.69   46.60
   0  -2  -2   70.09   47.50
   0   2   2   63.79   42.50
   2  -2   2  127.79   48.20
  -2   2  -2  112.09   50.69
  -2  -2  -2   94.29   52.59
   2   2   2   81.39   47.00
  -4  -2  -2  372.06   46.10
   4  -2   2  387.06   33.10
  -4   2  -2  371.56   39.10
   4   2   2  382.86   45.10
  -6  -2  -2   51.19   41.60
   6   2   2   46.30   40.50
   6  -2   2   36.80   33.70
  -6   2  -2   36.20   35.10
   8   2   2  507.45   40.70
  -8  -2  -2  488.55   41.40
  -8   2  -2  493.05   36.60
   8  -2   2  497.45   36.70
 -10  -2  -2   55.39   42.30
  10   2   2   43.10   43.70
  10  -2   2   69.89   37.60
 -10   2  -2   48.20   38.10
  12  -2   2  192.18   42.20
 -12  -2  -2  193.78   47.50
 -12   2  -2  174.48   41.90
  12   2   2  214.58   49.40
  15   3  -2   28.40   56.29
  15  -3  -2   38.20   42.40
 -15  -3   2   22.90   59.69
 -15   3   2   31.70   41.10
  13  -3  -2   24.80   37.50
  13   3  -2   26.00   51.29
 -13   3   2   27.10   36.40
 -13  -3   2   24.40   48.80
 -11   3   2  122.69   34.90
 -11  -3   2  123.09   49.30
  11   3  -2  134.79   46.20
  11  -3  -2  129.39   35.00
   9  -3  -2    1.30   32.30
  -9  -3   2   18.10   49.60
  -9   3   2   -1.00   32.10
  -7  -3   2  943.61   62.49
   7  -3  -2 1088.29   35.60
  -7   3   2 1082.29   35.30
  -7  -3   2 1068.49   58.59
  -5   3   2  511.85   43.60
  -5  -3   2  491.15   83.89
   5  -3  -2  511.25   43.40
  -5  -3   2  514.25   72.09
   3   3  -2 3169.08   60.69
  -3  -3   2 3407.36   65.59
  -3   3   2 3294.37   41.30
  -1  -3   2  607.94   49.10
  -1   3   2  585.34   42.40
   1   3  -2  587.84   52.19
  -1   3  -2 3080.69   54.79
  -1  -3  -2 3108.19   54.49
   1   3   2 3109.49   55.19
   1  -3   2 3134.49   52.19
   3   3   2  588.94   49.10
  -3  -3  -2  546.85   48.60
   3  -3   2  569.54   39.60
  -3   3  -2  568.64   41.90
  -5  -3  -2 1005.80   42.60
   5   3   2 1031.60   42.40
  -5   3  -2  995.50   35.30
   5  -3   2 1000.60   34.20
  -7   3  -2   85.19   36.90
   7   3   2   78.99   41.10
   7  -3   2   56.19   35.10
  -7  -3  -2   81.69   41.40
  -9  -3  -2  287.87   42.80
   9   3   2  331.47   46.60
  -9   3  -2  305.37   37.70
   9  -3   2  303.57   36.50
 -11  -3  -2   11.00   44.50
  11   3   2    8.60   48.80
 -11   3  -2  -22.00   39.90
  11  -3   2  -13.20   38.40
 -13  -3  -2   23.50   55.89
 -13   3  -2   25.30   46.40
  13  -3   2   31.70   46.30
  13   3   2   25.90   55.29
  16  -4  -2   19.80   47.20
 -16  -4   2   21.60   77.99
 -16   4   2    4.10   45.50
 -16  -4   2    8.00   77.19
  14  -4  -2  216.88   40.00
 -14  -4   2  214.28   68.29
 -14   4   2  213.08   38.20
 -12   4   2   93.19   35.10
  12  -4  -2  128.89   35.50
 -12  -4   2   94.09   61.99
  10  -4  -2  541.65   34.80
 -10  -4   2  546.45   64.49
 -10  -4   2  471.35   63.69
 -10   4   2  510.95   35.50
  -8  -4   2  161.48   77.49
  -8  -4   2  177.28   75.49
  -8   4   2  179.08   30.90
   8  -4  -2  173.98   31.20
   6  -4  -2  577.64   35.30
  -6   4   2  571.94   35.20
   4  -4  -2   56.89   35.90
   4   4  -2   59.89   74.79
  -4  -4   2   56.99   76.89
  -4   4   2   53.49   41.40
  -2  -4   2  704.63   56.09
  -2   4   2  667.93   42.00
   2   4  -2  677.43   56.69
   0   4  -2  296.57   49.10
   0  -4   2  231.48   45.20
   0   4   2  216.48   45.00
   2  -4   2  110.59   34.80
   2   4   2  131.09   52.59
  -2  -4  -2  121.09   47.50
  -2   4  -2  123.99   42.60
   4  -4   2  321.97   29.80
   4   4   2  342.47   45.10
  -4  -4  -2  340.67   44.50
  -4   4  -2  328.07   35.80
   6  -4   2   45.70   29.20
  -6  -4  -2   64.79   45.50
  -6   4  -2   54.39   30.70
   6   4   2   44.70   45.30
  -8  -4  -2  376.96   45.00
   8   4   2  404.16   46.00
   8  -4   2  385.26   35.20
  -8   4  -2  382.86   37.20
 -10   4  -2   28.20   37.70
  10  -4   2   49.30   31.80
 -10  -4  -2   13.00   46.40
  10   4   2   43.30   48.10
 -12  -4  -2  130.49   56.89
  12   4   2  135.39   56.39
  12  -4   2  135.09   43.70
 -12   4  -2  113.59   43.70
  15  -5  -2   11.60   43.00
 -15   5   2    0.70   42.30
 -13   5   2   34.80   31.10
  13  -5  -2  -10.40   36.90
  11  -5  -2  119.49   35.20
 -11   5   2  134.59   35.20
  -9   5   2   20.70   31.90
   9  -5  -2    7.30   32.70
  -7   5   2  708.33   33.20
   7  -5  -2  728.13   32.80
  -5   5   2  168.28   34.40
   5  -5  -2  183.48   34.20
  -3  -5   2 2353.56   60.19
   3  -5  -2 2342.07   36.50
  -3   5   2 2338.17   41.20
   3   5  -2 2248.97   67.09
  -1  -5   2  369.26   45.20
  -1   5   2  344.57   43.40
   1   5  -2  377.86   50.39
  -1   5   2  358.16   47.40
  -1   5  -2 2460.55   44.00
   1  -5   2 2447.46   40.50
   1   5   2 2464.35   52.39
   3   5   2  159.08   45.60
  -3   5  -2  178.18   34.40
   3  -5   2  157.48   33.00
  -3  -5  -2  161.58   46.50
   5  -5   2  691.23   29.80
   5   5   2  704.93   49.99
  -5   5  -2  712.63   35.30
  -5  -5  -2  689.23   49.10
   7  -5   2   67.09   34.20
  -7  -5  -2   63.09   47.80
   7   5   2   58.09   46.00
  -7   5  -2   69.39   35.80
   9   5   2  223.18   51.29
   9  -5   2  201.08   36.80
  -9   5  -2  221.08   37.80
  -9  -5  -2  209.78   51.89
 -11  -5  -2   25.30   54.89
 -11   5  -2   28.00   39.60
  11   5   2    0.60   56.69
  11  -5   2    0.80   39.70
  14  -6  -2  169.08   42.40
 -14   6   2  163.58   41.30
 -12   6   2   34.60   35.40
  12  -6  -2   11.10   35.90
 -10   6   2  653.53   35.20
  10  -6  -2  657.83   34.80
  -8   6   2    8.20   33.10
   8  -6  -2   -1.50   32.80
   6  -6  -2  598.24   32.40
  -6   6   2  582.34   32.40
   4   6  -2  -17.20   61.99
  -4   6   2   -1.60   32.50
   4  -6  -2   -0.60   28.20
  -4  -6   2   -5.50   55.69
   2   6  -2  392.66   45.60
  -2   6   2  370.56   35.50
  -2  -6   2  381.96   40.00
   0  -6   2   79.29   39.30
   0   6   2   61.29   40.70
   0   6   2   69.09   38.60
   0   6  -2   62.99   39.20
   2   6   2   72.59   46.10
   2  -6   2   67.59   32.90
   2   6   2   70.99   37.20
  -2   6  -2   54.29   35.70
   4   6   2  302.57   49.30
   4  -6   2  289.37   32.80
  -4   6  -2  271.67   30.90
   6   6   2    9.70   48.10
   6  -6   2    5.30   34.00
  -6   6  -2    1.50   35.90
  -6  -6  -2   15.80   49.99
  -8   6  -2  332.47   36.20
  -8  -6  -2  332.27   52.99
   8  -6   2  326.77   31.50
   8   6   2  327.47   55.89
 -10  -6  -2    5.90   59.69
  10   6   2   13.40   59.29
 -10   6  -2    6.60   35.00
  10  -6   2   10.50   34.50
 -12  -6  -2   93.79   72.89
  12   6   2  119.09   73.79
  12  -6   2   90.39   46.60
 -12   6  -2   96.19   46.80
  13  -7  -2   13.00   40.20
 -13   7   2   28.50   39.70
  11  -7  -2  105.29   36.10
 -11   7   2   98.49   36.20
  -9   7   2    5.30   29.00
   9  -7  -2   -7.60   32.40
  -7   7   2  361.56   33.10
   7  -7  -2  349.67   31.90
   5  -7  -2  241.38   32.30
  -5   7   2  223.48   32.60
   3  -7  -2  927.21   35.20
   3   7  -2  891.71   53.99
  -3   7   2  875.51   38.60
  -3  -7   2  878.41   48.90
  -1   7   2  281.77   38.40
  -1   7   2  289.77   39.90
  -1  -7   2  275.57   37.30
   1   7  -2  300.07   42.60
   1  -7   2  868.01   35.30
   1   7   2  886.51   43.70
   1   7   2  869.31   41.60
  -1   7  -2  886.81   43.30
   3   7   2  188.08   48.20
   3   7   2  202.88   43.80
  -3   7  -2  202.68   31.80
   3  -7   2  197.48   33.20
   5   7   2  467.35   52.39
  -5   7  -2  474.35   32.50
   5  -7   2  473.55   35.10
   7   7   2    7.60   55.79
   7  -7   2   17.00   30.00
  -7   7  -2  -11.90   31.60
   9   7   2  140.79   66.19
   9  -7   2  125.39   38.30
  -9   7  -2  127.39   38.50
  11  -7   2   -2.20   44.30
 -11   7  -2  -19.70   38.80
  11   7   2    1.90   80.19
  14  -8  -2   81.19   44.90
 -14   8   2  108.89   38.80
  12  -8  -2   17.50   33.90
 -12   8   2    4.70   39.60
  10  -8  -2  203.58   34.50
 -10   8   2  218.68   36.00
   8  -8  -2   48.50   29.90
  -8   8   2   47.70   34.50
   6  -8  -2  271.77   34.10
  -6   8   2  245.58   34.70
  -4  -8   2   11.20   51.89
   4  -8  -2   -4.30   33.10
   4   8  -2    6.80   59.69
  -4   8   2  -16.80   34.30
  -2   8   2  391.66   37.90
  -2  -8   2  363.56   41.60
   2   8  -2  501.05   48.60
   0   8   2  114.79   40.00
   0   8   2   90.49   38.70
   0  -8   2   91.19   36.80
   0   8  -2   88.49   41.30
   2   8   2   26.00   46.90
  -2   8  -2   34.70   37.20
   2   8   2   36.40   42.30
   2  -8   2   15.10   33.80
   4   8   2  135.09   52.59
   4  -8   2  108.09   35.40
  -4   8  -2  146.59   38.10
   4   8   2  145.49   49.00
   6   8   2    4.60   55.29
   6  -8   2   -6.90   30.40
  -6   8  -2  -12.30   36.10
   6   8   2    1.50   54.69
   8   8   2  158.78   74.09
   8  -8   2  137.59   37.60
  -8   8  -2  157.98   34.00
   8   8   2  151.78   68.99
  10  -8   2   14.10   43.20
 -10   8  -2   13.90   38.30
  13  -9  -2   14.60   42.80
 -13   9   2    5.30   38.60
  11  -9  -2   53.09   38.50
 -11   9   2   66.89   39.20
  -9   9   2   -5.30   36.50
   9  -9  -2   -4.50   34.80
  -7   9   2  225.48   34.80
   7  -9  -2  237.18   29.90
   5   9  -2    4.70   92.99
  -5   9   2   19.60   34.40
   5  -9  -2  -11.50   33.60
   3  -9  -2  886.71   34.70
   3   9  -2  949.11   53.69
  -3  -9   2  936.41   46.10
  -3   9   2  907.21   35.30
  -1  -9   2   -4.70   36.80
  -1   9   2   26.80   37.80
  -1   9   2    5.50   42.90
   1   9  -2   24.60   42.50
  -1   9  -2  702.03   39.00
   1  -9   2  678.13   38.50
   1   9   2  697.53   40.30
   1   9   2  711.33   44.90
   3   9   2   29.80   51.19
   3  -9   2   23.80   33.40
  -3   9  -2   25.50   36.90
   3   9   2   46.20   49.60
   5  -9   2  241.98   34.80
   5   9   2  268.47   60.29
   5   9   2  256.87   56.29
  -5   9  -2  256.27   37.60
   7  -9   2  -11.00   37.70
  -7   9  -2   10.20   34.40
   7   9   2    2.50   85.59
   7   9   2    4.40   87.09
   9  -9   2   73.09   42.50
  -9   9  -2   44.10   43.70
 -12  10   2    5.80   45.00
  12 -10  -2    7.60   38.00
 -10  10   2  140.49   39.80
  10 -10  -2  134.19   34.10
  -8  10   2    8.10   36.50
   8 -10  -2    1.80   35.60
  -6  10   2  180.28   34.40
   6 -10  -2  181.18   34.30
   4 -10  -2    5.30   33.90
   4  10  -2   -1.40   63.59
  -4  10   2   -2.20   35.40
  -4 -10   2    6.20   52.99
  -2 -10   2   85.19   41.00
   2  10  -2   98.39   47.40
  -2  10   2   96.89   38.50
   0  10   2   29.60   42.60
   0 -10   2    8.70   37.30
   0  10   2    6.60   42.20
   0  10  -2   20.80   38.20
   2 -10   2   24.90   34.20
  -2  10  -2   15.30   38.30
   2  10   2   32.60   46.90
   2  10   2   21.00   47.00
   4  10   2   86.09   55.59
   4  10   2   72.99   60.89
  -4  10  -2   67.29   38.00
   4 -10   2   71.59   34.70
   6  10   2    2.70   92.09
   6 -10   2    9.30   36.80
  -6  10  -2   14.20   39.00
   6  10   2   -5.20   92.39
   8 -10   2  102.69   41.60
  -8  10  -2   96.69   43.20
 -11  11   2   14.60   44.90
  11 -11  -2   16.20   42.20
  -9  11   2    6.50   34.50
   9 -11  -2   12.50   38.20
   7 -11  -2  111.49   35.90
  -7  11   2   98.59   37.40
   5 -11  -2    3.40   34.10
  -5  11   2   11.30   36.20
   3  11  -2  163.38   54.39
  -3  11   2  169.08   40.50
  -3 -11   2  162.88   46.80
  -1 -11   2   75.79   38.70
   1  11  -2   82.19   44.40
  -1  11   2   75.19   40.70
  -1  11   2   46.60   39.60
   1 -11   2  210.18   35.80
   1  11   2  192.58   46.40
   1  11   2  212.68   44.60
  -1  11  -2  202.98   44.00
   3 -11   2   14.90   38.40
   3  11   2   18.80   54.99
   3  11   2    2.00   53.09
  -3  11  -2    8.00   38.00
   5  11   2  119.89   79.09
   5 -11   2  121.99   38.60
   5  11   2  116.79   78.39
  -5  11  -2   96.39   41.20
   7 -11   2    4.30   42.30
  -7  11  -2    3.80   44.60
 -10  12   2   64.49   39.70
  10 -12  -2   78.99   38.70
   8 -12  -2   -0.70   39.70
  -8  12   2   17.50   41.50
  -6  12   2  133.29   39.30
   6 -12  -2  123.89   37.70
  -4  12   2    6.20   37.90
   4  12  -2    1.70   67.49
   2  12  -2   64.99   51.39
  -2  12   2   59.39   41.20
  -2  12   2   83.09   42.80
  -2 -12   2   73.39   47.20
   0  12   2   23.50   47.20
   0  12  -2   40.10   44.20
   0 -12   2   44.00   40.70
   0  12   2   25.30   41.10
   2  12   2   28.10   53.79
   2 -12   2   33.90   36.70
   2  12   2   18.60   52.69
  -2  12  -2   38.40   45.70
   4 -12   2   78.89   39.20
   4  12   2   36.90   71.29
   4  12   2   67.19   70.79
  -4  12  -2   71.79   42.60
   6 -12   2    5.40   42.70
  -6  12  -2  -36.70   45.30
  -7  13   2   50.29   42.30
   7 -13  -2   51.89   42.50
  -5  13   2   -8.20   45.70
  -3  13   2  102.39   40.50
   3  13  -2  111.89   62.69
  -3 -13   2  115.29   53.79
  -1 -13   2    5.30   43.80
   1  13  -2    6.60   53.49
  -1  13   2    8.40   49.10
  -1  13   2    1.00   42.80
   1  13   2   65.19   55.19
   1  13   2  139.79   52.09
  -1  13  -2  135.99   48.90
   1 -13   2  133.49   39.40
   3  13   2    4.10   68.09
   3 -13   2   -3.20   41.30
  -3  13  -2   15.80   44.70
   3  13   2    3.20   70.99
   5 -13   2   74.89   43.10
  -5  13  -2   47.00   47.90
  -6  14   2   36.20   47.80
  -4  14   2   14.50   48.90
   4  14  -2   -1.80   87.49
   4  14  -2  -15.70   85.59
  -2  14   2   -7.60   47.20
  -2  14   2   21.60   50.49
   2  14  -2   11.60   60.69
  -2 -14   2   17.30   52.39
   0  14   2   -7.20   52.29
   0  14   2    7.10   56.69
   0 -14   2   -6.20   47.60
   0  14  -2   -2.10   54.19
   2  14   2   13.30   69.49
   2  14   2    3.20   66.69
  -2  14  -2    1.70   53.79
   2 -14   2    8.50   48.90
 -16   0   3   78.99   46.70
  16   0  -3   79.19   47.90
 -14   0   3    4.40   41.40
  14   0  -3   40.00   42.40
 -12   0   3  424.86   39.20
  12   0  -3  417.36   39.50
  10   0  -3  241.98   38.30
 -10   0   3  235.88   33.50
  -8   0   3 1792.22   39.90
  -6   0   3  555.64   44.10
  -6   0   3  537.45   49.20
   4   0  -3 4100.39   49.99
  -4   0   3 3909.71   49.70
  -2   0   3  159.28   44.80
   2   0  -3  137.69   44.40
   0   0  -3 1488.25   52.59
   0   0   3 1524.35   45.80
   2   0   3  315.37   43.20
  -2   0  -3  309.27   44.60
  -4   0  -3  729.93   37.70
   4   0   3  704.53   32.20
   6   0   3   23.80   35.90
  -6   0  -3   30.50   38.00
   8   0   3   83.49   37.00
  -8   0  -3   59.99   37.60
  10   0   3   15.50   39.00
 -10   0  -3   36.90   38.70
 -12   0  -3    9.50   49.70
  12   0   3   -2.90   51.29
 -17   1   3   13.00   50.69
  17  -1  -3   -0.70   52.19
 -17  -1   3    2.00   56.69
 -15   1   3  155.28   43.60
  15  -1  -3  160.98   40.20
  15   1  -3  146.69   44.00
 -15  -1   3  133.99   43.40
  13  -1  -3    0.60   35.90
 -13   1   3   22.50   39.30
 -13  -1   3    6.40   40.20
  13   1  -3   23.20   40.60
  11  -1  -3  240.58   34.20
  11   1  -3  240.68   42.80
 -11   1   3  243.28   33.80
 -11  -1   3  234.88   38.20
  -9  -1   3    3.00   35.70
   9  -1  -3   16.10   34.20
  -9   1   3   13.50   33.60
  -7  -1   3  203.88   40.50
  -7  -1   3  216.28   45.30
  -7   1   3  199.68   35.80
  -5   1   3  399.16   43.20
  -5   1   3  459.55   48.00
  -5  -1   3  423.06   44.10
   3   1  -3  -16.50   48.70
   3  -1  -3   33.70   44.40
  -3  -1   3    9.40   43.60
  -3   1   3    5.30   38.40
   1  -1  -3 1542.05   48.20
   1   1  -3 1593.54   49.80
  -1  -1   3 1535.35   44.10
  -1   1   3 1540.75   47.40
  -1  -1  -3  519.85   47.40
  -1   1  -3  563.14   50.69
   1   1   3  509.95   47.50
   1  -1   3  519.15   48.50
  -3  -1  -3 1383.06   40.30
  -3   1  -3 1371.16   39.90
   3  -1   3 1369.66   33.90
   3   1   3 1351.86   39.50
  -5  -1  -3  146.09   42.10
   5   1   3  169.88   36.20
  -5   1  -3  155.08   36.30
   5  -1   3  163.98   34.60
   7  -1   3  792.12   37.30
   7   1   3  769.82   37.60
  -7  -1  -3  717.73   38.60
  -7   1  -3  775.92   38.20
   9   1   3   77.19   37.80
   9  -1   3   78.79   37.10
  -9  -1  -3   77.89   42.20
  -9   1  -3   83.19   38.70
  11  -1   3  151.08   42.80
 -11  -1  -3  153.68   47.10
 -11   1  -3  157.88   46.30
  11   1   3  143.79   43.30
  16  -2  -3   84.39   46.50
 -16  -2   3   50.69   51.09
 -16   2   3   48.70   41.80
 -14  -2   3    3.20   43.90
 -14   2   3   13.60   39.90
  14  -2  -3   22.70   36.90
 -12  -2   3  509.85   42.90
 -12   2   3  487.75   38.80
  12  -2  -3  507.25   35.20
 -10  -2   3  214.68   40.90
 -10  -2   3  222.48   43.90
  10  -2  -3  224.08   38.00
 -10   2   3  217.18   34.00
  -8   2   3 1500.75   35.00
   8  -2  -3 1546.55   35.30
  -8  -2   3 1586.04   42.40
  -8  -2   3 1616.14   46.00
  -6   2   3  458.75   38.60
  -6  -2   3  480.05   55.79
  -6  -2   3  450.45   49.40
  -4  -2   3 2494.85   54.19
  -4   2   3 2501.05   41.80
  -4   2   3 2581.94   51.09
   4   2  -3 2573.34   54.09
  -2   2   3  400.56   48.20
  -2  -2   3  381.56   53.99
   2  -2  -3  396.66   48.50
   2   2  -3  381.36   48.20
   0   2   3 1820.82   50.49
   0  -2  -3 1856.81   50.09
   0   2  -3 1847.22   53.59
   0  -2   3 1828.92   51.69
  -2   2  -3  116.69   41.40
  -2  -2  -3  130.49   40.20
   2  -2   3  127.49   39.00
   2   2   3  138.69   44.90
   4  -2   3  436.36   33.70
  -4  -2  -3  446.06   42.70
  -4   2  -3  427.66   35.00
   4   2   3  459.25   37.80
   6  -2   3    3.40   35.90
  -6   2  -3   -5.40   37.40
  -6  -2  -3   -6.60   40.80
   6   2   3  -12.20   36.10
  -8  -2  -3   41.70   42.40
   8  -2   3   59.59   36.00
   8   2   3   43.00   37.50
  -8   2  -3   67.09   37.00
 -10   2  -3   43.40   39.80
 -10  -2  -3   52.19   44.40
  10   2   3   24.50   44.20
  10  -2   3   30.70   39.60
 -12  -2  -3    7.50   49.99
 -12   2  -3   17.20   46.20
  12   2   3    2.20   50.89
  12  -2   3   -3.70   51.09
  15  -3  -3  165.88   40.70
 -15   3   3  144.09   39.50
 -15  -3   3  152.68   54.29
 -15  -3   3  145.19   56.59
 -13   3   3    5.00   34.60
 -13  -3   3   -6.90   49.10
  13  -3  -3   -3.60   35.00
 -13  -3   3    9.40   47.70
 -11  -3   3  263.37   44.90
 -11  -3   3  240.88   49.90
 -11   3   3  236.08   33.60
  11  -3  -3  257.17   34.90
  -9   3   3   -6.80   31.90
   9  -3  -3    3.30   32.30
  -9  -3   3   -3.40   46.20
  -9  -3   3    1.90   45.30
  -7  -3   3  182.08   49.50
  -7  -3   3  192.48   47.60
  -7   3   3  206.78   33.20
   7  -3  -3  199.28   29.50
  -5   3   3  275.17   39.80
  -5  -3   3  257.17   58.29
   5   3  -3  270.77   55.69
   3   3  -3   32.70   50.39
  -3   3   3   75.29   47.30
  -3  -3   3   49.00   46.40
  -3   3   3   31.90   37.90
  -1   3   3 1418.26   47.90
   1   3  -3 1400.26   51.19
  -1  -3   3 1372.86   48.80
   1  -3  -3 1454.35   52.89
  -1   3  -3  128.59   43.60
   1  -3   3  111.29   35.40
   1   3   3  120.39   42.00
  -1  -3  -3  116.89   46.10
   3  -3   3 1231.48   31.90
  -3  -3  -3 1265.27   43.50
  -3   3  -3 1239.78   33.10
   3   3   3 1244.38   40.30
   5  -3   3  247.28   29.80
  -5  -3  -3  234.28   41.10
  -5   3  -3  253.57   31.40
   5   3   3  237.98   36.40
   7   3   3  516.65   37.30
  -7   3  -3  511.95   38.30
  -7  -3  -3  536.55   41.00
   7  -3   3  524.45   36.60
   9   3   3   46.40   44.20
  -9  -3  -3   67.59   43.30
   9  -3   3   43.30   36.30
  -9   3  -3   62.09   38.00
  11  -3   3  161.28   43.10
  11   3   3  166.88   48.80
 -11  -3  -3  164.18   47.60
 -11   3  -3  157.08   42.90
 -16  -4   3   37.70   76.09
 -16   4   3   54.99   43.60
  16  -4  -3   70.59   44.80
 -16  -4   3   32.30   75.39
 -14  -4   3    7.70   64.29
 -14   4   3    5.60   37.20
  14  -4  -3   19.10   36.70
 -14  -4   3    6.00   64.79
 -12  -4   3  338.77   58.59
 -12   4   3  355.46   35.40
  12  -4  -3  352.26   35.60
 -12  -4   3  338.07   59.09
 -10   4   3  191.78   33.00
 -10  -4   3  164.08   63.19
 -10  -4   3  175.88   56.59
  10  -4  -3  163.08   34.20
  -8  -4   3 1146.99   57.79
  -8  -4   3 1053.59   63.49
   8  -4  -3 1075.79   33.20
  -8   4   3 1087.29   28.70
   6  -4  -3  406.26   29.70
  -6   4   3  398.36   29.20
  -6  -4   3  391.86   58.49
   4   4  -3 1766.72   56.79
  -4   4   3 1775.22   39.70
  -4  -4   3 1891.61   58.39
  -4   4   3 1878.11   43.80
   2   4  -3  211.58   47.40
  -2   4   3  198.18   41.60
  -2  -4   3  245.78   49.99
  -2   4   3  189.58   39.00
   0   4  -3 1454.35   44.00
   0  -4   3 1481.45   41.40
   0   4   3 1469.45   46.40
   0  -4  -3 1517.45   46.50
   2   4   3   11.50   37.80
  -2   4  -3   12.40   30.90
   2  -4   3   -7.80   33.90
  -2  -4  -3   18.10   41.20
  -4  -4  -3  497.55   42.00
   4  -4   3  489.95   33.70
   4   4   3  475.95   42.50
  -4   4  -3  486.15   35.30
   6  -4   3    7.60   34.60
  -6  -4  -3  -13.80   40.30
  -6   4  -3   14.00   35.60
   6   4   3    2.10   40.00
  -8  -4  -3   20.30   45.60
   8   4   3    9.40   42.10
  -8   4  -3   16.20   38.00
   8  -4   3   10.10   36.50
 -10  -4  -3   38.90   49.80
  10   4   3   37.00   49.50
 -10   4  -3   40.40   35.70
  10  -4   3   27.50   35.00
 -15   5   3  109.59   40.70
  15  -5  -3   78.29   41.20
 -13   5   3   14.20   34.80
  13  -5  -3   -4.80   36.20
 -11   5   3  164.88   30.10
  11  -5  -3  168.98   34.60
  -9   5   3   11.70   32.10
   9  -5  -3   27.80   32.20
  -7   5   3  157.68   31.90
   7  -5  -3  154.98   32.20
  -7  -5   3  172.48   66.79
  -7  -5   3  153.58   73.49
   5   5  -3  182.98   50.99
  -5  -5   3  194.68   51.19
  -5   5   3  207.28   28.00
   3   5  -3  -13.00   45.80
  -3   5   3  -21.80   34.10
  -3   5   3  -20.60   36.90
  -3  -5   3  -23.30   46.60
  -1  -5   3  804.32   38.00
  -1   5   3  796.82   36.20
  -1   5   3  765.72   38.10
   1   5  -3  774.42   41.70
  -1   5  -3   74.59   35.80
  -1  -5  -3   68.39   44.30
   1   5   3   75.59   40.60
   1  -5   3   59.99   33.30
   3  -5   3 1181.38   35.40
  -3  -5  -3 1242.88   46.70
   3   5   3 1152.28   47.10
  -3   5  -3 1171.48   37.50
   5  -5   3  102.39   34.30
  -5  -5  -3   77.19   44.60
  -5   5  -3   85.09   36.50
   5   5   3  123.69   41.20
  -7  -5  -3  356.66   44.90
   7  -5   3  328.97   35.80
   7   5   3  345.67   44.90
  -7   5  -3  344.97   36.80
  -9  -5  -3   55.59   51.79
   9   5   3   45.60   44.90
   9  -5   3   42.80   38.80
  -9   5  -3   37.20   34.90
 -11   5  -3   97.79   40.30
 -11  -5  -3  110.19   59.09
  11   5   3  114.09   60.19
  11  -5   3  100.39   45.50
 -14   6   3    9.30   37.80
  14  -6  -3   -4.50   39.30
 -12   6   3  216.38   35.40
  12  -6  -3  238.38   36.20
 -10   6   3   30.20   33.30
  10  -6  -3   44.80   33.30
   8  -6  -3 1101.89   34.00
  -8   6   3 1069.99   34.00
  -6   6   3  140.69   31.90
  -6  -6   3  130.99   60.79
   6  -6  -3  131.49   27.80
   6   6  -3   65.29   59.59
   4   6  -3  979.70   49.60
  -4   6   3 1025.80   32.80
  -4  -6   3 1034.30   43.70
  -2  -6   3  213.78   39.10
   2   6  -3  231.98   39.20
  -2   6   3  354.26   36.20
  -2   6   3  207.58   34.10
   0   6   3  707.23   40.80
   0  -6   3  699.43   36.30
   0   6   3  691.33   34.90
   0   6  -3  686.23   39.70
   2  -6   3   21.20   33.20
   2   6   3   40.00   41.30
  -2   6  -3   21.70   36.00
   4  -6   3  253.77   33.30
   4   6   3  310.17   46.60
  -4  -6  -3  363.66   48.70
  -4   6  -3  294.57   31.20
   6  -6   3   -1.20   29.80
  -6   6  -3  -21.70   35.50
   6   6   3    8.90   44.30
  -6  -6  -3    5.50   43.80
   8   6   3   34.00   47.20
  -8  -6  -3   32.60   50.49
   8  -6   3   37.50   37.70
  -8   6  -3   26.00   39.10
  10   6   3   41.30   57.89
 -10   6  -3   23.00   43.10
  10  -6   3   36.80   37.20
 -10  -6  -3   42.80   57.09
 -15   7   3   53.59   45.10
  15  -7  -3   71.89   46.20
 -13   7   3    1.40   33.90
  13  -7  -3  -13.10   39.30
 -11   7   3  152.98   35.80
  11  -7  -3  128.59   35.50
  -9   7   3   34.60   33.00
   9  -7  -3   36.60   32.80
   7  -7  -3  164.08   31.80
  -7   7   3  162.28   31.80
  -5   7   3   86.99   28.20
  -5  -7   3   93.09   49.20
   5   7  -3   69.19   53.29
  -3  -7   3   18.10   37.70
   3   7  -3   24.20   47.80
  -3   7   3   15.40   33.10
  -3   7   3   -3.80   34.80
  -1   7   3  411.06   39.50
  -1  -7   3  407.96   38.30
   1   7  -3  401.16   44.20
  -1   7   3  400.86   33.90
   1   7   3   67.59   43.80
   1  -7   3   16.60   35.00
   1   7   3   67.69   38.30
  -1   7  -3   68.59   42.90
   3   7   3  456.55   46.90
   3  -7   3  446.86   35.80
  -3   7  -3  456.75   38.40
   5  -7   3   73.99   35.10
   5   7   3  106.39   48.10
  -5   7  -3  101.09   37.30
   7   7   3  261.17   50.09
   7  -7   3  265.67   32.30
  -7   7  -3  256.67   37.80
  -7  -7  -3  260.07   52.69
  -9  -7  -3   15.30   67.09
   9   7   3    8.00   61.09
  -9   7  -3   32.50   36.70
   9  -7   3   17.30   41.80
  14  -8  -3   16.20   43.80
 -14   8   3    5.30   37.60
 -12   8   3  136.69   34.10
  12  -8  -3  130.29   38.60
  10  -8  -3   39.00   30.60
 -10   8   3   36.20   35.20
   8  -8  -3  452.25   34.30
  -8   8   3  453.15   30.80
   6   8  -3  103.19   75.69
   6  -8  -3  112.29   29.50
  -6  -8   3  109.69   82.79
  -6   8   3  120.19   34.40
   4   8  -3  507.45   54.09
  -4  -8   3  517.15   45.00
  -4   8   3  520.35   34.40
  -2   8   3   17.30   38.40
   2   8  -3   41.00   44.90
  -2  -8   3   42.40   38.10
  -2   8   3   20.30   36.80
   0   8   3  718.23   40.50
   0  -8   3  706.43   34.60
   0   8  -3  727.23   43.40
   0   8   3  696.23   34.90
   2   8   3    3.30   43.80
   2   8   3   17.70   41.60
   2  -8   3   -7.80   34.30
  -2   8  -3   -6.60   37.70
   4   8   3  132.29   45.80
   4  -8   3  144.39   35.20
  -4   8  -3  162.58   37.90
   4   8   3  138.09   42.50
   6  -8   3   10.70   36.50
  -6   8  -3   12.20   38.40
   6   8   3   -7.80   52.39
   8   8   3   19.90   61.49
  -8   8  -3   31.50   42.30
   8  -8   3   20.30   35.90
 -13   9   3  -16.30   43.30
  13  -9  -3   10.20   43.00
  11  -9  -3   75.09   37.80
 -11   9   3   56.99   38.80
   9  -9  -3   11.60   35.50
  -9   9   3    0.10   36.00
  -7   9   3   20.30   34.70
   7  -9  -3   40.50   34.30
  -5  -9   3   84.89   55.59
   5   9  -3   36.90   57.49
  -5   9   3   33.30   34.20
  -3   9   3    8.00   33.90
  -3   9   3   13.10   38.90
  -3  -9   3   26.80   41.80
   3   9  -3   25.10   49.60
  -1   9   3  421.46   38.00
  -1   9   3  456.65   39.50
   1   9  -3  431.06   43.50
  -1  -9   3  409.96   37.90
   1   9   3   -1.40   43.00
  -1   9  -3   -5.50   38.90
   1  -9   3    2.80   37.50
   1   9   3   10.10   41.70
   3   9   3  352.36   48.60
   3  -9   3  352.26   34.80
  -3   9  -3  370.86   38.00
   3   9   3  366.26   43.60
   5   9   3   13.20   53.29
   5   9   3   19.90   51.49
  -5   9  -3   13.80   33.10
   5  -9   3   21.10   36.10
   7   9   3  144.69   65.59
   7   9   3  140.29   64.29
   7  -9   3  142.29   40.40
  -7   9  -3  149.88   41.70
   9  -9   3    7.00   47.00
  -9   9  -3    3.20   47.70
  12 -10  -3   60.79   41.60
 -12  10   3   89.09   37.90
  10 -10  -3   18.90   38.50
 -10  10   3    2.00   39.20
   8 -10  -3  223.98   30.90
  -8  10   3  229.18   31.50
  -6  10   3   42.50   34.80
   4  10  -3  285.97   56.89
  -4  10   3  298.37   35.60
  -4 -10   3  358.86   49.80
  -2  10   3   16.80   34.80
  -2 -10   3   27.50   37.60
   2  10  -3   37.00   44.20
  -2  10   3   35.60   34.40
   0  10   3  173.48   44.00
   0  10   3  177.48   40.20
   0 -10   3  172.18   34.50
   0  10  -3  184.68   43.80
  -2  10  -3   15.50   38.10
   2  10   3    7.80   42.90
   2  10   3    1.20   46.40
   2 -10   3   11.40   34.60
   4 -10   3   85.89   36.60
   4  10   3   81.39   51.39
   4  10   3   90.99   49.40
  -4  10  -3   98.79   39.50
  -6  10  -3    1.20   40.00
   6 -10   3    8.60   39.50
   6  10   3    6.20   65.69
   6  10   3  -12.50   65.59
  -8  10  -3   33.90   46.50
   8 -10   3   30.70   43.90
 -11  11   3   55.79   38.10
  11 -11  -3   52.99   42.60
   9 -11  -3    8.90   38.30
  -9  11   3    7.30   39.20
   7 -11  -3   61.19   36.50
  -7  11   3   43.00   37.30
   5  11  -3   44.30   61.79
  -5 -11   3   41.90   57.69
  -5  11   3   56.39   36.10
  -3 -11   3   11.30   42.00
   3  11  -3    4.30   53.59
  -3  11   3   12.30   36.20
  -3  11   3   14.90   39.80
  -1  11   3   70.49   41.70
   1  11  -3   64.69   45.00
  -1 -11   3   55.59   39.60
  -1  11   3   70.49   40.80
   1 -11   3    8.30   39.90
   1  11   3   30.10   45.00
   1  11   3   21.50   44.50
  -1  11  -3   29.40   40.30
   3  11   3  123.59   52.39
   3  11   3  126.59   53.29
  -3  11  -3  135.59   41.00
   3 -11   3  117.09   37.60
   5  11   3    3.70   70.09
  -5  11  -3  -21.10   41.10
   5  11   3    9.60   67.49
   5 -11   3    1.20   38.70
   7 -11   3   59.69   45.90
  10 -12  -3   12.00   38.50
 -10  12   3  -20.50   43.80
   8 -12  -3  117.49   40.20
  -8  12   3   78.09   41.30
  -6  12   3    9.70   39.40
   4  12  -3  157.78   61.89
  -4 -12   3  184.08   53.59
  -4  12   3  211.18   38.00
  -4  12   3  185.78   41.50
   2  12  -3    0.70   48.00
  -2 -12   3   -1.70   45.00
  -2  12   3  -13.00   41.90
  -2  12   3   -2.20   42.30
   0  12   3  114.09   42.30
   0 -12   3   94.59   41.60
   0  12  -3  109.29   47.40
   0  12   3  122.99   43.90
   2 -12   3    9.80   38.30
   2  12   3   -3.20   53.69
  -2  12  -3   15.70   43.00
   2  12   3    8.60   53.29
   4 -12   3   52.59   42.00
   4  12   3   55.49   69.99
  -4  12  -3   68.19   45.30
   4  12   3   51.69   67.09
  -7  13   3   33.70   44.40
  -5  13   3   28.30   46.50
  -5  13   3   12.00   44.30
   5  13  -3   12.60   82.59
  -3  13   3    2.80   43.50
  -3 -13   3    3.80   51.89
   3  13  -3   -0.50   61.09
  -3  13   3   -1.90   45.50
   1  13  -3   49.90   51.79
  -1  13   3   59.39   47.20
  -1 -13   3   55.49   48.00
  -1  13   3   68.79   49.10
   1  13   3    7.60   55.89
   1 -13   3    8.70   40.90
  -1  13  -3   -9.00   51.69
   1  13   3    1.40   52.39
   3  13   3   65.39   70.39
   3  13   3   71.59   70.69
  -3  13  -3   66.19   49.20
   3 -13   3   58.79   44.50
  -4  14   3   54.99   46.30
  -4  14   3    7.00   47.60
   4  14  -3   68.49   71.79
  -2 -14   3  -12.90   52.69
  -2  14   3   -1.80   51.79
   2  14  -3   -0.40   65.79
  -2  14   3    2.80   51.59
   0  14   3   24.30   55.29
   0  14   3   24.40   58.59
   0  14  -3   30.00   60.69
   0 -14   3    8.50   49.70
 -16   0   4   55.19   48.40
 -14   0   4   16.60   40.70
 -12   0   4   -3.70   37.50
 -10   0   4  218.18   35.80
 -10   0   4  233.28   34.90
  -8   0   4    8.00   37.10
  -8   0   4   21.90   40.10
  -6   0   4 1719.83   42.00
  -4   0   4  106.49   44.90
   4   0  -4  145.49   44.50
  -2   0   4 3450.85   50.19
   2   0  -4 3529.25   49.80
   0   0  -4  183.98   40.40
   0   0   4  210.08   40.20
  -2   0  -4 1194.58   36.70
   2   0   4 1191.08   36.00
  -4   0  -4  274.17   41.00
   4   0   4  277.77   35.60
   6   0   4  534.55   36.70
  -6   0  -4  525.15   37.80
   8   0   4   35.60   37.80
  -8   0  -4    1.20   37.80
 -10   0  -4   83.29   47.20
  10   0   4  106.29   43.50
 -17  -1   4  104.59   53.49
 -17  -1   4  106.19   50.59
 -17   1   4  104.59   49.60
 -15  -1   4   47.20   42.40
 -15   1   4   47.50   37.40
 -15  -1   4   24.20   43.10
 -13   1   4  454.95   38.80
 -13  -1   4  454.65   39.60
 -13  -1   4  436.66   41.40
 -11  -1   4  119.29   39.50
 -11   1   4  114.19   32.80
 -11  -1   4  121.59   36.40
  -9   1   4  871.61   40.20
  -9   1   4  874.01   38.20
  -9  -1   4  868.01   37.20
  -9  -1   4  898.71   40.10
  -7  -1   4  115.39   37.00
  -7  -1   4  130.39   33.70
  -7   1   4  114.09   36.30
  -7   1   4  117.69   33.40
   5   1  -4 1236.88   47.80
  -5  -1   4 1013.40   43.60
  -5   1   4 1020.20   43.00
  -3   1   4    8.70   44.70
  -3  -1   4   23.20   45.00
   3  -1  -4    7.20   38.60
   3   1  -4   18.30   44.00
   1  -1  -4  625.44   37.50
   1   1  -4  638.64   43.70
  -1   1   4  589.84   43.20
  -1  -1   4  591.44   43.50
  -1  -1  -4  104.49   36.90
  -1   1  -4   84.29   37.50
   1   1   4   90.19   36.80
   1  -1   4   76.19   31.70
  -3   1  -4   -3.70   35.80
   3   1   4   13.90   35.70
  -3  -1  -4    3.30   36.30
   3  -1   4    1.80   34.50
  -5  -1  -4  201.68   40.10
   5   1   4  219.38   35.60
  -5   1  -4  203.58   38.30
   5  -1   4  244.78   36.90
   7   1   4   16.50   36.30
   7  -1   4   18.20   36.00
  -7  -1  -4   30.80   37.00
  -7   1  -4   28.60   36.90
   9   1   4  189.08   39.70
  -9  -1  -4  172.08   39.80
   9  -1   4  168.58   39.00
  -9   1  -4  186.88   40.30
  11   1   4   23.90   47.90
 -11  -1  -4    6.00   50.29
 -11   1  -4    7.50   46.60
 -16  -2   4   38.10   53.49
 -16   2   4   39.80   44.90
  16  -2  -4   11.90   45.40
 -16  -2   4   18.40   51.09
 -14  -2   4   31.50   43.10
 -14   2   4   19.90   35.20
  14  -2  -4   23.80   36.30
 -14  -2   4   25.50   44.80
 -12  -2   4   46.50   40.50
 -12   2   4   61.89   33.20
  12  -2  -4   44.20   34.50
 -12  -2   4   44.00   43.20
 -10   2   4  309.57   37.30
 -10  -2   4  322.87   41.00
 -10  -2   4  308.17   43.80
  -8  -2   4   54.09   42.20
  -8   2   4   42.50   38.20
  -8  -2   4   48.80   39.20
  -8   2   4   57.39   31.20
  -6  -2   4 1008.10   45.50
  -6   2   4  989.90   36.40
  -6   2   4 1262.97   39.00
   6   2  -4 1038.60   44.50
  -4   2   4  672.33   37.30
   4   2  -4  665.53   42.70
   4  -2  -4  736.23   37.50
  -4  -2   4  681.73   44.20
   2  -2  -4 1567.24   37.90
  -2  -2   4 1558.34   45.40
  -2   2   4 1525.05   43.70
   2   2  -4 1599.04   45.20
   0  -2  -4  423.76   38.70
   0   2  -4  413.46   39.40
   0   2   4  431.56   38.90
   0  -2   4  425.86   38.70
  -2  -2  -4 1274.07   42.30
   2   2   4 1227.48   38.30
   2  -2   4 1217.68   36.30
  -2   2  -4 1255.27   37.80
  -4  -2  -4  213.98   36.90
   4  -2   4  208.78   30.10
  -4   2  -4  230.58   36.50
   4   2   4  219.78   36.80
   6  -2   4  441.36   36.40
  -6  -2  -4  412.06   37.40
  -6   2  -4  424.26   37.30
   6   2   4  435.36   37.20
  -8  -2  -4    6.60   42.40
   8  -2   4   34.90   37.60
  -8   2  -4   31.00   37.80
   8   2   4   12.20   37.80
  10   2   4   96.29   47.30
 -10   2  -4   93.19   43.50
  10  -2   4   80.89   44.00
 -10  -2  -4   93.29   48.40
 -17  -3   4   68.89   67.09
  17  -3  -4   80.49   47.90
 -17   3   4   81.69   46.10
 -17  -3   4   71.19   65.29
 -15   3   4   33.00   38.20
  15  -3  -4   67.79   39.80
 -15  -3   4   45.80   51.29
 -15  -3   4   34.50   52.19
 -13  -3   4  452.35   47.20
 -13   3   4  435.16   35.40
  13  -3  -4  425.36   36.50
 -13  -3   4  405.06   48.70
 -11  -3   4   15.60   47.60
  11  -3  -4   31.10   34.70
 -11  -3   4   34.10   44.30
 -11   3   4   37.00   33.80
  -9  -3   4  814.12   49.30
  -9   3   4  799.32   33.00
  -9  -3   4  850.41   42.20
  -7   3   4   93.39   31.20
  -7  -3   4   72.99   43.90
  -7   3   4   94.69   33.50
  -5  -3   4  867.51   47.30
  -5   3   4  926.31   38.00
  -5   3   4  869.61   35.20
   5   3  -4  876.21   45.40
  -3   3   4   -7.80   38.90
   3   3  -4    8.50   45.40
  -3  -3   4    8.00   41.40
   3  -3  -4  -17.80   38.90
  -1   3   4  428.96   37.70
   1   3  -4  402.76   40.00
  -1  -3   4  417.76   34.00
   1  -3  -4  417.36   37.50
  -1  -3  -4  122.09   36.90
   1   3   4  121.29   37.50
   1  -3   4  115.69   29.60
  -1   3  -4  111.29   35.90
  -3  -3  -4   13.20   40.50
   3  -3   4   22.80   29.60
  -3   3  -4   50.19   35.80
   3   3   4   25.90   36.50
  -5  -3  -4  192.68   40.60
   5  -3   4  219.28   35.70
  -5   3  -4  212.68   32.40
   5   3   4  232.68   41.00
   7   3   4   17.70   42.00
  -7  -3  -4   12.40   42.30
   7  -3   4  -10.40   36.90
  -7   3  -4   12.20   37.90
  -9  -3  -4  132.09   45.10
   9   3   4  124.29   41.20
   9  -3   4  146.59   39.70
  -9   3  -4  111.29   40.40
 -16  -4   4   21.50   72.69
  16  -4  -4   19.80   41.80
 -16   4   4   27.80   41.70
 -16  -4   4   36.30   72.89
 -14  -4   4    3.70   59.89
 -14  -4   4    8.50   61.39
  14  -4  -4   -4.40   38.10
 -14   4   4    5.90   37.00
 -12  -4   4   16.40   57.19
  12  -4  -4   16.90   35.20
 -12  -4   4   23.80   51.19
 -12   4   4    8.60   34.50
 -10  -4   4  236.28   53.89
 -10  -4   4  245.68   50.09
  10  -4  -4  222.18   29.60
 -10   4   4  226.68   28.90
  -8  -4   4   22.00   50.39
  -8  -4   4   20.10   45.30
  -8   4   4   10.90   31.60
  -6   4   4  983.50   33.10
  -6  -4   4  951.80   47.10
  -6   4   4  993.00   31.20
   6   4  -4  970.70   45.00
  -4   4   4  144.09   32.80
  -4   4   4  155.18   30.60
   4   4  -4  160.68   42.20
  -4  -4   4  152.38   44.10
  -2   4   4 1936.81   38.10
   2   4  -4 1836.62   42.00
   2  -4  -4 1897.11   42.30
  -2  -4   4 1910.71   44.60
   0   4  -4  153.18   31.40
   0   4   4  154.18   36.60
   0  -4   4  174.88   29.60
   0  -4  -4  273.67   36.70
  -2  -4  -4 1146.39   37.70
   2   4   4 1291.77   38.70
  -2   4  -4 1132.09   38.10
   2  -4   4 1147.99   32.40
  -4  -4  -4   76.39   41.50
   4  -4   4   93.39   34.70
  -4   4  -4   78.39   36.50
   4   4   4   51.49   41.80
  -6  -4  -4  404.06   41.50
   6  -4   4  380.66   35.70
   6   4   4  405.86   40.90
  -6   4  -4  389.36   38.00
  -8  -4  -4   35.50   43.30
   8  -4   4   28.80   33.90
  -8   4  -4   41.40   39.30
   8   4   4   24.60   42.50
 -10  -4  -4   40.00   53.99
  10   4   4   72.59   54.39
 -10   4  -4   47.20   40.10
  10  -4   4   56.79   39.30
 -15   5   4   27.70   39.70
  15  -5  -4   16.10   39.20
 -13   5   4  235.28   35.70
  13  -5  -4  231.18   34.80
  11  -5  -4   96.29   29.90
 -11  -5   4   79.09   71.59
 -11  -5   4   84.19   74.59
 -11   5   4   81.79   34.10
  -9   5   4  511.15   32.40
   9  -5  -4  546.75   28.60
  -9  -5   4  532.05   63.39
  -9  -5   4  523.45   56.39
  -7   5   4   56.59   31.20
  -7  -5   4   70.29   50.59
   7   5  -4   67.79   45.10
  -5   5   4  544.75   27.50
  -5  -5   4  709.33   41.80
   5   5  -4  567.24   41.00
  -5   5   4  588.84   33.20
  -3   5   4   -9.90   31.40
   3   5  -4    5.00   43.00
  -3  -5   4  -21.70   41.20
  -3   5   4   -9.90   33.00
  -1   5   4  225.08   36.10
   1   5  -4  274.57   39.00
  -1  -5   4  243.68   36.20
   1  -5   4   35.80   30.50
  -1   5  -4   42.80   36.70
   1   5   4   37.20   40.00
  -1  -5  -4   49.50   39.60
   3  -5   4   41.70   33.90
   3   5   4    3.10   37.10
  -3   5  -4   -8.80   36.10
  -3  -5  -4   16.70   40.20
  -5  -5  -4  240.98   41.10
   5  -5   4  232.48   30.70
  -5   5  -4  222.58   36.80
   5   5   4  208.18   41.50
   7   5   4   -6.40   45.60
   7  -5   4   14.60   37.50
  -7  -5  -4   11.60   45.70
  -7   5  -4   19.00   39.80
   9   5   4   88.69   48.30
  -9  -5  -4   78.69   50.99
  -9   5  -4   85.79   43.90
   9  -5   4   90.59   42.70
  16  -6  -4   23.60   46.90
 -16   6   4   39.80   43.90
  14  -6  -4    1.80   38.70
 -14   6   4  -13.70   38.30
  12  -6  -4   -7.20   35.70
 -12   6   4    0.80   34.10
  10  -6  -4  115.49   28.70
 -10   6   4  111.39   33.10
  -8   6   4    8.50   32.30
  -8  -6   4    5.60   58.99
  -8  -6   4   -7.60   63.19
   6   6  -4  766.02   48.60
  -6  -6   4  764.22   48.30
  -6   6   4  769.82   32.50
  -6   6   4  745.93   34.70
  -4  -6   4  130.59   39.70
   4   6  -4  110.29   41.90
  -4   6   4  138.19   32.00
  -4   6   4  185.68   33.70
  -2   6   4  748.03   36.10
  -2  -6   4  740.13   36.40
  -2   6   4  725.23   34.40
   2   6  -4  742.13   44.40
   0  -6   4  266.17   31.30
   0   6   4  261.77   39.60
   0   6  -4  291.47   39.50
   2  -6   4  526.25   36.40
   2   6   4  512.85   42.00
  -2   6  -4  525.05   39.30
  -2  -6  -4  560.44   44.50
  -4  -6  -4   75.99   43.90
   4  -6   4   67.69   35.40
  -4   6  -4   61.29   37.80
   4   6   4   66.59   42.10
  -6  -6  -4  257.27   45.90
   6  -6   4  251.27   32.10
  -6   6  -4  240.28   39.00
   6   6   4  254.67   46.10
   8   6   4   17.10   51.29
   8  -6   4  -10.50   36.10
  -8   6  -4   20.40   41.50
  -8  -6  -4   17.30   50.89
 -15   7   4   17.40   37.30
  15  -7  -4   -2.60   38.70
 -13   7   4  201.18   37.40
  13  -7  -4  187.28   34.40
  11  -7  -4   32.40   30.90
 -11   7   4   35.00   35.00
  -9   7   4  404.46   28.70
   9  -7  -4  421.96   29.50
  -7  -7   4    9.00   56.19
  -7   7   4   -3.80   28.10
   7   7  -4   13.20   54.09
  -5  -7   4  625.24   43.30
   5   7  -4  614.14   45.50
  -5   7   4  682.43   35.10
  -5   7   4  633.64   33.10
  -3  -7   4    2.50   39.60
  -3   7   4   12.10   34.10
   3   7  -4    5.10   44.20
  -3   7   4   -2.80   35.80
  -1   7   4  128.59   39.00
  -1  -7   4  135.59   34.40
  -1   7   4  136.79   32.90
   1   7  -4  134.39   43.50
   1   7   4   32.10   40.00
   1  -7   4   45.70   35.30
  -1   7  -4   49.10   39.50
   3  -7   4    9.40   30.60
   3   7   4   10.10   41.70
  -3   7  -4   22.10   38.30
  -5  -7  -4   93.69   48.60
   5  -7   4  102.49   32.00
  -5   7  -4   93.19   33.80
   5   7   4   90.89   42.70
   7   7   4   -3.00   50.99
  -7  -7  -4    1.30   53.19
  -7   7  -4   28.60   36.70
   7  -7   4    0.30   40.00
   9   7   4   78.29   61.89
  -9   7  -4   62.79   42.30
   9  -7   4   74.09   41.10
  -9  -7  -4   35.70   64.49
  14  -8  -4   -1.00   42.90
 -14   8   4   13.40   42.60
  12  -8  -4   11.50   33.70
 -12   8   4   -4.30   33.20
  10  -8  -4   45.20   30.30
 -10   8   4   47.00   30.50
  -8   8   4   14.80   30.00
   6   8  -4  410.26   51.99
  -6   8   4  411.86   34.40
  -6  -8   4  418.86   49.40
  -6   8   4  469.05   37.00
   4   8  -4   62.99   47.80
  -4  -8   4   48.80   43.20
  -4   8   4   51.49   35.20
  -4   8   4   51.69   33.50
  -2   8   4  475.45   34.80
  -2  -8   4  476.95   39.20
   2   8  -4  503.85   44.20
  -2   8   4  484.95   35.50
   0  -8   4   45.90   34.40
   0   8  -4   16.80   38.70
   0   8   4   20.70   39.80
   0   8   4   39.20   36.80
   2   8   4  528.75   42.20
   2  -8   4  537.45   35.90
   2   8   4  560.54   40.00
  -2   8  -4  535.95   39.20
   4  -8   4   31.20   31.60
   4   8   4   11.00   46.80
  -4   8  -4   30.50   39.20
   6  -8   4  107.89   39.60
  -6   8  -4  120.69   40.50
   6   8   4  132.39   50.49
   8   8   4    9.10   60.99
  -8   8  -4    2.90   47.10
   8  -8   4    6.10   45.40
 -13   9   4  112.09   41.20
  13  -9  -4   81.49   42.80
 -11   9   4   25.60   38.30
  11  -9  -4   26.70   38.10
  -9   9   4  153.08   35.60
  -7   9   4   32.50   33.80
  -7  -9   4   20.10   74.99
   7   9  -4   20.80   64.99
  -5   9   4  125.69   34.30
   5   9  -4  129.09   52.69
  -5  -9   4  125.69   46.10
  -5   9   4  124.69   35.40
   3   9  -4   -5.20   48.00
  -3  -9   4    2.00   41.40
  -3   9   4  -19.40   38.50
  -3   9   4    2.50   35.30
  -1  -9   4   95.29   34.50
   1   9  -4   91.19   43.40
  -1   9   4   91.69   38.30
  -1   9   4   92.19   38.80
   1   9   4   54.19   40.60
   1   9   4   42.40   39.40
   1  -9   4   63.09   35.20
  -1   9  -4   49.10   39.30
   3   9   4   30.70   45.50
   3  -9   4   21.30   35.80
  -3   9  -4   42.30   38.90
   3   9   4    0.50   43.90
   5   9   4   91.99   51.39
  -5   9  -4   86.39   41.60
   5  -9   4   86.59   39.10
   5   9   4   83.59   55.29
   7   9   4    6.90   59.89
  -7   9  -4  -15.60   46.50
   7  -9   4    9.80   44.40
   7   9   4    8.70   60.79
 -12  10   4    7.10   42.90
  12 -10  -4   15.90   36.90
 -10  10   4   66.39   37.70
  -8  10   4   -2.20   30.30
  -6 -10   4  154.48   57.29
  -6  10   4  187.38   35.30
   6  10  -4  156.18   58.99
  -6  10   4  157.28   35.10
  -4  10   4   14.50   34.40
   4  10  -4   28.50   51.19
  -4 -10   4   -2.80   45.10
  -4  10   4   -0.70   35.00
  -2  10   4  268.07   36.30
   2  10  -4  252.37   49.50
  -2 -10   4  250.47   39.60
  -2  10   4  228.98   40.70
   0  10   4   32.70   41.20
   0  10  -4   38.90   45.10
   0 -10   4   47.10   38.90
   0  10   4   31.40   43.60
   2  10   4  162.58   45.90
   2  10   4  158.38   47.10
  -2  10  -4  207.68   40.90
   2 -10   4  123.79   37.20
   4  10   4    8.00   52.79
   4  10   4   23.60   55.69
  -4  10  -4   13.60   42.80
   4 -10   4    0.60   39.50
   6  10   4   89.59   65.39
  -6  10  -4   72.79   46.00
   6 -10   4   84.39   37.80
   6  10   4   77.59   65.39
 -11  11   4   -3.80   37.50
  -9  11   4  121.19   38.80
  -7  11   4    2.50   37.60
  -7  11   4    8.90   38.10
   5  11  -4  134.09   54.09
  -5 -11   4  148.49   51.29
  -5  11   4  146.19   36.60
  -5  11   4  149.29   36.50
  -3  11   4   12.10   40.90
   3  11  -4    8.30   51.09
  -3 -11   4    2.90   43.90
  -3  11   4   21.40   39.80
  -1  11   4   61.99   41.90
  -1  11   4   66.79   42.10
   1  11  -4   58.59   42.40
  -1 -11   4   67.79   41.20
   1  11   4    5.90   42.80
   1  11   4   -4.10   47.50
  -1  11  -4    8.90   41.70
   1 -11   4    0.30   40.80
   3  11   4    8.30   51.99
  -3  11  -4    2.80   42.70
   3  11   4   13.40   54.59
   3 -11   4    8.20   40.40
  -5  11  -4   20.20   47.20
   5  11   4   31.00   66.69
   5  11   4   41.50   65.49
   5 -11   4   14.10   45.00
 -10  12   4   29.00   43.40
  -8  12   4   14.40   41.10
  -6 -12   4   74.19   73.49
   6  12  -4   71.19   72.89
  -6  12   4   21.20   42.80
  -6  12   4   67.09   40.20
   4  12  -4   -3.60   55.09
  -4 -12   4   -4.50   50.09
  -4  12   4    0.70   39.10
  -4  12   4    0.40   38.00
  -2  12   4  157.08   43.60
  -2 -12   4  143.99   42.20
   2  12  -4  144.49   53.59
  -2  12   4  147.79   44.50
   0  12   4    5.50   45.60
   0  12   4    3.60   47.90
   0  12  -4  -25.50   50.19
   0 -12   4    0.20   42.70
   2  12   4   84.29   53.99
   2  12   4   92.69   56.69
  -2  12  -4   89.89   47.10
   2 -12   4   63.59   42.10
  -7  13   4   -6.00   44.60
  -7  13   4   -3.10   43.20
   5  13  -4   47.10   66.29
  -5  13   4   49.50   42.90
  -5 -13   4   38.10   63.39
  -5  13   4   11.40   45.20
   3  13  -4   10.40   59.29
  -3 -13   4   20.00   51.29
  -3  13   4    5.40   43.30
  -3  13   4  -13.50   41.10
  -1  13   4   24.20   47.50
  -1 -13   4   13.40   47.20
  -1  13   4   25.00   48.50
   1  13  -4   21.80   54.39
   1 -13   4   20.10   43.80
   1  13   4    6.50   55.19
  -1  13  -4   16.10   49.60
   1  13   4   17.80   60.89
 -16   0   5    3.10   43.90
 -16   0   5  -11.50   48.40
 -14   0   5  188.78   39.20
 -14   0   5  195.68   40.70
 -12   0   5   20.20   32.40
 -12   0   5   21.10   38.20
 -10   0   5  175.78   34.50
 -10   0   5  193.68   32.10
  -8   0   5   -8.50   35.70
  -8   0   5   13.00   32.90
  -6   0   5   84.69   35.00
   6   0  -5   99.79   34.50
  -4   0   5  355.06   36.60
   4   0  -5  373.96   35.80
   2   0  -5   -2.60   35.50
  -2   0   5    4.80   31.00
   0   0  -5 1068.49   36.40
   0   0   5 1050.99   35.90
  -2   0  -5   30.60   35.60
   2   0   5   50.89   34.80
  -4   0  -5  422.96   38.90
   4   0   5  428.96   37.70
   6   0   5   95.39   35.40
  -6   0  -5   86.59   37.40
   8   0   5  178.28   41.10
  -8   0  -5  168.28   41.30
 -17  -1   5  -10.30   49.20
 -17   1   5   18.60   43.00
 -17   1   5   11.80   43.50
 -17  -1   5  -11.60   49.20
 -15  -1   5  105.69   43.20
 -15   1   5   85.99   41.30
 -15  -1   5  115.79   41.60
 -15   1   5  103.59   40.10
 -13   1   5   16.70   35.80
 -13  -1   5    5.60   37.80
 -13   1   5   28.50   38.10
 -13  -1   5    8.60   40.00
 -11   1   5  689.03   35.50
 -11   1   5  734.53   33.80
 -11  -1   5  631.54   37.10
 -11  -1   5  657.33   40.00
  -9   1   5  200.68   32.80
  -9  -1   5  186.98   39.20
  -9  -1   5  197.78   32.10
  -9   1   5  189.78   35.20
  -7   1   5 1236.18   35.10
  -7  -1   5 1247.58   38.50
  -7   1   5 1237.38   29.00
  -5  -1   5  330.97   36.60
  -5   1   5  296.27   35.20
   5  -1  -5  349.27   35.00
   5   1  -5  314.47   35.80
   3   1  -5 1365.46   37.60
  -3   1   5 1375.26   37.30
  -3  -1   5 1337.67   33.50
   3  -1  -5 1378.86   36.90
   1  -1  -5  157.08   34.20
   1   1  -5  164.48   35.40
  -1   1   5  153.78   30.00
  -1  -1   5  158.28   35.30
  -1  -1  -5  890.11   36.50
  -1   1  -5  851.41   37.00
   1   1   5  878.51   36.30
   1  -1   5  893.31   31.90
  -3  -1  -5   37.30   36.90
  -3   1  -5   49.99   37.20
   3   1   5   43.90   36.60
   3  -1   5   17.70   36.10
  -5  -1  -5  108.99   36.80
  -5   1  -5   97.79   37.30
   5   1   5  103.29   35.90
   5  -1   5  115.69   36.80
   7   1   5    1.90   38.90
   7  -1   5    1.50   38.60
  -7  -1  -5    3.30   38.80
  -7   1  -5   -2.70   39.40
  -9  -1  -5   24.00   48.50
   9   1   5    6.80   48.30
   9  -1   5   -5.40   42.70
  -9   1  -5  -17.30   42.50
 -16  -2   5   11.20   50.29
 -16   2   5    1.70   40.20
 -16   2   5    7.00   39.70
 -16  -2   5   -3.30   51.19
 -14  -2   5  168.98   42.20
 -14   2   5  161.48   34.90
 -14   2   5  177.78   40.10
 -14  -2   5  143.79   40.80
 -12  -2   5    4.10   42.50
 -12   2   5   -5.90   33.00
 -12  -2   5    6.10   40.00
 -12   2   5   16.10   38.30
 -10  -2   5  461.85   40.80
 -10   2   5  478.75   33.00
 -10  -2   5  483.05   37.40
 -10   2   5  520.95   35.70
  -8  -2   5   26.20   39.40
  -8   2   5   12.50   31.00
  -8   2   5   27.80   33.60
  -6   2   5  125.39   33.50
  -6  -2   5  110.59   41.80
   6   2  -5  136.39   36.30
   4   2  -5  167.68   39.80
  -4   2   5  159.78   34.40
  -4  -2   5  148.09   37.40
   4  -2  -5  193.38   34.70
   2   2  -5   49.00   34.90
  -2   2   5   45.80   33.50
  -2  -2   5   47.90   30.50
   2  -2  -5   42.50   33.70
   0   2  -5  545.25   36.60
   0   2   5  499.35   30.60
   0  -2   5  495.75   31.40
   0  -2  -5  495.55   35.60
  -2  -2  -5   76.49   36.40
  -2   2  -5   71.49   36.30
   2   2   5   84.09   36.50
   2  -2   5   68.69   29.90
  -4  -2  -5  434.06   36.90
  -4   2  -5  434.36   38.10
   4   2   5  418.96   40.20
   4  -2   5  429.96   36.60
   6  -2   5   68.29   36.10
  -6  -2  -5   56.69   37.00
  -6   2  -5   36.10   37.90
   6   2   5   45.10   37.00
   8   2   5  185.58   42.10
  -8  -2  -5  181.68   45.00
   8  -2   5  179.88   41.80
  -8   2  -5  152.18   42.00
 -17  -3   5   12.40   64.49
 -17  -3   5   -9.60   61.89
 -17   3   5    8.50   43.80
 -15  -3   5   53.99   53.19
 -15  -3   5   60.29   50.79
 -15   3   5   62.69   37.80
 -13  -3   5   21.60   48.10
 -13   3   5   25.10   34.90
 -13  -3   5   38.70   44.70
 -11   3   5  550.44   35.10
 -11  -3   5  592.04   41.90
 -11   3   5  571.84   37.20
 -11  -3   5  572.34   45.70
  -9  -3   5  103.09   44.50
  -9   3   5   68.89   32.00
  -9  -3   5   82.79   40.50
  -9   3   5   98.49   34.20
  -7  -3   5 1122.29   41.50
   7   3  -5 1164.88   41.10
  -7   3   5 1164.58   30.80
  -7   3   5 1117.29   32.70
   5   3  -5  219.18   41.40
  -5  -3   5  275.17   38.70
  -5   3   5  245.78   30.00
  -3   3   5 1106.29   30.30
   3   3  -5 1051.19   38.20
  -3  -3   5 1047.20   38.80
   3  -3  -5 1096.09   34.50
   1   3  -5  185.18   35.40
  -1   3   5  185.98   34.30
  -1  -3   5  181.28   34.30
   1  -3  -5  207.28   34.50
  -1  -3  -5  726.23   37.30
   1  -3   5  701.43   36.10
  -1   3  -5  677.13   32.80
   1   3   5  717.73   37.70
  -3  -3  -5   31.30   35.50
  -3   3  -5  -12.70   32.00
   3   3   5   26.90   35.70
   3  -3   5   18.70   30.60
   5  -3   5  130.59   31.90
  -5  -3  -5  139.59   40.80
  -5   3  -5  103.09   36.80
   5   3   5  140.19   40.10
  -7  -3  -5   20.40   39.20
  -7   3  -5  -13.10   39.90
   7   3   5    3.60   43.90
   7  -3   5    8.10   34.50
  -9  -3  -5   -2.20   50.89
   9   3   5   -4.60   50.79
  -9   3  -5   18.80   46.70
   9  -3   5  -16.10   46.20
 -16  -4   5   11.50   66.19
 -16  -4   5   13.60   68.29
 -16   4   5   -4.70   41.50
 -14  -4   5   89.69   58.29
 -14  -4   5  119.89   52.59
 -14   4   5  125.99   36.30
 -12  -4   5    8.80   52.89
 -12   4   5   45.40   34.10
 -12  -4   5   21.10   48.60
 -10  -4   5  228.68   43.90
 -10  -4   5  207.08   46.00
 -10   4   5  244.88   34.00
 -10   4   5  225.48   36.20
  -8   4   5    7.50   31.30
  -8  -4   5   10.40   41.90
  -8   4   5    8.40   33.60
   6   4  -5   98.79   39.30
  -6   4   5   98.99   27.70
  -6  -4   5  108.39   41.70
  -6   4   5   99.59   34.00
  -4   4   5  219.28   33.20
   4   4  -5  205.58   37.30
  -4  -4   5  226.78   38.20
  -2   4   5   22.00   29.60
   2   4  -5   -0.20   36.90
  -2  -4   5  -12.80   35.30
   2  -4  -5   -6.20   33.90
   0   4   5  629.84   37.80
   0   4  -5  618.24   37.70
   0  -4   5  638.84   35.70
   0  -4  -5  621.04   41.10
  -2   4  -5   13.30   37.00
   2   4   5   22.60   36.30
   2  -4   5   26.10   35.30
  -2  -4  -5   34.50   35.90
  -4  -4  -5  353.86   37.80
   4  -4   5  368.16   31.10
  -4   4  -5  383.76   36.30
   4   4   5  378.96   41.20
  -6  -4  -5   22.30   42.50
   6  -4   5   53.99   39.10
  -6   4  -5   43.10   39.80
   6   4   5   25.10   42.70
   8   4   5  153.48   48.70
  -8  -4  -5  153.98   48.30
   8  -4   5   73.99   42.80
  -8   4  -5  143.39   43.80
 -15  -5   5   91.69   94.59
 -15   5   5  116.59   39.30
 -15  -5   5   97.09   85.99
 -13  -5   5   -1.90   66.19
 -13  -5   5   10.90   60.49
 -13   5   5   13.90   29.90
 -11   5   5  293.17   34.30
 -11  -5   5  318.47   51.29
 -11  -5   5  291.77   58.99
  -9   5   5  105.99   28.10
  -9  -5   5  110.19   48.30
  -9  -5   5  106.79   43.80
  -9   5   5  127.99   33.90
  -7   5   5  766.02   32.90
  -7  -5   5  766.72   47.40
  -7   5   5  845.22   35.00
   7   5  -5  762.92   41.50
   5   5  -5  173.68   41.00
  -5   5   5  162.08   31.70
  -5  -5   5  161.98   41.90
  -5   5   5  150.68   33.60
  -3   5   5  836.62   35.10
   3   5  -5  812.92   43.10
  -3  -5   5  847.12   37.70
  -1   5   5   96.99   36.10
   1   5  -5   78.29   38.40
   1  -5  -5  107.59   40.40
  -1  -5   5  107.59   36.10
   1  -5   5  441.56   37.00
   1   5   5  428.86   36.70
  -1   5  -5  426.46   39.10
  -1  -5  -5  713.93   40.90
   3  -5   5   41.00   35.50
  -3   5  -5   15.20   37.60
  -3  -5  -5   34.20   36.00
   3   5   5   22.30   37.30
  -5  -5  -5   96.29   42.50
   5  -5   5  122.59   37.40
  -5   5  -5   84.49   38.80
   5   5   5  100.89   38.60
  -7  -5  -5    9.70   45.80
   7  -5   5    1.80   36.30
  -7   5  -5    7.00   43.50
   7   5   5   18.60   46.50
 -16   6   5  -10.70   44.80
 -14   6   5  140.19   38.10
 -12   6   5   -5.40   35.00
 -10  -6   5  120.19   56.39
 -10   6   5  112.39   28.80
 -10  -6   5  128.39   59.59
 -10   6   5  114.79   34.70
  -8   6   5    1.50   32.50
  -8  -6   5    5.10   50.19
   8   6  -5    0.70   46.10
  -8   6   5   23.70   34.30
   6   6  -5   98.29   44.80
  -6   6   5  115.29   32.40
  -6  -6   5  116.49   45.00
  -6   6   5  115.59   34.40
  -4   6   5  206.08   34.70
   4   6  -5  214.48   42.40
  -4   6   5  211.38   33.00
  -4  -6   5  216.58   40.60
  -2   6   5   -3.00   35.70
  -2  -6   5   18.30   39.30
   2   6  -5    4.80   38.80
   0  -6   5  246.08   31.60
   0   6   5  219.98   36.60
   0   6  -5  247.78   39.40
   0  -6  -5  267.07   40.40
   2  -6   5   57.99   31.90
  -2  -6  -5   84.79   39.10
   2   6   5   47.50   36.60
  -2   6  -5   44.20   38.80
   4  -6   5  198.88   32.10
  -4   6  -5  217.48   39.20
   4   6   5  217.48   42.40
  -4  -6  -5  369.16   43.00
   6  -6   5   25.70   40.30
  -6   6  -5   34.80   41.90
   6   6   5   10.00   45.70
  -6  -6  -5   20.20   44.40
  -8  -6  -5  103.69   55.19
  -8   6  -5   88.89   47.80
   8  -6   5  121.29   46.40
 -15   7   5   51.49   42.30
 -13   7   5    9.90   33.10
 -11   7   5  211.28   34.80
  -9  -7   5   65.59   58.49
  -9   7   5   76.99   32.80
  -9  -7   5   78.19   55.59
  -9   7   5   54.19   34.50
  -7   7   5  469.75   34.20
  -7   7   5  512.25   35.80
  -7  -7   5  487.45   47.50
   7   7  -5  479.15   48.00
   5   7  -5    0.30   44.90
  -5   7   5   -8.10   34.00
  -5   7   5    0.30   35.70
  -5  -7   5   15.10   39.70
  -3   7   5  700.33   36.20
  -3   7   5  694.63   34.10
  -3  -7   5  669.63   37.10
   3   7  -5  707.93   44.90
  -1  -7   5   69.29   34.50
  -1   7   5   48.00   33.70
  -1   7   5   49.20   35.90
   1   7  -5   57.89   38.40
   1  -7   5  241.88   36.30
   1   7   5  234.38   36.90
  -1   7  -5  262.97   39.50
   3  -7   5   -7.30   37.00
  -3   7  -5   -6.20   39.60
   3   7   5    2.70   43.40
  -3  -7  -5   -4.70   46.10
   5  -7   5   75.39   34.80
  -5   7  -5   79.69   36.10
   5   7   5   80.39   45.10
  -5  -7  -5   65.09   47.00
  -7   7  -5   -9.40   45.20
   7  -7   5  -26.50   43.90
  -7  -7  -5    9.60   57.99
   7   7   5   -5.00   51.09
 -14   8   5   63.69   42.40
 -12   8   5   16.10   38.10
 -10   8   5   88.19   34.80
 -10   8   5   93.29   36.20
  -8   8   5  -23.70   29.70
  -8  -8   5   -5.60   55.39
   8   8  -5    0.30   52.09
  -8   8   5  -10.10   34.80
   6   8  -5   54.69   44.60
  -6  -8   5   51.99   46.10
  -6   8   5   55.09   34.40
  -6   8   5   50.19   35.80
  -4   8   5  121.39   34.10
  -4  -8   5  128.19   40.10
   4   8  -5  146.79   44.10
  -4   8   5  138.19   35.20
  -2   8   5   15.50   35.80
  -2  -8   5    5.50   35.10
   2   8  -5    2.40   39.50
  -2   8   5   12.60   34.40
   0   8   5  192.38   41.10
   0  -8   5  202.08   36.10
   0   8  -5  169.98   39.90
   0   8   5  197.48   35.70
   2  -8   5    1.20   36.50
   2   8   5   31.60   42.00
  -2   8  -5    7.30   39.50
   4  -8   5  184.98   39.70
  -4   8  -5  201.98   42.00
   4   8   5  182.68   45.10
  -6   8  -5    7.80   45.70
   6  -8   5  -16.00   44.40
   6   8   5   14.40   50.29
 -13   9   5   -7.20   42.20
 -11   9   5   92.49   33.90
  -9   9   5   -4.30   36.70
  -9   9   5   19.50   35.90
   7   9  -5  212.68   52.49
  -7   9   5  215.58   30.40
  -7  -9   5  225.98   53.49
  -7   9   5  224.68   35.70
   5   9  -5   21.30   45.20
  -5  -9   5   26.10   42.50
  -5   9   5   43.60   34.30
  -5   9   5   23.40   35.10
  -3   9   5  219.18   35.70
  -3  -9   5  206.18   39.80
   3   9  -5  212.18   45.10
  -3   9   5  206.88   34.80
  -1   9   5   31.40   40.00
  -1  -9   5   30.30   35.50
   1   9  -5   20.20   44.60
  -1   9   5   41.80   35.90
   1   9   5  154.28   41.50
   1   9   5  172.98   43.00
   1  -9   5  129.39   37.30
  -1   9  -5  132.49   44.70
   3  -9   5  -21.00   38.80
   3   9   5   -1.90   44.70
  -3   9  -5    5.70   42.10
   3   9   5    3.50   43.70
  -5   9  -5   49.70   39.50
   5  -9   5   55.19   41.70
   5   9   5   38.20   53.79
   5   9   5   10.70   52.79
 -12  10   5  -10.00   43.10
 -10  10   5   83.29   39.10
 -10  10   5   87.09   39.20
  -8  10   5    4.30   36.50
   8  10  -5   12.90   65.99
  -8 -10   5   19.40   83.79
  -8  10   5    9.30   36.20
   6  10  -5   39.90   51.79
  -6  10   5   47.70   36.10
  -6 -10   5   49.40   49.40
  -6  10   5   76.89   35.80
   4  10  -5   27.60   49.20
  -4  10   5   53.09   39.30
  -4  10   5   41.10   35.40
  -4 -10   5   28.20   40.10
  -2  10   5   10.70   40.90
   2  10  -5   -3.70   41.80
  -2 -10   5   -3.40   41.20
  -2  10   5    2.00   40.50
   0  10   5   99.89   41.20
   0  10   5  100.29   42.90
   0  10  -5  107.79   41.70
   0 -10   5  118.99   37.30
   2  10   5    1.10   49.90
  -2  10  -5  -14.40   43.20
   2 -10   5   20.50   40.00
   2  10   5   12.60   47.60
  -4  10  -5   66.79   45.00
   4  10   5   71.99   54.59
   4  10   5   78.49   58.69
   4 -10   5   77.99   42.60
 -11  11   5   37.90   43.50
 -11  11   5   67.99   43.40
  -9  11   5   12.70   40.30
  -9  11   5   28.20   39.50
   7  11  -5  134.79   63.39
  -7 -11   5  116.09   64.79
  -7  11   5   33.80   38.90
  -7  11   5  148.29   38.80
  -5  11   5    6.10   38.10
   5  11  -5    4.70   52.79
  -5 -11   5   -5.90   46.50
  -5  11   5    4.50   37.80
  -3  11   5  147.09   37.80
   3  11  -5  159.28   52.09
  -3  11   5  229.28   38.30
  -3 -11   5  150.68   42.20
  -1  11   5   -3.50   43.60
   1  11  -5    8.30   49.00
  -1  11   5   -2.60   39.50
  -1 -11   5   -2.40   39.00
   1  11   5   78.69   47.00
  -1  11  -5   99.59   49.80
   1 -11   5   75.09   40.60
   1  11   5   89.99   46.80
   3  11   5   -3.70   55.49
  -3  11  -5   -9.40   47.90
   3  11   5   -8.70   56.69
   3 -11   5    4.40   44.00
  -8  12   5    6.70   43.00
  -8  12   5   -8.70   41.70
   6  12  -5    4.90   63.19
  -6 -12   5   20.50   60.59
  -6  12   5   -0.90   41.20
  -6  12   5    5.70   40.40
  -4 -12   5   22.70   52.89
   4  12  -5   21.00   55.39
  -4  12   5   23.90   41.30
  -4  12   5    7.50   40.70
  -2  12   5  -15.90   46.30
  -2  12   5   -9.40   46.90
   2  12  -5   -4.50   51.39
  -2 -12   5    8.90   44.50
   0  12   5   39.40   48.20
   0  12   5   71.19   49.50
   0  12  -5   71.59   47.90
   0 -12   5   72.59   42.70
  -7  13   5   18.50   44.20
  -5  13   5   -3.10   49.99
   5  13  -5   -9.30   65.19
  -5 -13   5    4.30   62.09
  -5  13   5  -16.30   45.00
  -3  13   5   69.69   48.40
  -3 -13   5   43.90   55.09
   3  13  -5   57.39   63.19
  -3  13   5   51.59   50.79
 -16   0   6  143.69   43.70
 -16   0   6  121.19   45.60
 -14   0   6   53.99   35.40
 -14   0   6   39.50   40.30
 -12   0   6  314.07   34.00
 -12   0   6  301.87   39.60
 -10   0   6  150.18   35.00
 -10   0   6  132.19   32.40
  -8   0   6  461.75   40.50
  -6   0   6  186.98   34.80
   6   0  -6  196.68   34.30
  -4   0   6  390.26   35.60
   4   0  -6  405.56   34.80
   2   0  -6    3.50   34.30
  -2   0   6    2.40   34.70
   0   0  -6  215.38   35.40
   0   0   6  197.38   30.50
  -2   0  -6   97.59   37.00
   2   0   6   89.69   36.30
  -4   0  -6   13.80   37.30
   4   0   6    5.30   36.70
   6   0   6   45.20   40.10
  -6   0  -6   61.39   40.30
 -17  -1   6   -7.60   52.89
 -17   1   6  -14.80   46.30
 -17   1   6   -8.20   48.80
 -17  -1   6    3.40   50.19
 -15  -1   6   55.49   41.40
 -15   1   6   42.70   36.50
 -15   1   6   49.10   37.70
 -15  -1   6   36.20   42.80
 -13  -1   6   35.00   40.10
 -13   1   6   21.00   37.60
 -13  -1   6   28.20   37.90
 -13   1   6   11.90   39.70
 -11  -1   6   19.50   34.80
 -11  -1   6    6.80   32.20
 -11   1   6    3.90   32.30
 -11   1   6    6.50   34.50
  -9   1   6  363.36   35.90
  -9  -1   6  345.27   35.60
  -9   1   6  375.76   33.30
  -9  -1   6  349.37   32.90
  -7   1   6   23.20   34.30
  -7  -1   6   34.20   35.90
   7   1  -6   57.69   39.60
   5   1  -6  715.93   35.00
  -5   1   6  731.03   35.30
  -5  -1   6  731.23   36.40
   5  -1  -6  764.32   35.40
   3   1  -6  146.09   35.50
  -3   1   6  163.98   30.10
  -3  -1   6  162.58   35.60
   3  -1  -6  162.58   34.10
   1  -1  -6  781.12   36.50
   1   1  -6  781.82   36.80
  -1   1   6  817.22   35.70
  -1  -1   6  789.12   36.70
  -1  -1  -6  118.09   37.40
  -1   1  -6  116.59   36.30
   1   1   6   99.49   37.50
   1  -1   6  143.79   35.60
  -3  -1  -6  507.35   40.60
  -3   1  -6  455.35   33.20
   3   1   6  494.55   37.00
   3  -1   6  456.85   37.00
  -5  -1  -6   71.79   41.90
  -5   1  -6   27.10   37.90
   5   1   6   45.30   38.30
   5  -1   6   49.60   37.50
   7  -1   6  114.49   43.30
   7   1   6  106.99   43.10
  -7  -1  -6  106.69   42.70
  -7   1  -6  110.49   42.80
 -16  -2   6  153.28   50.59
 -16  -2   6  134.59   49.99
 -16   2   6  150.68   40.10
 -16   2   6  123.79   44.60
 -14  -2   6   26.60   41.40
 -14   2   6   27.90   36.20
 -14   2   6   21.20   34.70
 -14  -2   6   19.40   39.80
 -12  -2   6  381.26   40.50
 -12   2   6  390.86   33.70
 -12  -2   6  417.96   40.70
 -12   2   6  431.86   35.50
 -10  -2   6   28.90   38.60
 -10   2   6   28.50   32.50
 -10  -2   6   29.70   36.20
 -10   2   6    9.20   35.70
  -8   2   6  939.61   35.40
  -8  -2   6  926.61   40.40
  -8   2   6  959.60   33.40
   8   2  -6  968.40   40.00
  -6   2   6   34.00   34.70
  -6  -2   6   38.30   36.70
   6   2  -6   34.10   35.60
   4   2  -6  559.34   36.20
  -4   2   6  573.14   34.10
  -4  -2   6  572.34   36.80
   4  -2  -6  588.24   34.10
   2   2  -6   -3.90   35.10
  -2   2   6   16.50   34.50
  -2  -2   6    5.20   35.10
   2  -2  -6    0.30   34.40
   0  -2  -6   90.39   37.20
   0   2  -6   67.59   35.60
   0   2   6   59.09   37.20
   0  -2   6   52.49   35.30
  -2  -2  -6   49.90   36.90
  -2   2  -6    8.60   31.40
   2   2   6   50.69   37.00
   2  -2   6   35.40   34.60
  -4  -2  -6   23.00   37.50
  -4   2  -6    3.50   32.20
   4   2   6   -7.10   37.50
   4  -2   6    9.20   36.70
   6  -2   6   86.99   38.80
  -6  -2  -6   74.79   45.50
  -6   2  -6   63.89   40.10
   6   2   6   71.69   40.90
 -17  -3   6  -11.90   62.19
 -17  -3   6   -3.00   58.39
 -17   3   6  -12.50   44.30
 -17   3   6   -7.10   50.69
 -15  -3   6   37.70   52.59
 -15  -3   6   23.20   50.39
 -15   3   6   49.50   41.30
 -15   3   6    7.20   39.00
 -13   3   6   17.20   34.80
 -13  -3   6    5.90   45.30
 -13  -3   6   11.90   42.20
 -13   3   6   -6.00   36.50
 -11  -3   6   -7.70   43.30
 -11  -3   6    8.40   39.40
 -11   3   6   25.30   34.10
 -11   3   6   15.40   36.20
  -9  -3   6  270.27   40.40
  -9   3   6  278.27   28.90
  -9   3   6  285.57   35.90
  -7   3   6   18.40   34.10
  -7  -3   6   31.50   40.90
  -7   3   6   14.00   31.80
   7   3  -6   30.00   35.00
   5   3  -6  694.53   41.40
  -5   3   6  669.43   33.90
  -5  -3   6  689.53   38.50
   5  -3  -6  719.13   34.10
   3   3  -6  159.68   36.30
  -3   3   6  124.99   33.90
  -3  -3   6  138.89   36.50
   3  -3  -6  128.19   34.30
   1   3  -6  531.15   37.30
  -1   3   6  543.45   37.70
  -1  -3   6  687.33   36.00
   1  -3  -6  548.35   32.20
  -1  -3  -6  127.49   40.60
  -1   3  -6  148.99   36.50
   1  -3   6  153.28   35.10
   1   3   6  143.09   37.50
  -3  -3  -6  392.56   37.50
  -3   3  -6  377.66   33.40
   3   3   6  376.06   37.90
   3  -3   6  395.96   32.50
   5  -3   6   30.00   38.20
  -5  -3  -6   37.40   39.00
  -5   3  -6   39.20   35.20
   5   3   6   54.19   39.60
   7   3   6   96.69   44.80
  -7  -3  -6  111.69   45.10
   7  -3   6   89.89   43.60
  -7   3  -6  101.99   44.70
 -16  -4   6  103.49   63.79
 -16  -4   6  122.29   61.09
 -16   4   6  106.09   41.60
 -16   4   6  118.59   42.80
 -14  -4   6   10.40   51.19
 -14  -4   6   27.30   48.30
 -14   4   6   18.00   38.00
 -14   4   6    9.20   37.30
 -12   4   6  212.18   34.60
 -12  -4   6  201.38   48.30
 -12  -4   6  235.18   41.50
 -12   4   6  236.68   35.80
 -10  -4   6  110.89   40.10
 -10  -4   6  101.79   41.20
 -10   4   6   88.39   29.20
 -10   4   6  110.69   35.70
  -8  -4   6  429.16   42.00
  -8   4   6  433.96   28.00
   8   4  -6  449.36   39.80
  -8   4   6  455.05   34.50
   6   4  -6   58.29   39.10
  -6   4   6   39.40   34.10
  -6   4   6   46.50   32.40
  -6  -4   6   36.40   36.80
   4   4  -6  409.16   37.80
  -4   4   6  381.86   34.70
  -4  -4   6  401.36   38.30
   4  -4  -6  468.25   34.10
   2   4  -6  -10.30   37.90
  -2   4   6   19.80   35.50
  -2  -4   6   -1.70   37.00
   2  -4  -6   14.20   36.20
   0   4  -6   99.09   37.30
   0   4   6   95.99   36.90
   0  -4   6  117.29   36.40
   0  -4  -6  103.89   36.20
  -2   4  -6   53.29   36.90
   2   4   6   52.49   37.40
   2  -4   6   46.40   31.20
  -2  -4  -6   87.49   36.60
  -4  -4  -6    4.70   41.40
   4  -4   6  -24.50   38.90
  -4   4  -6    1.40   34.40
   4   4   6   12.50   37.80
  -6  -4  -6   72.39   45.70
   6  -4   6   51.99   37.30
  -6   4  -6   75.09   42.00
   6   4   6   34.90   42.60
 -15  -5   6   54.39   67.39
 -15  -5   6   56.69   71.79
 -15   5   6   46.70   39.20
 -15   5   6   49.70   40.90
 -13  -5   6   37.50   53.89
 -13  -5   6   27.40   58.79
 -13   5   6   21.80   36.70
 -13   5   6   50.29   30.90
 -11   5   6   -0.80   33.70
 -11  -5   6   15.40   44.90
 -11  -5   6   17.30   49.70
 -11   5   6  -13.50   35.80
  -9  -5   6  157.08   45.30
   9   5  -6  166.98   39.70
  -9   5   6  167.48   28.70
  -9   5   6  156.58   34.50
  -7  -5   6   13.50   41.10
  -7   5   6   -5.10   28.30
   7   5  -6   11.10   39.30
  -7   5   6   10.70   34.20
  -5   5   6  497.25   35.20
   5   5  -6  494.95   41.90
  -5   5   6  500.55   33.80
  -5  -5   6  521.85   38.10
  -3   5   6   27.40   35.90
   3   5  -6   51.49   37.40
  -3  -5   6   48.70   36.00
   1   5  -6  525.35   39.00
  -1   5   6  516.05   36.70
   1  -5  -6  527.05   36.50
  -1  -5   6  522.05   37.20
  -1   5  -6   50.59   37.70
   1   5   6   35.30   37.20
  -1  -5  -6   63.89   36.60
   1  -5   6   42.60   31.90
   3  -5   6  257.27   37.20
  -3  -5  -6  264.77   41.00
  -3   5  -6  256.07   39.40
   3   5   6  230.28   41.90
   5  -5   6   28.10   40.90
  -5   5  -6   35.40   36.50
   5   5   6   19.80   41.50
  -5  -5  -6   45.00   40.40
 -16   6   6   86.09   43.00
 -16   6   6   38.70   46.40
 -14   6   6    5.30   37.00
 -14   6   6    0.80   39.50
 -12   6   6  268.77   35.30
 -12  -6   6  292.57   57.79
 -12  -6   6  263.47   61.09
 -12   6   6  241.08   37.40
 -10   6   6   24.40   33.60
 -10  -6   6   32.70   49.50
 -10  -6   6   20.40   45.20
 -10   6   6   27.90   34.70
  -8  -6   6  303.07   44.80
   8   6  -6  268.77   43.60
  -8   6   6  291.27   34.30
  -8   6   6  308.87   28.50
  -6   6   6   45.40   35.40
   6   6  -6   40.90   40.90
  -6  -6   6   27.20   40.60
  -6   6   6   24.10   32.90
  -4   6   6  301.07   37.00
   4   6  -6  325.27   43.10
  -4  -6   6  317.67   36.80
  -4   6   6  341.57   31.10
  -2   6   6   26.80   35.70
   2   6  -6   11.50   38.00
  -2  -6   6   -2.80   36.10
   0  -6   6   72.69   36.40
   0   6  -6   80.19   38.90
   0   6   6   73.59   40.60
   0  -6  -6   78.79   36.30
   2  -6   6   17.20   36.20
  -2   6  -6   18.40   38.20
   2   6   6   13.80   37.70
  -2  -6  -6   31.80   40.40
   4  -6   6   17.10   35.20
  -4   6  -6    1.70   42.10
   4   6   6    9.80   40.60
  -4  -6  -6   22.00   44.00
   6  -6   6    7.30   46.20
  -6   6  -6   51.99   45.90
   6   6   6   25.40   45.70
  -6  -6  -6   35.70   49.70
 -15   7   6   31.20   42.60
 -15   7   6   26.70   43.90
 -13   7   6   34.10   37.20
 -13   7   6  -13.70   38.20
 -11  -7   6   14.80   62.09
 -11   7   6   -5.30   31.30
 -11   7   6   15.40   35.80
 -11  -7   6   20.60   64.19
   9   7  -6   88.29   47.70
  -9   7   6   95.39   33.80
  -9  -7   6   96.39   49.10
  -9   7   6  112.89   35.40
   7   7  -6   41.90   43.60
  -7   7   6   30.10   33.30
  -7  -7   6   43.90   43.90
  -7   7   6   44.40   35.40
  -5   7   6  251.07   35.00
   5   7  -6  232.88   41.90
  -5   7   6  246.78   34.90
  -5  -7   6  252.27   40.30
  -3   7   6    6.80   34.10
  -3   7   6    8.00   35.40
   3   7  -6   11.70   39.10
  -3  -7   6   -1.40   40.10
  -1  -7   6  368.16   37.10
  -1   7   6  325.87   36.30
   1   7  -6  359.76   39.70
   1  -7   6   40.50   36.70
  -1   7  -6   17.50   39.40
   1   7   6   36.70   37.70
   3  -7   6  170.28   35.20
  -3   7  -6  159.38   41.50
   3   7   6  149.29   44.40
  -3  -7  -6  166.38   48.80
   5  -7   6   24.50   39.10
  -5   7  -6   -6.60   46.90
   5   7   6   10.10   49.50
  -5  -7  -6   -1.30   52.09
 -14   8   6    5.90   43.50
 -14   8   6   -4.60   42.20
 -12   8   6   21.50   39.90
 -12   8   6  130.59   38.90
 -10  -8   6    6.40   60.29
 -10   8   6   13.20   36.60
 -10  -8   6    0.80   62.89
 -10   8   6    8.10   37.30
  -8  -8   6  180.58   48.80
  -8   8   6  160.38   30.60
  -8   8   6  184.68   31.20
   8   8  -6  152.68   48.40
  -6  -8   6   22.90   40.70
   6   8  -6   41.80   45.40
  -6   8   6   13.40   34.70
  -6   8   6   13.60   35.60
  -4   8   6  204.88   35.60
  -4  -8   6  183.38   41.70
   4   8  -6  179.58   40.60
  -4   8   6  201.78   35.00
  -2  -8   6    2.90   35.80
  -2   8   6   18.10   35.50
   2   8  -6   19.40   43.20
  -2   8   6   16.00   34.90
   0   8   6   50.89   36.80
   0  -8   6   47.10   37.00
   0   8   6   42.00   41.00
   0   8  -6   41.50   41.50
   2  -8   6   10.00   38.10
  -2   8  -6   16.20   42.00
   2   8   6   29.70   45.10
   4  -8   6   -5.40   37.50
  -4   8  -6   13.30   43.30
   4   8   6    1.10   49.40
 -13   9   6    8.50   37.50
 -13   9   6    5.00   37.80
 -11   9   6    0.50   38.80
 -11   9   6   10.00   39.40
  -9   9   6   81.79   36.60
  -9  -9   6   76.89   60.39
   9   9  -6   82.09   56.59
  -9   9   6   20.10   32.90
   7   9  -6   -7.60   46.70
  -7  -9   6    7.40   48.20
  -7   9   6  -13.30   35.40
  -7   9   6    3.20   34.70
  -5   9   6  148.99   36.80
   5   9  -6  163.98   44.20
  -5  -9   6  144.89   42.00
  -5   9   6  160.58   36.50
  -3   9   6    2.30   39.20
  -3  -9   6   18.90   40.30
   3   9  -6   15.40   40.60
  -3   9   6   -2.70   35.40
  -1   9   6  119.69   38.00
  -1  -9   6  154.48   38.60
   1   9  -6  144.69   42.40
  -1   9   6  151.18   37.00
   1  -9   6   15.70   40.30
   1   9   6    9.10   45.10
  -1   9  -6   35.30   43.80
   1   9   6   23.40   43.50
   3   9   6   13.00   43.80
  -3   9  -6  105.49   46.90
   3  -9   6   90.19   44.30
   3   9   6  113.59   50.29
 -12  10   6   63.99   38.30
 -12  10   6   16.50   44.60
 -10  10   6   17.40   40.40
 -10  10   6   16.50   34.60
  -8  10   6  136.89   38.60
  -8 -10   6  144.79   57.89
  -8  10   6  120.39   33.30
   8  10  -6  146.59   58.19
   6  10  -6    4.30   49.60
  -6 -10   6  -10.80   48.00
  -6  10   6  -15.20   37.90
  -6  10   6   -6.00   38.00
  -4  10   6   84.99   42.80
   4  10  -6   86.59   46.30
  -4 -10   6   93.29   42.90
  -4  10   6  111.19   38.00
  -2  10   6    3.80   39.00
  -2  10   6  -14.10   42.40
   2  10  -6    2.70   48.90
  -2 -10   6   -5.00   39.10
   0  10   6   24.50   46.10
   0  10  -6   19.70   45.20
   0 -10   6    6.00   41.10
   0  10   6   23.80   44.50
  -2  10  -6  -18.70   48.30
   2  10   6   18.30   50.29
   2 -10   6   15.90   42.80
   2  10   6    3.50   49.40
 -11  11   6   10.30   39.20
 -11  11   6   13.10   43.20
  -9  11   6   27.10   36.90
  -9  11   6   38.60   42.80
   7  11  -6  -10.30   55.59
  -7  11   6    6.10   40.50
  -7 -11   6   -1.70   54.59
  -7  11   6    0.40   39.90
  -5  11   6   50.79   39.90
   5  11  -6   30.90   51.89
  -5  11   6   80.69   40.30
  -5 -11   6   83.39   49.10
  -3  11   6    6.40   45.50
   3  11  -6   14.50   50.09
  -3 -11   6   20.20   45.90
  -3  11   6  -14.50   40.70
  -1  11   6   62.69   47.60
   1  11  -6   92.09   47.60
  -1 -11   6   70.69   42.50
  -1  11   6   80.09   48.10
   1  11   6    5.70   51.99
   1  11   6    9.40   52.09
  -8 -12   6   53.79   88.39
   8  12  -6   24.40   78.39
  -8  12   6   56.09   45.30
  -8  12   6   41.20   44.80
  -6  12   6    6.20   43.20
  -6  12   6   -2.10   43.80
   6  12  -6    3.20   60.09
  -6 -12   6   13.50   58.79
  -4  12   6   15.70   43.70
   4  12  -6   39.40   55.39
  -4  12   6   39.50   44.80
  -4 -12   6   37.40   49.90
  -2  12   6  -11.20   49.70
   2  12  -6   24.00   50.29
  -2  12   6   -4.40   50.29
  -2 -12   6    4.10   44.50
 -16   0   7    0.70   45.00
 -16   0   7  -12.00   43.40
 -14   0   7  124.99   37.20
 -14   0   7  123.89   35.50
 -12   0   7   39.80   35.80
 -12   0   7   34.50   36.90
 -10   0   7  291.97   39.10
 -10   0   7  309.87   33.20
  -8   0   7  137.59   36.30
  -6   0   7  534.65   37.20
   6   0  -7  733.03   36.60
  -4   0   7  208.08   30.60
   4   0  -7  210.78   35.60
   2   0  -7  477.05   36.10
  -2   0   7  458.05   31.30
   0   0  -7   61.79   32.20
   0   0   7   54.29   31.90
  -2   0  -7  266.87   38.10
   2   0   7  254.57   36.60
  -4   0  -7   -4.50   40.10
   4   0   7  -21.30   39.70
   6   0   7   23.30   46.50
  -6   0  -7   36.60   44.20
 -17  -1   7   80.79   50.59
 -17  -1   7   79.79   48.50
 -17   1   7   69.09   43.00
 -17   1   7   68.69   49.10
 -15   1   7   22.30   37.30
 -15  -1   7   -6.70   43.90
 -15  -1   7   13.20   42.00
 -15   1   7    4.70   38.80
 -13   1   7  185.98   35.90
 -13  -1   7  176.58   41.80
 -13   1   7  187.48   34.40
 -13  -1   7  179.98   35.40
 -11  -1   7   15.90   37.30
 -11   1   7   -1.00   34.30
 -11  -1   7   30.60   39.80
 -11   1   7   16.50   32.40
  -9   1   7  207.68   37.00
  -9  -1   7  188.58   35.40
  -9   1   7  207.58   34.80
  -7   1   7   41.70   35.00
   7  -1  -7   26.20   34.60
  -7  -1   7   50.19   35.80
   7   1  -7   41.00   35.80
  -5   1   7   34.40   34.50
  -5  -1   7   40.10   37.40
   5  -1  -7   85.19   29.40
   5   1  -7   19.90   36.30
   3   1  -7  129.69   31.40
  -3   1   7  148.79   36.20
  -3  -1   7  182.68   35.70
   3  -1  -7  144.99   35.10
   1  -1  -7   16.90   36.50
   1   1  -7  -25.20   35.70
  -1   1   7   30.60   36.50
  -1  -1   7   -2.20   35.30
  -1  -1  -7  205.18   36.10
  -1   1  -7  210.18   37.60
   1   1   7  179.58   37.40
   1  -1   7  213.48   36.50
  -3  -1  -7   24.00   38.70
  -3   1  -7   28.20   38.10
   3   1   7   -7.60   37.80
   3  -1   7   -7.50   37.50
   5  -1   7  150.08   42.40
  -5  -1  -7  114.69   43.10
  -5   1  -7  133.89   41.80
   5   1   7  140.19   43.00
 -16  -2   7   15.50   51.59
 -16  -2   7    3.40   49.70
 -16   2   7   20.40   40.60
 -16   2   7    6.70   41.70
 -14  -2   7  114.29   42.70
 -14   2   7  154.48   36.20
 -14  -2   7  136.99   40.40
 -14   2   7  153.88   37.30
 -12   2   7    4.70   35.80
 -12  -2   7    9.90   41.00
 -12  -2   7   25.90   34.20
 -12   2   7   41.40   34.10
 -10   2   7  416.96   36.70
 -10  -2   7  384.66   36.90
 -10  -2   7  406.16   33.70
 -10   2   7  406.66   34.70
  -8   2   7   21.30   36.10
  -8  -2   7   27.80   35.50
  -8   2   7   34.00   34.40
   8   2  -7   16.70   34.70
  -6   2   7  720.23   35.70
  -6  -2   7  733.03   38.50
   6  -2  -7  792.62   35.00
   6   2  -7  725.23   37.20
   4   2  -7   51.59   37.70
  -4   2   7   72.59   35.50
  -4  -2   7  101.99   38.00
   4  -2  -7  127.09   30.60
   2   2  -7  566.14   37.40
  -2   2   7  540.65   32.50
  -2  -2   7  549.65   37.20
   2  -2  -7  542.75   36.30
   0  -2  -7   71.09   37.30
   0   2  -7   75.09   36.30
   0   2   7   81.49   36.70
   0  -2   7   80.59   35.70
  -2  -2  -7  134.19   37.40
  -2   2  -7  148.09   33.80
   2   2   7  148.09   37.40
   2  -2   7  151.28   32.50
  -4  -2  -7   14.50   40.70
  -4   2  -7  -14.40   40.70
   4   2   7    2.60   39.50
   4  -2   7    4.00   40.70
   6   2   7   23.80   45.00
 -17  -3   7   54.69   58.89
 -17  -3   7   65.79   59.19
 -17   3   7   61.09   44.60
 -15   3   7    2.80   39.00
 -15  -3   7    3.50   48.50
 -15  -3   7    5.90   51.49
 -15   3   7   -3.70   40.10
 -13  -3   7  127.39   46.30
 -13   3   7  142.99   35.50
 -13  -3   7  139.99   39.80
 -13   3   7  128.19   36.80
 -11   3   7   14.80   34.20
 -11  -3   7   20.30   41.10
 -11  -3   7   27.70   37.50
 -11   3   7   26.70   35.50
  -9   3   7  113.79   35.50
  -9   3   7  123.79   33.70
  -9  -3   7  136.29   36.30
   9   3  -7  117.49   35.20
  -7   3   7    3.50   29.80
  -7  -3   7   -4.80   36.70
   7   3  -7    6.90   35.30
   5   3  -7   11.30   36.80
  -5   3   7   20.40   34.90
  -5  -3   7   40.50   37.30
   5  -3  -7   43.90   34.70
   3  -3  -7  191.38   36.20
   3   3  -7  145.69   38.00
  -3   3   7  159.28   31.40
  -3  -3   7  157.68   37.80
   1   3  -7  -13.10   37.70
  -1   3   7    5.30   36.80
  -1  -3   7    0.70   36.50
   1  -3  -7    1.00   36.40
  -1  -3  -7  111.39   36.50
  -1   3  -7  110.39   37.90
   1   3   7  106.69   36.80
   1  -3   7  108.29   36.40
  -3  -3  -7   29.00   38.90
  -3   3  -7    2.50   40.50
   3   3   7   28.10   39.40
   3  -3   7    7.90   39.50
  -5  -3  -7  101.19   47.80
   5  -3   7  113.49   43.80
  -5   3  -7  104.69   44.00
   5   3   7  110.39   43.70
 -16  -4   7   -1.40   60.89
 -16  -4   7  -12.20   57.29
 -16   4   7    3.50   40.30
 -16   4   7    8.30   43.40
 -14   4   7  107.39   38.10
 -14  -4   7  120.19   47.20
 -14  -4   7  112.39   54.79
 -14   4   7  117.69   39.50
 -12  -4   7    5.60   46.20
 -12  -4   7   11.80   42.10
 -12   4   7   18.70   34.80
 -12   4   7   22.50   36.20
 -10   4   7  233.38   36.10
 -10   4   7  237.08   34.30
 -10  -4   7  234.48   42.40
  -8   4   7   65.29   34.20
  -8   4   7  105.29   28.20
  -8  -4   7   78.69   37.20
   8   4  -7  134.79   39.00
   6   4  -7  436.56   40.80
  -6   4   7  422.56   34.80
  -6  -4   7  423.96   41.80
   4   4  -7   60.39   37.50
  -4   4   7   64.49   35.60
  -4  -4   7   48.50   37.30
   4  -4  -7   68.79   35.70
   2   4  -7  392.16   38.00
  -2   4   7  425.26   37.20
  -2  -4   7  416.76   37.40
   2  -4  -7  442.96   37.00
   0   4  -7   46.30   37.40
   0   4   7   44.60   37.00
   0  -4   7   36.70   32.30
   0  -4  -7   18.70   36.60
  -2   4  -7  149.99   34.90
   2   4   7  152.58   38.80
   2  -4   7  149.29   38.80
  -2  -4  -7  170.08   37.70
   4  -4   7  -19.90   37.20
  -4   4  -7   16.00   41.80
   4   4   7   -5.10   42.30
  -4  -4  -7   11.00   42.20
 -15  -5   7    3.20   64.09
 -15  -5   7   21.80   62.79
 -15   5   7    6.10   41.10
 -15   5   7    7.50   41.00
 -13   5   7  147.49   32.00
 -13  -5   7  151.48   53.49
 -13  -5   7  164.48   50.39
 -13   5   7  175.98   37.80
 -11  -5   7    7.60   41.40
 -11  -5   7   -4.10   46.50
 -11   5   7    7.40   34.90
 -11   5   7   -2.50   31.20
  -9   5   7  123.69   35.30
  -9   5   7  136.19   29.30
  -9  -5   7  138.49   42.50
   9   5  -7  118.29   43.60
  -7   5   7   -0.50   34.50
  -7   5   7   -2.70   33.00
  -7  -5   7   12.20   37.30
   7   5  -7   12.30   35.60
   5   5  -7   51.19   37.90
  -5   5   7   31.60   35.50
  -5  -5   7   49.70   37.80
   3   5  -7  104.69   37.50
  -3   5   7  111.59   36.40
  -3  -5   7  123.89   36.70
   3  -5  -7  117.59   36.70
   1   5  -7   -8.30   37.90
  -1   5   7   -8.90   36.60
   1  -5  -7   17.70   35.90
  -1  -5   7   -2.20   37.30
  -1   5  -7  133.69   39.80
   1   5   7  150.78   42.30
  -1  -5  -7  260.87   38.20
   1  -5   7  153.08   33.80
   3  -5   7   -0.70   36.60
  -3   5  -7  -13.00   43.20
   3   5   7    7.20   41.90
  -3  -5  -7   18.80   41.20
   5  -5   7   51.49   45.70
  -5   5  -7   50.19   42.30
 -14  -6   7   69.89   63.99
 -14  -6   7   48.40   68.69
 -14   6   7  -10.00   39.70
 -14   6   7   48.60   39.80
 -12   6   7   23.60   32.10
 -12  -6   7   10.10   48.60
 -12  -6   7  -10.20   55.59
 -12   6   7   -4.90   37.20
 -10  -6   7  251.77   50.09
 -10   6   7  264.97   29.90
 -10   6   7  261.37   31.50
  -8   6   7   22.40   30.70
  -8   6   7   31.30   33.90
  -8  -6   7   21.50   42.50
   8   6  -7   29.00   41.10
   6   6  -7  234.98   38.00
  -6   6   7  268.37   35.60
  -6   6   7  244.98   35.10
  -6  -6   7  236.38   41.90
   4   6  -7   70.09   41.20
  -4   6   7   65.49   36.10
  -4   6   7   73.69   30.60
  -4  -6   7   51.09   40.50
   2   6  -7  274.87   38.30
  -2   6   7  268.47   36.80
  -2  -6   7  290.37   37.00
   0  -6   7   15.40   37.80
   0   6  -7    8.30   34.60
   0   6   7   20.70   41.80
   0  -6  -7   10.60   37.70
   2  -6   7  121.09   40.90
  -2   6  -7  121.89   42.40
   2   6   7  107.79   46.50
  -2  -6  -7  115.39   41.00
   4  -6   7    2.20   40.40
  -4   6  -7   -5.90   47.10
   4   6   7   24.90   50.99
  -4  -6  -7   -1.10   48.30
 -15   7   7    6.20   42.70
 -15   7   7   15.70   44.70
 -13   7   7   82.29   40.10
 -13  -7   7   85.99   68.59
 -13  -7   7   85.69   73.49
 -13   7   7   68.29   41.30
 -11  -7   7    0.50   52.39
 -11   7   7    3.20   36.00
 -11  -7   7   -2.70   54.69
 -11   7   7   -3.10   32.90
  -9  -7   7  115.19   45.80
  -9   7   7  107.29   36.10
   9   7  -7  106.59   44.20
  -9   7   7  113.89   35.60
   7   7  -7  -10.10   42.30
  -7   7   7   -4.40   36.30
  -7   7   7  -15.80   35.50
  -7  -7   7    5.70   45.70
  -5   7   7   24.80   36.20
   5   7  -7    1.20   38.90
  -5   7   7   19.60   35.20
  -5  -7   7   -2.00   42.00
   3   7  -7   40.20   38.90
  -3   7   7   43.70   36.80
  -3   7   7   31.80   36.00
  -3  -7   7   42.70   40.40
  -1  -7   7   -2.10   38.60
   1   7  -7   -8.30   40.60
  -1   7   7    6.50   38.40
   1  -7   7  100.59   38.50
  -1   7  -7   98.39   42.00
   1   7   7   84.99   45.30
  -1  -7  -7   94.69   44.20
   3  -7   7   18.40   44.90
  -3   7  -7   12.60   44.80
   3   7   7   -4.60   44.40
  -3  -7  -7   -5.40   54.19
 -14   8   7   53.59   39.40
 -14   8   7  -16.20   40.00
 -12   8   7   19.80   35.70
 -12  -8   7   -3.90   73.59
 -12   8   7   -9.80   41.00
 -12  -8   7   -0.80   74.09
 -10  -8   7  125.69   53.29
 -10   8   7  118.99   33.50
 -10   8   7  125.39   39.10
  -8   8   7   24.30   38.00
  -8   8   7   -0.40   37.60
   8   8  -7    2.10   42.90
  -8  -8   7   10.90   47.00
  -6   8   7  154.78   36.40
   6   8  -7  152.68   43.90
  -6   8   7  172.88   35.10
  -6  -8   7  158.78   43.30
  -4  -8   7   29.20   38.20
  -4   8   7   37.20   35.30
  -4   8   7   33.40   36.00
   4   8  -7   32.00   44.50
  -2  -8   7  181.68   39.50
   2   8  -7  205.08   42.10
  -2   8   7  199.08   38.70
  -2   8   7  234.48   38.60
   0  -8   7   21.50   39.80
   0   8  -7   17.30   42.60
   0   8   7    3.00   41.40
   2  -8   7   77.19   38.60
  -2   8  -7   80.99   47.20
   2   8   7   83.09   49.80
 -13   9   7   26.40   39.60
 -13   9   7    5.00   39.90
 -11   9   7  -10.00   41.50
 -11  -9   7    6.70   72.89
 -11  -9   7   -5.10   74.49
 -11   9   7  -14.50   41.70
  -9  -9   7   65.69   53.39
  -9   9   7   46.90   34.10
   9   9  -7   45.70   52.49
  -9   9   7   30.40   34.40
  -7   9   7    2.70   38.20
   7   9  -7   10.60   44.50
  -7  -9   7    7.10   45.00
  -7   9   7   19.90   33.20
  -5   9   7   30.10   39.20
   5   9  -7   -0.40   46.60
  -5  -9   7   13.60   43.70
  -5   9   7   37.10   38.70
  -3  -9   7   34.20   39.50
  -3   9   7   48.30   43.10
   3   9  -7   39.10   48.00
  -3   9   7   39.40   39.40
  -1  -9   7   -0.50   42.00
   1   9  -7  -14.00   48.80
  -1   9   7   -4.60   42.20
  -1   9   7  -10.20   41.50
   1  -9   7   35.80   43.90
  -1   9  -7   18.60   46.70
   1   9   7   47.60   45.50
   1   9   7  -49.80   44.70
 -10  10   7   65.39   42.00
 -10 -10   7   49.80   72.79
 -10  10   7   38.80   41.80
  -8  10   7   -9.10   40.10
  -8 -10   7    5.70   55.09
  -8  10   7   23.00   41.20
   8  10  -7    4.60   56.29
  -6  10   7  115.09   40.10
   6  10  -7   90.79   51.39
  -6 -10   7  118.79   46.70
  -6  10   7   95.19   40.40
  -4  10   7    2.60   41.00
  -4  10   7    8.90   44.50
   4  10  -7   -1.00   50.19
  -4 -10   7   -8.90   41.80
  -2  10   7   66.09   43.40
   2  10  -7   68.99   53.09
  -2 -10   7   70.09   43.70
  -2  10   7   86.79   46.90
   0 -10   7   -9.20   45.70
   0  10   7   -0.70   45.90
  -9  11   7   17.30   43.70
  -9  11   7   34.20   44.50
  -7  11   7   -2.40   43.40
   7  11  -7   17.10   55.79
  -7  11   7  -11.70   42.20
  -7 -11   7    4.40   58.69
  -5  11   7   -3.80   43.50
   5  11  -7   -3.80   56.29
  -5 -11   7    6.30   50.29
  -5  11   7   -9.40   44.10
  -3  11   7   -8.90   45.20
   3  11  -7   31.60   55.49
  -3 -11   7   13.30   51.19
  -3  11   7    9.10   49.99
 -16   0   8    0.90   43.20
 -16   0   8   16.50   45.00
 -14   0   8   41.90   43.00
 -14   0   8   35.20   36.70
 -12   0   8   59.09   39.90
 -12   0   8   52.39   34.80
 -10   0   8    5.70   36.30
 -10   0   8    4.90   34.10
  -8   0   8  112.49   32.20
   8   0  -8  114.19   36.30
  -6   0   8   20.70   37.00
   6   0  -8   13.10   31.70
  -4   0   8  258.47   32.20
   4   0  -8  281.57   36.40
   2   0  -8   62.99   37.20
  -2   0   8   41.30   37.30
   0   0  -8  199.18   39.70
   0   0   8  205.98   39.70
  -2   0  -8   37.20   40.90
   2   0   8   32.10   40.90
 -17  -1   8  -10.00   48.40
 -15   1   8  112.49   41.40
 -15  -1   8   99.79   46.00
 -15   1   8  109.79   40.30
 -15  -1   8  101.69   44.20
 -13   1   8   21.60   37.50
 -13  -1   8    5.20   38.00
 -13  -1   8   16.30   35.70
 -13   1   8  -13.80   36.10
 -11   1   8  253.27   36.60
 -11  -1   8  291.27   34.20
 -11   1   8  264.77   33.60
 -11  -1   8  248.48   39.80
  -9   1   8   75.09   36.30
  -9  -1   8   75.69   40.00
   9   1  -8   52.19   35.40
  -7   1   8  333.77   36.60
  -7  -1   8  325.67   38.10
   7  -1  -8  342.77   36.20
   7   1  -8  354.06   36.80
  -5   1   8   20.40   36.50
  -5  -1   8   14.70   37.20
   5  -1  -8   20.50   35.30
   5   1  -8   14.90   36.70
   3   1  -8  174.78   32.30
  -3   1   8  175.78   35.50
  -3  -1   8  171.08   36.50
   3  -1  -8  171.78   31.90
   1  -1  -8  -14.10   36.30
   1   1  -8  -22.10   32.50
  -1   1   8  -12.20   37.90
  -1  -1   8   -8.70   37.50
  -1  -1  -8   18.00   39.40
  -1   1  -8   17.90   40.40
   1   1   8   14.80   38.20
   1  -1   8   21.40   35.20
  -3  -1  -8   23.10   42.20
  -3   1  -8   15.00   42.70
   3   1   8   16.30   38.50
   3  -1   8   33.20   42.30
 -16   2   8    1.70   43.00
 -16   2   8  -12.50   41.80
 -16  -2   8   -8.60   47.70
 -16  -2   8   -0.60   49.70
 -14   2   8   12.40   39.70
 -14  -2   8   39.70   44.50
 -14   2   8   26.10   38.40
 -14  -2   8   56.39   40.90
 -12   2   8   29.60   36.90
 -12  -2   8   25.90   38.30
 -12   2   8   28.60   35.50
 -12  -2   8   39.50   42.00
 -10   2   8  -16.90   35.60
 -10  -2   8   -2.60   40.90
 -10   2   8   -2.90   34.70
  -8   2   8  132.59   35.40
  -8  -2   8  146.39   37.50
   8   2  -8  153.48   35.70
  -6   2   8  -14.60   35.20
  -6  -2   8   28.10   36.30
   6  -2  -8   -4.30   35.00
   6   2  -8   -0.50   36.60
   4   2  -8  264.67   37.10
  -4   2   8  268.17   35.90
  -4  -2   8  278.87   32.80
   4  -2  -8  454.85   35.60
   2   2  -8   23.70   37.60
  -2   2   8   12.90   33.00
  -2  -2   8   37.80   37.40
   2  -2  -8   16.30   32.00
   0  -2  -8  256.87   38.60
   0   2  -8  237.98   40.00
   0   2   8  209.38   38.20
   0  -2   8  208.18   39.20
  -2  -2  -8   53.19   41.10
  -2   2  -8   35.60   42.30
   2   2   8   52.99   41.80
   2  -2   8   63.99   42.00
 -15   3   8   76.39   41.60
 -15   3   8   97.19   40.50
 -15  -3   8  105.89   52.79
 -15  -3   8   90.39   48.70
 -13   3   8   16.60   38.60
 -13  -3   8   -6.60   44.30
 -13  -3   8   12.30   40.60
 -13   3   8   14.10   32.60
 -11   3   8  209.98   35.80
 -11  -3   8  196.38   43.30
 -11   3   8  214.48   35.20
 -11  -3   8  228.38   35.70
  -9   3   8   53.39   34.00
  -9   3   8   38.40   35.80
  -9  -3   8   39.30   37.20
   9   3  -8   40.10   35.90
  -7   3   8  282.47   35.60
  -7  -3   8  251.37   38.00
   7   3  -8  253.77   36.50
   5   3  -8   20.80   32.20
  -5   3   8   26.80   35.70
  -5  -3   8    2.30   32.50
   5  -3  -8   -3.20   35.90
   3   3  -8  144.79   38.10
  -3   3   8  139.39   32.60
  -3  -3   8  140.59   37.50
   3  -3  -8  181.78   37.40
   1   3  -8    0.00   39.20
  -1   3   8   10.90   33.10
  -1  -3   8   -6.60   38.40
   1  -3  -8    2.20   37.30
  -1   3  -8   31.60   41.10
   1   3   8   10.40   40.50
   1  -3   8   16.70   40.80
  -1  -3  -8   21.80   40.10
  -3  -3  -8    0.80   44.00
  -3   3  -8    4.50   45.60
   3   3   8   15.90   44.50
   3  -3   8    8.10   39.00
 -16  -4   8    5.20   57.79
 -16  -4   8    3.70   62.69
 -16   4   8    3.20   44.90
 -14  -4   8   15.30   48.70
 -14   4   8   15.60   39.30
 -14  -4   8   37.00   47.70
 -14   4   8   17.10   40.10
 -12   4   8   23.00   38.30
 -12  -4   8   34.20   44.50
 -12  -4   8   33.10   40.90
 -12   4   8   43.20   37.00
 -10   4   8    2.80   36.60
 -10  -4   8   13.30   43.80
 -10   4   8   -5.80   30.20
  10   4  -8   11.40   41.40
  -8   4   8  119.99   35.90
  -8  -4   8  103.19   41.70
  -8   4   8  154.78   33.70
   8   4  -8  102.69   36.00
   6   4  -8   10.70   37.20
  -6   4   8   12.40   31.50
  -6  -4   8  -17.10   36.80
   4   4  -8  198.88   36.40
  -4   4   8  172.78   37.10
  -4  -4   8  187.58   32.00
   4  -4  -8  209.68   37.20
   2   4  -8   12.30   39.20
  -2   4   8    7.80   37.40
  -2  -4   8   10.70   38.10
   2  -4  -8    2.80   36.90
   0   4  -8  208.98   41.20
   0   4   8  213.78   40.20
   0  -4   8  198.78   40.00
   0  -4  -8  220.78   34.70
  -2   4  -8   19.00   39.00
   2   4   8   30.70   47.20
  -2  -4  -8   31.80   46.80
   2  -4   8   30.30   43.20
 -15   5   8   69.69   42.80
 -15  -5   8   40.40   57.89
 -15  -5   8   38.40   62.99
 -15   5   8   38.00   42.70
 -13  -5   8   25.80   48.60
 -13   5   8   15.70   33.80
 -13  -5   8   15.60   52.89
 -13   5   8   23.10   39.20
 -11   5   8  171.88   37.30
 -11  -5   8  182.48   45.10
 -11   5   8  205.98   32.50
  -9   5   8   25.30   36.50
  -9  -5   8   -1.40   44.10
  -9   5   8   15.30   30.60
   9   5  -8  -11.10   41.90
  -7   5   8  202.28   31.10
  -7  -5   8  191.18   38.10
  -7   5   8  204.98   35.30
   7   5  -8  194.38   36.90
   5   5  -8    2.20   38.40
  -5   5   8    1.60   31.50
  -5  -5   8    6.00   37.40
   3   5  -8   94.09   37.60
  -3   5   8   98.99   37.10
  -3  -5   8   88.09   38.20
   3  -5  -8  104.19   36.90
   1   5  -8   18.50   40.20
  -1   5   8   -9.00   34.50
   1  -5  -8   -8.50   40.00
  -1  -5   8    6.40   38.90
  -1   5  -8   31.30   43.90
   1   5   8   14.90   42.70
  -1  -5  -8   18.30   46.30
   1  -5   8    8.80   37.40
 -14   6   8   -7.20   41.40
 -14  -6   8   12.20   64.19
 -14  -6   8    9.30   56.89
 -14   6   8   -1.10   37.20
 -12   6   8   17.30   40.40
 -12   6   8   13.40   39.30
 -12  -6   8   33.50   52.69
 -12  -6   8   20.00   51.29
 -10   6   8   14.50   33.60
 -10   6   8   10.50   32.50
 -10  -6   8   15.60   44.50
  10   6  -8  -18.30   42.70
  -8   6   8   71.39   33.00
  -8  -6   8  122.19   43.70
  -8   6   8  102.59   36.90
   8   6  -8  123.39   41.10
   6   6  -8  -12.50   42.80
  -6   6   8   -7.00   32.60
  -6   6   8   -2.40   37.60
  -6  -6   8    7.80   42.10
   4   6  -8   80.39   40.00
  -4   6   8   90.19   37.30
  -4  -6   8   79.09   38.60
   2   6  -8   16.40   40.70
  -2   6   8   19.50   39.80
  -2  -6   8   38.80   40.40
   0  -6   8  126.69   40.80
   0   6  -8  111.99   37.40
   0   6   8  115.99   42.20
   0  -6  -8   90.59   46.50
   2  -6   8    2.50   40.90
  -2   6  -8   22.20   41.70
   2   6   8  -16.30   47.30
 -13  -7   8   12.00   61.29
 -13   7   8   13.70   42.90
 -13  -7   8    5.20   64.59
 -13   7   8  -16.90   43.40
 -11   7   8  102.59   41.00
 -11   7   8  131.59   40.30
 -11  -7   8  112.79   52.39
  -9   7   8    5.90   39.10
  -9   7   8    6.60   38.80
  -9  -7   8   11.00   44.80
   9   7  -8  -19.40   48.20
   7   7  -8  186.18   40.40
  -7   7   8  183.88   38.90
  -7   7   8  199.18   33.20
  -7  -7   8  208.78   44.00
   5   7  -8    0.60   40.80
  -5   7   8   12.10   36.30
  -5   7   8   -0.70   32.80
  -5  -7   8   21.20   43.60
   3   7  -8   44.20   42.10
  -3   7   8   53.89   39.80
  -3   7   8   52.19   34.50
  -3  -7   8   39.10   39.30
  -1  -7   8    8.10   42.90
   1   7  -8   14.10   44.60
  -1   7   8   11.40   42.60
   1  -7   8   15.40   40.90
  -1   7  -8   45.70   47.80
   1   7   8   18.60   47.40
  -1  -7  -8   12.40   46.30
 -12   8   8   -5.50   43.60
 -12  -8   8    8.00   60.29
 -12  -8   8    9.80   65.09
 -12   8   8   11.30   42.40
 -10   8   8  -21.20   41.70
 -10   8   8   -5.60   36.20
  10   8  -8   -5.10   51.49
 -10  -8   8    6.80   51.19
  -8   8   8   66.49   38.50
  -8   8   8   53.99   38.30
  -8  -8   8   44.90   46.60
   8   8  -8   45.90   46.00
   6   8  -8    5.50   42.10
  -6   8   8   15.00   38.40
  -6   8   8    1.50   38.10
  -6  -8   8   17.80   44.60
  -4  -8   8   82.39   46.20
   4   8  -8   70.39   44.20
  -4   8   8   64.49   40.40
  -4   8   8   72.69   40.20
  -2  -8   8    6.80   43.60
  -2   8   8  -11.50   42.30
   2   8  -8    8.70   45.80
  -2   8   8    5.10   42.80
   0  -8   8   72.29   47.10
   0   8  -8   80.29   47.60
   0   8   8   68.79   47.30
 -11   9   8   42.20   44.90
 -11  -9   8   53.19   65.19
 -11   9   8   52.89   44.90
  -9   9   8    0.10   41.80
  -9  -9   8   17.80   54.29
  -9   9   8   18.00   41.80
   9   9  -8   17.30   52.39
   7   9  -8   64.79   48.60
  -7   9   8   67.99   42.50
  -7  -9   8   66.59   51.19
  -7   9   8   56.69   42.10
  -5  -9   8    5.30   47.10
   5   9  -8  -10.50   46.00
  -5   9   8    0.40   42.40
  -5   9   8    2.10   42.20
  -3   9   8   47.50   42.80
  -3  -9   8   48.30   44.70
   3   9  -8   21.50   48.00
  -3   9   8   43.60   47.90
  -8  10   8   16.70   44.80
  -8 -10   8   26.30   55.69
  -8  10   8   41.30   39.00
   8  10  -8   27.90   51.69
   6  10  -8   13.60   52.79
  -6  10   8    2.50   44.90
  -6 -10   8   -0.90   51.19
  -6  10   8    0.00   39.30
 -16   0   9   38.30   49.99
 -16   0   9   52.69   44.80
 -14   0   9   18.10   40.30
 -14   0   9    7.50   46.40
 -12   0   9   98.19   37.40
 -12   0   9  121.29   43.10
 -10   0   9   -6.00   38.10
  -8   0   9   45.80   32.00
   8   0  -9   52.29   36.10
  -6   0   9  -14.40   38.40
   6   0  -9   34.60   38.30
  -4   0   9    4.60   38.00
   4   0  -9    1.50   33.90
   2   0  -9   35.10   35.20
  -2   0   9   43.50   34.60
   0   0  -9    3.30   43.40
   0   0   9    3.10   43.20
 -15   1   9    1.50   43.40
 -15  -1   9   -4.10   43.50
 -15   1   9  -13.00   45.60
 -15  -1   9  -12.70   45.20
 -13   1   9   57.49   40.10
 -13  -1   9   52.29   45.40
 -13   1   9   80.99   37.30
 -13  -1   9   60.19   43.20
 -11   1   9   -9.30   37.90
 -11  -1   9    2.50   39.10
 -11  -1   9   -7.60   36.60
 -11   1   9   -4.10   37.00
  -9   1   9  164.68   37.30
  -9  -1   9  173.88   37.80
   9   1  -9  159.48   37.00
  -7   1   9   41.20   33.30
  -7  -1   9   32.10   32.70
   7  -1  -9   43.60   36.10
   7   1  -9   31.80   35.30
  -5   1   9  238.98   33.80
  -5  -1   9  226.28   39.00
   5  -1  -9  430.36   34.00
   5   1  -9  251.57   34.20
   3   1  -9   13.40   39.80
  -3   1   9   42.00   39.30
  -3  -1   9   37.30   40.20
   3  -1  -9   39.20   39.90
   1   1  -9  154.88   42.70
  -1   1   9  158.98   42.00
  -1  -1   9  224.28   41.70
   1  -1  -9  169.48   42.30
  -1  -1  -9   23.50   45.40
  -1   1  -9   16.20   45.90
   1   1   9   25.50   38.30
   1  -1   9    2.20   44.30
 -14   2   9   -1.70   41.80
 -14  -2   9   -0.50   40.00
 -14  -2   9  -22.60   48.00
 -14   2   9   -5.80   40.60
 -12   2   9  107.59   39.20
 -12  -2   9  131.39   41.90
 -12  -2   9  118.59   40.40
 -12   2   9  131.39   38.40
 -10   2   9   -0.80   38.20
 -10  -2   9   11.20   39.20
 -10   2   9    8.30   36.60
  -8   2   9   30.00   37.60
  -8  -2   9   24.90   39.10
   8   2  -9   35.50   37.20
  -6   2   9    7.10   38.70
  -6  -2   9    7.60   37.90
   6  -2  -9    5.10   38.10
   6   2  -9   -9.60   37.50
   4   2  -9    7.10   39.20
  -4   2   9   14.80   34.30
  -4  -2   9    0.70   39.70
   4  -2  -9   13.70   39.00
   2   2  -9   34.90   41.20
  -2   2   9   58.59   39.40
  -2  -2   9   37.30   40.90
   2  -2  -9   31.50   40.50
   0   2  -9    5.30   45.00
   0   2   9   17.30   41.30
   0  -2   9   24.10   38.10
   0  -2  -9   12.80   42.80
 -15   3   9    2.50   44.30
 -15  -3   9   -8.70   51.79
 -15   3   9  -12.20   43.00
 -15  -3   9  -23.90   48.40
 -13  -3   9   75.29   44.20
 -13   3   9   82.39   38.90
 -13   3   9   61.89   40.70
 -13  -3   9   63.99   47.80
 -11   3   9   -4.60   38.70
 -11  -3   9    5.50   44.70
 -11   3   9  -28.00   37.40
  -9   3   9  138.79   37.30
  -9   3   9  138.69   37.30
  -9  -3   9  141.79   44.20
   9   3  -9  141.29   42.10
  -7   3   9    5.30   37.80
  -7  -3   9   24.30   39.50
   7   3  -9   42.60   38.20
   5   3  -9  178.68   37.70
  -5   3   9  184.58   39.20
  -5  -3   9  175.88   38.60
   5  -3  -9  188.68   34.00
   3   3  -9   38.40   41.10
  -3   3   9   20.30   40.50
  -3  -3   9   55.69   40.20
   3  -3  -9   50.79   40.40
   1   3  -9  114.79   44.30
  -1   3   9  141.49   42.00
  -1  -3   9  126.19   37.70
   1  -3  -9  104.49   42.50
  -1   3  -9   -1.70   46.00
 -14   4   9   23.50   43.60
 -14  -4   9    7.10   47.20
 -14  -4   9   10.30   55.09
 -14   4   9   -0.20   37.40
 -12   4   9   61.79   40.00
 -12   4   9   78.19   38.10
 -12  -4   9   71.69   47.90
 -12  -4   9   67.29   44.10
 -10   4   9   -9.40   33.10
 -10   4   9    4.70   38.90
 -10  -4   9  -20.50   45.70
  10   4  -9   -5.90   39.00
  -8   4   9   35.20   38.20
  -8   4   9   42.80   32.70
  -8  -4   9   73.59   40.30
   8   4  -9   36.80   39.00
  -6   4   9    4.70   39.20
  -6  -4   9   30.50   38.60
   6   4  -9   -5.40   39.80
   4   4  -9   20.30   40.20
  -4   4   9   17.70   40.50
  -4  -4   9    6.20   39.70
   4  -4  -9   -5.00   44.10
   2   4  -9   26.30   36.90
  -2   4   9   38.30   41.50
  -2  -4   9   46.00   41.70
   2  -4  -9   60.19   41.80
   0   4  -9   -7.80   45.20
   0   4   9    7.40   45.80
   0  -4   9  -16.30   45.80
   0  -4  -9  -17.20   43.40
 -13   5   9   44.60   40.80
 -13  -5   9   40.10   46.60
 -13  -5   9   32.50   51.39
 -13   5   9   26.70   36.10
 -11   5   9   14.30   41.00
 -11   5   9    2.60   40.10
 -11  -5   9    1.80   47.90
  -9   5   9   87.99   39.20
  -9   5   9  121.49   38.70
  -9  -5   9  119.99   41.80
   9   5  -9  114.09   40.10
  -7   5   9   15.70   39.70
  -7   5   9   -4.10   33.60
  -7  -5   9   22.10   40.70
   7   5  -9   22.80   40.40
   5   5  -9  125.89   40.30
  -5   5   9  120.19   40.40
  -5  -5   9  142.09   41.50
   3   5  -9   17.20   44.00
  -3   5   9   35.10   41.80
   3  -5  -9   42.20   42.30
  -3  -5   9   25.10   42.70
   1   5  -9   66.49   45.20
  -1   5   9   93.79   44.90
   1  -5  -9   89.09   44.30
  -1  -5   9   96.39   42.40
 -12   6   9   52.59   43.50
 -12  -6   9   30.80   56.19
 -12  -6   9   52.29   48.10
 -12   6   9   59.49   41.50
 -10   6   9    8.00   41.60
 -10   6   9   -0.10   39.60
 -10  -6   9   -0.10   48.70
  10   6  -9  -20.90   46.80
  -8   6   9   26.70   40.60
  -8   6   9   59.39   40.40
  -8  -6   9   39.20   41.60
   8   6  -9   73.09   40.60
   6   6  -9    9.30   47.60
  -6   6   9   29.00   41.00
  -6   6   9    6.40   40.60
  -6  -6   9    9.40   42.40
   4   6  -9  -14.00   44.00
  -4   6   9   11.30   37.30
  -4  -6   9    9.40   42.70
   2   6  -9   -9.60   45.30
  -2   6   9   13.70   44.70
  -2  -6   9   32.70   39.50
 -11   7   9   20.30   44.70
 -11  -7   9   11.30   55.49
 -11   7   9    0.00   38.20
  -9   7   9   80.49   36.60
  -9   7   9  100.59   42.30
  -9  -7   9   92.69   49.60
   9   7  -9   74.19   43.00
   7   7  -9    9.70   42.70
  -7   7   9  -12.20   40.00
  -7   7   9   12.10   41.40
  -7  -7   9  -14.20   47.10
   5   7  -9  145.99   45.60
  -5   7   9  119.69   43.60
  -5   7   9    4.80   43.70
  -5  -7   9  134.59   43.80
   3   7  -9    0.00   46.90
  -3   7   9   -1.80   44.20
  -3  -7   9   14.70   44.00
 -10   8   9  -25.00   45.80
 -10   8   9    3.70   39.70
  10   8  -9  -19.10   52.29
 -10  -8   9   -0.20   53.49
  -8   8   9   11.80   43.40
  -8   8   9   27.50   43.50
  -8  -8   9   22.40   51.39
   8   8  -9    8.00   49.99
   6   8  -9    4.80   54.09
  -6   8   9   -5.50   38.50
  -6  -8   9    0.20   49.90
  -6   8   9    0.20   42.60
  -4   8   9   37.00   44.80
 -14   0  10   25.30   45.80
 -14   0  10   40.10   43.60
 -12   0  10   31.50   43.10
 -12   0  10   33.90   40.70
 -10   0  10  132.99   40.20
  -8   0  10   17.00   40.60
   8   0 -10   -4.40   39.80
  -6   0  10   77.19   42.20
   6   0 -10   81.59   36.50
  -4   0  10    9.90   38.60
   4   0 -10   -1.00   42.10
  -2   0  10   54.29   40.70
   2   0 -10   36.10   45.30
 -13  -1  10    7.10   41.80
 -13   1  10    9.80   43.60
 -13  -1  10    9.40   44.30
 -13   1  10   -5.40   42.10
 -11   1  10   22.90   42.40
 -11  -1  10    6.70   42.70
 -11   1  10    6.40   41.00
  -9   1  10   -6.30   40.70
  -9  -1  10   15.40   41.60
   9   1 -10   21.70   44.20
  -7   1  10   64.59   42.10
  -7  -1  10   85.79   40.20
   7  -1 -10   47.10   40.70
   7   1 -10   52.79   40.80
  -5   1  10    0.30   37.70
  -5  -1  10    3.90   37.70
   5  -1 -10  -11.90   43.00
   5   1 -10  -33.80   43.00
  -3   1  10   61.39   39.20
  -3  -1  10   51.49   45.20
   3  -1 -10   64.09   45.20
   3   1 -10   89.59   39.40
 -14   2  10   79.49   42.90
 -14  -2  10   54.89   47.30
 -14  -2  10   60.29   44.70
 -12   2  10   -7.70   42.10
 -12   2  10    6.10   37.00
 -12  -2  10    6.50   48.90
 -12  -2  10    0.10   41.90
 -10   2  10  152.78   35.60
 -10  -2  10  174.08   42.70
 -10   2  10  129.19   34.40
  10   2 -10  175.08   45.10
  -8   2  10   -8.40   41.90
  -8  -2  10    5.70   41.60
   8   2 -10   18.00   40.80
  -6   2  10  105.59   36.90
  -6  -2  10   87.09   42.80
   6  -2 -10   99.99   41.00
   6   2 -10   94.09   36.20
  -4   2  10  -12.00   38.50
  -4  -2  10   14.80   43.20
   4  -2 -10   -2.30   44.10
   4   2 -10   23.00   42.70
   2  -2 -10   28.00   45.00
 -13   3  10   43.10   44.60
 -13   3  10   19.20   44.00
 -13  -3  10   16.00   51.59
 -13  -3  10   -3.30   47.20
 -11   3  10   40.70   40.70
 -11   3  10   14.70   39.90
 -11  -3  10   27.30   44.50
  -9   3  10   -0.20   42.20
  -9   3  10   11.30   36.20
  -9  -3  10   -5.40   42.90
   9   3 -10   18.90   41.30
  -7   3  10   31.40   42.70
  -7  -3  10   50.19   42.70
   7   3 -10   63.99   42.60
  -5   3  10    5.90   43.80
  -5  -3  10   -5.20   42.50
   5  -3 -10  -19.60   43.70
   5   3 -10    0.20   44.20
   3   3 -10   53.99   46.10
  -3   3  10   72.09   45.30
  -3  -3  10   83.69   45.40
   3  -3 -10   72.89   43.70
 -12   4  10  -21.50   43.50
 -12   4  10   21.60   37.60
 -12  -4  10   18.40   52.19
 -10   4  10   52.99   42.90
 -10   4  10   82.89   37.10
 -10  -4  10   88.59   44.70
  10   4 -10   37.40   43.30
  -8   4  10   25.50   43.40
  -8  -4  10    4.20   47.40
  -8   4  10    3.20   41.00
   8   4 -10   -0.40   47.00
  -6   4  10   69.69   42.90
  -6  -4  10   89.99   38.30
   6   4 -10   74.29   44.10
   4   4 -10    5.40   45.10
  -4   4  10   13.60   39.30
  -4  -4  10   -5.10   46.00
   4  -4 -10  -30.00   44.60
 -11   5  10   18.70   39.40
 -11   5  10   -6.10   39.00
 -11  -5  10    0.40   52.59
  11   5 -10  -16.70   45.30
  -9   5  10    3.50   44.50
  -9   5  10    5.40   43.60
  -9  -5  10   19.90   46.10
   9   5 -10    1.40   45.20
  -7   5  10   18.70   44.90
  -7   5  10   44.70   38.50
  -7  -5  10   34.20   43.60
   7   5 -10   24.60   45.50
   5   5 -10   -6.40   47.50
  -5   5  10  -12.70   45.20
  -5  -5  10    4.40   46.70
  -8   6  10   23.60   40.30
  -8   6  10   20.20   43.80
  -8  -6  10   22.10   47.70
   8   6 -10    1.40   46.90
  -9   1  11    8.10   40.60
   0   0   0    0.00    0.00

_computing_structure_solution     'SHELXT 2014/5 (Sheldrick, 2014)'
;
_shelx_hkl_checksum              15646
_olex2_submission_special_instructions 'No special instructions were received'
loop_
_space_group_symop_operation_xyz
'x, y, z'
'-x, y, -z'
'x+1/2, y+1/2, z'
'-x+1/2, y+1/2, -z'
'-x, -y, -z'
'x, -y, z'
'-x+1/2, -y+1/2, -z'
'x+1/2, -y+1/2, z'
loop_
_atom_site_label
_atom_site_type_symbol
_atom_site_fract_x
_atom_site_fract_y
_atom_site_fract_z
_atom_site_U_iso_or_equiv
_atom_site_adp_type
_atom_site_occupancy
_atom_site_site_symmetry_order
_atom_site_calc_flag
_atom_site_refinement_flags_posn
_atom_site_refinement_flags_adp
_atom_site_refinement_flags_occupancy
_atom_site_disorder_assembly
_atom_site_disorder_group
I1 I 0.76673(4) 0.500000 0.87008(6) 0.04206(15) Uani 1 2 d S T P . .
Sr1 Sr 0.500000 0.500000 0.500000 0.0280(2) Uani 1 4 d S T P . .
O1A O 0.5436(5) 0.7428(5) 0.4895(8) 0.0427(14) Uani 0.5 1 d . . P A 1
C1A C 0.6175(9) 0.6286(11) 0.2110(14) 0.047(2) Uani 0.5 1 d . . P A 1
O1B O 0.5962(5) 0.5790(6) 0.2884(8) 0.0372(13) Uani 0.5 1 d . . P A 2
C1B C 0.6410(9) 0.7025(9) 0.3156(15) 0.050(2) Uani 0.5 1 d . . P A 2
O2 O 0.5768(5) 0.6691(7) 0.3378(8) 0.0405(14) Uani 0.5 1 d . . P A .
C2 C 0.5272(6) 0.7810(5) 0.2971(9) 0.0783(18) Uani 1 1 d . . . . .
C3 C 0.4942(10) 0.8320(8) 0.5600(16) 0.054(3) Uani 0.5 1 d . . P . .
C4 C 0.6803(5) 0.500000 0.2843(9) 0.0512(17) Uani 1 2 d S T P . .
loop_
_atom_site_aniso_label
_atom_site_aniso_U_11
_atom_site_aniso_U_22
_atom_site_aniso_U_33
_atom_site_aniso_U_23
_atom_site_aniso_U_13
_atom_site_aniso_U_12
I1 0.0342(2) 0.0510(3) 0.0361(2) 0.000 0.01398(18) 0.000
Sr1 0.0284(5) 0.0239(6) 0.0319(5) 0.000 0.0151(4) 0.000
O1A 0.046(4) 0.026(3) 0.057(3) 0.007(3) 0.026(3) 0.001(3)
C1A 0.067(7) 0.045(6) 0.053(6) 0.007(6) 0.047(5) 0.002(5)
O1B 0.031(3) 0.039(4) 0.037(3) 0.005(3) 0.014(2) -0.009(3)
C1B 0.055(7) 0.041(6) 0.061(6) -0.012(5) 0.035(5) -0.020(5)
O2 0.037(3) 0.041(4) 0.042(3) 0.003(3) 0.019(3) 0.001(3)
C2 0.131(5) 0.028(3) 0.123(5) 0.023(3) 0.099(4) 0.012(3)
C3 0.053(5) 0.021(5) 0.098(10) -0.001(5) 0.045(6) 0.004(5)
C4 0.048(4) 0.062(5) 0.057(4) 0.000 0.037(3) 0.000
loop_
_atom_type_symbol
_atom_type_description
_atom_type_scat_dispersion_real
_atom_type_scat_dispersion_imag
_atom_type_scat_source
C C 0.0033 0.0016 'International Tables Vol C Tables 4.2.6.8 and 6.1.1.4'
I I -0.4742 1.8119 'International Tables Vol C Tables 4.2.6.8 and 6.1.1.4'
O O 0.0106 0.0060 'International Tables Vol C Tables 4.2.6.8 and 6.1.1.4'
Sr Sr -1.5307 3.2498 'International Tables Vol C Tables 4.2.6.8 and 6.1.1.4'
loop_
_geom_angle_atom_site_label_1
_geom_angle_atom_site_label_2
_geom_angle_atom_site_label_3
_geom_angle
_geom_angle_site_symmetry_1
_geom_angle_site_symmetry_3
_geom_angle_publ_flag
O1A Sr1 O1A 26.2(2) 5_666 6_565 ?
O1A Sr1 O1A 180.0 6_565 2_656 ?
O1A Sr1 O1A 153.8(2) 5_666 2_656 ?
O1A Sr1 O1A 180.0 5_666 . ?
O1A Sr1 O1A 153.8(2) 6_565 . ?
O1A Sr1 O1A 26.2(2) . 2_656 ?
O1A Sr1 O2 143.78(18) 2_656 6_565 ?
O1A Sr1 O2 120.71(19) 2_656 5_666 ?
O1A Sr1 O2 59.29(19) 6_565 5_666 ?
O1A Sr1 O2 143.78(18) 6_565 2_656 ?
O1A Sr1 O2 120.71(19) . 6_565 ?
O1A Sr1 O2 36.22(18) 2_656 2_656 ?
O1A Sr1 O2 120.71(19) 5_666 2_656 ?
O1A Sr1 O2 143.78(18) 5_666 . ?
O1A Sr1 O2 59.29(19) . 2_656 ?
O1A Sr1 O2 120.71(19) 6_565 . ?
O1A Sr1 O2 36.22(18) 5_666 5_666 ?
O1A Sr1 O2 36.22(18) . . ?
O1A Sr1 O2 143.78(18) . 5_666 ?
O1A Sr1 O2 59.29(19) 5_666 6_565 ?
O1A Sr1 O2 36.22(18) 6_565 6_565 ?
O1A Sr1 O2 59.29(19) 2_656 . ?
O1B Sr1 O1B 143.0(3) 2_656 . ?
O1B Sr1 O1B 180.0 5_666 . ?
O1B Sr1 O1B 37.0(3) 6_565 . ?
O1B Sr1 O2 155.92(15) 5_666 . ?
O1B Sr1 O2 24.08(15) . . ?
O1B Sr1 O2 61.0(2) 6_565 . ?
O1B Sr1 O2 119.0(2) 2_656 . ?
O2 Sr1 O2 94.9(3) . 2_656 ?
O2 Sr1 O2 85.1(3) 2_656 5_666 ?
O2 Sr1 O2 94.9(3) 6_565 5_666 ?
O2 Sr1 O2 85.1(3) . 6_565 ?
O2 Sr1 O2 180.0(2) . 5_666 ?
O2 Sr1 O2 180.00(19) 6_565 2_656 ?
C2 O1A Sr1 112.0(3) . . ?
C3 O1A Sr1 120.4(4) . . ?
C3 O1A C2 111.1(6) . . ?
O2 C1A C4 108.2(7) . . ?
C1B O1B Sr1 118.7(7) . . ?
C4 O1B Sr1 115.5(4) . . ?
C4 O1B C1B 108.3(7) . . ?
O1B C1B C2 101.1(8) . . ?
C1A O2 Sr1 119.3(7) . . ?
C2 O2 Sr1 119.0(4) . . ?
C2 O2 C1A 114.1(7) . . ?
O2 C2 O1A 72.3(4) . . ?
O2 C2 C1B 37.5(4) . . ?
O2 C2 C3 114.9(6) . 2_656 ?
C3 C2 O1A 42.6(4) 2_656 . ?
C3 C2 C1B 131.1(7) 2_656 . ?
O1A C3 O1A 56.7(6) 2_656 . ?
O1A C3 C2 73.1(6) 2_656 2_656 ?
C2 C3 O1A 111.4(6) 2_656 . ?
C1A C4 C1A 124.9(10) . 6_565 ?
O1B C4 O1B 75.4(6) 6_565 . ?
loop_
_geom_bond_atom_site_label_1
_geom_bond_atom_site_label_2
_geom_bond_distance
_geom_bond_site_symmetry_2
_geom_bond_publ_flag
I1 Sr1 3.2506(16) . ?
Sr1 O1A 2.708(6) . ?
Sr1 O1A 2.708(6) 2_656 ?
Sr1 O1A 2.708(6) 6_565 ?
Sr1 O1A 2.708(6) 5_666 ?
Sr1 O1B 2.707(7) 2_656 ?
Sr1 O1B 2.707(7) . ?
Sr1 O1B 2.707(7) 5_666 ?
Sr1 O1B 2.707(7) 6_565 ?
Sr1 O2 2.716(7) . ?
Sr1 O2 2.717(7) 5_666 ?
Sr1 O2 2.717(7) 2_656 ?
Sr1 O2 2.717(7) 6_565 ?
O1A C2 1.512(7) . ?
O1A C3 1.429(9) . ?
C1A O2 1.434(10) . ?
C1A C4 1.576(11) . ?
O1B C1B 1.435(11) . ?
O1B C4 1.403(8) . ?
C1B C2 1.648(13) . ?
O2 C2 1.337(8) . ?
C2 C3 1.424(10) 2_656 ?
loop_
_geom_torsion_atom_site_label_1
_geom_torsion_atom_site_label_2
_geom_torsion_atom_site_label_3
_geom_torsion_atom_site_label_4
_geom_torsion
_geom_torsion_site_symmetry_1
_geom_torsion_site_symmetry_2
_geom_torsion_site_symmetry_3
_geom_torsion_site_symmetry_4
_geom_torsion_publ_flag
Sr1 O1A C2 O2 -38.0(5) . . . . ?
Sr1 O1A C2 C3 143.0(7) . . . 2_656 ?
Sr1 O1A C3 O1A -24.2(7) . . . 2_656 ?
Sr1 O1A C3 C2 26.7(10) . . . 2_656 ?
Sr1 O1B C1B C2 -50.5(7) . . . . ?
Sr1 O1B C4 O1B 35.6(5) . . . 6_565 ?
Sr1 O2 C2 O1A 40.6(4) . . . . ?
Sr1 O2 C2 C1B 167.2(9) . . . . ?
Sr1 O2 C2 C3 41.4(8) . . . 2_656 ?
C1A O2 C2 O1A -170.0(8) . . . . ?
C1A O2 C2 C3 -169.2(9) . . . 2_656 ?
O1B C1B C2 O2 23.0(5) . . . . ?
O1B C1B C2 C3 100.4(9) . . . 2_656 ?
C1B O1B C4 O1B 171.5(5) . . . 6_565 ?
O2 C1A C4 C1A 94.0(10) . . . 6_565 ?
C2 O1A C3 O1A 109.6(8) . . . 2_656 ?
C2 O1A C3 C2 160.4(6) . . . 2_656 ?
C3 O1A C2 O2 -175.8(7) . . . . ?
C3 O1A C2 C3 5.3(10) . . . 2_656 ?
C4 C1A O2 Sr1 -34.1(9) . . . . ?
C4 C1A O2 C2 176.6(6) . . . . ?
C4 O1B C1B C2 175.1(5) . . . . ?
