#------------------------------------------------------------------------------
#$Date: 2020-06-25 01:50:25 +0300 (Thu, 25 Jun 2020) $
#$Revision: 253417 $
#$URL: file:///home/coder/svn-repositories/cod/cif/4/13/50/4135087.cif $
#------------------------------------------------------------------------------
#
# This file is available in the Crystallography Open Database (COD),
# http://www.crystallography.net/
#
# All data on this site have been placed in the public domain by the
# contributors.
#
data_4135087
loop_
_publ_author_name
'Levesque, Alexandre'
'Maris, Thierry'
'Wuest, James D.'
_publ_section_title
;
 ROY Reclaims Its Crown: New Ways to Increase Polymorphic Diversity.
;
_journal_name_full               'Journal of the American Chemical Society'
_journal_paper_doi               10.1021/jacs.0c04434
_journal_year                    2020
_chemical_formula_moiety         'C13 H8 Cl N3 O3'
_chemical_formula_sum            'C13 H8 Cl N3 O3'
_chemical_formula_weight         289.67
_space_group_crystal_system      monoclinic
_space_group_IT_number           7
_space_group_name_Hall           'P -2yc'
_space_group_name_H-M_alt        'P 1 c 1'
_atom_sites_solution_hydrogens   geom
_atom_sites_solution_primary     dual
_audit_creation_date             2018-09-19
_audit_creation_method
;
Olex2 1.2
(compiled 2018.05.29 svn.r3508 for OlexSys, GUI svn.r5506)
;
_cell_angle_alpha                90
_cell_angle_beta                 95.403(5)
_cell_angle_gamma                90
_cell_formula_units_Z            2
_cell_length_a                   4.2017(4)
_cell_length_b                   11.1768(10)
_cell_length_c                   14.2220(12)
_cell_measurement_reflns_used    7722
_cell_measurement_temperature    150
_cell_measurement_theta_max      51.680
_cell_measurement_theta_min      3.442
_cell_volume                     664.92(10)
_computing_cell_refinement
'SAINT (2013) V8.38A; Integration Software for Single Crystal Data. Bruker AXS Inc., Madison, WI 53719-1173.'
_computing_data_collection
;
APEX 2 (2013) Bruker AXS Inc., Madison, WI 53719-1173.
;
_computing_data_reduction
'SAINT (2013) V8.38A; Integration Software for Single Crystal Data. Bruker AXS Inc., Madison, WI 53719-1173.'
_computing_molecular_graphics    'Olex2 (Dolomanov et al., 2009)'
_computing_publication_material  'Olex2 (Dolomanov et al., 2009)'
_computing_structure_refinement  'XL (Sheldrick, 2008)'
_computing_structure_solution    'XT (Sheldrick, 2015)'
_diffrn_ambient_temperature      150
_diffrn_detector                 'CMOS Area detector'
_diffrn_detector_area_resol_mean 10.24
_diffrn_detector_type            'Bruker Photon 100 CMOS Detector'
_diffrn_measured_fraction_theta_full 0.999
_diffrn_measured_fraction_theta_max 0.998
_diffrn_measurement_device       'k-geometry diffractometer'
_diffrn_measurement_device_type  'Bruker Venture Metaljet'
_diffrn_measurement_method       '\w and \f scans'
_diffrn_radiation_collimation    'Focusing mirrors'
_diffrn_radiation_monochromator  'Helios MX Mirror Optics'
_diffrn_radiation_probe          x-ray
_diffrn_radiation_type           GaK\a
_diffrn_radiation_wavelength     1.34139
_diffrn_reflns_av_R_equivalents  0.0530
_diffrn_reflns_av_unetI/netI     0.0419
_diffrn_reflns_Laue_measured_fraction_full 0.999
_diffrn_reflns_Laue_measured_fraction_max 0.998
_diffrn_reflns_limit_h_max       4
_diffrn_reflns_limit_h_min       -5
_diffrn_reflns_limit_k_max       13
_diffrn_reflns_limit_k_min       -13
_diffrn_reflns_limit_l_max       17
_diffrn_reflns_limit_l_min       -17
_diffrn_reflns_number            13602
_diffrn_reflns_point_group_measured_fraction_full 0.983
_diffrn_reflns_point_group_measured_fraction_max 0.977
_diffrn_reflns_theta_full        53.594
_diffrn_reflns_theta_max         54.080
_diffrn_reflns_theta_min         3.440
_diffrn_source                   'Metal Jet'
_diffrn_source_target            Ga
_diffrn_source_type              'Gallium Liquid Metal Jet Source'
_exptl_absorpt_coefficient_mu    1.750
_exptl_absorpt_correction_T_max  0.7506
_exptl_absorpt_correction_T_min  0.5560
_exptl_absorpt_correction_type   multi-scan
_exptl_absorpt_process_details
;   
SADABS-2016/2 (Bruker,2016/2) was used for absorption correction. 
wR2(int) was 0.1083 before and 0.0778 after correction. 
The Ratio of minimum to maximum transmission is 0.7407. 
The \l/2 correction factor is Not present.'
;
_exptl_crystal_colour            'clear light yellow'
_exptl_crystal_colour_lustre     clear
_exptl_crystal_colour_modifier   light
_exptl_crystal_colour_primary    yellow
_exptl_crystal_density_diffrn    1.447
_exptl_crystal_description       Needle
_exptl_crystal_F_000             296
_exptl_crystal_recrystallization_method 'crystallized in EtOH'
_exptl_crystal_size_max          0.35
_exptl_crystal_size_mid          0.05
_exptl_crystal_size_min          0.05
_refine_diff_density_max         0.245
_refine_diff_density_min         -0.232
_refine_diff_density_rms         0.046
_refine_ls_abs_structure_details
;
 Flack x determined using 786 quotients [(I+)-(I-)]/[(I+)+(I-)]
 (Parsons, Flack and Wagner, Acta Cryst. B69 (2013) 249-259).
;
_refine_ls_abs_structure_Flack   0.00(3)
_refine_ls_extinction_coef       0.021(6)
_refine_ls_extinction_expression Fc^*^=kFc[1+0.001xFc^2^\l^3^/sin(2\q)]^-1/4^
_refine_ls_extinction_method     'SHELXL-2018/3 (Sheldrick 2018)'
_refine_ls_goodness_of_fit_ref   1.056
_refine_ls_hydrogen_treatment    constr
_refine_ls_matrix_type           full
_refine_ls_number_parameters     183
_refine_ls_number_reflns         2384
_refine_ls_number_restraints     2
_refine_ls_restrained_S_all      1.056
_refine_ls_R_factor_all          0.0734
_refine_ls_R_factor_gt           0.0601
_refine_ls_shift/su_max          0.000
_refine_ls_shift/su_mean         0.000
_refine_ls_structure_factor_coef Fsqd
_refine_ls_weighting_details
'w=1/[\s^2^(Fo^2^)+(0.1151P)^2^+0.1165P] where P=(Fo^2^+2Fc^2^)/3'
_refine_ls_weighting_scheme      calc
_refine_ls_wR_factor_gt          0.1661
_refine_ls_wR_factor_ref         0.1808
_reflns_Friedel_coverage         0.949
_reflns_Friedel_fraction_full    0.967
_reflns_Friedel_fraction_max     0.957
_reflns_number_gt                1927
_reflns_number_total             2384
_reflns_threshold_expression     'I > 2\s(I)'
_cod_data_source_file            ja0c04434_si_001.cif
_cod_data_source_block           4_nitrobenzimidoyl_chloride
_cod_depositor_comments
;
The following automatic conversions were performed:

data item '_diffrn_radiation_probe' value 'X-ray' was changed to
'x-ray' in accordance with the
/home/data/users/saulius/crontab/automatic-downloads/rss-feeds/ACS/lib/dictionaries/cif_core.dic
dictionary named 'cif_core.dic' version 2.4.2 last updated on
2011-04-26.

Automatic conversion script
Id: cif_fix_values 7556 2019-12-06 15:28:31Z antanas 
;
_cod_database_code               4135087
_shelx_shelxl_version_number     2018/3
_shelx_space_group_comment
;
The symmetry employed for this shelxl refinement is uniquely defined
by the following loop, which should always be used as a source of
symmetry information in preference to the above space-group names.
They are only intended as comments.
;
_shelx_estimated_absorpt_t_max   0.918
_shelx_estimated_absorpt_t_min   0.579
_olex2_refinement_description
;
1. Fixed Uiso
 At 1.2 times of:
  All C(H) groups
 At 1.5 times of:
  All C(H,H,H) groups
2.a Aromatic/amide H refined with riding coordinates:
 C3(H3), C9(H9), C10(H10), C12(H12), C13(H13)
2.b Idealised Me refined as rotating group:
 C5(H5A,H5B,H5C)
;
_shelx_res_file
;
TITL jw2108_a.res in Pc
    jw2108.res
    created by SHELXL-2018/3 at 10:36:24 on 19-Sep-2018
REM Old TITL jw2108 in Pc
REM SHELXT solution in Pc
REM R1 0.131, Rweak 0.030, Alpha 0.002, Orientation as input
REM Flack x = 0.123 ( 0.020 ) from Parsons' quotients
REM Formula found by SHELXT: C15 N2 O2 Cl
CELL 1.34139 4.2017 11.1768 14.222 90 95.403 90
ZERR 2 0.0004 0.001 0.0012 0 0.005 0
LATT -1
SYMM +X,-Y,0.5+Z
SFAC C H Cl N O
DISP C 0.0137 0.007 57.1
DISP Cl 0.3281 0.5435 4162
DISP H -0 0 0.6481
DISP N 0.0241 0.0136 109.9
DISP O 0.0387 0.025 193.4
UNIT 26 16 2 6 6

L.S. 30
PLAN  10
SIZE 0.05 0.05 0.35
TEMP -123
MORE -1
CONF
WPDB
HTAB
BOND $H
list 4
fmap 2
ACTA
REM <olex2.extras>
REM <HklSrc "%.\\jw2108.hkl">
REM </olex2.extras>

WGHT    0.115100    0.116500
EXTI    0.020978
FVAR       1.15096
CL1   3    0.629001    0.604725    0.707261    11.00000    0.10553    0.09557 =
         0.06409   -0.00281    0.00783   -0.01084
O1    5    0.987592    0.796359    0.623060    11.00000    0.08164    0.08203 =
         0.07457    0.00365   -0.00105    0.00316
O2    5   -0.299040    0.122876    0.502950    11.00000    0.09076    0.08233 =
         0.11634    0.00530    0.01392   -0.00675
O3    5   -0.142168    0.151020    0.363325    11.00000    0.14285    0.11583 =
         0.08390   -0.01089   -0.00044   -0.03116
N1    4    0.710738    0.645699    0.525729    11.00000    0.07121    0.07403 =
         0.06798    0.00560    0.01017    0.00813
N2    4    0.925543    0.753537    0.291787    11.00000    0.24506    0.16767 =
         0.07513   -0.01784    0.04618   -0.07125
N3    4   -0.145962    0.177357    0.447329    11.00000    0.07519    0.07952 =
         0.09689    0.00407    0.00030    0.00539
C1    1    0.896658    0.744566    0.537181    11.00000    0.06730    0.07223 =
         0.07044   -0.00122    0.00629    0.01239
C2    1    1.024416    0.806635    0.468515    11.00000    0.08389    0.07682 =
         0.08641    0.00445    0.02400    0.00896
C3    1    1.204050    0.901309    0.511827    11.00000    0.07903    0.06840 =
         0.09196    0.00130    0.01458    0.00738
AFIX  43
H3    2    1.322476    0.959430    0.481028    11.00000   -1.20000
AFIX   0
C4    1    1.176302    0.893900    0.604855    11.00000    0.07518    0.06892 =
         0.08765    0.00315    0.00082    0.00875
C5    1    1.301994    0.964262    0.688832    11.00000    0.10617    0.09073 =
         0.09258   -0.00474   -0.00814   -0.00949
AFIX 137
H5A   2    1.123078    0.995895    0.720746    11.00000   -1.50000
H5B   2    1.431824    1.030757    0.668796    11.00000   -1.50000
H5C   2    1.434034    0.912570    0.732376    11.00000   -1.50000
AFIX   0
C6    1    0.973226    0.776713    0.369968    11.00000    0.13696    0.09519 =
         0.08920   -0.00004    0.04074   -0.01806
C7    1    0.585415    0.580177    0.585111    11.00000    0.06850    0.07656 =
         0.06804    0.00526    0.00488    0.01947
C8    1    0.394298    0.475123    0.552747    11.00000    0.06662    0.06911 =
         0.06413    0.00089    0.00245    0.00907
C9    1    0.348641    0.453658    0.454591    11.00000    0.07305    0.07813 =
         0.06694    0.00812    0.00631    0.00454
AFIX  43
H9    2    0.437753    0.506969    0.412128    11.00000   -1.20000
AFIX   0
C10   1    0.175386    0.355728    0.419965    11.00000    0.08439    0.08108 =
         0.06270    0.00313    0.00470    0.00205
AFIX  43
H10   2    0.145350    0.340426    0.354020    11.00000   -1.20000
AFIX   0
C11   1    0.046620    0.280448    0.483447    11.00000    0.07305    0.07379 =
         0.07194   -0.00115   -0.00030    0.00871
C12   1    0.085743    0.299303    0.580744    11.00000    0.07540    0.06973 =
         0.07527    0.00894    0.01175    0.00473
AFIX  43
H12   2   -0.007128    0.246412    0.622749    11.00000   -1.20000
AFIX   0
C13   1    0.262291    0.396467    0.614324    11.00000    0.07437    0.07701 =
         0.06428    0.00479    0.01046    0.01030
AFIX  43
H13   2    0.294649    0.410121    0.680464    11.00000   -1.20000
AFIX   0
HKLF 4




REM  jw2108_a.res in Pc
REM wR2 = 0.1808, GooF = S = 1.056, Restrained GooF = 1.056 for all data
REM R1 = 0.0601 for 1927 Fo > 4sig(Fo) and 0.0734 for all 2384 data
REM 183 parameters refined using 2 restraints

END

WGHT      0.1151      0.1165

REM Instructions for potential hydrogen bonds
EQIV $1 x+2, y+1, z
HTAB C3 O2_$1
EQIV $2 x+2, -y+1, z+1/2
HTAB C5 O3_$2
EQIV $3 x-1, -y+1, z+1/2
HTAB C12 N2_$3

REM Highest difference peak  0.245,  deepest hole -0.232,  1-sigma level  0.046
Q1    1   0.2739  0.5993  0.7129  11.00000  0.05    0.25
Q2    1   0.4448  0.5403  0.7121  11.00000  0.05    0.20
Q3    1   0.9820  0.5997  0.7087  11.00000  0.05    0.19
Q4    1  -0.5028  0.0524  0.4992  11.00000  0.05    0.15
Q5    1   1.5879  0.9893  0.3685  11.00000  0.05    0.14
Q6    1   0.8166  0.5419  0.7069  11.00000  0.05    0.13
Q7    1   0.8529  0.6822  0.7057  11.00000  0.05    0.13
Q8    1   1.6491  1.1442  0.6239  11.00000  0.05    0.13
Q9    1   1.4715  1.1499  0.7743  11.00000  0.05    0.13
Q10   1   0.5790  0.5820  0.4506  11.00000  0.05    0.12
;
_shelx_res_checksum              53690
_shelx_hkl_file
;
  -1   0   0 1416.76   82.89
  -1   0   0 1308.57   82.89
  -1   0   0 1444.56   82.89
  -1   0   0 1228.68   82.89
  -1   0   0 1301.97   82.79
  -1   0   0 1317.87   82.89
  -1   0   0 1283.37   82.89
  -2   0   0  125.69    7.60
  -2   0   0  104.29    7.80
  -2   0   0  121.79    7.70
  -2   0   0  116.69    7.70
  -2   0   0   92.59    7.90
  -2   0   0  108.69    7.80
  -2   0   0  111.39    7.50
  -3   0   0  170.38   12.00
  -3   0   0  170.58   11.90
  -3   0   0  183.98   12.00
  -3   0   0  174.68   11.90
  -3   0   0  170.18   12.20
  -3   0   0  194.28   12.40
  -3   0   0  179.88   12.20
  -3   0   0  179.28   11.90
   3   0   0  227.58   14.30
  -3   0   0  197.08   12.10
   3   0   0  188.08   13.50
  -4   0   0   14.40    2.40
  -4   0   0   15.00    3.20
  -4   0   0   13.90    2.80
  -4   0   0   15.60    3.10
  -4   0   0   11.00    3.00
   0  -1   0  477.25   28.40
   0  -1   0  420.56   28.30
   0   1   0  451.95   28.30
   0   1   0  469.15   28.40
  -1  -1   0 1713.03  110.09
  -1  -1   0 1785.22  110.19
  -1  -1   0 1689.43  110.09
  -1  -1   0 1781.72  110.09
  -1  -1   0 1846.52  110.09
  -1   1   0 1727.63  110.09
  -1   1   0 1654.93  109.99
  -1   1   0 1845.82  110.19
   1   1   0 2005.40  124.99
  -1   1   0 1847.42  110.09
  -1   1   0 1866.81  110.09
  -1   1   0 1660.13  110.09
  -1   1   0 1778.02  110.09
  -2  -1   0  168.78   11.40
  -2  -1   0  153.58   11.10
  -2  -1   0  172.88   11.20
  -2  -1   0  176.78   11.20
  -2  -1   0  169.08   11.20
  -2  -1   0  174.48   11.10
  -2  -1   0  175.48   11.30
  -2  -1   0  175.98   11.10
  -2   1   0  180.08   11.30
  -2   1   0  171.38   11.30
  -2   1   0  174.18   11.10
  -2   1   0  164.38   11.20
  -2   1   0  163.58   11.30
   2   1   0  205.58   13.40
  -2   1   0  176.98   11.30
  -3  -1   0   56.89    4.80
  -3  -1   0   63.49    4.80
  -3  -1   0   68.79    5.40
  -3  -1   0   63.99    4.90
  -3  -1   0   54.49    5.00
  -3  -1   0   61.59    4.70
   3  -1   0   75.99    5.80
  -3  -1   0   70.59    5.20
  -3  -1   0   61.79    5.20
  -3  -1   0   53.09    5.20
  -3   1   0   64.09    5.00
  -3   1   0   55.49    5.10
  -3   1   0   63.19    4.70
  -3   1   0   66.29    5.00
   3   1   0   90.29    6.80
  -3   1   0   64.29    4.80
   3   1   0   71.99    5.70
  -3   1   0   56.49    4.60
  -3   1   0   61.89    5.00
  -3   1   0   61.99    5.10
  -4  -1   0   19.60    3.30
  -4  -1   0   10.90    2.90
  -4  -1   0   17.80    3.60
  -4  -1   0   15.30    2.90
  -4  -1   0   16.30    3.20
  -4   1   0   16.90    3.40
  -4   1   0   13.50    2.80
  -4   1   0   17.40    3.20
  -4   1   0   21.50    3.20
  -4   1   0   17.70    3.20
  -4   1   0   12.20    3.00
  -4   1   0   18.00    3.30
  -5   1   0   -4.10    6.00
  -5   1   0    2.00    4.20
  -5   1   0    3.00    5.10
   0  -2   0 1274.37   75.49
   0  -2   0 1161.28   75.29
   0   2   0 1229.58   75.49
   0   2   0 1172.08   75.29
  -1  -2   0 6552.54  406.36
  -1  -2   0 5665.03  406.36
  -1  -2   0 7332.97  406.46
  -1  -2   0 6702.13  406.36
  -1  -2   0 6735.23  406.46
  -1  -2   0 6547.94  406.36
  -1  -2   0 6751.72  406.46
  -1  -2   0 6178.78  406.26
  -1   2   0 7280.47  406.36
   1   2   0 6392.86  442.96
  -1   2   0 6577.14  406.36
  -1   2   0 6151.48  406.26
  -1   2   0 6373.46  406.36
  -1   2   0 6422.76  406.36
  -1   2   0 6487.55  406.36
  -1   2   0 6148.08  406.26
  -1   2   0 6601.64  406.46
  -1   2   0 6475.45  406.46
   1   2   0 7844.22  443.16
  -2  -2   0  462.75   30.10
   2  -2   0  548.35   36.20
  -2  -2   0  493.75   30.30
  -2  -2   0  493.75   30.40
  -2  -2   0  493.65   30.30
  -2  -2   0  477.45   30.30
  -2  -2   0  526.25   30.30
  -2  -2   0  504.85   30.30
  -2  -2   0  438.96   30.20
  -2  -2   0  490.45   30.50
   2  -2   0  534.95   36.10
  -2   2   0  433.26   30.20
  -2   2   0  460.75   30.30
  -2   2   0  477.55   30.40
  -2   2   0  460.85   30.30
   2   2   0  641.04   36.30
  -2   2   0  477.35   30.10
  -2   2   0  488.05   30.20
  -2   2   0  471.25   30.30
  -3  -2   0    1.10    1.40
  -3  -2   0   -0.40    1.60
  -3  -2   0    2.90    1.40
  -3  -2   0    1.50    1.20
  -3  -2   0    2.30    1.70
  -3  -2   0    1.90    1.70
  -3  -2   0    3.70    1.70
   3  -2   0    4.40    1.40
  -3  -2   0    1.20    1.40
  -3  -2   0    0.70    1.70
  -3   2   0    1.30    1.30
  -3   2   0    1.60    1.30
   3   2   0    1.60    2.90
  -3   2   0    2.00    1.10
  -3   2   0    2.20    1.30
  -3   2   0    1.90    1.40
  -3   2   0    4.30    1.40
  -3   2   0    2.90    1.70
  -4  -2   0   -0.10    1.90
  -4  -2   0    1.70    2.60
  -4  -2   0    3.30    3.60
  -4  -2   0    4.60    2.90
  -4  -2   0    6.80    2.10
  -4  -2   0    4.30    2.10
  -4   2   0    4.30    2.30
  -4   2   0    4.90    2.40
  -4   2   0    7.40    2.00
  -4   2   0    2.50    2.10
  -4   2   0    2.30    1.90
  -4   2   0    2.30    2.20
   0  -3   0  349.17   22.80
   0  -3   0  359.26   22.80
   0  -3   0  372.26   22.80
   0   3   0  318.07   22.80
   0   3   0  383.86   23.00
   0   3   0  373.56   22.80
   0   3   0  388.66   22.80
  -1  -3   0  551.54   30.50
   1  -3   0  428.36   28.60
  -1  -3   0  500.45   30.80
  -1  -3   0  472.35   30.60
  -1  -3   0  485.05   30.80
  -1  -3   0  544.15   30.70
   1  -3   0  446.06   28.60
  -1  -3   0  488.25   30.80
  -1  -3   0  419.06   30.70
   1  -3   0  528.25   28.70
  -1  -3   0  450.25   30.60
  -1  -3   0  479.35   30.60
   1   3   0  395.96   28.50
  -1   3   0  514.95   30.70
  -1   3   0  458.35   30.60
   1   3   0  483.05   28.60
  -1   3   0  500.25   30.70
  -1   3   0  420.26   30.60
  -1   3   0  488.15   30.60
  -1   3   0  512.25   30.70
  -1   3   0  503.15   30.70
  -1   3   0  498.05   30.60
  -1   3   0  500.25   30.70
  -2  -3   0  667.43   41.20
   2  -3   0  655.63   46.30
  -2  -3   0  620.14   41.00
  -2  -3   0  698.53   40.90
  -2  -3   0  669.13   40.90
  -2  -3   0  697.73   41.10
  -2  -3   0  649.74   41.00
   2  -3   0  736.23   46.50
   2  -3   0  669.73   46.30
  -2  -3   0  612.84   40.80
  -2  -3   0  667.63   41.10
  -2  -3   0  628.44   41.20
  -2   3   0  636.14   41.10
  -2   3   0  636.14   41.10
  -2   3   0  638.24   41.00
  -2   3   0  655.93   40.90
  -2   3   0  660.93   41.00
   2   3   0  785.02   46.40
  -2   3   0  622.14   41.00
  -2   3   0  645.04   41.00
   2   3   0  852.21   46.60
  -3  -3   0    1.40    1.40
  -3  -3   0    3.20    1.60
   3  -3   0   -1.20    1.00
  -3  -3   0    2.50    2.00
  -3  -3   0    3.90    1.50
  -3  -3   0    5.60    2.00
  -3  -3   0    1.80    2.10
  -3  -3   0    1.60    1.30
  -3  -3   0   -1.50    1.90
   3  -3   0    1.60    1.30
  -3  -3   0    0.50    1.70
  -3   3   0    0.70    1.50
  -3   3   0    0.60    1.20
  -3   3   0    1.70    1.40
  -3   3   0    3.10    1.70
  -3   3   0    2.00    1.40
   3   3   0    1.90    1.50
  -3   3   0    2.20    1.40
  -3   3   0    2.70    1.20
  -4  -3   0   -0.60    2.20
   4  -3   0    1.90    1.60
  -4  -3   0    0.30    1.90
  -4  -3   0    3.70    3.00
  -4   3   0   -1.80    2.10
  -4   3   0    0.70    1.90
  -4   3   0    0.00    2.10
  -4   3   0    2.40    2.20
   0  -4   0  724.73   45.60
   0  -4   0  690.83   45.50
   0  -4   0  710.43   45.60
   0  -4   0  718.63   45.50
   0   4   0  806.12   45.60
   0   4   0  686.03   45.50
   0   4   0  749.13   45.50
   0   4   0  745.93   45.80
   1  -4   0  822.32   57.59
   1  -4   0  934.71   57.59
  -1  -4   0  849.12   58.59
  -1  -4   0  940.71   58.49
  -1  -4   0  929.71   58.29
  -1  -4   0  942.31   58.49
  -1  -4   0  915.61   58.69
  -1  -4   0  965.20   58.79
  -1  -4   0 1027.00   58.39
   1  -4   0  957.20   57.89
  -1   4   0  922.61   58.39
   1   4   0  935.31   57.79
  -1   4   0  815.42   58.39
  -1   4   0  942.21   58.59
   1   4   0  878.41   57.49
  -1   4   0  998.10   58.59
  -1   4   0  916.11   58.59
  -1   4   0  994.90   58.49
   1   4   0 1005.90   57.59
  -2  -4   0 1477.45   88.29
  -2  -4   0 1327.47   88.39
   2  -4   0 1520.05  100.89
  -2  -4   0 1515.25   88.69
  -2  -4   0 1484.05   88.29
  -2  -4   0 1432.16   88.69
  -2  -4   0 1368.36   88.49
   2  -4   0 1620.34  101.19
   2  -4   0 1496.55  101.09
  -2  -4   0 1531.85   88.69
  -2   4   0 1366.16   88.29
  -2   4   0 1355.86   88.19
  -2   4   0 1394.66   88.19
  -2   4   0 1369.56   88.49
  -2   4   0 1355.46   88.49
   2   4   0 1766.92  100.99
  -2   4   0 1368.76   88.39
  -2   4   0 1386.06   88.39
  -2   4   0 1448.06   88.49
   2   4   0 1687.73  101.19
  -3  -4   0   42.40    3.90
  -3  -4   0   36.50    6.20
  -3  -4   0   40.90    4.00
  -3  -4   0   34.60    4.40
   3  -4   0   31.70    3.10
  -3  -4   0   38.50    3.90
   3  -4   0   30.20    3.40
  -3  -4   0   41.30    4.50
  -3   4   0   37.40    4.00
   3   4   0   35.60    3.30
  -3   4   0   47.50    4.10
  -3   4   0   44.10    5.00
  -4  -4   0    5.40    3.30
   4  -4   0   15.00    2.90
  -4  -4   0    4.20    2.60
  -4  -4   0    6.30    2.30
  -4   4   0    5.70    2.40
  -4   4   0    7.20    2.50
  -4   4   0    5.60    2.40
  -4   4   0    9.30    2.60
   0  -5   0  502.55   30.70
   0  -5   0  486.25   30.60
   0  -5   0  484.75   30.60
   0   5   0  491.35   31.10
   0   5   0  489.95   30.70
   0   5   0  500.85   30.60
   0   5   0  464.85   30.70
  -1  -5   0  400.66   25.80
  -1  -5   0  412.16   26.10
   1  -5   0  438.06   27.80
   1  -5   0  431.56   27.90
  -1  -5   0  419.76   26.40
  -1  -5   0  435.46   26.00
  -1  -5   0  408.86   26.00
  -1  -5   0  435.26   25.90
   1  -5   0  467.35   28.00
  -1  -5   0  409.36   26.10
  -1   5   0  382.86   25.90
   1   5   0  434.96   28.10
  -1   5   0  399.26   26.10
  -1   5   0  408.46   26.10
  -1   5   0  426.36   26.10
   1   5   0  406.86   27.70
  -1   5   0  438.06   26.00
  -1   5   0  399.86   26.10
   1   5   0  463.95   28.00
   1   5   0  455.15   27.80
  -1   5   0  387.46   26.00
  -1   5   0  408.86   25.90
  -2  -5   0   22.70    3.90
  -2  -5   0   25.80    2.90
  -2  -5   0   31.90    3.00
  -2  -5   0   27.30    3.40
  -2  -5   0   25.80    3.80
  -2  -5   0   30.50    3.30
   2  -5   0   24.70    2.40
   2  -5   0   20.80    2.20
  -2  -5   0   23.10    2.70
  -2   5   0   23.90    2.40
  -2   5   0   28.10    3.00
  -2   5   0   27.50    2.50
   2   5   0   17.70    2.20
  -2   5   0   31.40    3.10
  -2   5   0   24.70    3.00
  -2   5   0   29.20    3.00
  -3  -5   0  163.68   13.10
  -3  -5   0  175.38   12.10
  -3  -5   0  176.28   12.40
  -3  -5   0  176.58   12.90
   3  -5   0  177.48   12.00
   3  -5   0  174.58   11.70
  -3   5   0  191.38   12.30
  -3   5   0  186.38   12.50
  -3   5   0  180.18   12.40
  -3   5   0  173.68   12.40
   3   5   0  167.68   12.50
  -3   5   0  191.18   12.60
   3   5   0  185.78   11.70
  -4  -5   0   -2.80    3.10
   4  -5   0    3.80    1.50
  -4  -5   0   -1.30    2.40
  -4   5   0    2.60    2.60
  -4   5   0    2.70    2.50
  -4   5   0    1.40    2.50
  -4   5   0    0.90    2.50
   4   5   0    2.90    2.80
   0  -6   0  169.58   10.10
   0  -6   0  157.38   10.10
   0  -6   0  136.49    9.90
   0  -6   0  155.88    9.90
   0   6   0  157.08   10.00
   0   6   0  166.68   10.10
   0   6   0  149.69   10.00
   0   6   0  161.88   10.50
   0   6   0  135.59   10.10
  -1  -6   0   30.70    2.50
   1  -6   0   28.80    2.40
   1  -6   0   26.00    2.30
  -1  -6   0   33.20    2.90
  -1  -6   0   28.70    2.70
  -1  -6   0   28.60    4.00
  -1  -6   0   36.20    3.20
   1  -6   0   22.20    2.30
  -1  -6   0   32.50    2.50
  -1  -6   0   26.30    3.00
   1   6   0   23.10    2.40
  -1   6   0   28.90    2.90
  -1   6   0   33.80    3.10
  -1   6   0   33.80    2.80
  -1   6   0   28.20    2.70
  -1   6   0   31.50    2.60
  -1   6   0   32.10    3.00
  -1   6   0   26.40    3.00
   1   6   0   25.00    2.80
   1   6   0   25.60    2.50
   1   6   0   24.90    2.20
  -1   6   0   32.70    2.70
   2  -6   0   74.49    5.50
  -2  -6   0   75.19    5.60
   2  -6   0   82.09    5.70
  -2  -6   0   77.29    6.00
  -2  -6   0   83.39    6.70
  -2  -6   0   65.79    5.50
   2  -6   0   72.79    5.50
  -2   6   0   67.09    5.80
  -2   6   0   66.99    5.20
  -2   6   0   75.79    5.80
   2   6   0   77.59    5.80
  -2   6   0   77.39    5.80
  -2   6   0   76.69    5.70
  -2   6   0   72.89    5.20
   2   6   0   75.69    5.30
  -3  -6   0   72.19    6.80
   3  -6   0   84.29    6.40
  -3  -6   0   68.49    7.90
   3  -6   0   84.79    6.20
  -3   6   0   86.19    6.90
  -3   6   0   88.99    6.80
   3   6   0   71.89    7.10
  -3   6   0   83.69    6.60
  -3   6   0   85.59    6.70
   3   6   0   83.49    6.70
  -4  -6   0    2.10    2.70
   4  -6   0    1.30    1.40
  -4  -6   0    4.20    3.60
  -4   6   0    0.90    2.60
  -4   6   0    6.20    2.90
  -4   6   0    1.80    2.50
   0  -7   0    0.10    0.60
   0  -7   0   -0.10    1.00
   0  -7   0   -0.40    0.70
   0   7   0    1.70    0.90
   0   7   0    0.20    1.10
   0   7   0   -0.60    1.10
   0   7   0    1.80    0.90
   0   7   0   -0.20    0.70
   1  -7   0   26.00    2.50
  -1  -7   0   24.00    2.60
  -1  -7   0   24.30    2.90
   1  -7   0   27.70    2.40
  -1  -7   0   25.30    2.60
   1  -7   0   24.10    2.20
   1  -7   0   23.50    2.40
  -1  -7   0   19.80    2.30
  -1  -7   0   20.80    2.90
  -1  -7   0   23.00    2.20
   1   7   0   25.30    2.70
  -1   7   0   23.00    3.10
   1   7   0   23.10    2.80
   1   7   0   23.50    2.30
  -1   7   0   19.30    2.40
  -1   7   0   24.40    2.30
   1   7   0   21.80    3.00
  -1   7   0   25.00    2.80
  -1   7   0   18.50    2.80
  -1   7   0   20.20    3.30
   2  -7   0    4.80    1.30
   2  -7   0    4.70    1.30
  -2  -7   0    3.60    1.80
  -2  -7   0    5.20    1.80
  -2  -7   0    5.10    2.90
  -2  -7   0    5.50    1.70
   2  -7   0    1.60    1.80
   2   7   0    1.70    1.90
   2   7   0    6.30    1.30
  -2   7   0    2.50    1.60
  -2   7   0    3.90    1.40
  -2   7   0    5.30    1.60
  -2   7   0    4.00    1.20
  -2   7   0    4.00    1.90
  -2   7   0    5.20    1.50
  -3  -7   0    3.40    3.80
   3  -7   0    0.40    1.10
   3  -7   0    1.40    1.50
  -3  -7   0    3.90    2.30
   3  -7   0    0.90    1.60
  -3   7   0   -2.10    1.80
  -3   7   0   -0.80    1.80
   3   7   0    0.20    2.00
  -3   7   0    1.40    1.90
  -3   7   0    1.20    2.10
  -4  -7   0    8.30    4.70
   4  -7   0   16.10    2.80
  -4  -7   0   10.60    3.00
  -4   7   0   13.40    3.10
  -4   7   0   12.00    3.10
  -4   7   0   11.20    3.90
  -4   7   0   13.20    3.30
   0  -8   0   41.30    3.50
   0  -8   0   34.60    3.10
   0  -8   0   38.00    3.00
   0  -8   0   41.60    3.40
   0   8   0   39.40    3.70
   0   8   0   40.80    3.10
   0   8   0   37.30    3.30
   0   8   0   41.50    3.30
   1  -8   0   44.80    3.40
  -1  -8   0   38.00    3.60
   1  -8   0   33.80    3.50
  -1  -8   0   42.40    3.60
  -1  -8   0   38.70    4.00
   1  -8   0   41.90    3.20
   1  -8   0   39.80    3.40
  -1  -8   0   37.20    3.90
  -1   8   0   36.70    3.70
   1   8   0   36.40    4.30
  -1   8   0   33.60    3.30
   1   8   0   38.10    3.20
  -1   8   0   42.30    3.80
  -1   8   0   36.50    4.20
   1   8   0   36.90    3.60
  -1   8   0   40.80    3.20
  -2  -8   0   38.60    4.30
  -2  -8   0   26.20    4.40
   2  -8   0   52.59    4.20
   2  -8   0   43.00    4.00
   2  -8   0   47.60    3.80
  -2  -8   0   26.70    4.20
  -2   8   0   38.00    3.30
   2   8   0   41.50    4.50
   2   8   0   39.70    4.40
  -2   8   0   36.80    4.30
  -2   8   0   34.80    4.80
  -2   8   0   39.10    3.90
  -2   8   0   39.70    4.10
   3  -8   0    4.90    1.70
  -3  -8   0    1.00    4.00
  -3  -8   0    4.00    2.50
   3  -8   0    3.70    1.20
  -3   8   0    6.40    2.40
  -3   8   0    6.10    2.30
   3   8   0    3.10    2.20
  -3   8   0    7.70    2.40
  -3   8   0    5.50    2.90
  -4  -8   0    7.40    3.40
   4  -8   0   10.60    2.10
  -4   8   0    8.10    3.50
  -4   8   0    5.60    3.70
  -4   8   0    9.50    3.40
   4   8   0    8.20    3.60
   0  -9   0    6.60    1.20
   0  -9   0    6.40    1.70
   0  -9   0    4.30    1.30
   0   9   0    4.10    1.20
   0   9   0    8.30    1.70
   1  -9   0   23.40    2.60
   1  -9   0   21.30    3.00
  -1  -9   0   14.90    3.20
   1  -9   0   27.60    2.80
  -1  -9   0   23.90    3.00
  -1  -9   0   18.20    2.80
  -1  -9   0   17.40    3.30
   1  -9   0   27.40    2.50
  -1   9   0   18.90    3.10
   1   9   0   17.70    4.50
   1   9   0   22.80    2.60
   1   9   0   20.70    2.90
  -1   9   0   20.20    2.40
  -1   9   0   22.20    3.10
   2  -9   0   -2.10    1.60
  -2  -9   0    0.80    2.10
  -2  -9   0    2.70    2.10
   2  -9   0    3.90    1.30
   2  -9   0    2.40    1.50
  -2   9   0    5.00    3.00
  -2   9   0    0.10    1.80
  -2   9   0    0.40    2.20
   2   9   0    0.20    1.80
   2   9   0    1.20    1.40
  -2   9   0    0.70    1.20
  -2   9   0    6.10    2.20
  -3  -9   0    6.60    2.90
   3  -9   0    3.00    1.80
   3  -9   0    5.60    1.70
  -3   9   0    2.80    2.50
  -3   9   0   -1.50    2.30
  -3   9   0    4.80    2.60
   3   9   0    3.60    2.40
  -3   9   0    8.30    3.30
   0 -10   0   33.80    3.80
   0 -10   0   44.70    3.90
   0 -10   0   39.90    3.30
   0 -10   0   31.80    3.90
   0  10   0   31.50    3.50
   0  10   0   39.20    4.10
  -1 -10   0    1.90    1.90
  -1 -10   0    2.30    1.80
  -1 -10   0    0.90    1.70
   1 -10   0    1.60    1.50
  -1 -10   0    3.10    2.00
   1 -10   0    2.70    1.10
   1 -10   0   -0.50    1.90
   1 -10   0    2.10    1.70
   1  10   0    2.10    2.30
  -1  10   0    2.60    1.20
  -1  10   0    1.80    1.30
  -1  10   0    4.70    1.80
  -1  10   0    1.90    1.90
   1  10   0    1.60    1.30
   1  10   0    1.80    1.30
   2 -10   0   57.99    5.10
  -2 -10   0   53.19    5.30
   2 -10   0   59.59    4.70
  -2  10   0   48.60    4.30
   2  10   0   43.20    4.60
  -2  10   0   51.99    5.40
  -2  10   0   49.00    5.10
  -2  10   0   47.90    6.40
   3 -10   0   -0.50    1.40
  -3 -10   0    0.50    2.60
  -3  10   0    1.90    3.40
  -3  10   0    3.20    2.70
  -3  10   0   -0.20    2.60
   3  10   0    1.30    2.40
   0 -11   0   -0.30    1.50
   0 -11   0    2.70    1.80
   0 -11   0   -0.10    1.40
   0 -11   0   -0.70    2.00
   0  11   0    1.10    1.50
   0  11   0    2.30    1.30
   0  11   0   -2.40    2.20
   1 -11   0   18.90    2.70
   1 -11   0   19.50    3.30
   1 -11   0   16.90    3.10
  -1 -11   0   14.30    2.50
  -1 -11   0   13.90    2.50
  -1 -11   0   10.50    2.40
  -1  11   0   13.60    2.50
  -1  11   0    8.80    2.00
   1  11   0   13.50    3.20
   1  11   0   14.90    2.70
  -1  11   0   14.70    2.60
  -1  11   0   13.60    2.60
   1  11   0   15.50    3.00
  -2 -11   0   -1.70    4.30
   2 -11   0    2.60    1.40
   2 -11   0    0.90    2.00
  -2 -11   0    3.00    2.00
   2  11   0    3.00    1.90
   2  11   0   -2.60    2.00
  -2  11   0    3.80    2.70
  -2  11   0    0.10    1.40
  -2  11   0    2.90    2.40
   0 -12   0    3.20    2.30
   0 -12   0    2.90    1.90
   0 -12   0    5.30    2.40
   0  12   0    4.90    2.00
   0  12   0    2.60    1.80
   0  12   0    6.40    3.10
   0  12   0    5.50    1.60
   1 -12   0    5.30    2.00
  -1 -12   0    3.20    2.30
  -1 -12   0   -3.90    2.60
   1 -12   0    5.20    2.00
   1  12   0    3.50    1.90
  -1  12   0    1.10    3.00
  -1  12   0    3.90    2.30
  -1  12   0    2.00    2.20
  -1  12   0    4.00    1.60
   1  12   0    5.10    1.80
   2 -12   0    4.00    2.10
   2 -12   0   -1.40    2.50
   2 -12   0    0.30    1.60
  -2 -12   0    0.50    2.20
   2  12   0   -0.70    2.10
  -2  12   0   -0.10    2.50
  -2  12   0    1.90    2.90
  -2  12   0   -0.90    1.60
   0 -13   0   -1.50    1.80
   0  13   0    1.10    1.70
   0  13   0    4.20    2.20
   0  13   0    0.20    1.90
   1 -13   0   -0.20    2.10
  -1 -13   0    1.80    2.10
  -1 -13   0    1.90    2.70
   1 -13   0    2.10    2.30
   1  13   0   -1.80    1.80
  -1  13   0    5.20    3.70
  -1  13   0    2.40    2.60
   1  13   0    1.60    2.10
  -1  13   0   -0.40    1.50
  -5   0   1   -4.20    3.20
  -5   0   1   -4.70    4.10
  -4   0   1   -0.50    2.30
  -4   0   1   -0.70    1.90
  -4   0   1    5.50    2.00
  -4   0   1    0.90    1.70
  -4   0   1   -2.10    2.30
  -4   0   1    0.70    2.00
  -4   0   1    1.60    2.10
   3   0  -1    2.50    1.80
  -3   0   1    2.20    1.10
  -3   0   1    1.10    1.30
  -3   0   1    2.10    1.40
  -3   0   1    0.10    1.50
  -3   0   1    1.40    1.40
  -3   0   1    0.90    1.50
  -3   0   1    0.40    1.60
  -3   0   1    2.50    1.40
  -3   0   1    1.70    1.20
  -2   0   1   -1.20    1.00
  -2   0   1    0.80    0.80
  -2   0   1   -0.10    1.00
  -2   0   1    2.30    1.10
  -2   0   1    0.40    1.00
  -2   0   1    0.80    1.00
  -1   0   1    8.50    1.50
  -1   0   1    7.30    1.60
  -1   0   1    8.60    1.40
   0   0  -1    0.40    0.10
   0   0   1    0.20    0.20
  -1   0  -1    2.00    0.80
  -1   0  -1    2.20    0.80
  -1   0  -1    2.80    0.80
  -1   0  -1    2.80    0.90
  -1   0  -1    2.50    0.80
  -1   0  -1    3.70    0.90
  -2   0  -1    2.00    1.20
   2   0   1    1.10    0.70
  -2   0  -1    1.60    1.10
  -2   0  -1    1.50    1.00
  -2   0  -1    0.90    0.90
  -2   0  -1    1.40    1.10
  -2   0  -1    2.50    1.10
  -2   0  -1    1.30    1.00
   3   0   1    3.00    1.20
   3   0   1    1.90    1.80
  -3   0  -1    3.00    1.70
  -3   0  -1    2.20    1.30
  -3   0  -1    0.00    1.50
  -3   0  -1   -1.00    1.50
  -3   0  -1    1.50    1.40
  -3   0  -1   -0.40    1.10
  -3   0  -1    0.70    1.40
  -3   0  -1   -0.70    1.00
  -3   0  -1    2.30    1.10
  -4   0  -1   -0.80    1.70
  -4   0  -1   -0.30    1.80
  -4   0  -1    1.70    3.00
  -4   0  -1    0.30    2.30
  -4   0  -1   -3.20    2.10
  -4   0  -1   -1.80    1.60
  -4   0  -1    2.00    2.30
  -5  -1   1   -5.00    5.30
  -5  -1   1    4.00    3.40
  -5   1   1    4.70    3.70
  -5   1   1   -5.70    7.30
  -5   1   1    2.20    3.70
  -5   1   1    6.50    3.90
  -4  -1   1    0.10    2.50
  -4  -1   1    0.60    2.00
  -4  -1   1    3.00    2.40
  -4  -1   1    0.00    3.00
  -4  -1   1    1.20    1.90
  -4  -1   1    0.30    2.00
  -4  -1   1   -1.20    2.20
  -4  -1   1   -3.80    2.60
  -4  -1   1    1.00    1.90
  -4   1   1    2.10    2.10
  -4   1   1    2.60    2.60
  -4   1   1   -0.30    2.30
  -4   1   1    2.50    2.30
  -4   1   1   -0.10    2.10
  -4   1   1    0.70    2.00
  -4   1   1    0.10    1.60
  -3  -1   1   49.40    4.40
  -3  -1   1   48.90    3.90
  -3  -1   1   39.80    4.00
  -3  -1   1   56.09    4.70
  -3  -1   1   43.30    4.20
  -3  -1   1   49.60    4.00
  -3  -1   1   55.49    4.50
  -3  -1   1   48.20    4.20
  -3   1   1   47.20    4.40
  -3   1   1   44.30    4.20
  -3   1   1   45.90    4.20
  -3   1   1   44.80    4.50
  -3   1   1   46.90    3.90
  -3   1   1   40.70    3.90
  -2  -1   1  317.97   20.70
  -2  -1   1  345.77   20.70
  -2  -1   1  343.77   21.00
  -2  -1   1  329.07   21.20
  -2  -1   1  335.37   20.80
  -2  -1   1  354.76   20.70
  -2  -1   1  325.07   20.80
  -2   1   1  292.67   20.90
  -2   1   1  326.07   20.90
  -2   1   1  309.67   20.80
  -2   1   1  311.97   20.70
  -2   1   1  310.67   20.80
  -2   1   1  326.67   20.80
  -2   1   1  331.87   20.60
   2   1  -1  428.06   27.10
  -1  -1   1  159.98    9.90
   1  -1  -1  162.08   10.40
  -1  -1   1  163.38   10.00
  -1  -1   1  169.98   10.00
  -1  -1   1  142.99    9.90
  -1  -1   1  166.18   10.10
  -1  -1   1  157.78   10.10
  -1   1   1  133.79    9.90
  -1   1   1  161.18   10.00
  -1   1   1  157.28    9.90
   1   1  -1  161.78   10.30
  -1   1   1  146.59   10.00
  -1   1   1  151.78   10.00
  -1   1   1  160.28   10.10
  -1   1   1  152.48   10.00
   0  -1   1 1094.89   77.09
   0   1   1 1381.66   77.19
  -1  -1  -1  813.92   45.10
  -1  -1  -1  773.52   45.10
  -1  -1  -1  770.42   45.10
  -1  -1  -1  672.13   45.20
  -1  -1  -1  725.73   45.10
  -1  -1  -1  712.63   45.10
  -1  -1  -1  632.84   45.00
   1  -1   1  793.42   52.29
  -1  -1  -1  737.53   45.20
   1   1   1  880.91   52.39
  -1   1  -1  690.63   45.10
  -1   1  -1  703.13   45.10
  -1   1  -1  750.52   45.10
  -1   1  -1  764.62   45.10
  -1   1  -1  798.42   45.20
  -1   1  -1  657.13   45.00
  -1   1  -1  613.24   45.00
  -2  -1  -1    4.50    1.20
  -2  -1  -1    6.40    1.50
   2  -1   1   12.00    1.70
  -2  -1  -1    3.30    1.10
  -2  -1  -1    5.90    1.30
  -2  -1  -1    9.90    1.90
  -2  -1  -1    7.00    1.80
  -2  -1  -1    3.60    1.20
  -2   1  -1    5.40    1.30
  -2   1  -1    6.30    1.20
  -2   1  -1    8.90    1.90
  -2   1  -1    8.90    1.70
  -2   1  -1    8.70    1.60
   2   1   1    9.50    2.20
  -2   1  -1    9.50    2.30
   3  -1   1  112.39    7.80
  -3  -1  -1  132.69    8.30
  -3  -1  -1   96.49    8.20
  -3  -1  -1  121.29    8.10
  -3  -1  -1  109.29    8.10
  -3  -1  -1  107.39    8.30
  -3  -1  -1  114.69    7.90
  -3  -1  -1  122.69    8.60
  -3  -1  -1  113.79    8.00
  -3  -1  -1  116.99    8.10
   3   1   1  116.79    8.80
  -3   1  -1  128.89    8.40
  -3   1  -1  115.69    8.30
  -3   1  -1  106.39    7.80
  -3   1  -1  101.69    8.20
  -3   1  -1  115.59    8.20
  -3   1  -1  113.89    7.90
  -3   1  -1  119.59    8.10
  -3   1  -1  113.49    7.90
  -3   1  -1  118.49    9.00
  -4  -1  -1   22.10    4.40
  -4  -1  -1   32.80    4.20
  -4  -1  -1   30.50    5.20
  -4  -1  -1   40.80    3.80
  -4  -1  -1   36.90    5.00
  -4  -1  -1   24.70    4.80
  -4  -1  -1   30.70    3.70
  -4   1  -1   31.40    3.70
  -4   1  -1   31.40    5.90
  -4   1  -1   32.00    4.30
  -4   1  -1   32.60    3.70
  -4   1  -1   24.10    4.60
  -4   1  -1   29.90    4.40
  -4   1  -1   36.50    4.00
  -5   1  -1   -5.50    4.70
  -5  -2   1    7.20    3.60
  -5   2   1   -8.20    4.60
  -5   2   1    2.10    3.80
  -5   2   1    3.20    3.50
  -4  -2   1   18.70    4.60
  -4  -2   1   11.70    2.30
  -4  -2   1   17.40    3.40
  -4  -2   1    9.10    3.00
  -4  -2   1    6.80    2.20
  -4  -2   1    7.90    2.80
  -4   2   1   15.00    2.40
  -4   2   1   11.40    2.60
  -4   2   1   11.00    3.00
  -4   2   1    7.70    3.00
  -4   2   1    9.20    2.70
  -4   2   1   12.10    2.60
  -3  -2   1   26.20    2.70
  -3  -2   1   22.00    3.10
  -3  -2   1   21.90    2.90
  -3  -2   1   24.40    3.60
  -3  -2   1   29.00    3.40
   3  -2  -1   25.40    2.70
  -3  -2   1   24.80    3.10
   3  -2  -1   26.30    3.00
  -3  -2   1   25.70    3.40
  -3   2   1   25.40    3.00
  -3   2   1   24.50    3.60
  -3   2   1   24.70    3.00
  -3   2   1   22.70    2.80
  -3   2   1   21.10    3.20
  -3   2   1   21.40    2.70
  -3   2   1   22.30    3.20
  -2  -2   1  211.18   13.60
  -2  -2   1  202.38   13.40
  -2  -2   1  223.78   13.40
  -2  -2   1  229.28   13.50
  -2  -2   1  218.68   13.70
  -2  -2   1  203.78   13.60
  -2  -2   1  210.18   13.80
  -2   2   1  194.58   13.50
  -2   2   1  203.78   13.50
  -2   2   1  204.18   13.40
  -2   2   1  206.98   13.30
  -2   2   1  200.68   13.60
  -2   2   1  197.38   13.60
  -1  -2   1 4548.65  288.37
   1  -2  -1 4323.47  276.17
  -1  -2   1 5036.30  288.47
  -1  -2   1 4844.52  288.57
  -1  -2   1 4204.98  288.37
  -1  -2   1 4966.20  288.47
  -1  -2   1 4615.54  288.47
  -1  -2   1 5047.29  288.47
  -1  -2   1 4728.03  288.57
   1   2  -1 5063.49  276.17
  -1   2   1 4465.85  288.37
  -1   2   1 4647.33  288.57
  -1   2   1 4520.65  288.47
  -1   2   1 4581.14  288.47
  -1   2   1 4335.47  288.47
  -1   2   1 4555.64  288.47
  -1   2   1 4217.28  288.37
  -1   2   1 4764.22  288.47
   1   2  -1 3923.21  276.17
  -1   2   1 4684.33  288.47
   0  -2   1  129.39    8.40
   0  -2   1  141.99    8.40
   0  -2   1  111.59    8.40
   0  -2   1  127.49    8.50
   0   2  -1   91.99    5.80
   0   2  -1   82.29    5.60
   0   2   1  141.69    8.50
   0   2   1  142.69    8.50
  -1  -2  -1 9210.58  557.04
  -1  -2  -1 9999.00  557.04
   1  -2   1 8985.60  559.14
  -1  -2  -1 9349.76  556.94
  -1  -2  -1 9162.88  557.14
  -1  -2  -1 8828.52  556.84
  -1  -2  -1 9770.92  557.04
  -1  -2  -1 8826.92  556.94
  -1  -2  -1 8420.06  557.04
  -1   2  -1 9040.70  557.04
  -1   2  -1 8160.28  556.84
  -1   2  -1 8695.73  556.94
  -1   2  -1 9486.15  557.04
  -1   2  -1 9035.80  556.94
  -1   2  -1 7839.42  557.04
  -1   2  -1 8423.26  557.04
  -2  -2  -1  699.33   43.10
  -2  -2  -1  723.93   42.90
  -2  -2  -1  729.43   43.00
  -2  -2  -1  726.93   42.90
   2  -2   1  780.52   50.49
  -2  -2  -1  625.74   42.80
  -2  -2  -1  667.93   42.80
  -2  -2  -1  725.83   42.90
  -2  -2  -1  693.23   42.80
  -2  -2  -1  705.43   42.80
  -2   2  -1  666.03   42.90
  -2   2  -1  591.74   42.70
  -2   2  -1  641.94   42.90
  -2   2  -1  662.53   42.80
  -2   2  -1  669.83   42.90
   2   2   1  830.72   50.79
  -2   2  -1  689.93   42.80
  -2   2  -1  681.23   42.90
  -3  -2  -1   53.59    4.50
  -3  -2  -1   47.60    4.40
  -3  -2  -1   56.09    5.00
  -3  -2  -1   55.49    4.70
  -3  -2  -1   51.29    4.20
  -3  -2  -1   51.79    4.30
  -3  -2  -1   44.10    4.40
   3  -2   1   60.99    4.60
   3  -2   1   51.89    5.30
  -3  -2  -1   45.20    4.70
  -3   2  -1   48.90    4.10
  -3   2  -1   49.90    4.60
  -3   2  -1   47.90    4.10
  -3   2  -1   49.60    4.30
  -3   2  -1   51.09    4.60
  -3   2  -1   51.49    4.50
  -3   2  -1   51.59    4.40
   3   2   1   61.69    6.00
  -4  -2  -1    9.20    3.20
  -4  -2  -1    4.30    3.00
  -4  -2  -1    2.30    3.20
  -4  -2  -1   13.50    2.60
  -4  -2  -1   10.00    2.20
  -4  -2  -1    9.40    2.20
  -4   2  -1   11.70    2.30
  -4   2  -1    8.80    2.70
  -4   2  -1   10.80    2.30
  -4   2  -1   11.30    2.70
  -4   2  -1    9.30    2.20
  -4   2  -1    9.50    2.40
  -4  -3   1   18.10    3.60
   4  -3  -1   28.20    3.10
  -4  -3   1   23.30    5.00
   4  -3  -1   19.90    3.50
  -4  -3   1   22.70    4.00
  -4  -3   1   16.10    3.60
  -4  -3   1   15.90    3.70
  -4   3   1   18.30    3.80
  -4   3   1   26.40    4.20
  -4   3   1   26.40    3.80
  -4   3   1   22.10    4.40
  -4   3   1   26.00    4.30
  -3  -3   1   69.99    6.50
  -3  -3   1   65.49    6.50
  -3  -3   1   73.69    6.60
   3  -3  -1   82.49    6.10
   3  -3  -1   68.59    5.60
  -3  -3   1   87.19    6.20
  -3  -3   1   78.59    6.10
  -3  -3   1   87.49    6.60
  -3  -3   1   84.09    6.30
  -3   3   1   89.09    6.20
  -3   3   1   83.39    6.30
  -3   3   1   85.09    6.10
  -3   3   1   74.79    6.00
   3   3  -1   89.59    5.90
  -3   3   1   73.09    6.10
  -3   3   1   79.19    6.40
  -3   3   1   91.99    6.60
  -2  -3   1  525.55   33.20
  -2  -3   1  536.15   33.30
  -2  -3   1  560.04   33.10
  -2  -3   1  519.65   33.50
  -2  -3   1  497.05   33.20
  -2  -3   1  549.95   33.40
  -2  -3   1  558.94   33.50
  -2  -3   1  536.65   33.20
  -2  -3   1  491.25   33.00
  -2   3   1  528.95   33.40
  -2   3   1  518.95   33.30
  -2   3   1  518.25   33.20
  -2   3   1  509.45   33.00
  -2   3   1  523.75   33.30
  -2   3   1  529.65   33.20
  -2   3   1  509.65   33.30
  -2   3   1  520.95   33.20
  -1  -3   1  616.04   40.00
  -1  -3   1  649.64   40.00
  -1  -3   1  596.14   39.90
  -1  -3   1  617.84   40.20
   1  -3  -1  628.54   42.40
   1  -3  -1  607.54   42.40
  -1  -3   1  671.93   40.00
  -1  -3   1  637.14   39.90
  -1  -3   1  588.84   40.10
  -1  -3   1  615.54   40.10
  -1  -3   1  677.23   40.00
  -1  -3   1  656.23   40.20
  -1   3   1  664.53   40.10
  -1   3   1  636.44   40.10
  -1   3   1  636.74   40.00
   1   3  -1  709.53   42.40
   1   3  -1  747.63   42.40
   1   3  -1  699.43   42.50
  -1   3   1  653.13   40.10
  -1   3   1  622.44   39.90
  -1   3   1  633.84   40.10
  -1   3   1  641.64   40.00
  -1   3   1  680.83   40.10
   0  -3   1 2116.29  142.29
   0  -3   1 2236.98  142.29
   0  -3  -1 2351.26  151.08
   0  -3  -1 2351.36  151.08
   0  -3   1 2276.57  142.29
   0  -3   1 2574.14  142.39
   0  -3   1 2101.09  142.29
   0  -3   1 2315.97  142.29
   0  -3  -1 2339.47  151.08
   0  -3  -1 2321.77  151.08
   0   3   1 2104.19  142.29
   0   3  -1 2422.66  151.28
   0   3  -1 2550.54  151.08
   0   3   1 2319.87  142.29
   0   3  -1 2314.97  151.08
   0   3   1 2516.75  142.39
   0   3  -1 2759.02  151.18
  -1  -3  -1   24.10    2.10
  -1  -3  -1   26.90    2.80
  -1  -3  -1   26.80    2.50
  -1  -3  -1   20.20    2.30
   1  -3   1   33.30    2.50
  -1  -3  -1   24.40    2.40
   1  -3   1   34.20    2.60
  -1  -3  -1   22.30    2.30
  -1  -3  -1   25.30    2.20
  -1  -3  -1   27.90    1.90
  -1   3  -1   26.80    2.00
  -1   3  -1   22.40    2.40
  -1   3  -1   23.20    2.40
  -1   3  -1   25.90    2.40
  -1   3  -1   27.40    2.00
   1   3   1   29.40    2.40
  -1   3  -1   27.00    2.40
  -1   3  -1   27.90    2.40
   1   3   1   36.50    3.00
  -1   3  -1   25.10    2.30
  -1   3  -1   24.50    2.10
  -2  -3  -1  685.13   41.60
  -2  -3  -1  623.54   41.60
  -2  -3  -1  749.92   41.90
   2  -3   1  674.63   43.90
  -2  -3  -1  701.03   41.70
   2  -3   1  627.24   43.80
  -2  -3  -1  663.73   41.40
  -2  -3  -1  689.33   41.70
  -2  -3  -1  658.53   41.80
  -2  -3  -1  679.23   41.50
   2   3   1  768.32   44.20
   2   3   1  723.93   43.70
  -2   3  -1  620.14   41.50
  -2   3  -1  612.04   41.60
  -2   3  -1  620.24   41.50
  -2   3  -1  668.43   41.50
  -2   3  -1  634.04   41.50
  -2   3  -1  625.44   41.60
  -2   3  -1  663.53   41.30
   3  -3   1    8.60    1.50
  -3  -3  -1    2.90    1.90
  -3  -3  -1    3.90    1.90
  -3  -3  -1    4.10    1.80
  -3  -3  -1    3.80    2.00
  -3  -3  -1    3.90    1.70
  -3  -3  -1    3.50    2.30
   3  -3   1   10.30    2.30
   3   3   1    6.60    2.60
  -3   3  -1    2.00    1.40
  -3   3  -1    4.40    1.70
  -3   3  -1    6.00    1.60
  -3   3  -1    4.50    1.40
  -3   3  -1    3.60    1.60
  -4  -3  -1   -0.20    2.00
  -4  -3  -1    5.90    2.60
  -4  -3  -1    1.80    2.20
  -4  -3  -1    5.80    3.40
  -4   3  -1    6.40    2.40
  -4   3  -1    5.40    2.30
  -4   3  -1    5.90    2.10
  -4   3  -1    3.60    1.90
  -4   3  -1    0.80    2.30
  -4   3  -1    3.30    2.00
   4  -4  -1   13.80    2.70
  -4  -4   1   16.40    2.90
  -4  -4   1   12.10    3.30
  -4  -4   1    8.50    2.90
   4   4  -1   13.30    3.10
  -4   4   1   10.60    2.90
  -4   4   1   18.60    3.90
  -4   4   1   13.20    3.10
  -3  -4   1   13.80    3.80
  -3  -4   1    9.20    1.90
  -3  -4   1    8.50    2.50
   3  -4  -1   13.50    2.20
  -3  -4   1    7.90    2.30
  -3  -4   1    8.40    2.20
   3  -4  -1   14.00    2.60
  -3  -4   1   11.00    2.00
  -3  -4   1    5.60    1.90
  -3   4   1   12.00    2.60
  -3   4   1   10.00    2.80
  -3   4   1    9.90    1.90
   3   4  -1    9.40    1.80
  -3   4   1    7.10    2.10
  -3   4   1   11.40    2.30
  -3   4   1   11.20    2.10
  -2  -4   1  847.82   51.19
  -2  -4   1  763.82   50.89
  -2  -4   1  689.13   50.69
  -2  -4   1  829.02   50.79
   2  -4  -1  935.81   58.29
  -2  -4   1  745.93   50.79
   2  -4  -1  842.82   57.99
  -2  -4   1  838.02   51.29
  -2  -4   1  847.32   50.89
  -2  -4   1  861.31   51.19
  -2   4   1  818.12   50.99
  -2   4   1  802.52   50.89
  -2   4   1  820.82   50.99
  -2   4   1  845.12   50.69
   2   4  -1  928.41   57.89
  -2   4   1  829.82   50.69
  -2   4   1  802.52   50.89
   2   4  -1 1002.70   58.09
  -2   4   1  787.62   50.99
  -2   4   1  814.72   50.99
  -1  -4   1   11.30    1.70
  -1  -4   1   12.20    2.10
   1  -4  -1   15.80    1.70
  -1  -4   1   11.80    2.50
  -1  -4   1    9.30    1.80
  -1  -4   1   11.00    1.40
  -1  -4   1   11.80    1.60
  -1  -4   1   12.60    1.80
   1  -4  -1   18.70    2.00
   1  -4  -1   14.40    1.70
  -1  -4   1   12.10    1.50
  -1  -4   1   13.30    2.90
   1   4  -1   18.40    1.80
  -1   4   1   13.10    1.50
   1   4  -1   21.70    2.00
  -1   4   1   10.80    1.90
  -1   4   1    8.90    1.90
  -1   4   1    9.80    2.00
  -1   4   1    8.50    2.20
   1   4  -1   20.40    1.70
   0  -4   1  124.29    8.70
   0  -4   1  139.29    8.70
   0  -4  -1  132.99    8.80
   0  -4  -1  138.69    8.90
   0  -4  -1  135.69    8.90
   0  -4  -1  126.19    8.80
   0  -4   1  140.29    8.80
   0  -4   1  133.59    8.70
   0   4  -1  133.19    8.80
   0   4   1  125.29    8.70
   0   4   1  141.09    8.70
   0   4  -1  151.98    8.90
   0   4  -1  140.19    8.80
   0   4  -1  144.49    9.20
   0   4   1  147.79    9.10
   0   4  -1  133.69    8.80
   1  -4   1 1142.79   74.39
  -1  -4  -1 1197.48   74.09
  -1  -4  -1 1165.48   74.09
  -1  -4  -1 1170.58   74.09
   1  -4   1 1080.99   74.29
  -1  -4  -1 1191.08   73.89
   1  -4   1 1224.48   74.19
  -1  -4  -1 1122.79   74.09
  -1  -4  -1 1137.19   74.49
  -1   4  -1 1123.69   74.09
   1   4   1 1221.08   74.09
  -1   4  -1 1179.28   73.99
  -1   4  -1 1225.48   74.19
  -1   4  -1 1165.98   74.19
  -1   4  -1 1162.58   74.19
  -1   4  -1 1288.07   74.19
  -1   4  -1 1283.87   73.99
   1   4   1 1272.07   74.39
   2  -4   1  794.22   52.39
  -2  -4  -1  807.52   49.50
  -2  -4  -1  750.42   49.10
  -2  -4  -1  742.73   49.20
   2  -4   1  789.72   52.39
  -2  -4  -1  812.62   49.40
  -2  -4  -1  809.02   49.10
  -2  -4  -1  793.42   49.10
   2  -4   1  816.52   52.49
  -2  -4  -1  788.32   49.10
  -2  -4  -1  808.42   49.30
  -2   4  -1  733.43   49.20
  -2   4  -1  783.72   49.20
  -2   4  -1  796.52   48.90
  -2   4  -1  772.72   49.10
   2   4   1  900.91   52.29
   2   4   1  877.91   52.69
  -2   4  -1  775.92   49.20
  -2   4  -1  764.92   49.10
  -2   4  -1  763.32   49.10
   3  -4   1   38.00    3.60
  -3  -4  -1   38.90    3.80
   3  -4   1   46.70    3.90
  -3  -4  -1   40.00    4.40
  -3  -4  -1   28.70    5.80
  -3  -4  -1   33.60    4.00
  -3   4  -1   41.80    3.90
  -3   4  -1   43.80    4.10
  -3   4  -1   43.20    4.40
  -3   4  -1   32.10    3.80
  -3   4  -1   31.30    4.80
   3   4   1   37.40    4.20
  -4  -4  -1    4.20    3.20
  -4  -4  -1    3.60    2.20
  -4   4  -1    1.40    2.10
  -4   4  -1   -0.30    2.00
  -4   4  -1    0.20    2.20
  -4   4  -1   -0.20    2.20
  -4   4  -1   -0.30    2.20
  -4  -5   1    6.90    3.20
  -4  -5   1   -0.10    2.50
   4  -5  -1    1.40    1.50
  -4   5   1    8.20    2.50
  -4   5   1   -1.10    2.60
   4   5  -1    2.50    2.70
  -4   5   1   -0.30    2.20
  -4   5   1    2.10    2.30
  -3  -5   1  121.49    9.20
  -3  -5   1  119.49    9.70
  -3  -5   1  126.19    9.50
   3  -5  -1  131.59    9.60
  -3  -5   1  125.59    9.10
   3  -5  -1  144.29    9.30
   3  -5  -1  135.19    9.30
  -3  -5   1  115.69    9.90
  -3   5   1  123.39    9.20
  -3   5   1  124.09    9.20
  -3   5   1  133.59    9.10
   3   5  -1  137.59    9.30
  -3   5   1  130.59    9.20
  -3   5   1  136.29    9.40
  -2  -5   1    1.70    1.10
  -2  -5   1   -1.30    1.10
  -2  -5   1   -0.40    1.80
   2  -5  -1   -0.40    1.10
  -2  -5   1    0.50    1.40
   2  -5  -1    0.90    0.80
  -2  -5   1    0.40    1.30
  -2  -5   1    1.10    1.10
  -2   5   1    0.00    1.10
  -2   5   1    0.80    1.20
  -2   5   1    0.00    0.80
  -2   5   1    1.00    1.30
  -2   5   1    1.30    1.30
  -2   5   1    1.20    1.40
  -2   5   1   -0.50    0.70
  -2   5   1   -0.50    1.20
   2   5  -1    1.90    1.20
   2   5  -1    1.60    1.00
  -1  -5   1  384.16   22.60
   1  -5  -1  346.67   23.90
   1  -5  -1  408.16   24.10
  -1  -5   1  344.37   23.00
  -1  -5   1  359.26   22.80
  -1  -5   1  354.96   22.80
  -1  -5   1  366.36   23.10
   1  -5  -1  364.96   24.00
  -1  -5   1  351.56   22.70
  -1  -5   1  374.46   22.70
   1   5  -1  386.46   23.90
   1   5  -1  412.06   23.90
  -1   5   1  350.56   22.80
  -1   5   1  310.87   22.80
  -1   5   1  358.26   22.60
   1   5  -1  361.16   24.10
  -1   5   1  368.46   22.70
  -1   5   1  368.26   22.80
  -1   5   1  367.36   22.90
   0  -5   1  334.77   21.30
   0  -5  -1  332.17   21.40
   0  -5  -1  337.57   21.40
   0  -5   1  326.27   21.20
   0  -5  -1  337.67   21.30
   0  -5  -1  354.76   21.30
   0  -5   1  332.37   21.30
   0  -5   1  316.67   21.20
   0   5  -1  336.37   21.70
   0   5   1  357.66   21.30
   0   5  -1  343.87   21.30
   0   5   1  345.77   21.60
   0   5  -1  316.47   21.40
   0   5  -1  341.57   21.30
   0   5  -1  344.17   21.40
   0   5   1  329.27   21.20
   0   5   1  348.07   21.20
   1  -5   1  300.37   20.40
  -1  -5  -1  316.67   21.10
   1  -5   1  339.87   20.40
  -1  -5  -1  335.77   20.70
   1  -5   1  335.47   20.50
  -1  -5  -1  304.37   20.70
  -1  -5  -1  332.17   20.50
  -1  -5  -1  327.27   20.70
  -1  -5  -1  327.57   20.70
  -1   5  -1  331.67   20.80
   1   5   1  330.87   20.50
  -1   5  -1  303.87   20.60
  -1   5  -1  343.87   20.60
   1   5   1  325.17   20.30
  -1   5  -1  336.97   20.70
  -1   5  -1  317.37   20.70
  -1   5  -1  322.17   20.50
  -1   5  -1  332.07   20.70
  -1   5  -1  312.37   20.70
   1   5   1  301.77   20.60
   2  -5   1   13.70    2.00
  -2  -5  -1   17.30    2.60
  -2  -5  -1   11.20    2.20
  -2  -5  -1   20.00    3.70
   2  -5   1   15.60    2.10
  -2  -5  -1   14.90    2.60
  -2   5  -1   11.20    2.40
  -2   5  -1   15.00    2.50
  -2   5  -1   14.10    2.30
  -2   5  -1   15.20    2.40
  -2   5  -1   11.40    2.30
  -2   5  -1   13.40    1.80
   2   5   1   15.80    2.00
   2   5   1   12.40    2.50
  -3  -5  -1   61.19    5.60
  -3  -5  -1   62.19    6.70
  -3  -5  -1   53.69    5.20
   3  -5   1   62.59    5.20
  -3   5  -1   59.29    5.60
  -3   5  -1   65.29    5.50
  -3   5  -1   63.19    5.50
  -3   5  -1   66.79    5.40
  -4  -5  -1    1.80    2.30
   4  -5   1    1.10    1.50
  -4  -5  -1    3.70    3.60
  -4   5  -1    5.20    2.40
  -4   5  -1    2.60    2.50
  -4   5  -1   -0.20    2.60
  -4   5  -1    3.20    2.30
   4  -6  -1    3.00    1.70
  -4  -6   1    6.30    3.00
  -4  -6   1    1.90    3.60
  -4   6   1    1.90    2.70
  -4   6   1    1.10    2.40
  -4   6   1    7.50    2.80
  -4   6   1    4.40    2.60
   4   6  -1    5.50    2.70
   3  -6  -1  151.98    9.80
  -3  -6   1  114.29    9.60
   3  -6  -1  149.59    9.90
   3  -6  -1  131.09   10.10
  -3  -6   1  121.29   10.60
   3   6  -1  147.39    9.80
  -3   6   1  138.89    9.70
  -3   6   1  134.39    9.50
  -3   6   1  133.59    9.80
  -3   6   1  143.09    9.90
   3   6  -1  141.59   10.40
   2  -6  -1  191.38   12.40
  -2  -6   1  154.38   11.90
   2  -6  -1  182.68   12.20
  -2  -6   1  163.98   11.40
  -2  -6   1  169.38   12.30
  -2  -6   1  177.08   11.60
  -2  -6   1  165.98   11.40
  -2  -6   1  166.98   11.40
   2  -6  -1  182.38   12.20
  -2   6   1  169.98   11.70
  -2   6   1  184.88   11.60
   2   6  -1  184.08   12.50
  -2   6   1  194.28   11.80
  -2   6   1  174.48   11.20
  -2   6   1  167.28   11.60
  -2   6   1  167.68   11.30
   2   6  -1  192.98   12.10
  -1  -6   1    7.20    1.10
   1  -6  -1   16.30    1.80
  -1  -6   1    7.30    1.40
   1  -6  -1   13.00    1.60
   1  -6  -1   15.50    1.70
  -1  -6   1    8.90    2.20
  -1  -6   1    4.60    1.30
  -1  -6   1    5.40    1.20
  -1  -6   1    5.90    1.50
   1  -6  -1   13.90    1.90
  -1  -6   1   10.00    1.90
   1   6  -1   18.50    2.20
   1   6  -1   12.80    2.40
   1   6  -1   17.00    1.80
   1   6  -1   11.40    2.20
  -1   6   1    7.60    1.70
  -1   6   1    9.00    1.50
  -1   6   1    5.70    1.30
  -1   6   1    7.60    1.60
  -1   6   1   11.50    2.10
   0  -6   1  851.81   54.09
   0  -6  -1  933.81   57.39
   0  -6   1  799.92   53.99
   0  -6  -1  891.51   57.49
   0  -6   1  863.01   53.89
   0  -6   1  878.61   54.09
   0  -6  -1  949.51   57.49
   0   6   1  849.72   54.39
   0   6  -1  925.51   57.39
   0   6   1  871.31   54.19
   0   6  -1  859.01   57.39
   0   6  -1  910.71   57.89
   0   6   1  917.21   54.09
   0   6  -1  930.11   57.39
   0   6   1  888.71   53.99
   0   6  -1  941.31   57.49
   0   6   1  845.92   53.99
   1  -6   1  231.18   14.70
  -1  -6  -1  225.38   14.60
  -1  -6  -1  210.38   14.40
  -1  -6  -1  214.38   15.30
   1  -6   1  223.18   14.70
  -1  -6  -1  214.08   14.60
  -1  -6  -1  241.58   14.80
  -1  -6  -1  225.58   14.70
   1  -6   1  242.68   14.80
  -1   6  -1  223.58   14.70
   1   6   1  236.48   14.90
   1   6   1  204.48   14.90
  -1   6  -1  228.18   14.50
  -1   6  -1  220.78   14.50
  -1   6  -1  240.48   14.70
  -1   6  -1  225.78   14.40
   1   6   1  238.38   14.60
  -1   6  -1  236.78   14.70
  -2  -6  -1    1.60    1.40
   2  -6   1    1.80    1.00
  -2  -6  -1    2.80    1.50
   2  -6   1    4.60    1.30
   2  -6   1    1.80    1.20
  -2  -6  -1    8.70    2.50
  -2  -6  -1    4.50    1.80
  -2   6  -1    1.80    1.30
  -2   6  -1    1.80    1.50
  -2   6  -1    3.70    1.00
   2   6   1    2.50    1.10
  -2   6  -1    5.20    1.40
  -2   6  -1    4.40    1.60
  -2   6  -1    2.70    1.40
   2   6   1    3.80    1.30
   2   6   1    3.10    1.50
  -3  -6  -1  257.27   19.50
  -3  -6  -1  272.87   18.30
   3  -6   1  285.87   19.00
   3  -6   1  289.07   18.80
  -3  -6  -1  277.57   18.60
  -3   6  -1  277.37   18.50
  -3   6  -1  283.57   18.70
  -3   6  -1  283.27   18.70
  -3   6  -1  288.67   18.30
  -3   6  -1  273.47   18.60
   3   6   1  291.77   19.10
   4  -6   1    0.70    1.80
  -4  -6  -1   -0.90    4.10
  -4   6  -1   -1.50    2.40
  -4   6  -1   -3.20    3.20
  -4   6  -1   -1.60    2.50
  -4  -7   1   22.30    3.80
  -4  -7   1   14.50    5.30
  -4   7   1   20.80    3.80
   4   7  -1   17.90    3.50
  -4   7   1   25.60    4.50
  -4   7   1   23.20    4.10
  -4   7   1   26.80    4.80
   3  -7  -1   32.60    3.40
  -3  -7   1   25.00    4.70
   3  -7  -1   36.10    3.10
   3  -7  -1   26.40    3.80
  -3  -7   1   32.50    4.50
  -3   7   1   29.90    4.30
  -3   7   1   33.30    4.10
   3   7  -1   21.80    4.10
  -3   7   1   30.70    4.60
   3   7  -1   29.40    3.60
  -2  -7   1   98.89    7.20
  -2  -7   1   78.39    8.00
   2  -7  -1  100.39    6.90
  -2  -7   1   84.29    6.80
   2  -7  -1   98.19    7.00
   2  -7  -1   99.99    7.20
  -2  -7   1   85.89    6.70
  -2   7   1   80.99    6.50
  -2   7   1  101.69    7.00
  -2   7   1   97.59    6.50
   2   7  -1   99.59    6.90
   2   7  -1  100.09    7.30
  -2   7   1   96.89    7.00
  -2   7   1   98.39    7.40
  -2   7   1   98.49    7.10
  -1  -7   1  137.49   10.50
  -1  -7   1  138.69    9.50
   1  -7  -1  130.49    9.00
   1  -7  -1  138.29    9.10
  -1  -7   1  150.18    9.80
   1  -7  -1  146.99    9.20
  -1  -7   1  141.99    9.40
  -1  -7   1  146.99    9.60
   1  -7  -1  133.19    8.90
  -1  -7   1  133.59    9.50
   1   7  -1  127.29    9.50
   1   7  -1  143.09    8.90
  -1   7   1  134.39    9.50
   1   7  -1  139.49    9.00
  -1   7   1  144.09    9.70
  -1   7   1  142.79    9.80
  -1   7   1  148.39   10.00
  -1   7   1  145.39    9.40
  -1   7   1  141.79    9.70
   1   7  -1  130.69    9.20
   0  -7  -1  164.18   11.40
   0  -7   1  155.18   10.00
   0  -7   1  150.78    9.70
   0  -7  -1  180.98   11.50
   0  -7  -1  175.08   11.70
   0  -7   1  145.39    9.80
   0  -7   1  154.38   10.00
   0  -7  -1  188.18   11.70
   0   7  -1  183.88   11.50
   0   7   1  155.68    9.80
   0   7   1  140.49   10.10
   0   7  -1  175.18   11.60
   0   7  -1  178.68   11.60
   0   7  -1  178.98   11.70
   0   7   1  149.09   10.50
   0   7   1  153.88   10.00
   1  -7   1   83.49    6.00
  -1  -7  -1   77.79    5.30
   1  -7   1   87.09    5.90
  -1  -7  -1   79.69    5.90
  -1  -7  -1   67.99    5.80
   1  -7   1   84.89    6.00
  -1  -7  -1   78.99    5.70
  -1  -7  -1   77.89    5.70
  -1   7  -1   77.79    5.70
  -1   7  -1   76.19    5.40
   1   7   1   86.69    6.10
  -1   7  -1   74.69    5.30
   1   7   1   78.69    6.40
  -1   7  -1   78.69    5.80
   1   7   1   86.99    5.80
  -1   7  -1   73.39    5.90
  -1   7  -1   82.99    5.70
  -1   7  -1   74.09    5.40
   2  -7   1  117.29    8.20
  -2  -7  -1  104.19    8.00
   2  -7   1  129.19    8.30
  -2  -7  -1   91.99    9.10
   2  -7   1  123.09    8.20
  -2  -7  -1   97.39    7.70
  -2  -7  -1   98.49    7.70
   2   7   1  117.49    8.50
   2   7   1  122.89    8.00
  -2   7  -1  107.49    7.30
  -2   7  -1  112.69    8.00
  -2   7  -1  111.69    7.80
   2   7   1   98.59    8.70
  -2   7  -1  118.99    8.20
  -2   7  -1  109.99    7.90
  -3  -7  -1    7.70    4.10
   3  -7   1    5.20    2.00
  -3  -7  -1   10.60    2.70
  -3   7  -1    7.70    2.20
  -3   7  -1    7.90    2.50
   3   7   1    1.00    2.10
  -3   7  -1    2.90    2.20
   4  -7   1   31.70    3.30
  -4  -7  -1    5.80    3.30
  -4   7  -1   11.50    3.00
  -4   7  -1   13.00    3.30
  -4   7  -1   19.80    3.40
   4  -8  -1   10.60    1.90
  -4  -8   1    3.30    3.60
   4   8  -1    5.30    3.20
  -4   8   1    7.10    3.40
  -4   8   1    4.70    3.20
  -4   8   1    3.60    2.90
  -3  -8   1    1.20    4.40
  -3  -8   1    4.70    2.60
  -3   8   1    8.00    2.90
  -3   8   1    8.40    2.60
   3   8  -1    1.70    2.00
  -3   8   1    6.20    2.40
   3   8  -1    3.10    2.20
  -3   8   1    7.90    2.40
   2  -8  -1    3.60    1.40
   2  -8  -1    2.20    1.40
  -2  -8   1    2.20    1.70
  -2  -8   1    2.30    1.80
   2  -8  -1    3.20    1.00
  -2  -8   1    6.20    2.20
  -2  -8   1    4.10    3.60
  -2   8   1    2.30    1.70
  -2   8   1    3.40    1.80
   2   8  -1    0.60    1.20
   2   8  -1    2.20    1.70
  -2   8   1    3.60    2.50
  -2   8   1    2.90    2.20
  -2   8   1    2.80    1.40
  -2   8   1    5.60    1.20
   1  -8  -1  486.65   30.10
  -1  -8   1  450.45   28.00
   1  -8  -1  478.45   29.90
  -1  -8   1  452.95   27.90
  -1  -8   1  422.16   27.70
   1  -8  -1  471.05   30.00
  -1  -8   1  435.26   27.70
   1  -8  -1  486.05   30.00
  -1  -8   1  427.16   27.80
  -1   8   1  438.66   27.80
  -1   8   1  431.06   27.90
   1   8  -1  472.05   29.90
  -1   8   1  426.26   27.90
   1   8  -1  446.06   30.10
   1   8  -1  467.65   29.90
  -1   8   1  442.46   27.60
  -1   8   1  424.26   27.70
   0  -8  -1   88.49    6.50
   0  -8   1  123.29    7.70
   0  -8   1  114.89    7.60
   0  -8   1  101.09    7.40
   0  -8  -1   94.29    6.60
   0  -8   1  105.79    7.30
   0  -8  -1   99.19    6.90
   0  -8  -1  105.19    6.90
   0   8  -1  101.49    6.60
   0   8  -1   92.89    6.70
   0   8   1  104.59    7.70
   0   8  -1  105.69    6.80
   0   8  -1   88.99    7.00
   0   8   1  115.09    7.40
   0   8   1  107.69    8.30
   0   8   1  108.69    7.60
  -1  -8  -1   33.20    3.60
  -1  -8  -1   34.10    3.10
   1  -8   1   26.90    2.70
   1  -8   1   23.00    2.80
  -1  -8  -1   28.80    3.70
   1  -8   1   27.60    2.50
   1  -8   1   28.00    2.70
  -1  -8  -1   31.60    3.20
  -1  -8  -1   32.90    3.30
  -1   8  -1   37.00    3.70
  -1   8  -1   31.70    3.00
  -1   8  -1   32.40    3.50
  -1   8  -1   33.40    2.80
   1   8   1   28.80    2.60
  -1   8  -1   32.40    3.40
   1   8   1   26.40    3.60
  -1   8  -1   27.30    3.00
   1   8   1   24.00    2.80
  -1   8  -1   31.60    4.40
  -2  -8  -1    2.10    2.00
   2  -8   1    4.60    1.90
   2  -8   1    7.10    1.50
  -2  -8  -1    1.40    1.80
   2  -8   1    4.70    1.50
  -2  -8  -1    3.40    2.00
   2   8   1    3.50    1.70
   2   8   1    3.20    2.50
  -2   8  -1    0.70    1.70
  -2   8  -1    3.80    1.80
  -2   8  -1    3.70    1.30
  -2   8  -1   -1.10    2.20
   2   8   1    6.60    1.60
  -2   8  -1    3.40    1.80
   3  -8   1    7.10    1.60
   3  -8   1    7.10    1.80
  -3  -8  -1    1.80    2.70
  -3   8  -1    8.10    2.40
  -3   8  -1    3.10    2.30
  -3   8  -1    2.40    2.60
  -3   8  -1    5.10    2.30
  -4  -8  -1    5.90    3.10
   4  -8   1   10.50    2.10
  -4   8  -1    8.40    3.40
  -4   8  -1    3.90    3.30
  -3  -9   1    2.70    2.60
   3  -9  -1    2.50    2.00
   3  -9  -1    4.10    1.70
  -3   9   1    1.80    2.40
  -3   9   1    2.20    2.80
   3   9  -1    1.30    2.30
  -3   9   1    5.70    2.30
   2  -9  -1   11.20    2.00
   2  -9  -1    7.50    2.10
   2  -9  -1   11.50    2.20
  -2  -9   1    4.00    1.90
  -2  -9   1    6.50    2.30
  -2   9   1    6.40    2.20
  -2   9   1    4.10    1.70
  -2   9   1   10.20    2.70
  -2   9   1    7.30    1.50
  -2   9   1    7.90    2.10
   2   9  -1    7.60    2.10
  -1  -9   1   34.10    4.10
  -1  -9   1   28.60    3.90
   1  -9  -1   36.90    5.10
  -1  -9   1   35.40    3.60
   1  -9  -1   48.70    4.00
   1  -9  -1   44.90    4.10
   1  -9  -1   45.60    3.50
  -1   9   1   37.10    3.80
  -1   9   1   39.80    4.00
  -1   9   1   40.60    3.30
   1   9  -1   36.50    3.90
   1   9  -1   43.10    3.70
  -1   9   1   34.50    4.10
   0  -9  -1   28.00    2.80
   0  -9  -1   29.00    2.80
   0  -9  -1   33.70    3.30
   0  -9   1   20.90    3.90
   0  -9   1   28.20    3.10
   0  -9  -1   33.30    3.30
   0  -9   1   28.40    2.40
   0  -9   1   25.20    2.70
   0   9   1   17.10    3.60
   0   9  -1   27.50    3.40
   0   9  -1   29.20    3.10
   0   9   1   21.60    3.40
   0   9   1   24.50    3.20
   0   9   1   28.60    4.10
   0   9  -1   31.70    2.90
  -1  -9  -1    0.10    1.40
  -1  -9  -1    1.80    1.60
   1  -9   1    3.00    2.00
  -1  -9  -1    4.00    1.80
  -1  -9  -1    3.00    1.70
   1  -9   1    4.00    1.10
   1  -9   1    3.00    1.20
   1  -9   1    4.80    1.40
  -1   9  -1    3.20    1.30
   1   9   1    4.30    2.60
  -1   9  -1    1.50    1.00
  -1   9  -1    5.20    1.70
  -1   9  -1    0.80    1.50
  -1   9  -1    2.60    2.40
   1   9   1    2.90    1.50
   1   9   1    3.50    1.20
   1   9   1    3.30    2.10
   2  -9   1   11.40    2.20
  -2  -9  -1    5.50    2.50
   2  -9   1   10.00    1.90
  -2  -9  -1    5.80    2.30
   2  -9   1    8.60    1.90
  -2  -9  -1    4.50    2.20
  -2   9  -1    5.70    2.20
   2   9   1    6.40    1.90
   2   9   1    8.30    1.90
  -2   9  -1    9.90    3.20
  -2   9  -1    6.60    2.50
  -2   9  -1    6.90    2.20
  -3  -9  -1   -2.50    2.20
   3  -9   1    0.20    1.70
   3  -9   1    1.10    1.20
  -3   9  -1   -0.70    2.50
   3   9   1    1.00    2.30
  -3   9  -1    3.40    3.10
  -3   9  -1    2.20    2.30
  -3 -10   1   -0.20    2.80
   3 -10  -1    0.00    1.40
   3 -10  -1    0.10    2.20
   3  10  -1   -0.40    2.10
  -3  10   1   -4.30    2.50
  -3  10   1    0.00    2.30
  -3  10   1    7.20    3.90
  -2 -10   1    3.30    2.70
  -2 -10   1    3.50    2.40
   2 -10  -1    3.80    1.70
  -2  10   1    5.30    2.30
  -2  10   1    3.00    2.20
   2  10  -1    7.10    1.80
   2  10  -1    5.00    2.00
  -2  10   1    5.40    1.50
   1 -10  -1   26.90    3.20
  -1 -10   1   18.30    3.40
   1 -10  -1   22.90    2.60
  -1 -10   1   19.20    3.30
  -1 -10   1   17.30    3.20
   1 -10  -1   26.60    3.70
   1 -10  -1   18.40    3.00
   1  10  -1   14.30    2.80
  -1  10   1   16.20    2.80
   1  10  -1   18.20    2.70
  -1  10   1   14.50    3.10
  -1  10   1   17.50    2.60
   1  10  -1   20.80    3.00
  -1  10   1   17.60    2.70
   0 -10  -1   12.40    2.70
   0 -10  -1   12.30    2.20
   0 -10   1   12.70    2.80
   0 -10   1   10.10    2.00
   0 -10   1   15.50    3.10
   0 -10  -1   13.10    2.20
   0 -10  -1   11.10    2.40
   0 -10   1   13.90    2.20
   0  10   1   10.90    1.70
   0  10  -1    9.50    1.90
   0  10  -1   16.50    3.00
   0  10  -1   15.40    2.20
   0  10   1   12.60    2.50
   0  10   1   17.20    2.60
  -1 -10  -1    5.70    1.90
   1 -10   1    4.70    1.30
  -1 -10  -1    5.20    2.20
   1 -10   1    5.10    1.70
  -1 -10  -1    6.30    1.90
   1 -10   1    5.00    1.70
  -1  10  -1    7.70    2.00
   1  10   1    4.90    1.60
  -1  10  -1    3.20    1.50
   1  10   1    6.20    1.50
  -1  10  -1    2.50    1.80
  -1  10  -1    5.20    1.30
   1  10   1    4.30    2.70
  -2 -10  -1    5.10    2.20
  -2 -10  -1    4.80    2.60
   2 -10   1    7.60    2.10
   2 -10   1    9.30    1.60
  -2  10  -1    6.50    3.00
  -2  10  -1    7.50    1.60
  -2  10  -1    4.40    2.40
   2  10   1    7.30    2.00
  -2  10  -1    8.00    2.40
   2  10   1    3.90    2.00
   3 -10   1    1.60    2.10
  -3 -10  -1   -4.30    2.40
   3 -10   1    0.50    1.30
  -3  10  -1   -0.70    3.10
  -3  10  -1    3.50    2.70
   3  10   1   -3.00    2.20
   2 -11  -1    3.50    1.90
   2 -11  -1    5.40    1.70
  -2 -11   1    5.70    2.30
  -2  11   1    2.70    1.50
  -2  11   1   12.20    2.90
   2  11  -1    2.20    1.90
  -2  11   1    2.40    2.20
   2  11  -1    2.90    1.90
   1 -11  -1    3.70    2.70
  -1 -11   1    4.80    2.00
  -1 -11   1    1.70    2.00
   1 -11  -1    3.40    1.70
   1 -11  -1    0.60    1.60
   1 -11  -1    2.20    1.40
  -1 -11   1    4.20    2.10
  -1  11   1    5.30    1.40
  -1  11   1    2.00    1.50
   1  11  -1    2.90    1.40
   1  11  -1    0.70    1.60
   1  11  -1    3.30    2.60
  -1  11   1    0.40    1.90
  -1  11   1    4.30    2.50
   0 -11  -1    1.50    1.90
   0 -11   1    3.70    2.10
   0 -11  -1    4.20    1.80
   0 -11   1    2.00    1.70
   0 -11  -1   -0.50    1.80
   0  11  -1    4.30    1.30
   0  11  -1    0.60    1.50
   0  11   1    0.40    2.40
   0  11   1    4.70    1.40
   0  11   1   -0.20    1.40
  -1 -11  -1    1.40    1.90
   1 -11   1    4.30    1.50
  -1 -11  -1    6.80    2.50
   1 -11   1    7.40    2.00
  -1 -11  -1    4.60    2.30
   1 -11   1    3.30    2.50
  -1  11  -1    3.50    2.00
   1  11   1    5.30    1.60
  -1  11  -1    7.30    1.50
  -1  11  -1    3.80    2.30
   1  11   1    3.50    1.80
  -1  11  -1    2.30    1.70
   2 -11   1    5.30    2.40
  -2 -11  -1    8.50    2.70
   2 -11   1    5.70    1.80
  -2  11  -1    2.80    2.60
   2  11   1    2.80    2.10
  -2  11  -1    6.80    4.70
  -2  11  -1    4.30    1.50
   2 -12  -1    2.80    1.70
   2 -12  -1    7.30    3.30
   2 -12  -1    4.20    2.60
  -2 -12   1    1.90    2.00
  -2  12   1    6.90    3.10
   2  12  -1   -0.10    2.10
   2  12  -1    0.80    2.30
  -2  12   1    3.60    1.60
  -2  12   1   -0.90    2.50
  -1 -12   1    7.40    2.40
   1 -12  -1    8.70    2.50
  -1 -12   1    4.80    3.90
   1 -12  -1    5.90    2.30
  -1  12   1    4.80    2.40
   1  12  -1    4.20    1.90
   1  12  -1    6.40    1.80
  -1  12   1    5.50    1.70
  -1  12   1    4.30    3.00
  -1  12   1   -0.30    4.90
   0 -12  -1   10.80    2.20
   0 -12   1    8.20    2.40
   0 -12  -1    7.30    2.30
   0 -12  -1    2.00    2.30
   0 -12   1    3.70    2.00
   0 -12   1   10.00    2.70
   0  12   1    8.30    1.80
   0  12  -1    6.40    1.50
   0  12   1    6.70    1.80
   0  12  -1    2.50    1.80
   0  12  -1    1.50    2.70
   1 -12   1   13.60    2.80
   1 -12   1   12.70    2.60
  -1 -12  -1   17.20    4.00
   1 -12   1   17.60    3.10
   1 -12   1   19.90    3.90
   1  12   1    8.80    2.30
  -1  12  -1   13.80    2.10
  -1  12  -1   19.70    4.00
  -1  12  -1   13.80    4.50
   2 -12   1   -0.10    2.30
   2 -12   1    0.60    1.80
  -2 -12  -1    1.30    2.30
  -2  12  -1    3.40    2.90
  -2  12  -1    6.30    3.10
  -2  12  -1    1.40    1.60
   2  12   1   -0.50    2.20
  -1 -13   1   -0.10    2.30
   1 -13  -1    0.60    2.40
   1 -13  -1   -2.50    2.30
  -1 -13   1    3.30    3.10
   1 -13  -1    0.20    2.60
   1  13  -1    0.20    1.90
  -1  13   1    3.40    1.70
   1  13  -1    1.20    1.90
  -1  13   1    0.90    2.40
   0 -13   1    3.50    2.20
   0 -13  -1    4.30    3.20
   0 -13   1    3.40    2.20
   0 -13   1    6.90    3.10
   0 -13  -1   -0.60    2.10
   0 -13  -1    1.70    2.00
   0  13  -1   -1.60    2.00
   0  13  -1    3.90    1.70
   0  13   1    2.00    1.80
   0  13  -1    5.50    2.30
   0  13  -1    2.50    3.60
   1 -13   1    8.20    2.20
  -1 -13  -1    6.50    2.40
  -1 -13  -1    0.50    2.80
   1 -13   1    0.90    2.30
   1  13   1    0.80    2.40
  -1  13  -1    5.60    2.90
  -1  13  -1    2.60    1.60
   1  13   1    5.50    1.90
  -1  13  -1    7.00    3.40
  -5   0   2   -0.70    3.70
  -5   0   2   -0.80    4.60
  -5   0   2   -1.90    2.70
  -5   0   2   -2.30    6.90
  -4   0   2    0.60    2.80
  -4   0   2    2.10    2.30
  -4   0   2   -0.20    1.70
  -4   0   2    3.60    3.00
  -4   0   2    3.00    2.30
  -4   0   2   -1.10    2.00
  -4   0   2    2.60    2.40
  -4   0   2    0.10    1.90
  -3   0   2   22.80    3.30
  -3   0   2   29.00    3.70
  -3   0   2   22.10    3.20
  -3   0   2   30.70    2.80
  -3   0   2   24.00    3.10
  -3   0   2   28.90    2.70
  -3   0   2   22.60    3.40
  -2   0   2  163.38   10.80
  -2   0   2  172.28   11.20
  -2   0   2  174.18   11.20
  -2   0   2  169.28   11.10
  -2   0   2  160.48   11.00
  -1   0   2 2998.70  180.68
  -1   0   2 2620.34  180.68
  -1   0   2 3168.28  180.78
  -1   0   2 2923.51  180.68
  -1   0   2 2793.72  180.78
   0   0   2 3970.50  266.07
   0   0   2 4579.74  266.07
   0   0  -2 4578.54  284.87
   1   0   2  306.37   19.20
  -1   0  -2  321.27   22.30
  -1   0  -2  386.86   22.40
  -1   0  -2  394.16   22.50
  -1   0  -2  353.66   22.40
  -1   0  -2  356.86   22.40
  -1   0  -2  330.47   22.40
  -1   0  -2  346.87   22.50
  -2   0  -2  613.64   37.60
  -2   0  -2  630.94   37.70
  -2   0  -2  628.44   37.50
  -2   0  -2  564.34   37.40
  -2   0  -2  620.14   37.70
  -2   0  -2  565.94   37.60
  -2   0  -2  602.94   37.60
   2   0   2  580.04   36.30
  -2   0  -2  577.64   37.50
  -2   0  -2  562.74   37.50
  -3   0  -2  305.77   20.00
  -3   0  -2  358.96   20.50
  -3   0  -2  297.57   20.20
  -3   0  -2  297.67   20.10
   3   0   2  301.67   20.60
  -3   0  -2  299.97   20.00
  -3   0  -2  304.77   20.00
   3   0   2  349.37   21.90
  -3   0  -2  304.67   20.20
  -4   0  -2    1.90    2.40
  -4   0  -2    1.60    2.50
  -4   0  -2    4.30    1.80
  -4   0  -2    2.70    2.20
  -4   0  -2    3.80    3.40
  -4   0  -2    2.70    1.70
  -5  -1   2    4.70    4.90
  -5  -1   2    8.80    4.60
  -5  -1   2    6.70    3.10
  -5   1   2    2.90    2.90
  -5   1   2   -0.10    3.80
  -5   1   2    1.60    3.30
  -4  -1   2    7.30    2.10
  -4  -1   2   10.40    2.40
  -4  -1   2    5.50    3.20
  -4  -1   2   10.90    2.70
  -4  -1   2   10.10    3.10
  -4  -1   2   10.60    2.80
  -4   1   2    9.80    2.50
  -4   1   2    8.50    2.90
  -4   1   2   11.40    2.10
  -4   1   2    8.70    2.70
  -4   1   2    5.00    2.40
  -4   1   2   11.30    2.50
  -3  -1   2   21.10    3.20
  -3  -1   2   19.20    2.70
   3  -1  -2   18.00    2.20
  -3  -1   2   17.50    3.10
  -3  -1   2   13.90    2.50
  -3  -1   2   16.00    2.40
  -3  -1   2   18.50    3.10
  -3   1   2   18.40    3.20
  -3   1   2   20.10    3.10
  -3   1   2   18.70    2.40
  -3   1   2   20.00    2.70
  -3   1   2   12.30    2.50
  -3   1   2   18.50    3.10
  -3   1   2   17.70    2.80
  -2  -1   2  352.46   24.40
  -2  -1   2  389.16   24.60
  -2  -1   2  373.56   24.70
   2  -1  -2  324.87   20.40
  -2  -1   2  364.96   24.60
  -2  -1   2  410.56   24.40
  -2  -1   2  373.46   24.50
  -2   1   2  378.36   24.50
  -2   1   2  381.06   24.70
  -2   1   2  396.56   24.50
  -2   1   2  383.06   24.40
  -2   1   2  400.06   24.60
  -2   1   2  414.26   24.30
  -2   1   2  397.96   24.60
  -1  -1   2 2612.94  143.29
  -1  -1   2 2336.37  143.29
   1  -1  -2 2466.15  165.38
  -1  -1   2 2096.39  143.19
  -1  -1   2 2246.68  143.29
  -1  -1   2 2496.75  143.29
   1  -1  -2 2846.92  165.48
  -1   1   2 2135.49  143.19
  -1   1   2 2193.58  143.29
  -1   1   2 2157.48  143.19
  -1   1   2 2395.26  143.19
  -1   1   2 2347.07  143.29
  -1   1   2 2274.37  143.29
  -1   1   2 2290.07  143.29
   0  -1  -2  717.23   38.90
   0  -1   2  463.25   33.70
   0   1   2  618.24   33.90
   0   1  -2  522.25   38.60
  -1  -1  -2  785.12   50.89
  -1  -1  -2  699.33   50.79
  -1  -1  -2  756.52   50.79
  -1  -1  -2  896.91   50.89
  -1  -1  -2  837.52   50.99
  -1  -1  -2  828.72   50.89
   1  -1   2  856.61   55.89
  -1  -1  -2  819.42   50.79
  -1   1  -2  733.93   50.79
  -1   1  -2  787.32   50.79
  -1   1  -2  784.02   50.89
  -1   1  -2  841.72   50.89
  -1   1  -2  895.51   50.89
   1   1   2  935.31   56.19
  -1   1  -2  823.02   50.89
  -1   1  -2  902.11   50.99
   2  -1   2  245.08   14.60
  -2  -1  -2  227.78   13.40
  -2  -1  -2  201.28   13.30
  -2  -1  -2  211.98   13.30
  -2  -1  -2  190.78   13.20
  -2  -1  -2  205.78   13.30
  -2  -1  -2  207.78   13.30
  -2  -1  -2  205.68   13.30
  -2  -1  -2  218.28   13.40
  -2  -1  -2  230.08   13.50
  -2   1  -2  197.88   13.40
  -2   1  -2  231.48   13.20
  -2   1  -2  194.48   13.30
   2   1   2  212.48   15.50
  -2   1  -2  188.68   13.30
  -2   1  -2  216.48   13.40
  -2   1  -2  203.18   13.30
  -2   1  -2  207.98   13.30
  -2   1  -2  180.28   13.00
  -2   1  -2  180.38   13.20
  -3  -1  -2   61.39    5.40
  -3  -1  -2   71.69    5.40
  -3  -1  -2   71.79    5.60
  -3  -1  -2   57.69    5.60
  -3  -1  -2   67.39    5.30
   3  -1   2   69.49    5.20
  -3  -1  -2   72.89    5.50
  -3  -1  -2   70.99    6.00
  -3   1  -2   69.39    5.30
  -3   1  -2   73.79    5.30
  -3   1  -2   66.99    5.70
   3   1   2   74.99    6.70
  -3   1  -2   66.79    5.30
  -3   1  -2   67.39    5.60
  -3   1  -2   67.99    5.50
  -3   1  -2   78.99    5.80
  -4  -1  -2    0.70    2.30
  -4  -1  -2    0.80    3.20
  -4  -1  -2   -0.50    1.70
  -4  -1  -2    3.30    1.80
  -4  -1  -2    4.00    2.60
  -4  -1  -2    2.30    2.70
  -4   1  -2    0.60    2.30
  -4   1  -2   -4.40    3.10
  -4   1  -2    2.20    1.80
  -4   1  -2   -1.70    2.10
  -4   1  -2   -0.80    2.20
  -5  -2   2    2.60    4.30
  -5  -2   2    3.80    3.40
  -5   2   2    1.30    3.40
  -5   2   2   -0.80    3.50
  -5   2   2    1.80    3.00
  -4  -2   2    1.40    1.90
  -4  -2   2    1.40    2.30
   4  -2  -2   -1.90    2.60
  -4  -2   2    0.40    1.90
  -4  -2   2   -1.90    2.40
  -4  -2   2   -0.90    2.90
  -4  -2   2   -1.20    2.80
  -4   2   2    0.00    2.00
  -4   2   2    0.30    1.90
  -4   2   2   -1.30    2.30
  -4   2   2    2.60    2.60
  -4   2   2    5.40    2.30
  -3  -2   2   18.80    3.20
  -3  -2   2   21.40    2.90
  -3  -2   2   19.90    2.60
  -3  -2   2   12.80    3.10
  -3  -2   2   21.20    2.80
   3  -2  -2   17.20    2.20
  -3  -2   2   19.00    2.60
  -3  -2   2   18.40    3.10
  -3   2   2   19.50    3.30
  -3   2   2   17.40    3.00
  -3   2   2   17.90    2.50
  -3   2   2   18.60    2.90
  -3   2   2   15.30    3.20
   3   2  -2   20.20    3.10
  -3   2   2   17.80    2.70
  -3   2   2   21.70    2.90
  -2  -2   2   33.30    3.00
  -2  -2   2   32.90    3.10
  -2  -2   2   35.00    3.70
  -2  -2   2   33.00    4.10
  -2  -2   2   34.30    3.40
   2  -2  -2   32.40    2.50
  -2  -2   2   37.50    2.80
  -2   2   2   30.70    3.10
  -2   2   2   38.60    3.30
  -2   2   2   34.90    3.30
  -2   2   2   30.80    2.90
  -2   2   2   36.00    3.20
  -2   2   2   33.20    3.00
  -2   2   2   37.70    3.20
  -1  -2   2  718.83   45.00
  -1  -2   2  686.53   44.80
   1  -2  -2  710.23   47.90
   1  -2  -2  754.82   48.00
  -1  -2   2  620.54   44.80
  -1  -2   2  743.13   45.00
  -1  -2   2  761.62   44.90
  -1  -2   2  768.32   44.80
  -1  -2   2  672.33   44.90
  -1   2   2  762.02   45.00
  -1   2   2  672.03   44.90
  -1   2   2  714.13   45.00
  -1   2   2  723.13   44.90
  -1   2   2  740.23   44.90
  -1   2   2  688.53   44.80
   1   2  -2  840.32   48.00
  -1   2   2  756.12   44.90
  -1   2   2  730.33   44.90
   0  -2   2 1231.48   74.19
   0  -2   2 1211.68   74.29
   0  -2  -2 1267.97   82.39
   0  -2   2 1150.48   74.19
   0  -2   2 1063.59   74.19
   0  -2  -2 1316.67   82.39
   0   2   2 1295.07   74.19
   0   2  -2 1434.26   82.39
   0   2  -2 1452.45   82.39
   0   2  -2 1140.19   82.39
  -1  -2  -2  501.55   31.00
   1  -2   2  443.76   31.80
  -1  -2  -2  522.15   31.10
   1  -2   2  505.45   31.90
  -1  -2  -2  476.45   31.10
  -1  -2  -2  516.05   31.10
   1  -2   2  481.15   32.00
  -1  -2  -2  495.15   31.10
  -1  -2  -2  545.55   31.30
  -1  -2  -2  472.45   31.10
  -1   2  -2  521.75   31.20
  -1   2  -2  467.05   30.90
   1   2   2  539.95   32.00
  -1   2  -2  491.95   31.10
  -1   2  -2  471.75   31.10
   1   2   2  578.74   32.30
  -1   2  -2  454.65   31.00
  -1   2  -2  501.45   31.10
  -1   2  -2  497.15   31.10
   2  -2   2  219.38   13.10
  -2  -2  -2  207.58   12.60
  -2  -2  -2  194.18   12.60
  -2  -2  -2  161.18   12.40
  -2  -2  -2  192.58   12.60
  -2  -2  -2  188.08   12.50
  -2  -2  -2  190.08   12.50
  -2  -2  -2  201.88   12.60
  -2  -2  -2  200.08   12.60
   2  -2   2  190.58   13.00
  -2  -2  -2  207.98   12.80
  -2   2  -2  183.28   12.50
  -2   2  -2  207.38   12.70
  -2   2  -2  191.18   12.40
   2   2   2  203.08   13.60
  -2   2  -2  182.78   12.60
  -2   2  -2  188.48   12.50
  -2   2  -2  189.38   12.60
  -3  -2  -2    0.10    1.70
  -3  -2  -2    3.00    1.80
  -3  -2  -2    3.50    1.70
  -3  -2  -2    3.20    1.40
   3  -2   2    2.90    1.30
  -3  -2  -2    3.40    1.60
   3  -2   2    3.90    1.80
  -3  -2  -2    0.00    1.70
  -3  -2  -2    4.50    1.80
  -3   2  -2    0.90    1.40
  -3   2  -2    2.50    1.40
   3   2   2    4.60    2.30
  -3   2  -2    2.20    1.10
  -3   2  -2    2.10    1.20
  -3   2  -2    1.20    1.30
  -3   2  -2    3.20    2.10
  -3   2  -2    2.90    1.50
   3   2   2    2.90    1.90
  -4  -2  -2    2.70    1.90
  -4  -2  -2    7.60    2.70
  -4  -2  -2    5.30    3.20
  -4  -2  -2    3.10    1.90
  -4  -2  -2    0.20    2.80
  -4   2  -2    4.50    1.70
  -4   2  -2    1.80    2.40
  -4   2  -2    6.00    2.00
  -4   2  -2    2.60    2.40
  -4   2  -2    1.10    2.20
   4  -3  -2   23.90    4.90
  -4  -3   2   14.00    3.60
  -4  -3   2   16.10    2.90
  -4  -3   2   22.80    3.70
  -4  -3   2   15.10    3.30
  -4   3   2   23.90    4.10
  -4   3   2   14.70    3.10
  -4   3   2   17.00    3.40
  -4   3   2   23.00    4.30
  -3  -3   2   18.30    2.90
   3  -3  -2   27.30    2.60
  -3  -3   2   24.50    3.00
  -3  -3   2   24.70    3.40
  -3  -3   2   15.60    2.70
   3  -3  -2   23.30    3.10
  -3  -3   2   20.10    3.50
  -3  -3   2   15.20    3.40
  -3   3   2   21.60    3.00
  -3   3   2   18.50    2.90
  -3   3   2   23.30    3.20
  -3   3   2   18.80    3.00
  -2  -3   2  148.49   10.00
  -2  -3   2  129.79    9.60
   2  -3  -2  152.78   10.80
  -2  -3   2  154.88    9.40
  -2  -3   2  153.48   10.00
  -2  -3   2  145.09    9.50
  -2  -3   2  134.79    9.80
  -2  -3   2  135.09    9.70
  -2  -3   2  145.49    9.30
  -2  -3   2  155.48   10.00
   2   3  -2  184.58   10.90
  -2   3   2  154.48    9.40
  -2   3   2  143.49    9.70
  -2   3   2  136.49    9.60
  -2   3   2  138.89    9.70
  -2   3   2  138.89    9.70
  -2   3   2  138.99    9.60
  -2   3   2  145.79    9.70
  -1  -3   2   35.90    2.60
  -1  -3   2   27.70    2.60
  -1  -3   2   31.50    2.40
  -1  -3   2   35.60    3.20
   1  -3  -2   41.80    3.00
  -1  -3   2   26.70    2.90
   1  -3  -2   41.90    3.00
  -1  -3   2   30.30    2.50
  -1  -3   2   34.00    2.60
   1   3  -2   43.70    3.10
  -1   3   2   34.30    2.80
  -1   3   2   37.40    3.00
   1   3  -2   43.60    3.10
  -1   3   2   31.20    2.50
  -1   3   2   33.30    2.40
  -1   3   2   28.10    2.70
  -1   3   2   29.20    2.80
  -1   3   2   33.50    2.70
  -1   3   2   37.20    2.90
   0  -3  -2 1227.48   77.99
   0  -3   2 1178.58   72.19
   0  -3   2 1086.49   72.09
   0  -3  -2 1181.98   77.99
   0  -3  -2 1245.68   77.99
   0  -3   2 1205.48   72.19
   0  -3   2 1084.49   72.09
   0  -3   2 1134.29   72.09
   0  -3   2 1098.89   72.09
   0   3   2 1261.27   72.39
   0   3  -2 1417.16   77.99
   0   3   2 1138.29   72.09
   0   3  -2 1150.98   77.99
   0   3  -2 1282.47   77.99
   0   3   2 1222.48   72.19
  -1  -3  -2  686.93   43.70
   1  -3   2  676.53   42.30
  -1  -3  -2  683.93   43.60
   1  -3   2  697.23   42.30
  -1  -3  -2  689.13   43.70
   1  -3   2  610.14   42.20
  -1  -3  -2  688.73   43.50
  -1  -3  -2  699.23   43.60
  -1  -3  -2  709.03   43.90
  -1   3  -2  743.53   43.70
  -1   3  -2  692.23   43.50
  -1   3  -2  705.63   43.60
   1   3   2  699.43   42.30
  -1   3  -2  658.73   43.70
   1   3   2  730.73   42.60
  -1   3  -2  672.03   43.60
  -1   3  -2  697.63   43.70
  -1   3  -2  699.53   43.70
  -1   3  -2  722.63   43.70
   1   3   2  638.44   42.10
  -2  -3  -2   36.40    4.10
   2  -3   2   41.70    3.50
  -2  -3  -2   33.50    3.40
  -2  -3  -2   33.90    3.20
  -2  -3  -2   29.80    3.20
  -2  -3  -2   31.70    3.20
   2  -3   2   46.30    3.40
  -2   3  -2   34.40    2.60
  -2   3  -2   35.10    3.00
  -2   3  -2   36.10    3.20
   2   3   2   45.30    3.60
  -2   3  -2   34.40    3.30
  -2   3  -2   32.10    3.00
   2   3   2   39.70    4.00
   2   3   2   42.50    3.20
  -2   3  -2   33.60    3.20
  -2   3  -2   28.30    2.90
  -3  -3  -2    3.00    2.50
  -3  -3  -2    4.70    1.60
  -3  -3  -2    5.40    2.00
  -3  -3  -2    7.00    1.90
   3  -3   2   12.20    2.40
  -3  -3  -2   10.60    2.50
   3   3   2    7.10    2.70
  -3   3  -2    7.40    1.50
   3   3   2   10.10    2.10
  -3   3  -2    5.50    1.90
  -3   3  -2    9.60    1.80
  -3   3  -2    9.20    1.80
  -3   3  -2    9.30    1.80
  -3   3  -2    8.50    1.70
  -4  -3  -2    2.50    1.90
  -4  -3  -2    6.40    3.60
  -4  -3  -2    2.90    2.90
  -4  -3  -2   -0.60    2.00
  -4   3  -2    1.50    2.20
  -4   3  -2   -0.50    2.10
  -4   3  -2    2.90    1.90
  -4   3  -2    4.30    2.50
  -4   3  -2    0.20    2.30
  -4  -4   2   11.00    3.60
  -4  -4   2   22.10    4.80
   4  -4  -2   25.20    3.40
  -4  -4   2   22.90    3.90
  -4  -4   2   18.60    3.00
  -4  -4   2   18.20    3.50
  -4   4   2   17.60    3.20
  -4   4   2   15.50    3.20
  -4   4   2   16.00    3.50
   3  -4  -2   49.60    4.50
   3  -4  -2   42.70    4.30
  -3  -4   2   42.30    5.10
   3  -4  -2   52.09    3.80
  -3  -4   2   48.20    5.70
  -3  -4   2   39.10    4.00
  -3  -4   2   40.80    4.50
  -3  -4   2   46.40    4.10
  -3   4   2   41.70    4.10
  -3   4   2   45.90    4.50
  -3   4   2   35.80    4.20
   3   4  -2   49.90    4.30
  -3   4   2   28.40    6.10
  -2  -4   2   58.39    5.10
  -2  -4   2   62.79    4.90
  -2  -4   2   59.79    5.40
   2  -4  -2   82.69    5.90
  -2  -4   2   75.09    5.00
  -2  -4   2   59.19    5.10
  -2  -4   2   68.39    4.80
  -2   4   2   77.99    4.90
  -2   4   2   62.09    5.30
  -2   4   2   75.89    5.30
  -2   4   2   79.89    5.30
  -2   4   2   70.19    5.20
  -2   4   2   62.79    5.10
   2   4  -2   88.59    6.00
   2   4  -2   90.29    6.00
  -2   4   2   76.09    5.30
  -1  -4   2  166.08    9.70
  -1  -4   2  156.58   10.00
  -1  -4   2  153.98    9.60
  -1  -4   2  147.39    9.60
  -1  -4   2  156.48   10.10
   1  -4  -2  139.79    9.30
  -1  -4   2  144.19   10.00
   1  -4  -2  124.59    9.30
  -1  -4   2  146.29    9.80
   1  -4  -2  135.59    9.30
  -1  -4   2  134.99    9.70
  -1  -4   2  165.38    9.70
  -1   4   2  143.39    9.60
  -1   4   2  148.39    9.70
  -1   4   2  158.78    9.80
  -1   4   2  147.99    9.80
   1   4  -2  150.38    9.40
  -1   4   2  135.19    9.80
  -1   4   2  146.59   10.10
  -1   4   2  140.99    9.90
   1   4  -2  162.78    9.30
   1   4  -2  157.18    9.40
   0  -4  -2  102.89    7.00
   0  -4   2   75.19    4.90
   0  -4  -2  105.09    7.10
   0  -4   2   76.19    5.30
   0  -4   2   69.19    4.90
   0  -4   2   73.19    4.90
   0  -4   2   67.19    4.90
   0  -4   2   75.29    5.00
   0  -4  -2  100.09    7.10
   0  -4  -2  109.99    7.00
   0  -4   2   74.59    5.00
   0   4  -2  114.59    7.00
   0   4   2   73.19    4.90
   0   4  -2  104.79    7.10
   0   4   2   78.79    5.00
   0   4   2   76.49    5.30
   0   4  -2  120.39    7.10
   0   4  -2  113.59    7.20
   0   4   2   71.99    5.00
   1  -4   2  147.49    9.20
  -1  -4  -2  172.78   11.90
  -1  -4  -2  160.18   11.30
  -1  -4  -2  174.38   11.40
   1  -4   2  133.79    9.10
  -1  -4  -2  186.98   11.50
  -1  -4  -2  169.98   11.30
  -1  -4  -2  188.68   11.20
  -1  -4  -2  152.38   11.70
   1  -4   2  137.69    9.20
   1  -4   2  140.49    9.20
  -1   4  -2  182.88   11.20
  -1   4  -2  188.28   11.30
  -1   4  -2  176.58   11.40
  -1   4  -2  184.08   11.40
  -1   4  -2  179.78   11.20
  -1   4  -2  162.38   11.40
   1   4   2  145.39    9.60
   1   4   2  149.09    9.30
  -1   4  -2  177.48   11.50
  -1   4  -2  170.98   11.30
   1   4   2  141.79    9.10
  -2  -4  -2  700.73   45.30
  -2  -4  -2  734.13   45.40
   2  -4   2  706.13   46.50
  -2  -4  -2  715.53   45.50
   2  -4   2  751.42   46.60
  -2  -4  -2  772.52   45.90
  -2  -4  -2  710.13   45.40
  -2  -4  -2  719.13   45.60
  -2  -4  -2  719.03   45.10
  -2   4  -2  695.43   45.40
  -2   4  -2  714.23   45.30
   2   4   2  783.92   46.60
  -2   4  -2  693.43   45.50
   2   4   2  725.13   46.30
  -2   4  -2  714.13   45.50
  -2   4  -2  744.93   45.50
   2   4   2  734.93   46.90
  -2   4  -2  711.83   45.40
  -2   4  -2  737.43   45.10
  -3  -4  -2   24.70    3.90
   3  -4   2   32.10    3.20
  -3  -4  -2   26.40    3.50
  -3  -4  -2   24.20    3.40
   3  -4   2   28.00    2.90
  -3  -4  -2   25.70    4.50
  -3   4  -2   26.20    3.60
   3   4   2   24.80    5.80
   3   4   2   21.00    3.40
  -3   4  -2   24.40    3.30
  -3   4  -2   27.20    3.20
  -3   4  -2   23.50    3.40
  -3   4  -2   25.50    3.40
  -4  -4  -2    5.20    4.10
  -4  -4  -2   12.80    2.90
  -4  -4  -2    9.30    2.60
  -4   4  -2   13.10    2.90
  -4   4  -2   12.40    3.00
  -4   4  -2   11.60    2.50
  -4  -5   2    2.30    3.20
  -4  -5   2    8.00    2.80
  -4  -5   2    3.20    2.60
   4  -5  -2    7.00    1.80
   4   5  -2    6.10    2.80
  -4   5   2    7.90    2.40
  -4   5   2    8.00    2.90
  -4   5   2    7.80    2.50
  -4   5   2    8.40    3.00
  -3  -5   2  111.59   10.00
   3  -5  -2  160.18   10.20
   3  -5  -2  143.99   10.20
   3  -5  -2  146.29   10.70
  -3  -5   2  139.79    9.90
  -3  -5   2  133.89   10.20
  -3   5   2  144.29    9.70
  -3   5   2  141.49    9.80
  -3   5   2  136.39    9.90
  -3   5   2  134.79    9.80
   3   5  -2  162.28   10.40
  -3   5   2  138.19   10.00
  -2  -5   2  232.18   15.30
  -2  -5   2  249.38   15.90
  -2  -5   2  217.88   15.10
  -2  -5   2  213.08   15.80
  -2  -5   2  223.48   15.70
  -2  -5   2  250.17   15.50
   2  -5  -2  252.77   17.20
   2  -5  -2  254.37   17.30
  -2  -5   2  236.08   15.30
   2  -5  -2  282.17   17.60
   2   5  -2  285.57   17.30
   2   5  -2  278.27   17.30
  -2   5   2  238.38   15.20
  -2   5   2  240.98   15.10
  -2   5   2  239.98   15.50
  -2   5   2  236.28   15.50
  -2   5   2  226.48   15.40
  -2   5   2  248.28   15.40
  -2   5   2  238.88   15.50
   1  -5  -2  185.08   11.40
  -1  -5   2  160.38   10.90
  -1  -5   2  166.98   10.80
   1  -5  -2  163.48   11.10
  -1  -5   2  162.68   11.10
  -1  -5   2  157.08   10.70
  -1  -5   2  166.18   10.70
  -1  -5   2  170.88   10.80
  -1  -5   2  166.48   10.60
   1  -5  -2  173.28   11.20
  -1  -5   2  164.08   11.10
   1  -5  -2  168.98   11.10
  -1   5   2  173.08   11.00
  -1   5   2  161.48   10.80
  -1   5   2  160.58   10.80
  -1   5   2  171.58   11.20
  -1   5   2  171.58   10.70
   1   5  -2  176.08   11.10
  -1   5   2  163.88   10.60
   1   5  -2  176.88   11.20
  -1   5   2  155.38   10.80
   1   5  -2  173.08   11.40
   0  -5   2  782.02   51.09
   0  -5  -2  835.72   52.29
   0  -5   2  815.62   51.09
   0  -5  -2  819.02   52.09
   0  -5  -2  787.72   52.09
   0  -5  -2  798.62   52.29
   0  -5   2  840.72   51.19
   0   5  -2  830.82   52.19
   0   5   2  782.72   51.09
   0   5  -2  822.32   52.19
   0   5   2  802.92   51.39
   0   5  -2  889.31   52.19
   0   5   2  827.82   51.09
   0   5  -2  886.21   52.09
   0   5   2  866.41   51.19
  -1  -5  -2  260.67   17.20
   1  -5   2  221.88   14.40
   1  -5   2  238.28   14.40
  -1  -5  -2  250.67   17.00
   1  -5   2  227.88   14.40
  -1  -5  -2  266.67   17.20
  -1  -5  -2  279.17   17.00
  -1  -5  -2  267.77   17.70
   1  -5   2  207.48   14.20
  -1  -5  -2  288.27   17.30
  -1  -5  -2  262.77   17.10
  -1   5  -2  259.77   17.00
  -1   5  -2  274.27   17.00
   1   5   2  246.58   14.50
  -1   5  -2  275.77   17.20
  -1   5  -2  277.77   17.30
  -1   5  -2  263.37   17.00
  -1   5  -2  277.57   17.20
  -1   5  -2  250.47   17.20
   1   5   2  206.08   14.60
  -1   5  -2  258.17   17.20
   2  -5   2   72.39    5.50
  -2  -5  -2   60.49    5.00
  -2  -5  -2   65.69    5.20
   2  -5   2   80.69    5.50
  -2  -5  -2   59.29    5.90
   2  -5   2   79.99    5.50
  -2  -5  -2   58.49    5.10
   2   5   2   75.99    5.60
  -2   5  -2   65.29    5.00
  -2   5  -2   67.99    4.60
   2   5   2   71.39    6.00
  -2   5  -2   63.69    5.10
  -2   5  -2   68.99    5.10
  -2   5  -2   65.19    5.20
   2   5   2   78.69    5.30
  -2   5  -2   64.89    5.10
  -3  -5  -2   36.10    5.80
   3  -5   2   46.60    4.10
  -3  -5  -2   55.59    4.70
   3  -5   2   44.50    3.90
  -3  -5  -2   44.00    4.80
  -3   5  -2   51.39    4.60
  -3   5  -2   53.39    4.70
  -3   5  -2   41.60    4.80
   3   5   2   36.50    5.50
  -3   5  -2   44.20    4.80
  -4  -5  -2    4.80    2.40
  -4  -5  -2    3.30    3.90
  -4   5  -2    7.70    2.90
  -4   5  -2    6.20    2.30
  -4   5  -2    2.10    2.30
  -4   5  -2    5.50    2.70
  -4  -6   2    7.90    3.70
  -4  -6   2    5.20    4.20
   4  -6  -2    6.30    1.80
  -4   6   2    9.00    2.80
  -4   6   2    1.10    2.90
  -4   6   2    2.60    2.60
  -4   6   2    7.70    2.50
   4   6  -2    1.80    2.70
   3  -6  -2   79.29    6.00
  -3  -6   2   62.79    6.10
   3  -6  -2   80.19    5.80
   3  -6  -2   78.29    6.30
  -3  -6   2   74.69    6.20
  -3  -6   2   56.39    6.40
   3   6  -2   79.79    6.00
  -3   6   2   69.39    6.20
  -3   6   2   75.79    6.60
  -3   6   2   71.39    6.50
  -3   6   2   79.29    6.00
  -2  -6   2   13.70    2.90
  -2  -6   2   13.20    2.30
   2  -6  -2   14.80    1.80
  -2  -6   2   10.00    2.60
   2  -6  -2   13.70    2.20
  -2  -6   2    9.60    2.40
   2  -6  -2   18.60    2.10
  -2   6   2   11.80    2.50
  -2   6   2   12.80    2.50
  -2   6   2    7.10    1.80
  -2   6   2   10.80    2.10
  -2   6   2   10.00    1.80
  -2   6   2    8.60    1.80
   2   6  -2   12.60    2.20
  -2   6   2   10.60    2.30
  -1  -6   2  104.69    7.40
  -1  -6   2  105.59    8.10
  -1  -6   2  101.99    7.40
  -1  -6   2  114.79    7.70
  -1  -6   2  113.29    7.40
   1  -6  -2  116.59    7.80
   1  -6  -2  132.19    8.10
  -1  -6   2  118.49    7.60
  -1  -6   2  123.69    7.60
   1  -6  -2  117.59    8.00
  -1  -6   2  106.19    7.90
   1  -6  -2  117.19    7.90
  -1   6   2  115.39    8.10
  -1   6   2  109.59    7.30
  -1   6   2  103.39    7.60
   1   6  -2  126.29    7.90
  -1   6   2  113.39    7.60
  -1   6   2  101.99    7.60
  -1   6   2  112.79    7.90
   1   6  -2  110.79    8.10
  -1   6   2  109.79    7.50
   1   6  -2  116.29    7.90
   0  -6   2  407.26   26.90
   0  -6  -2  460.85   28.90
   0  -6   2  444.56   26.90
   0  -6  -2  452.15   29.10
   0  -6   2  458.15   27.00
   0  -6  -2  430.66   28.90
   0  -6  -2  473.95   29.10
   0  -6   2  437.06   27.00
   0   6  -2  470.65   28.90
   0   6   2  403.36   27.30
   0   6  -2  456.75   29.00
   0   6  -2  451.05   29.00
   0   6   2  415.56   26.80
   0   6   2  457.45   27.00
   0   6  -2  484.35   29.10
   0   6   2  387.26   26.90
   1  -6   2  130.99    8.80
  -1  -6  -2  128.59    8.20
  -1  -6  -2  124.89    8.60
   1  -6   2  140.09    8.90
  -1  -6  -2  129.09    8.60
  -1  -6  -2  119.19    8.50
   1  -6   2  139.49    8.90
  -1  -6  -2  125.69    8.40
   1  -6   2  136.49    8.90
  -1   6  -2  122.39    8.60
  -1   6  -2  116.29    8.40
   1   6   2  145.99    9.10
   1   6   2  113.69    9.10
   1   6   2  134.19    8.70
  -1   6  -2  135.59    8.50
  -1   6  -2  126.09    8.20
  -1   6  -2  129.89    8.40
  -1   6  -2  117.19    8.50
  -1   6  -2  125.39    8.30
   2  -6   2   62.79    4.50
  -2  -6  -2   58.89    4.90
  -2  -6  -2   48.10    4.70
   2  -6   2   64.99    4.50
  -2  -6  -2   60.99    6.20
  -2  -6  -2   49.10    4.50
   2  -6   2   53.49    4.50
  -2   6  -2   56.09    4.60
  -2   6  -2   55.99    4.10
  -2   6  -2   54.49    4.80
   2   6   2   48.40    4.90
   2   6   2   59.49    4.80
   2   6   2   56.79    4.30
  -2   6  -2   53.59    4.60
  -2   6  -2   50.99    4.60
  -2   6  -2   54.19    4.60
   3  -6   2   30.60    3.80
  -3  -6  -2   38.30    4.70
  -3  -6  -2   32.20    4.40
   3  -6   2   34.20    3.50
  -3   6  -2   41.60    4.30
  -3   6  -2   36.60    4.30
  -3   6  -2   36.60    4.60
  -3   6  -2   38.50    4.60
   3   6   2   33.50    4.20
  -4  -6  -2    1.80    2.40
   4  -6   2    0.10    1.40
  -4   6  -2    1.90    2.60
  -4   6  -2    3.60    3.90
  -4  -7   2    6.30    4.60
   4  -7  -2   10.10    2.00
  -4  -7   2    7.60    4.50
  -4   7   2    9.20    2.80
   4   7  -2    5.20    2.90
  -4   7   2    6.40    3.00
  -4   7   2   14.20    3.10
   3  -7  -2    1.70    1.90
   3  -7  -2   -0.10    1.50
   3  -7  -2    2.60    1.30
  -3  -7   2    4.60    2.60
  -3  -7   2    1.20    3.40
  -3   7   2    0.10    1.90
   3   7  -2   -0.80    1.60
  -3   7   2   -0.50    1.90
  -3   7   2    5.10    2.50
   3   7  -2   -1.10    1.90
  -3   7   2    2.80    2.10
   2  -7  -2   78.79    5.90
  -2  -7   2   61.79    5.50
   2  -7  -2   79.99    5.60
  -2  -7   2   52.29    5.00
   2  -7  -2   79.99    5.70
  -2  -7   2   62.99    6.50
  -2  -7   2   59.29    5.10
  -2   7   2   52.09    5.30
  -2   7   2   68.39    5.50
  -2   7   2   67.99    5.40
  -2   7   2   65.09    4.80
  -2   7   2   69.19    5.40
  -2   7   2   64.59    5.00
   2   7  -2   70.19    6.10
  -2   7   2   70.49    5.90
   2   7  -2   78.09    5.60
   1  -7  -2   10.30    1.70
  -1  -7   2   15.20    2.30
   1  -7  -2   11.70    2.10
   1  -7  -2   16.30    2.00
   1  -7  -2   14.90    2.00
  -1  -7   2   13.60    2.40
  -1  -7   2   11.80    1.70
  -1  -7   2   10.90    2.00
  -1  -7   2    9.60    2.80
  -1  -7   2   14.50    2.00
   1   7  -2   12.40    2.20
  -1   7   2   16.80    2.90
  -1   7   2   15.20    1.90
   1   7  -2   16.70    2.20
   1   7  -2   15.00    1.80
  -1   7   2   13.70    2.00
  -1   7   2   12.90    2.40
   0  -7  -2    0.60    1.00
   0  -7   2    1.70    0.70
   0  -7  -2   -0.10    0.70
   0  -7   2    1.10    0.80
   0  -7   2    1.20    1.00
   0  -7  -2    0.20    1.20
   0  -7  -2    0.40    0.70
   0  -7  -2    1.80    0.80
   0  -7   2   -0.30    0.70
   0   7  -2   -1.50    1.30
   0   7   2    0.60    1.00
   0   7  -2    0.10    0.70
   0   7  -2    0.60    0.80
   0   7   2    1.10    1.10
   0   7   2   -0.50    1.10
   0   7  -2    1.10    0.80
   0   7   2    0.60    0.80
  -1  -7  -2   10.10    1.90
  -1  -7  -2   10.60    2.00
  -1  -7  -2    7.80    1.50
   1  -7   2   12.00    1.80
  -1  -7  -2   15.00    2.60
   1  -7   2    9.60    1.70
   1  -7   2    8.20    1.50
  -1  -7  -2   10.80    1.70
  -1   7  -2   10.00    2.10
  -1   7  -2    9.40    1.60
  -1   7  -2   10.60    1.80
  -1   7  -2   13.30    2.10
  -1   7  -2    8.10    1.30
  -1   7  -2    7.40    1.30
   1   7   2   11.00    2.00
  -1   7  -2   11.50    2.30
  -2  -7  -2    1.60    2.10
  -2  -7  -2    3.30    1.80
   2  -7   2    3.40    1.50
  -2  -7  -2    3.70    1.70
   2  -7   2    7.30    2.40
   2   7   2    4.00    1.60
  -2   7  -2    7.30    1.90
  -2   7  -2    7.00    2.00
   2   7   2    2.10    1.80
   2   7   2    4.30    1.50
  -2   7  -2    3.40    1.20
  -2   7  -2    3.60    1.50
  -2   7  -2    2.80    1.60
  -3  -7  -2    2.40    2.10
   3  -7   2   -1.50    1.80
   3  -7   2    1.70    1.40
  -3  -7  -2   -0.20    2.50
  -3   7  -2    4.80    2.20
  -3   7  -2    3.90    2.10
  -3   7  -2    4.10    2.20
  -3   7  -2    5.30    2.20
   3   7   2    0.20    2.00
   4  -7   2    7.40    1.60
  -4  -7  -2    8.60    2.70
  -4   7  -2    5.90    2.70
  -4   7  -2    3.00    3.10
  -4   7  -2    3.90    2.90
   4  -8  -2    5.50    2.00
  -4  -8   2    5.80    4.80
   4   8  -2    2.80    3.00
  -4   8   2    1.90    3.00
  -4   8   2    7.50    3.20
  -4   8   2    6.00    3.10
  -3  -8   2    2.50    4.10
   3  -8  -2    1.80    1.90
  -3  -8   2    2.00    2.50
   3   8  -2    3.50    1.90
  -3   8   2    4.90    2.40
  -3   8   2    3.10    2.20
   3   8  -2    2.10    2.10
  -3   8   2    3.60    2.10
   2  -8  -2   38.20    3.80
  -2  -8   2   38.60    3.80
  -2  -8   2   30.90    4.20
   2  -8  -2   32.70    3.60
   2  -8  -2   35.60    3.30
  -2   8   2   30.20    4.20
  -2   8   2   37.70    4.00
  -2   8   2   35.60    4.10
  -2   8   2   33.00    5.50
   2   8  -2   40.30    3.40
  -2   8   2   38.10    3.40
   2   8  -2   37.70    4.00
  -1  -8   2    2.90    1.40
  -1  -8   2    3.90    1.40
   1  -8  -2    3.80    1.40
   1  -8  -2    9.90    1.60
   1  -8  -2    8.70    1.80
  -1  -8   2    7.20    1.80
   1  -8  -2    6.20    1.40
  -1  -8   2    6.40    1.80
   1   8  -2    5.90    1.50
   1   8  -2    6.40    1.20
  -1   8   2    5.60    1.60
   1   8  -2    4.90    1.50
  -1   8   2    7.60    2.30
  -1   8   2    5.90    1.70
  -1   8   2    4.70    1.20
  -1   8   2    5.90    1.10
   0  -8   2    7.70    1.60
   0  -8  -2    5.80    1.50
   0  -8   2    6.60    1.20
   0  -8  -2    4.30    1.10
   0  -8  -2    7.30    1.60
   0  -8  -2    6.40    1.40
   0   8   2    4.90    1.10
   0   8   2    4.80    1.20
   0   8  -2    3.50    1.20
   0   8  -2    5.90    1.10
   0   8  -2    5.70    1.30
   0   8   2    7.20    1.60
   0   8   2    5.00    1.70
  -1  -8  -2   14.40    2.30
   1  -8   2   13.00    2.00
  -1  -8  -2   15.10    2.50
  -1  -8  -2   11.70    2.30
   1  -8   2   11.40    2.40
  -1  -8  -2   16.40    2.50
  -1  -8  -2   13.20    2.20
  -1   8  -2   20.30    3.20
   1   8   2   10.80    3.00
  -1   8  -2   16.20    2.50
  -1   8  -2   17.80    2.10
  -1   8  -2   15.10    2.60
   1   8   2   10.60    2.30
  -1   8  -2   20.30    2.20
   1   8   2    8.00    2.10
   1   8   2   10.70    1.90
  -1   8  -2   17.00    2.90
  -2  -8  -2   36.20    4.10
   2  -8   2   30.20    3.30
  -2  -8  -2   24.70    3.90
  -2   8  -2   27.30    3.10
   2   8   2   30.50    3.30
   2   8   2   22.70    3.50
  -2   8  -2   26.60    3.50
  -2   8  -2   30.50    3.90
  -2   8  -2   34.80    4.00
  -2   8  -2   29.50    4.40
   3  -8   2    1.20    1.30
  -3  -8  -2    3.10    2.20
   3  -8   2   -1.20    1.60
  -3   8  -2    3.40    2.50
  -3   8  -2   -0.40    2.10
  -3   8  -2   -1.70    2.20
  -3   8  -2    1.90    2.50
   3   8   2    1.50    2.20
   3  -9  -2    9.40    2.30
  -3  -9   2    7.30    2.90
   3  -9  -2    9.80    1.70
  -3   9   2    9.20    2.60
   3   9  -2    4.60    2.40
  -3   9   2    9.50    2.70
   3   9  -2    8.90    2.30
  -3   9   2    6.80    3.20
   2  -9  -2   36.50    4.00
   2  -9  -2   43.60    3.60
  -2  -9   2   31.90    3.70
  -2  -9   2   27.10    4.20
   2  -9  -2   45.30    4.00
   2   9  -2   37.60    3.60
  -2   9   2   30.00    3.90
   2   9  -2   29.70    4.30
  -2   9   2   32.70    3.30
  -2   9   2   32.20    5.20
  -2   9   2   29.10    4.30
  -2   9   2   28.00    3.50
   1  -9  -2   73.59    5.90
   1  -9  -2   87.89    6.00
   1  -9  -2   85.99    5.60
  -1  -9   2   82.69    6.20
   1  -9  -2   66.89    7.10
  -1  -9   2   81.79    6.30
   1   9  -2   80.89    5.60
  -1   9   2   84.59    6.40
  -1   9   2   74.19    6.80
  -1   9   2   75.99    6.10
  -1   9   2   87.59    6.00
   1   9  -2   68.39    5.90
   1   9  -2   75.99    6.00
   0  -9   2   43.30    3.80
   0  -9  -2   42.20    3.50
   0  -9   2   51.69    4.00
   0  -9  -2   44.00    3.90
   0  -9   2   40.80    3.40
   0  -9  -2   50.49    4.10
   0  -9   2   48.00    4.30
   0  -9  -2   39.00    3.60
   0   9  -2   44.40    3.80
   0   9   2   43.30    4.00
   0   9  -2   38.80    3.60
   0   9   2   40.00    4.50
  -1  -9  -2   22.20    3.60
   1  -9   2   28.20    3.10
   1  -9   2   32.70    2.80
   1  -9   2   32.90    3.20
  -1  -9  -2   20.70    3.20
  -1  -9  -2   26.50    3.80
   1  -9   2   27.80    3.30
  -1  -9  -2   25.90    3.40
  -1   9  -2   30.00    2.80
  -1   9  -2   31.90    3.00
  -1   9  -2   28.20    3.50
  -1   9  -2   26.10    3.40
   1   9   2   27.30    2.90
   1   9   2   24.80    3.20
  -1   9  -2   28.60    4.30
   2  -9   2   24.10    4.00
   2  -9   2   27.30    3.50
  -2  -9  -2   17.70    2.90
  -2  -9  -2   11.20    2.80
   2  -9   2   30.60    3.40
   2  -9   2   31.00    3.10
  -2  -9  -2   17.60    3.80
  -2   9  -2   15.90    2.70
  -2   9  -2   16.20    3.00
  -2   9  -2   21.30    3.60
  -2   9  -2   19.00    3.50
   2   9   2   20.50    3.50
  -2   9  -2   23.30    3.80
   2   9   2   17.60    3.40
  -3  -9  -2   12.70    3.10
   3  -9   2   11.40    2.20
   3  -9   2   17.10    2.30
  -3   9  -2   15.20    3.10
  -3   9  -2   12.10    3.80
  -3   9  -2   14.80    3.10
   3 -10  -2    6.90    2.60
   3 -10  -2    6.10    1.80
  -3 -10   2    3.20    3.00
  -3  10   2    8.80    4.60
  -3  10   2    7.90    2.50
   3  10  -2    2.40    2.40
  -3  10   2   11.70    3.00
  -2 -10   2   13.70    2.60
  -2 -10   2   17.20    2.90
   2 -10  -2   20.10    3.40
  -2  10   2   14.80    2.90
  -2  10   2   15.10    2.60
   2  10  -2   20.00    3.60
  -2  10   2   12.60    2.70
   2  10  -2   18.90    2.90
   1 -10  -2   53.09    5.00
  -1 -10   2   46.20    4.90
   1 -10  -2   44.80    4.70
  -1 -10   2   59.09    5.30
  -1 -10   2   58.89    5.10
   1 -10  -2   59.29    4.30
   1 -10  -2   47.00    4.50
   1 -10  -2   63.19    4.80
  -1  10   2   57.69    4.60
  -1  10   2   49.00    4.60
  -1  10   2   58.69    5.40
   1  10  -2   57.49    4.40
   1  10  -2   44.20    4.60
  -1  10   2   56.99    5.10
   0 -10  -2   80.29    5.90
   0 -10  -2   73.79    6.60
   0 -10   2   67.09    5.60
   0 -10   2   75.79    6.00
   0 -10  -2   88.59    6.60
   0 -10  -2   85.89    6.50
   0 -10   2   66.89    5.20
   0 -10   2   76.59    5.80
   0  10  -2   76.79    6.60
   0  10   2   65.89    5.70
   0  10  -2   81.59    6.00
   0  10   2   80.19    5.50
   0  10  -2   90.29    6.40
   0  10   2   72.89    6.40
   1 -10   2   49.60    4.00
   1 -10   2   50.89    4.40
   1 -10   2   39.00    4.30
   1 -10   2   44.30    4.70
  -1 -10  -2   32.20    4.20
  -1 -10  -2   42.40    4.40
  -1  10  -2   31.30    4.10
   1  10   2   43.00    4.00
  -1  10  -2   44.70    4.40
  -1  10  -2   38.00    3.40
  -2 -10  -2    4.90    2.50
  -2 -10  -2    4.50    2.50
   2 -10   2    3.60    1.80
  -2 -10  -2    2.40    2.70
   2 -10   2    4.30    1.40
  -2  10  -2    1.60    2.20
  -2  10  -2    1.90    2.30
  -2  10  -2    2.20    1.40
   2  10   2    0.80    1.80
  -2  10  -2   -1.10    2.70
  -3 -10  -2    1.10    2.70
   3 -10   2   -0.60    1.80
   3 -10   2    2.40    1.40
   3  10   2   -3.40    2.40
  -3  10  -2    5.00    3.20
  -3  10  -2   -0.40    2.60
  -2 -11   2    1.60    2.60
   2 -11  -2    0.90    1.80
   2 -11  -2    5.20    1.70
  -2  11   2    1.40    2.10
  -2  11   2    3.00    2.70
  -2  11   2    2.10    1.40
   2  11  -2    4.50    2.10
   2  11  -2    2.60    1.80
   1 -11  -2   -1.20    1.30
  -1 -11   2   -0.30    1.90
   1 -11  -2    0.70    1.70
  -1 -11   2    0.00    1.80
  -1 -11   2    1.00    2.00
   1 -11  -2    1.70    1.80
   1  11  -2   -3.00    2.40
  -1  11   2    3.20    2.00
   1  11  -2    1.40    1.30
  -1  11   2    1.40    1.30
  -1  11   2   -0.70    2.50
  -1  11   2    0.00    1.40
   0 -11  -2   36.20    4.90
   0 -11  -2   46.90    4.30
   0 -11  -2   52.49    4.90
   0 -11   2   45.90    4.90
   0 -11   2   49.00    4.60
   0 -11   2   40.20    4.50
   0  11  -2   58.59    5.10
   0  11  -2   49.80    4.20
   0  11   2   46.80    4.20
   0  11   2   44.90    4.40
  -1 -11  -2    1.80    2.10
  -1 -11  -2    8.50    2.40
   1 -11   2    5.50    1.90
   1 -11   2    5.70    2.50
   1 -11   2    5.10    1.50
  -1 -11  -2    3.20    2.00
   1  11   2    3.80    1.80
  -1  11  -2    5.50    2.20
   1  11   2    1.80    1.80
  -1  11  -2    5.80    1.50
  -1  11  -2    5.90    2.30
  -2 -11  -2   -2.60    2.70
   2 -11   2    3.30    3.20
   2 -11   2    2.90    2.00
  -2  11  -2    0.50    2.50
   2  11   2   -1.40    2.90
  -2  11  -2   -3.00    2.60
  -2  11  -2   -2.90    2.60
  -2 -12   2   -1.70    2.10
   2 -12  -2   -1.30    2.10
   2 -12  -2    0.30    3.00
   2  12  -2   -0.40    2.10
  -2  12   2   -3.90    3.10
  -2  12   2    2.10    2.40
   1 -12  -2    0.40    2.30
  -1 -12   2    2.90    2.60
  -1 -12   2    2.90    2.70
   1 -12  -2    0.40    2.20
   1 -12  -2   -1.10    3.00
  -1 -12   2    1.00    1.90
  -1  12   2    0.90    1.60
   1  12  -2    3.90    3.00
  -1  12   2    2.90    3.50
   1  12  -2    2.70    3.20
  -1  12   2    6.40    2.40
  -1  12   2   -0.50    2.20
   1  12  -2    0.30    1.80
   0 -12   2    0.20    2.00
   0 -12   2    0.00    2.40
   0 -12  -2    1.50    1.90
   0 -12  -2    1.70    2.20
   0 -12   2    0.60    1.90
   0 -12  -2    0.40    2.00
   0  12   2    2.30    1.60
   0  12   2    1.40    2.00
   0  12  -2    0.70    1.50
   0  12   2    2.20    1.70
   0  12  -2    2.40    2.40
   0  12  -2    1.00    1.90
   1 -12   2    6.00    2.00
   1 -12   2    4.80    3.40
  -1 -12  -2    1.20    2.80
  -1  12  -2    0.40    3.20
  -1  12  -2    0.60    2.50
   1  12   2    3.60    2.10
  -2 -12  -2    1.10    1.90
   2 -12   2    5.60    2.50
  -2 -12  -2    4.30    3.50
   2 -12   2    3.20    2.00
  -2  12  -2    1.60    1.60
  -2  12  -2    3.40    2.90
   2  12   2   -0.60    2.30
  -1 -13   2    4.50    2.10
   1 -13  -2    4.70    3.00
   1 -13  -2    4.70    2.30
  -1 -13   2    2.80    3.10
   1 -13  -2    3.20    2.40
   1  13  -2    0.90    2.10
  -1  13   2    1.40    1.60
  -1  13   2   -1.70    2.30
   1  13  -2    6.60    2.10
  -1  13   2    1.30    2.40
   0 -13   2    3.90    2.00
   0 -13  -2   11.10    3.00
   0 -13  -2    4.80    2.50
   0 -13  -2    5.70    3.00
   0 -13   2    7.40    2.80
   0  13  -2    7.30    3.50
   0  13  -2    4.30    2.40
   0  13   2    2.30    1.90
   0  13  -2    5.50    2.50
   0  13   2    3.70    2.20
   0  13  -2    7.70    1.80
   1 -13   2    2.70    2.20
  -1 -13  -2    4.70    2.60
   1 -13   2    8.00    2.80
  -1 -13  -2    0.90    2.70
   1  13   2    3.30    1.90
  -1  13  -2    2.50    1.60
  -1  13  -2    4.70    3.20
  -1  13  -2    1.00    3.10
   1  13   2   -0.20    2.90
  -5   0   3    5.20    2.70
  -5   0   3    6.80    3.40
  -5   0   3    0.80    4.70
  -4   0   3    0.70    2.30
  -4   0   3    1.50    1.80
  -4   0   3    1.20    2.00
  -4   0   3   -1.10    1.70
  -4   0   3    1.70    3.00
  -4   0   3   -0.60    3.00
  -4   0   3    0.60    2.20
  -3   0   3    0.70    1.70
  -3   0   3   -0.40    1.30
   3   0  -3   -1.00    1.20
  -3   0   3    0.60    1.50
  -3   0   3    3.00    1.70
  -3   0   3    2.90    1.50
  -3   0   3    0.30    1.30
  -2   0   3    3.20    1.20
  -2   0   3    2.50    1.20
  -2   0   3    1.30    1.20
  -2   0   3    2.60    0.90
  -2   0   3    3.00    1.30
  -1   0   3    3.10    1.10
  -1   0   3    3.40    0.70
   1   0  -3   10.20    1.20
  -1   0   3    4.80    1.20
  -1   0   3    6.10    1.20
   0   0  -3    0.30    0.50
   0   0  -3    0.80    0.40
   0   0  -3    0.50    0.50
   0   0   3   -0.10    0.50
   0   0   3    1.00    0.50
   0   0   3    0.10    0.60
  -1   0  -3    2.10    0.90
  -1   0  -3    1.00    0.50
  -1   0  -3    2.30    1.10
  -1   0  -3    0.10    0.80
   1   0   3    1.00    0.40
  -1   0  -3   -0.10    1.00
  -1   0  -3    0.70    0.60
  -2   0  -3    4.60    1.20
  -2   0  -3    3.20    1.30
  -2   0  -3    3.60    1.10
  -2   0  -3    3.50    1.00
  -2   0  -3    2.60    1.10
  -2   0  -3    2.20    1.10
  -3   0  -3    0.20    1.60
  -3   0  -3   -0.40    1.50
  -3   0  -3    0.60    1.50
  -3   0  -3    1.40    1.50
   3   0   3   -2.10    1.80
  -3   0  -3   -1.90    1.90
  -3   0  -3    0.50    1.10
  -3   0  -3    1.80    1.30
  -4   0  -3   -2.00    1.50
  -4   0  -3   -0.40    2.30
  -4   0  -3    1.70    2.50
  -4   0  -3   -2.20    1.60
  -5  -1   3    1.20    2.70
  -5  -1   3   -5.20    4.40
  -5   1   3    3.60    2.60
  -5   1   3   -2.60    3.70
  -5   1   3    2.40    3.10
  -4  -1   3    3.80    2.90
  -4  -1   3   -1.70    2.50
  -4  -1   3   -1.60    1.80
  -4  -1   3    4.00    3.40
  -4  -1   3   -0.10    1.80
  -4  -1   3   -1.20    2.20
   4  -1  -3    0.90    2.70
  -4  -1   3   -0.70    2.30
  -4   1   3   -0.80    2.00
  -4   1   3    5.10    2.30
  -4   1   3    6.80    2.90
  -4   1   3    2.70    2.40
  -4   1   3   -4.20    4.10
  -4   1   3    0.30    1.70
  -4   1   3   -1.00    1.90
  -3  -1   3  129.59    9.30
  -3  -1   3  125.49    9.10
  -3  -1   3  117.29    9.00
  -3  -1   3  138.89    8.80
  -3  -1   3  133.59    8.40
  -3  -1   3  119.89    8.40
   3  -1  -3  151.38   10.40
  -3   1   3  118.59    8.50
  -3   1   3  132.09    9.10
  -3   1   3  135.69    8.80
  -3   1   3  138.09    9.20
  -3   1   3  105.59    8.70
  -3   1   3  118.89    8.60
   3   1  -3  171.08   10.70
  -3   1   3  106.29    9.10
  -2  -1   3  444.16   29.60
   2  -1  -3  469.45   31.20
  -2  -1   3  485.45   29.80
  -2  -1   3  445.36   29.90
  -2  -1   3  463.65   29.70
  -2  -1   3  470.05   29.80
  -2  -1   3  505.95   29.50
  -2   1   3  479.05   29.80
  -2   1   3  473.05   29.70
  -2   1   3  474.85   29.40
  -2   1   3  476.15   29.90
  -2   1   3  470.65   29.80
  -2   1   3  443.16   29.70
   2   1  -3  526.65   31.20
  -2   1   3  457.05   29.50
  -1  -1   3  332.07   18.20
  -1  -1   3  246.68   17.90
   1  -1  -3  280.27   17.50
  -1  -1   3  266.17   18.00
  -1  -1   3  277.57   18.10
  -1  -1   3  288.87   18.10
  -1   1   3  314.47   18.10
   1   1  -3  278.67   17.50
  -1   1   3  282.17   18.00
  -1   1   3  299.67   18.10
  -1   1   3  279.87   18.00
  -1   1   3  267.57   17.90
  -1   1   3  270.37   18.00
   0  -1   3 1319.47   79.79
   0  -1  -3 1553.64   97.09
   0  -1   3 1278.97   79.79
   0  -1  -3 1412.26   97.09
   0  -1   3 1241.78   79.69
   0  -1  -3 1568.74   96.99
   0  -1  -3 1591.44   96.99
   0   1  -3 1529.05   96.99
   0   1  -3 1690.93   97.09
   0   1   3 1277.67   79.79
  -1  -1  -3  833.92   49.20
  -1  -1  -3  780.82   49.10
  -1  -1  -3  830.22   49.20
  -1  -1  -3  833.02   49.30
   1  -1   3  713.73   46.90
  -1  -1  -3  745.23   49.00
  -1  -1  -3  801.92   49.20
   1  -1   3  729.73   46.90
  -1  -1  -3  719.03   49.10
  -1   1  -3  741.63   49.10
   1   1   3  810.62   47.30
  -1   1  -3  797.92   49.20
  -1   1  -3  802.12   49.20
  -1   1  -3  846.92   49.30
  -1   1  -3  828.32   49.20
  -1   1  -3  699.03   49.10
  -1   1  -3  746.73   49.20
   2  -1   3   96.99    6.60
  -2  -1  -3  105.39    7.30
  -2  -1  -3  113.89    7.20
  -2  -1  -3  101.09    7.20
  -2  -1  -3  102.79    7.40
  -2  -1  -3  122.99    7.50
  -2  -1  -3  100.29    7.20
  -2  -1  -3  105.59    7.30
  -2   1  -3   98.79    7.20
  -2   1  -3  101.39    7.30
  -2   1  -3  108.19    7.40
   2   1   3  100.79    7.40
  -2   1  -3  108.79    7.30
  -2   1  -3  100.19    7.20
  -2   1  -3  105.99    7.20
  -2   1  -3  101.39    7.10
   2   1   3  101.19    6.70
  -3  -1  -3   42.40    4.10
   3  -1   3   60.39    5.00
  -3  -1  -3   56.39    5.10
  -3  -1  -3   43.00    4.40
  -3  -1  -3   50.09    4.10
  -3  -1  -3   43.70    4.40
  -3  -1  -3   41.30    4.40
   3  -1   3   54.79    4.50
  -3  -1  -3   47.80    4.20
  -3   1  -3   55.49    5.00
  -3   1  -3   47.10    4.40
  -3   1  -3   45.10    4.30
  -3   1  -3   43.90    4.00
  -3   1  -3   49.10    4.40
  -3   1  -3   45.30    4.00
  -3   1  -3   49.60    4.10
   3   1   3   63.09    6.30
  -4  -1  -3    8.70    2.00
  -4  -1  -3    3.10    2.60
  -4  -1  -3    5.50    1.90
  -4   1  -3    5.80    2.70
  -4   1  -3    6.90    1.80
  -4   1  -3    6.00    2.50
  -4   1  -3   10.90    2.30
  -5   2   3    1.50    3.60
  -4  -2   3   21.30    4.30
  -4  -2   3   16.90    3.40
   4  -2  -3   21.10    3.70
  -4  -2   3   24.30    3.70
   4  -2  -3   15.10    3.10
  -4  -2   3   25.40    4.60
  -4   2   3   29.40    4.50
  -4   2   3   19.20    3.60
  -4   2   3   27.90    4.10
  -4   2   3   19.00    4.20
  -3  -2   3   40.40    3.70
  -3  -2   3   26.20    3.80
  -3  -2   3   32.30    3.40
  -3  -2   3   34.80    4.00
   3  -2  -3   26.70    2.50
  -3   2   3   37.70    3.70
  -3   2   3   36.50    3.70
   3   2  -3   28.30    3.40
  -3   2   3   32.60    3.80
  -3   2   3   29.00    3.50
  -3   2   3   31.90    3.90
  -3   2   3   35.60    4.00
  -2  -2   3  162.98   10.30
   2  -2  -3  166.18   10.80
  -2  -2   3  155.08   10.50
  -2  -2   3  160.38   10.70
   2  -2  -3  152.48   10.70
  -2  -2   3  156.38   10.70
  -2  -2   3  157.98   10.20
  -2  -2   3  144.89   10.40
  -2  -2   3  163.18   10.90
  -2   2   3  163.98   10.30
  -2   2   3  161.18   10.70
  -2   2   3  160.88   10.70
  -2   2   3  154.98   10.30
  -2   2   3  162.78   10.60
   2   2  -3  164.98   10.70
   2   2  -3  193.08   11.00
  -2   2   3  152.98   10.50
  -2   2   3  162.08   10.40
  -2   2   3  161.48   10.60
  -1  -2   3   94.79    7.00
  -1  -2   3  118.49    7.50
  -1  -2   3  109.39    7.40
   1  -2  -3   98.19    6.90
   1  -2  -3  108.99    6.90
  -1  -2   3  110.99    7.00
  -1  -2   3  102.89    7.20
  -1  -2   3  100.09    7.00
  -1  -2   3  114.49    7.20
  -1   2   3   97.29    7.10
  -1   2   3  109.49    7.20
  -1   2   3  104.89    7.20
  -1   2   3  111.59    7.40
   1   2  -3  116.99    7.00
   1   2  -3  105.49    6.90
  -1   2   3  125.59    7.30
  -1   2   3  102.39    7.10
  -1   2   3  112.49    7.30
   0  -2  -3  753.62   46.90
   0  -2   3  656.63   43.20
   0  -2  -3  751.42   46.90
   0  -2  -3  696.83   46.90
   0  -2   3  733.33   43.20
   0  -2  -3  699.23   46.90
   0  -2   3  661.03   43.10
   0   2  -3  810.62   46.90
   0   2   3  634.94   43.10
   0   2   3  766.72   43.20
   0   2  -3  710.13   46.90
   0   2  -3  834.32   46.90
  -1  -2  -3  142.49    8.90
   1  -2   3  144.09    9.30
   1  -2   3  134.99    9.30
  -1  -2  -3  140.09    8.90
  -1  -2  -3  141.89    8.90
  -1  -2  -3  139.89    8.70
  -1  -2  -3  132.79    8.90
  -1  -2  -3  128.39    8.60
  -1  -2  -3  147.29    9.30
  -1   2  -3  140.89    8.90
  -1   2  -3  123.29    8.70
  -1   2  -3  151.38    9.00
  -1   2  -3  136.29    8.90
   1   2   3  155.68    9.80
  -1   2  -3  130.59    8.70
  -1   2  -3  142.49    8.90
  -1   2  -3  119.89    8.80
   1   2   3  147.09    9.30
  -1   2  -3  128.69    8.90
  -1   2  -3  130.89    8.60
  -2  -2  -3   76.69    5.70
  -2  -2  -3   79.69    5.60
  -2  -2  -3   75.49    6.00
  -2  -2  -3   67.59    5.50
   2  -2   3   62.79    4.40
   2  -2   3   54.09    4.40
  -2  -2  -3   84.29    5.70
  -2  -2  -3   78.29    5.70
  -2  -2  -3   80.89    5.70
   2   2   3   69.39    4.60
  -2   2  -3   78.59    5.80
  -2   2  -3   78.79    5.70
  -2   2  -3   80.59    5.60
  -2   2  -3   74.69    5.50
   2   2   3   64.19    5.20
  -2   2  -3   83.09    5.80
  -2   2  -3   71.49    5.40
  -2   2  -3   81.09    5.60
  -3  -2  -3   28.40    3.30
   3  -2   3   22.30    2.60
  -3  -2  -3   18.90    3.80
  -3  -2  -3   19.90    3.50
  -3  -2  -3   27.40    3.90
   3  -2   3   19.90    3.30
  -3  -2  -3   22.80    3.40
  -3  -2  -3   24.70    3.10
  -3   2  -3   27.10    2.80
  -3   2  -3   24.30    3.40
  -3   2  -3   25.70    3.10
  -3   2  -3   27.70    3.40
  -3   2  -3   27.30    3.10
  -3   2  -3   25.10    2.90
   3   2   3   19.70    4.70
  -4  -2  -3    6.70    3.00
   4  -2   3    3.90    1.90
  -4  -2  -3    7.90    2.10
  -4  -2  -3    5.40    3.80
  -4  -2  -3    3.50    2.10
  -4   2  -3    9.20    2.20
  -4   2  -3    7.70    2.70
  -4   2  -3    3.20    2.40
  -4   2  -3    8.80    2.80
  -4  -3   3   16.20    3.90
  -4  -3   3   19.80    3.70
  -4  -3   3   21.20    4.50
  -4  -3   3   17.10    3.60
   4  -3  -3   20.80    4.80
  -4   3   3   19.50    4.10
  -4   3   3   14.50    3.20
  -4   3   3   23.40    4.90
  -4   3   3   15.90    3.50
  -3  -3   3   30.00    3.80
  -3  -3   3   19.30    3.80
  -3  -3   3   28.10    3.60
   3  -3  -3   28.00    2.60
  -3  -3   3   24.70    3.50
  -3  -3   3   24.10    3.10
  -3  -3   3   24.20    3.10
  -3   3   3   28.10    3.30
  -3   3   3   24.90    3.30
   3   3  -3   25.00    3.40
  -3   3   3   28.90    3.50
  -3   3   3   22.10    3.50
  -3   3   3   33.20    3.90
  -3   3   3   30.70    3.60
  -2  -3   3  132.89    9.20
   2  -3  -3  159.98   10.90
  -2  -3   3  127.09    9.50
  -2  -3   3  145.59    8.90
   2  -3  -3  163.18   10.90
  -2  -3   3  131.49    8.80
  -2  -3   3  121.99    9.40
  -2   3   3  137.39    9.20
   2   3  -3  189.58   11.10
  -2   3   3  127.49    9.20
  -2   3   3  138.09    9.20
  -2   3   3  134.09    9.10
  -2   3   3  144.29    9.10
  -2   3   3  134.09    8.80
  -1  -3   3 1477.45  103.09
  -1  -3   3 1729.93  103.09
  -1  -3   3 1560.54  102.99
  -1  -3   3 1731.33  103.29
   1  -3  -3 1703.53  110.39
  -1  -3   3 1636.04  103.19
   1  -3  -3 1676.63  110.39
  -1  -3   3 1662.83  103.09
  -1   3   3 1700.23  103.19
  -1   3   3 1691.23  103.19
  -1   3   3 1662.73  103.19
  -1   3   3 1699.13  103.29
   1   3  -3 1699.63  110.29
  -1   3   3 1613.84  103.09
  -1   3   3 1514.25  102.99
   1   3  -3 2002.70  110.39
  -1   3   3 1803.72  103.29
   0  -3  -3  110.09    7.20
   0  -3   3  120.29    7.10
   0  -3  -3  107.79    7.20
   0  -3  -3  103.39    7.30
   0  -3   3  109.29    7.10
   0  -3  -3  104.09    7.30
   0  -3   3  105.39    7.10
   0  -3   3  106.69    7.10
   0   3  -3  103.49    7.20
   0   3  -3  109.69    7.30
   0   3  -3  115.79    7.40
   0   3   3  112.49    7.10
   0   3   3  102.39    7.00
   0   3  -3  125.39    7.30
   0   3  -3  129.79    7.20
   1  -3   3  386.36   25.90
  -1  -3  -3  466.95   29.30
  -1  -3  -3  475.85   29.20
  -1  -3  -3  477.25   29.10
  -1  -3  -3  446.36   29.40
  -1  -3  -3  432.96   30.00
   1  -3   3  402.76   26.00
  -1  -3  -3  429.96   29.20
   1  -3   3  420.86   26.00
   1   3   3  438.36   26.00
   1   3   3  373.26   25.80
   1   3   3  457.25   26.40
  -1   3  -3  448.76   29.10
  -1   3  -3  470.55   29.20
  -1   3  -3  484.95   29.30
  -1   3  -3  492.95   29.30
  -1   3  -3  453.75   29.10
  -1   3  -3  475.95   29.00
  -2  -3  -3   23.60    3.10
  -2  -3  -3   31.00    3.50
   2  -3   3   19.90    2.10
   2  -3   3   18.40    2.00
  -2  -3  -3   31.60    3.10
   2  -3   3   16.20    2.30
  -2  -3  -3   29.30    3.10
  -2  -3  -3   30.90    3.20
  -2   3  -3   27.90    2.30
  -2   3  -3   27.20    3.00
  -2   3  -3   24.40    2.70
  -2   3  -3   25.10    2.90
  -2   3  -3   27.40    3.00
  -2   3  -3   30.50    2.80
   2   3   3   17.10    3.00
  -2   3  -3   28.80    2.70
  -3  -3  -3   50.59    5.00
   3  -3   3   44.40    4.50
  -3  -3  -3   41.30    4.70
  -3  -3  -3   51.59    4.40
  -3  -3  -3   57.29    5.50
  -3  -3  -3   50.29    5.10
   3  -3   3   56.49    4.30
  -3   3  -3   52.29    4.70
   3   3   3   50.69    6.20
  -3   3  -3   47.00    5.30
  -3   3  -3   53.19    4.60
  -3   3  -3   53.29    4.40
  -3   3  -3   48.20    4.80
   3   3   3   50.79    6.80
  -3   3  -3   54.09    5.40
  -4  -3  -3    7.80    2.30
  -4  -3  -3    8.10    2.30
   4  -3   3    6.00    2.00
  -4  -3  -3    4.90    4.00
  -4   3  -3   13.10    2.90
  -4   3  -3   10.40    2.10
  -4   3  -3   12.30    2.60
  -4   3  -3   13.10    3.00
  -4   3  -3    4.80    2.30
  -4  -4   3   27.60    4.60
  -4  -4   3   25.80    5.40
  -4   4   3   35.80    5.00
  -4   4   3   20.50    3.90
  -4   4   3   33.90    4.60
  -4   4   3   37.80    7.00
   4   4  -3   38.30    4.70
   3  -4  -3   19.40    2.10
  -3  -4   3    3.70    2.50
  -3  -4   3    6.40    2.20
  -3  -4   3    7.20    2.40
  -3  -4   3    7.90    2.50
   3  -4  -3   15.00    2.90
  -3  -4   3    9.60    2.10
  -3   4   3   13.80    2.50
  -3   4   3   13.90    2.90
  -3   4   3   10.50    2.30
   3   4  -3   12.50    2.00
  -3   4   3   13.10    2.50
  -2  -4   3   48.80    3.90
   2  -4  -3   44.30    3.80
  -2  -4   3   48.90    4.30
  -2  -4   3   42.00    4.20
   2  -4  -3   49.40    3.80
  -2  -4   3   42.20    3.80
  -2  -4   3   52.39    4.50
   2   4  -3   62.99    4.20
  -2   4   3   47.50    4.00
  -2   4   3   47.90    3.90
  -2   4   3   46.40    4.20
  -2   4   3   38.30    3.90
   2   4  -3   59.59    4.10
  -2   4   3   38.60    3.50
  -1  -4   3   15.30    2.70
  -1  -4   3   19.50    1.80
   1  -4  -3   27.30    2.10
   1  -4  -3   22.10    2.00
  -1  -4   3   18.60    2.00
  -1  -4   3   18.40    2.80
  -1  -4   3   15.10    2.20
  -1  -4   3   16.70    2.00
  -1  -4   3   19.10    2.00
  -1  -4   3   19.80    2.60
   1  -4  -3   28.80    2.10
  -1   4   3   18.90    2.20
   1   4  -3   28.60    2.20
  -1   4   3   20.60    2.40
  -1   4   3   18.90    2.60
   1   4  -3   20.60    2.20
   1   4  -3   21.10    2.20
  -1   4   3   13.50    1.80
  -1   4   3   18.50    1.90
  -1   4   3   21.80    2.50
  -1   4   3   14.70    2.20
   0  -4  -3  207.48   13.10
   0  -4  -3  197.98   13.10
   0  -4  -3  200.48   13.20
   0  -4   3  157.58   10.80
   0  -4   3  184.78   10.90
   0  -4  -3  197.18   13.10
   0  -4   3  165.18   10.80
   0  -4   3  178.28   10.90
   0  -4   3  165.08   10.80
   0  -4  -3  202.48   13.20
   0  -4   3  164.58   10.80
   0   4   3  153.48   10.80
   0   4   3  170.18   11.10
   0   4   3  182.08   10.90
   0   4  -3  190.98   13.10
   0   4  -3  217.28   13.10
   0   4  -3  226.78   13.10
   0   4  -3  215.48   13.20
   0   4   3  168.88   10.80
   0   4  -3  202.78   13.10
  -1  -4  -3  311.67   19.30
  -1  -4  -3  305.57   19.30
   1  -4   3  264.17   17.50
  -1  -4  -3  316.57   19.10
  -1  -4  -3  292.37   19.20
  -1  -4  -3  303.27   19.30
   1  -4   3  279.77   17.70
   1  -4   3  286.07   17.70
  -1   4  -3  256.37   19.70
  -1   4  -3  305.07   19.30
  -1   4  -3  283.17   19.10
  -1   4  -3  310.77   19.00
   1   4   3  268.57   18.00
  -1   4  -3  301.57   19.30
  -1   4  -3  322.57   19.20
   1   4   3  265.67   17.50
  -1   4  -3  309.77   19.20
   1   4   3  303.47   17.70
  -2  -4  -3   92.09    6.80
   2  -4   3  111.79    7.20
  -2  -4  -3   90.39    6.70
  -2  -4  -3  101.69    7.40
  -2  -4  -3   84.89    6.60
   2  -4   3   97.89    7.30
  -2  -4  -3   88.19    6.30
  -2   4  -3   91.59    6.50
  -2   4  -3   89.89    6.70
  -2   4  -3   95.89    6.70
   2   4   3  101.99    7.80
  -2   4  -3   87.79    6.70
  -2   4  -3   93.29    6.20
  -2   4  -3   96.29    6.50
  -2   4  -3   93.19    6.80
   2   4   3  110.89    7.30
  -2   4  -3   96.09    6.40
  -3  -4  -3    4.30    2.60
   3  -4   3    2.10    1.20
  -3  -4  -3   -1.50    1.70
   3  -4   3    0.80    1.80
  -3  -4  -3   -1.60    1.70
  -3   4  -3    0.10    1.70
  -3   4  -3    1.50    1.70
  -3   4  -3    1.10    1.30
  -3   4  -3   -1.60    1.40
   3   4   3   -1.50    2.70
  -3   4  -3    1.20    1.60
   3   4   3    1.20    1.90
  -3   4  -3    3.20    1.80
  -4  -4  -3    1.60    2.30
   4  -4   3    1.70    1.70
  -4  -4  -3    5.30    4.20
  -4  -4  -3    0.80    2.10
  -4   4  -3    1.10    2.40
  -4   4  -3   -1.40    2.10
  -4   4  -3    3.40    2.70
  -4   4  -3   -0.40    1.90
   4  -5  -3   -1.60    1.60
  -4  -5   3    2.80    2.00
  -4  -5   3   -1.10    3.00
  -4  -5   3    7.90    2.70
  -4   5   3    3.20    2.40
  -4   5   3   -2.30    2.90
  -4   5   3    5.70    2.30
  -4   5   3    2.30    2.20
  -3  -5   3   84.99    6.40
  -3  -5   3   70.89    6.70
   3  -5  -3   82.19    5.70
   3  -5  -3   68.29    6.30
  -3  -5   3   61.39    6.10
  -3  -5   3   60.19    6.70
  -3   5   3   85.79    6.80
   3   5  -3   89.49    6.00
  -3   5   3   76.69    6.30
  -3   5   3   81.99    6.20
  -3   5   3   75.39    6.60
  -3   5   3   84.39    6.30
   2  -5  -3    7.10    1.40
  -2  -5   3    2.80    1.30
  -2  -5   3    1.90    1.60
  -2  -5   3    3.80    1.40
   2  -5  -3    4.40    1.00
  -2  -5   3    3.80    1.80
  -2  -5   3    3.90    2.00
   2  -5  -3    3.90    1.30
  -2  -5   3    3.90    2.00
  -2   5   3    2.60    1.60
  -2   5   3    3.90    1.40
  -2   5   3    5.20    1.60
  -2   5   3    4.10    1.30
  -2   5   3    3.60    1.50
   2   5  -3    6.80    1.30
  -1  -5   3   38.50    3.20
   1  -5  -3   40.50    3.30
  -1  -5   3   37.50    3.70
  -1  -5   3   36.20    3.80
   1  -5  -3   46.40    3.50
   1  -5  -3   42.90    3.20
  -1  -5   3   40.70    3.10
   1  -5  -3   41.50    3.30
  -1  -5   3   34.30    3.10
  -1  -5   3   36.60    3.10
  -1  -5   3   45.10    3.50
  -1   5   3   39.20    3.30
  -1   5   3   38.70    3.00
   1   5  -3   45.60    3.30
  -1   5   3   39.50    3.40
   1   5  -3   45.60    3.30
  -1   5   3   33.60    5.10
  -1   5   3   41.20    3.10
  -1   5   3   38.70    3.60
   0  -5   3  301.87   18.70
   0  -5  -3  289.47   19.80
   0  -5   3  260.37   18.70
   0  -5   3  315.27   18.80
   0  -5   3  296.87   18.80
   0  -5  -3  312.77   19.80
   0  -5  -3  316.97   19.90
   0  -5  -3  318.87   19.80
   0  -5  -3  300.07   19.70
   0   5   3  276.57   18.70
   0   5   3  290.07   19.10
   0   5  -3  335.97   19.70
   0   5  -3  293.67   19.80
   0   5   3  314.57   18.80
   0   5  -3  304.07   19.80
   0   5  -3  340.57   19.80
   0   5   3  308.37   18.70
  -1  -5  -3   77.79    5.50
  -1  -5  -3   79.69    5.10
  -1  -5  -3   80.99    5.50
  -1  -5  -3   73.69    5.30
   1  -5   3   64.69    4.80
   1  -5   3   66.49    4.90
   1  -5   3   78.29    4.90
   1  -5   3   65.89    4.90
  -1  -5  -3   61.29    5.30
  -1   5  -3   74.49    5.50
  -1   5  -3   69.99    5.30
  -1   5  -3   77.19    5.40
   1   5   3   76.59    5.00
  -1   5  -3   75.99    5.20
   1   5   3   71.59    4.70
  -1   5  -3   79.09    5.50
   1   5   3   63.49    5.30
  -1   5  -3   76.29    5.30
  -1   5  -3   62.89    5.00
  -1   5  -3   75.79    5.00
  -2  -5  -3   75.59    5.70
  -2  -5  -3   73.49    5.40
  -2  -5  -3   73.59    6.90
   2  -5   3   84.89    5.60
  -2  -5  -3   77.39    5.90
   2  -5   3   70.79    5.50
  -2  -5  -3   75.89    5.90
   2  -5   3   82.59    5.50
   2   5   3   63.19    6.10
  -2   5  -3   71.19    5.40
  -2   5  -3   79.89    5.80
   2   5   3   80.39    5.70
  -2   5  -3   75.59    5.40
  -2   5  -3   79.69    5.90
  -2   5  -3   78.39    5.60
  -2   5  -3   76.69    5.80
  -2   5  -3   76.39    5.90
  -3  -5  -3   -0.60    1.80
   3  -5   3    0.80    1.30
  -3  -5  -3    2.10    3.00
   3  -5   3    0.90    1.60
  -3  -5  -3   -0.20    1.80
   3  -5   3   -2.40    2.30
  -3   5  -3    1.00    1.70
  -3   5  -3    2.20    1.60
  -3   5  -3    1.60    1.60
  -3   5  -3   -0.80    1.40
   3   5   3    3.10    2.10
  -4  -5  -3    4.40    2.20
  -4  -5  -3    1.10    3.90
   4  -5   3    1.50    2.00
  -4   5  -3    4.20    2.60
  -4   5  -3    8.10    2.40
  -4   5  -3    1.50    2.40
  -4   5  -3    6.10    3.00
   4  -6  -3   -0.80    2.40
  -4  -6   3   -0.20    3.20
  -4   6   3   -1.00    2.30
  -4   6   3    0.20    2.30
   4   6  -3   -2.40    2.60
  -4   6   3   -0.70    2.50
  -3  -6   3  167.68   10.90
   3  -6  -3  160.08    9.80
  -3  -6   3  135.89   11.20
   3  -6  -3  127.99   10.30
  -3  -6   3  120.59   10.80
  -3  -6   3  141.19   10.50
  -3   6   3  162.68   10.60
  -3   6   3  143.39   10.80
  -3   6   3  141.59   10.70
  -3   6   3  151.28   11.10
   3   6  -3  146.59    9.90
  -3   6   3  150.58   10.60
   2  -6  -3   26.40    2.40
  -2  -6   3   25.60    3.00
  -2  -6   3   29.50    3.60
  -2  -6   3   29.70    3.40
  -2  -6   3   21.00    4.20
   2  -6  -3   24.50    2.60
   2  -6  -3   27.90    3.00
  -2  -6   3   20.90    3.80
  -2   6   3   28.30    3.40
  -2   6   3   21.90    3.50
  -2   6   3   27.10    2.80
  -2   6   3   30.30    3.20
  -2   6   3   32.00    3.90
  -2   6   3   26.30    2.60
  -2   6   3   26.90    3.30
   2   6  -3   21.40    2.90
   2   6  -3   26.40    2.60
   1  -6  -3   12.40    2.40
  -1  -6   3   14.00    2.50
  -1  -6   3   13.10    2.00
   1  -6  -3   14.20    2.10
  -1  -6   3   17.10    2.90
   1  -6  -3   16.10    1.90
  -1  -6   3   18.10    3.30
   1  -6  -3   16.10    1.70
  -1  -6   3   18.40    2.20
  -1  -6   3   17.40    2.00
  -1   6   3   19.90    2.10
  -1   6   3   18.00    1.90
  -1   6   3   22.20    2.50
  -1   6   3   12.90    2.30
   1   6  -3   13.40    1.80
  -1   6   3   16.00    3.00
  -1   6   3   18.90    2.70
   0  -6   3   34.20    3.00
   0  -6  -3   24.20    2.50
   0  -6   3   32.70    2.70
   0  -6  -3   25.80    2.60
   0  -6  -3   26.40    2.20
   0  -6   3   36.30    2.90
   0  -6  -3   24.80    2.50
   0  -6   3   34.50    2.80
   0  -6  -3   27.50    2.30
   0   6  -3   28.80    2.40
   0   6  -3   27.10    2.30
   0   6   3   31.30    3.30
   0   6   3   36.10    2.80
   0   6  -3   24.40    2.40
   0   6   3   37.40    3.00
   0   6  -3   26.90    2.70
   0   6   3   30.30    3.20
   1  -6   3   65.19    4.80
   1  -6   3   64.69    4.60
  -1  -6  -3   67.19    4.90
  -1  -6  -3   59.69    4.90
  -1  -6  -3   57.09    4.70
   1  -6   3   60.49    4.70
  -1  -6  -3   63.29    4.50
   1  -6   3   67.29    4.60
   1   6   3   62.49    4.50
  -1   6  -3   64.49    4.70
  -1   6  -3   69.89    4.90
  -1   6  -3   54.09    4.40
   1   6   3   62.79    4.70
  -1   6  -3   58.49    4.70
  -1   6  -3   59.09    4.50
  -1   6  -3   61.09    4.30
  -1   6  -3   65.29    4.90
  -2  -6  -3    7.90    2.10
  -2  -6  -3    9.70    2.00
   2  -6   3   17.40    2.20
  -2  -6  -3   10.10    1.90
   2  -6   3   15.20    2.50
   2  -6   3   13.40    2.20
  -2   6  -3   10.70    1.90
   2   6   3   12.60    2.40
  -2   6  -3   12.40    2.60
  -2   6  -3   12.10    2.00
  -2   6  -3   14.70    2.00
  -2   6  -3    8.40    1.70
  -2   6  -3    9.80    1.80
   2   6   3    9.90    2.90
  -3  -6  -3   33.50    4.40
  -3  -6  -3   36.20    4.70
   3  -6   3   36.00    4.00
   3  -6   3   35.30    3.60
  -3   6  -3   40.10    4.50
  -3   6  -3   38.00    4.60
   3   6   3   26.90    4.10
  -3   6  -3   37.40    4.70
  -3   6  -3   46.60    5.00
  -4  -6  -3    5.40    2.20
   4  -6   3    5.30    2.10
  -4   6  -3    4.00    2.90
  -4   6  -3    1.80    2.90
  -4   6  -3    1.30    2.40
  -4  -7   3    2.30    3.80
   4  -7  -3   -0.40    1.70
  -4   7   3    2.20    2.50
  -4   7   3    1.90    2.70
   4   7  -3   -2.90    2.40
  -4   7   3    0.20    2.70
   3  -7  -3    1.00    1.80
  -3  -7   3   -0.30    2.30
  -3  -7   3    0.70    2.00
   3  -7  -3   -3.20    1.90
  -3  -7   3   -0.20    3.20
  -3  -7   3    2.40    2.50
   3  -7  -3    0.80    1.20
  -3   7   3   -1.80    2.50
  -3   7   3    1.70    1.90
  -3   7   3   -0.30    1.90
   3   7  -3   -0.40    1.50
  -3   7   3    3.00    2.30
   3   7  -3   -0.60    1.90
  -2  -7   3  139.69    9.90
   2  -7  -3  200.68   12.10
   2  -7  -3  184.48   11.80
  -2  -7   3  126.39   10.80
  -2  -7   3  148.09    9.80
  -2  -7   3  134.69   10.50
  -2   7   3  128.59    9.90
  -2   7   3  147.29    9.70
  -2   7   3  156.38   10.00
   2   7  -3  147.99   12.60
  -2   7   3  146.59   10.20
   2   7  -3  174.68   11.70
  -1  -7   3  132.19    8.90
   1  -7  -3  159.38   10.10
   1  -7  -3  157.28   10.10
   1  -7  -3  147.69    9.90
  -1  -7   3  126.39    9.80
  -1  -7   3  143.09    9.00
  -1  -7   3  128.99    8.80
  -1  -7   3  122.49    8.80
   1  -7  -3  144.49    9.90
   1   7  -3  143.89   10.20
  -1   7   3  132.29    8.70
  -1   7   3  125.29    9.00
  -1   7   3  131.19    9.20
   1   7  -3  152.28   10.00
  -1   7   3  127.39    9.50
  -1   7   3  127.99    9.00
  -1   7   3  134.59    8.80
   0  -7  -3   18.00    1.90
   0  -7  -3   15.40    1.70
   0  -7  -3   14.60    2.00
   0  -7   3   19.90    2.30
   0  -7   3   15.70    1.90
   0  -7  -3   14.50    2.40
   0  -7   3   17.60    2.40
   0  -7   3   17.70    2.10
   0  -7  -3   21.10    2.30
   0  -7  -3   19.20    2.30
   0   7   3   20.40    2.80
   0   7  -3   21.50    2.20
   0   7   3   15.30    2.70
   0   7  -3   16.60    2.70
   0   7  -3   18.80    1.90
   0   7   3   18.10    2.00
   0   7  -3   19.80    2.10
  -1  -7  -3  265.77   17.70
  -1  -7  -3  269.17   17.70
   1  -7   3  270.57   18.20
  -1  -7  -3  260.97   17.70
   1  -7   3  294.97   18.20
   1  -7   3  290.47   18.20
  -1  -7  -3  268.27   17.30
   1   7   3  278.57   18.20
  -1   7  -3  256.97   17.30
  -1   7  -3  259.07   17.60
   1   7   3  275.27   17.90
  -1   7  -3  268.27   17.40
  -1   7  -3  284.37   17.60
  -1   7  -3  283.17   17.30
  -1   7  -3  284.37   17.60
  -1   7  -3  272.07   17.60
   2  -7   3   66.59    4.90
   2  -7   3   54.89    5.00
   2  -7   3   62.99    4.80
  -2  -7  -3   66.29    5.80
  -2   7  -3   65.59    5.70
  -2   7  -3   64.59    5.70
  -2   7  -3   70.89    5.60
   2   7   3   54.39    6.30
  -2   7  -3   65.49    5.40
  -2   7  -3   62.29    4.90
  -3  -7  -3   17.40    3.10
   3  -7   3   31.40    3.60
   3  -7   3   31.30    4.30
  -3  -7  -3   21.80    4.30
  -3   7  -3   26.10    4.20
  -3   7  -3   29.10    4.30
  -3   7  -3   30.30    4.10
   3   7   3   22.70    4.10
   4  -7   3    3.50    3.00
   4  -7   3    3.30    1.50
  -4  -7  -3    2.50    2.40
  -4   7  -3   -4.70    2.90
  -4   7  -3    1.10    2.50
  -4   7  -3   -2.50    2.90
   4  -8  -3    0.20    2.00
  -4  -8   3   -3.80    4.80
   4  -8  -3    1.10    1.80
  -4   8   3    7.50    3.30
  -4   8   3    3.20    3.00
  -4   8   3    0.70    2.60
  -3  -8   3    0.50    2.50
  -3  -8   3    4.50    4.10
   3  -8  -3    1.70    2.10
   3  -8  -3    1.40    1.20
   3   8  -3    2.50    2.10
  -3   8   3    1.40    2.20
  -3   8   3    3.40    2.40
   3   8  -3    2.10    1.80
  -3   8   3    3.50    2.30
  -2  -8   3  156.08   11.00
  -2  -8   3  158.78   11.30
   2  -8  -3  190.78   12.50
   2  -8  -3  194.68   12.60
  -2  -8   3  132.59   12.40
   2  -8  -3  201.08   12.30
  -2   8   3  172.28   11.30
  -2   8   3  149.09   10.80
   2   8  -3  155.28   12.70
  -2   8   3  177.58   11.20
  -2   8   3  155.78   11.50
   2   8  -3  188.08   12.30
  -2   8   3  168.48   10.80
  -1  -8   3    4.30    1.30
   1  -8  -3    4.30    1.30
   1  -8  -3    6.20    1.50
   1  -8  -3    8.20    1.60
  -1  -8   3    2.80    1.50
   1  -8  -3    6.20    1.20
  -1  -8   3    5.70    1.50
  -1  -8   3    3.80    1.40
  -1   8   3    3.90    1.20
   1   8  -3    5.80    1.10
  -1   8   3    4.80    1.00
   1   8  -3    7.40    1.50
  -1   8   3    4.40    1.80
   1   8  -3    5.50    1.50
  -1   8   3    1.50    1.40
  -1   8   3    3.70    1.50
   0  -8  -3   74.39    5.20
   0  -8   3   77.59    5.40
   0  -8  -3   72.19    5.30
   0  -8  -3   61.09    5.30
   0  -8  -3   57.99    4.70
   0  -8   3   69.69    4.90
   0  -8   3   68.89    5.10
   0  -8  -3   67.29    4.90
   0  -8  -3   70.09    5.00
   0  -8   3   71.49    5.20
   0   8   3   73.79    5.30
   0   8  -3   66.79    4.90
   0   8  -3   68.19    5.10
   0   8   3   67.99    5.90
   0   8   3   63.79    5.60
   0   8   3   70.29    5.10
   0   8  -3   80.79    5.10
   0   8  -3   67.49    5.60
  -1  -8  -3   34.70    3.40
  -1  -8  -3   31.60    3.80
   1  -8   3   29.00    3.50
  -1  -8  -3   40.10    4.00
   1  -8   3   34.80    3.20
   1  -8   3   34.00    3.20
  -1  -8  -3   42.40    3.90
   1   8   3   34.10    3.10
  -1   8  -3   34.60    4.60
   1   8   3   34.70    3.30
  -1   8  -3   38.70    3.50
  -1   8  -3   33.80    3.80
  -1   8  -3   46.60    4.20
  -1   8  -3   39.40    3.20
  -1   8  -3   37.20    3.40
  -1   8  -3   43.60    3.80
   1   8   3   36.10    4.10
  -2  -8  -3   59.19    5.70
   2  -8   3   76.69    5.60
   2  -8   3   59.99    5.80
   2  -8   3   75.89    5.60
  -2  -8  -3   53.89    5.80
  -2  -8  -3   53.99    5.80
  -2   8  -3   67.39    5.50
  -2   8  -3   64.99    5.60
  -2   8  -3   62.39    5.90
  -2   8  -3   65.49    5.40
   2   8   3   66.69    5.80
  -2   8  -3   61.79    4.80
  -3  -8  -3    2.40    2.90
   3  -8   3    6.10    1.90
   3   8   3    5.70    2.40
  -3   8  -3    7.70    2.80
  -3   8  -3    6.30    2.60
  -3   8  -3    7.00    2.60
  -3  -9   3    2.90    5.00
  -3  -9   3    5.30    2.90
   3  -9  -3    0.10    1.40
  -3   9   3    1.60    2.90
   3   9  -3   -2.50    1.80
   3   9  -3    1.70    2.20
  -3   9   3   -0.10    2.50
  -3   9   3    2.70    2.20
  -2  -9   3    5.20    2.30
   2  -9  -3    9.50    2.20
   2  -9  -3    7.90    1.80
   2  -9  -3   11.50    2.10
  -2  -9   3   15.60    2.90
  -2   9   3    9.40    1.90
   2   9  -3    3.80    1.60
  -2   9   3    7.90    1.60
  -2   9   3    8.50    2.20
  -2   9   3    9.20    2.40
   2   9  -3    5.50    2.00
  -1  -9   3   78.29    6.50
   1  -9  -3  101.29    6.40
   1  -9  -3   82.99    6.70
   1  -9  -3   74.59    6.60
   1  -9  -3   98.59    6.70
   1  -9  -3   99.69    6.80
  -1  -9   3   82.29    6.50
  -1  -9   3   81.29    6.30
  -1  -9   3   86.19    6.40
  -1   9   3   81.19    6.20
   1   9  -3   92.99    6.40
  -1   9   3   68.79    8.60
   1   9  -3   85.49    6.60
  -1   9   3   84.39    6.60
  -1   9   3   90.79    6.00
   1   9  -3   76.99    6.60
   0  -9  -3    6.40    1.60
   0  -9  -3    6.80    1.80
   0  -9   3    6.00    1.70
   0  -9  -3    4.60    1.90
   0  -9   3    5.70    1.10
   0  -9  -3    5.20    1.50
   0  -9   3    5.90    1.50
   0  -9   3    7.80    1.60
   0   9  -3    7.20    1.80
   0   9   3    5.00    1.90
   0   9  -3    3.70    1.30
   0   9   3    8.70    1.60
   0   9   3    6.20    2.10
   0   9   3    6.40    1.30
  -1  -9  -3   12.50    2.50
   1  -9   3   13.80    2.50
   1  -9   3   18.30    2.30
  -1  -9  -3   14.90    2.90
   1  -9   3   17.60    2.60
   1  -9   3   20.10    2.70
  -1  -9  -3   14.20    2.70
  -1   9  -3   14.40    2.60
   1   9   3   16.40    2.80
  -1   9  -3   14.70    2.50
  -1   9  -3   14.60    2.30
   1   9   3   15.60    2.60
  -1   9  -3   15.70    2.90
  -1   9  -3   10.90    2.10
   2  -9   3    4.10    1.40
  -2  -9  -3    0.30    2.20
   2  -9   3    2.60    1.60
  -2  -9  -3    1.30    2.30
  -2  -9  -3    1.30    2.20
   2  -9   3    1.20    2.30
  -2   9  -3    1.90    2.20
  -2   9  -3    2.30    2.10
  -2   9  -3    1.10    1.30
  -2   9  -3    2.00    1.80
  -2   9  -3   -0.90    3.00
   2   9   3    1.70    1.80
   3  -9   3    1.20    2.80
  -3  -9  -3    3.90    3.70
  -3   9  -3    5.40    3.60
   3   9   3    3.40    2.70
  -3   9  -3    0.40    3.20
  -3   9  -3    0.00    3.60
  -3 -10   3    1.30    3.10
   3 -10  -3   -0.30    1.30
  -3  10   3    0.60    2.60
   3  10  -3    1.40    2.40
  -3  10   3    0.60    2.20
   3  10  -3    3.60    2.30
  -2 -10   3    9.60    2.60
   2 -10  -3   10.40    2.80
  -2 -10   3   11.20    2.50
   2  10  -3    7.70    2.30
  -2  10   3   13.90    2.60
  -2  10   3   18.20    2.80
   2  10  -3   14.80    2.70
  -2  10   3   10.70    2.10
  -2  10   3   14.20    2.90
   1 -10  -3   17.00    3.10
   1 -10  -3   14.30    2.40
  -1 -10   3   18.00    3.10
   1 -10  -3   18.60    3.30
   1 -10  -3   16.70    3.20
  -1 -10   3   12.00    2.50
  -1 -10   3    9.80    2.20
  -1  10   3   15.30    2.70
   1  10  -3   12.50    2.60
  -1  10   3   16.00    2.70
   1  10  -3   14.60    2.90
  -1  10   3   14.70    2.50
   1  10  -3   17.30    2.50
  -1  10   3   17.10    3.30
   0 -10   3    3.60    1.80
   0 -10   3    1.60    1.40
   0 -10  -3    2.10    1.20
   0 -10  -3    1.30    1.50
   0 -10   3    2.10    1.80
   0 -10  -3    0.60    1.80
   0  10  -3    4.30    1.20
   0  10   3    1.80    2.20
   0  10  -3    0.10    1.50
   0  10  -3    1.40    1.40
   0  10   3    0.50    1.30
   0  10   3    0.70    1.30
   0  10  -3    0.30    1.70
  -1 -10  -3    4.40    1.70
   1 -10   3    4.70    2.10
   1 -10   3    2.40    1.70
   1 -10   3    5.90    1.50
  -1 -10  -3    3.40    2.10
   1 -10   3    2.20    1.50
  -1 -10  -3    1.30    2.20
   1  10   3    5.10    1.60
  -1  10  -3    3.30    1.90
   1  10   3    4.20    1.80
   1  10   3   -2.00    2.70
  -1  10  -3    4.50    1.30
  -1  10  -3    3.90    1.70
   2 -10   3    0.50    1.30
  -2 -10  -3    1.10    2.50
   2 -10   3    2.10    1.60
  -2 -10  -3    1.10    2.10
   2 -10   3   -0.20    3.00
  -2 -10  -3   -2.70    2.60
  -2  10  -3    2.80    1.40
  -2  10  -3   -0.60    2.40
  -2  10  -3   -0.50    2.00
   2  10   3    1.00    1.80
  -2  10  -3    5.40    2.80
   3 -10   3    2.60    2.00
   3 -10   3    2.60    1.50
  -3 -10  -3   -0.40    2.50
   3  10   3   -1.20    2.90
  -3  10  -3   -3.00    2.90
  -3  10  -3   -0.80    2.60
   2 -11  -3   -0.50    1.80
   2 -11  -3    0.70    2.90
  -2 -11   3    2.80    3.10
  -2  11   3    0.90    2.50
  -2  11   3   -4.30    4.60
   2  11  -3    2.70    2.30
   2  11  -3    0.50    2.70
   1 -11  -3    3.60    1.50
   1 -11  -3    6.70    2.10
   1 -11  -3    2.70    2.40
  -1 -11   3    2.30    2.10
  -1 -11   3    1.30    2.00
  -1 -11   3    0.10    2.00
  -1  11   3    5.70    2.20
   1  11  -3    3.30    1.70
   1  11  -3    8.00    2.40
  -1  11   3    2.10    3.00
  -1  11   3    3.90    1.40
   1  11  -3    3.80    1.50
  -1  11   3    1.20    1.60
   0 -11  -3   57.59    5.30
   0 -11  -3   70.59    6.00
   0 -11   3   66.39    5.90
   0 -11  -3   65.99    6.00
   0 -11   3   69.89    5.70
   0 -11   3   67.19    5.60
   0  11  -3   67.49    5.10
   0  11   3   58.89    5.40
   0  11   3   63.79    5.80
   0  11   3   69.69    5.40
   0  11  -3   63.99    5.90
   1 -11   3   14.40    2.90
  -1 -11  -3   10.50    2.60
  -1 -11  -3   12.50    2.70
   1 -11   3   12.90    2.50
   1  11   3   15.00    2.30
  -1  11  -3   18.40    3.80
  -1  11  -3   13.40    2.80
   1  11   3   11.20    2.30
  -2 -11  -3   -0.80    2.00
  -2 -11  -3    0.00    2.80
   2 -11   3    2.30    1.60
   2 -11   3   -1.90    1.80
  -2  11  -3    4.90    2.40
  -2  11  -3   -0.70    1.50
   2  11   3   -1.80    2.10
   2 -12  -3    7.50    2.50
   2 -12  -3    2.40    3.10
  -2 -12   3    4.10    2.70
   2 -12  -3    4.20    1.80
   2  12  -3    3.50    1.90
   2  12  -3    3.50    1.90
  -2  12   3   10.50    2.60
  -2  12   3    7.50    4.10
  -1 -12   3    5.80    2.50
  -1 -12   3   -2.80    1.80
  -1 -12   3    3.80    2.50
   1 -12  -3    1.60    1.80
   1 -12  -3    1.00    2.70
   1 -12  -3    2.00    2.30
   1  12  -3    0.30    1.90
  -1  12   3    0.20    2.70
  -1  12   3   -0.60    1.80
   1  12  -3    1.50    1.70
  -1  12   3    2.60    1.80
   1  12  -3    4.60    2.70
   0 -12  -3   39.70    4.50
   0 -12  -3   30.80    4.60
   0 -12   3   37.80    4.70
   0 -12  -3   27.00    4.70
   0 -12   3   31.80    4.20
   0 -12   3   36.20    4.20
   0  12  -3   32.10    4.80
   0  12   3   28.40    3.80
   0  12  -3   32.70    4.30
   0  12  -3   42.70    3.70
   0  12   3   32.80    3.80
   0  12   3   34.40    4.30
   1 -12   3    6.20    3.30
   1 -12   3    8.80    2.30
   1 -12   3    6.60    2.20
  -1 -12  -3    6.70    2.80
  -1  12  -3    8.10    2.70
   1  12   3    8.20    2.60
   1  12   3    5.80    2.00
  -1  12  -3   13.20    3.00
  -1  12  -3    9.10    1.70
  -2 -12  -3    4.90    3.40
  -2 -12  -3    0.70    2.00
   2 -12   3    2.60    1.90
   2 -12   3    1.70    2.60
  -2  12  -3    1.60    2.70
  -2  12  -3    0.40    1.90
   2  12   3    1.90    2.50
   1 -13  -3    0.90    2.40
  -1 -13   3    0.30    1.80
   1 -13  -3   -3.10    2.40
   1 -13  -3    1.70    3.90
  -1 -13   3    2.80    4.80
  -1 -13   3    3.00    2.50
  -1  13   3   -2.40    2.20
   1  13  -3    0.70    1.80
  -1  13   3    1.50    1.80
   1  13  -3   -1.80    4.60
   1  13  -3   -1.90    2.00
  -1  13   3    0.50    2.40
   0 -13   3    7.10    2.90
   0 -13  -3    0.90    2.40
   0 -13  -3    6.60    2.70
   0 -13   3    1.60    1.80
   0 -13  -3   -1.30    2.60
   0 -13   3   -2.50    2.40
   0  13  -3    0.20    2.40
   0  13   3    3.70    2.20
   0  13  -3   -2.20    3.00
   0  13   3    2.80    2.00
   0  13  -3    2.10    1.60
   0  13   3    1.00    1.80
  -5   0   4    8.40    2.90
  -5   0   4    5.60    4.50
  -4   0   4   17.20    3.20
   4   0  -4   20.70    3.40
  -4   0   4   20.80    4.50
  -4   0   4   28.60    4.90
  -4   0   4   25.90    3.80
  -4   0   4   23.80    3.50
  -3   0   4  230.78   14.40
  -3   0   4  198.88   14.20
  -3   0   4  231.28   14.10
  -3   0   4  203.28   14.20
   3   0  -4  310.17   19.80
  -3   0   4  178.28   13.60
  -2   0   4  239.08   15.60
  -2   0   4  239.58   15.10
  -2   0   4  244.28   15.60
  -2   0   4  236.38   15.50
   2   0  -4  270.57   18.20
   2   0  -4  309.77   18.40
  -2   0   4  222.58   15.40
  -2   0   4  235.18   15.10
  -2   0   4  240.68   15.40
  -1   0   4 1979.90  128.39
  -1   0   4 1913.51  128.29
   1   0  -4 2094.29  132.19
  -1   0   4 2202.28  128.59
  -1   0   4 2070.19  128.49
  -1   0   4 2129.79  128.49
   1   0  -4 2151.78  132.29
   0   0  -4  351.06   22.20
   0   0  -4  318.07   22.20
   0   0  -4  377.56   22.30
   0   0   4  323.47   21.40
   0   0  -4  371.36   22.20
   0   0   4  359.36   21.50
  -1   0  -4  333.07   21.90
  -1   0  -4  360.96   22.10
  -1   0  -4  377.96   22.20
  -1   0  -4  346.97   22.10
  -1   0  -4  336.27   22.10
  -1   0  -4  371.46   22.20
  -1   0  -4  327.77   22.10
  -1   0  -4  347.17   22.00
   1   0   4  364.16   22.80
  -2   0  -4  126.49    8.40
   2   0   4  155.58   11.00
  -2   0  -4  123.69    8.70
  -2   0  -4  127.29    8.80
  -2   0  -4  125.59    8.50
  -2   0  -4  127.09    8.70
   2   0   4  154.28    9.90
  -2   0  -4  130.19    9.00
  -2   0  -4  132.79    8.60
  -3   0  -4    3.70    1.30
  -3   0  -4    7.80    2.10
   3   0   4    5.40    1.70
  -3   0  -4    1.70    1.70
  -3   0  -4    2.70    1.50
   3   0   4    9.00    2.40
  -3   0  -4    1.80    2.40
  -3   0  -4    3.30    1.90
  -4   0  -4    0.00    2.40
  -4   0  -4   -2.40    2.70
  -4   0  -4    4.70    2.00
  -4   0  -4    2.00    1.70
  -5  -1   4    2.00    4.30
  -5  -1   4   -2.50    2.50
  -5  -1   4    2.30    3.90
  -5   1   4    4.00    2.60
  -5   1   4    5.00    3.10
  -5   1   4   -3.20    4.60
  -4  -1   4    6.10    2.50
  -4  -1   4    3.70    2.80
  -4  -1   4   -0.50    1.80
  -4  -1   4    0.10    2.40
  -4  -1   4    3.40    2.70
   4  -1  -4    3.20    2.70
  -4  -1   4    4.70    2.00
  -4   1   4    0.40    2.50
  -4   1   4    1.30    2.00
  -4   1   4    7.10    2.20
  -4   1   4    3.40    2.00
   4   1  -4    6.20    3.10
  -4   1   4    6.30    3.20
  -4   1   4    2.00    2.20
   3  -1  -4   52.19    4.10
  -3  -1   4   34.30    3.60
  -3  -1   4   31.80    4.10
  -3  -1   4   33.90    3.90
  -3   1   4   36.40    4.10
   3   1  -4   48.60    4.10
  -3   1   4   26.70    3.60
  -3   1   4   41.20    4.20
  -3   1   4   26.40    3.90
  -2  -1   4   50.59    4.30
  -2  -1   4   54.99    4.00
  -2  -1   4   60.79    4.00
  -2  -1   4   45.10    4.50
  -2  -1   4   59.19    4.70
  -2  -1   4   50.09    4.50
  -2  -1   4   62.69    4.80
   2  -1  -4   82.99    5.60
  -2   1   4   55.29    3.90
  -2   1   4   61.39    4.40
  -2   1   4   52.99    4.60
  -2   1   4   51.19    4.60
   2   1  -4   87.69    5.70
  -2   1   4   50.69    4.40
  -2   1   4   57.79    4.60
  -1  -1   4  274.97   17.70
   1  -1  -4  319.57   20.40
  -1  -1   4  265.17   17.70
  -1  -1   4  315.27   18.00
  -1  -1   4  281.47   18.00
  -1  -1   4  280.87   17.90
   1  -1  -4  323.07   20.40
  -1   1   4  271.07   17.90
  -1   1   4  271.77   17.70
  -1   1   4  306.87   18.10
   1   1  -4  331.07   20.40
  -1   1   4  284.57   17.90
  -1   1   4  279.47   17.90
  -1   1   4  265.67   17.80
   0  -1   4   21.00    1.80
   0  -1  -4   15.10    1.30
   0  -1   4   21.70    2.00
   0  -1  -4   13.80    1.30
   0  -1   4   21.60    1.80
   0  -1  -4   13.20    1.50
   0  -1  -4   11.90    1.70
   0   1   4   21.00    1.80
   0   1  -4   14.30    1.40
   0   1  -4   10.20    1.70
   0   1   4   19.10    1.80
   0   1  -4   13.10    1.30
   0   1  -4   13.10    1.40
  -1  -1  -4   92.59    6.50
  -1  -1  -4  100.99    6.40
  -1  -1  -4  104.29    6.60
   1  -1   4  122.19    8.20
  -1  -1  -4   85.09    6.40
  -1  -1  -4   93.39    6.30
   1  -1   4  126.29    8.20
  -1  -1  -4  103.49    6.60
   1   1   4  141.49    8.80
  -1   1  -4   96.49    6.60
  -1   1  -4   96.39    6.60
  -1   1  -4   93.59    6.30
  -1   1  -4   96.69    6.50
  -1   1  -4   96.99    6.30
   1   1   4  120.89    8.20
  -1   1  -4   96.79    6.50
  -1   1  -4  108.79    6.70
  -2  -1  -4  245.68   15.80
   2  -1   4  236.38   14.30
   2  -1   4  211.58   14.30
  -2  -1  -4  237.98   15.80
  -2  -1  -4  243.78   15.60
  -2  -1  -4  255.87   16.00
  -2  -1  -4  234.58   15.70
  -2  -1  -4  235.28   15.70
  -2  -1  -4  262.77   16.10
   2   1   4  223.08   15.10
  -2   1  -4  279.57   15.80
  -2   1  -4  247.38   15.90
  -2   1  -4  232.58   15.70
  -2   1  -4  245.48   15.80
  -2   1  -4  229.68   15.70
  -2   1  -4  220.68   15.50
  -2   1  -4  241.28   15.90
  -3  -1  -4    3.90    1.80
  -3  -1  -4   -0.30    2.30
  -3  -1  -4    0.50    1.20
  -3  -1  -4    1.40    1.70
  -3  -1  -4    2.90    1.60
   3  -1   4   -0.50    2.10
   3  -1   4    0.80    1.50
  -3   1  -4    1.00    1.50
   3   1   4    3.60    2.40
  -3   1  -4    1.20    1.60
  -3   1  -4    1.00    1.30
  -3   1  -4   -1.30    1.60
  -3   1  -4   -1.70    1.30
  -4  -1  -4    8.90    2.80
  -4  -1  -4    9.40    2.10
  -4   1  -4   12.30    2.30
  -4   1  -4   12.60    3.00
  -4   1  -4   10.60    2.10
  -4  -2   4    4.50    2.50
  -4  -2   4    6.50    2.00
  -4  -2   4   -0.40    2.80
  -4  -2   4    0.80    2.60
   4  -2  -4    5.50    2.20
  -4  -2   4    0.50    2.00
   4  -2  -4    4.90    2.60
  -4   2   4   -0.20    2.00
  -4   2   4    3.40    2.30
  -4   2   4    2.50    2.80
  -4   2   4    4.50    2.30
  -4   2   4    1.20    2.80
  -3  -2   4   23.20    3.60
  -3  -2   4   15.80    3.50
   3  -2  -4   26.60    2.60
  -3  -2   4   17.70    3.10
  -3   2   4   21.90    3.60
  -3   2   4   21.30    3.60
  -3   2   4   27.20    3.40
  -3   2   4   24.90    3.20
  -2  -2   4   29.80    3.40
  -2  -2   4   35.90    3.10
   2  -2  -4   39.20    3.10
  -2  -2   4   34.50    3.60
  -2  -2   4   29.10    3.70
  -2  -2   4   33.50    2.80
  -2  -2   4   33.00    2.60
  -2  -2   4   32.60    2.80
  -2   2   4   30.30    2.80
  -2   2   4   39.70    3.70
   2   2  -4   40.00    3.10
  -2   2   4   29.50    3.10
  -2   2   4   30.70    3.50
  -2   2   4   33.30    3.40
   2   2  -4   49.20    3.50
  -2   2   4   32.50    3.10
  -1  -2   4   72.49    5.30
   1  -2  -4   88.99    5.60
  -1  -2   4   73.59    4.70
  -1  -2   4   80.29    5.50
  -1  -2   4   61.79    4.80
  -1  -2   4   71.59    4.80
   1  -2  -4   75.59    5.60
  -1  -2   4   72.39    5.00
  -1  -2   4   76.79    5.00
  -1   2   4   71.99    5.20
  -1   2   4   67.99    4.70
   1   2  -4   88.19    5.60
  -1   2   4   72.79    5.00
  -1   2   4   74.09    5.10
  -1   2   4   67.49    4.90
   1   2  -4   91.49    5.80
  -1   2   4   66.19    5.00
   0  -2  -4  476.15   34.10
   0  -2   4  442.76   28.40
   0  -2  -4  516.65   34.20
   0  -2  -4  547.25   34.10
   0  -2   4  442.36   28.30
   0  -2  -4  554.24   34.10
   0  -2   4  456.35   28.30
   0   2   4  433.06   28.20
   0   2  -4  573.34   34.20
   0   2  -4  617.44   34.20
   0   2  -4  572.14   34.10
   0   2   4  483.75   28.40
   0   2  -4  505.65   34.10
   1  -2   4   -0.20    0.60
  -1  -2  -4    1.20    1.20
  -1  -2  -4    1.10    0.90
  -1  -2  -4    2.40    0.70
   1  -2   4    1.00    0.60
  -1  -2  -4    3.00    1.10
  -1  -2  -4    0.20    1.60
  -1   2  -4    3.70    1.70
  -1   2  -4    1.60    0.90
  -1   2  -4    2.30    0.90
  -1   2  -4    3.30    1.20
  -1   2  -4    1.70    0.80
   1   2   4    0.50    1.10
  -1   2  -4    2.00    0.50
  -1   2  -4    0.70    0.70
  -1   2  -4    2.00    0.90
   1   2   4   -1.00    0.70
  -2  -2  -4    2.90    2.50
  -2  -2  -4    4.00    1.40
   2  -2   4    7.20    1.20
  -2  -2  -4    8.10    1.70
  -2   2  -4    3.90    1.30
  -2   2  -4    4.40    1.50
  -2   2  -4    5.40    1.00
  -2   2  -4    4.70    1.30
  -2   2  -4    4.20    1.20
  -2   2  -4    5.10    1.20
  -3  -2  -4    4.40    2.30
  -3  -2  -4    8.90    2.00
   3  -2   4    5.00    1.50
   3  -2   4    5.90    2.00
  -3  -2  -4    4.00    2.20
  -3  -2  -4    3.30    2.50
  -3  -2  -4    5.90    2.20
  -3   2  -4    8.90    1.80
  -3   2  -4    7.20    2.00
   3   2   4    8.30    2.60
  -3   2  -4    8.90    2.60
  -3   2  -4    7.30    1.50
  -4  -2  -4    5.00    3.10
  -4  -2  -4   -0.50    1.90
  -4  -2  -4    1.10    1.70
   4   2   4   -0.50    3.20
  -4   2  -4    2.00    2.50
  -4   2  -4   -2.30    1.80
  -4   2  -4    3.20    2.20
  -4   2  -4   -0.30    1.50
   4  -3  -4    8.50    2.20
  -4  -3   4    3.00    3.20
  -4  -3   4    2.40    2.80
  -4  -3   4    2.90    2.20
  -4  -3   4    3.80    2.80
  -4  -3   4    7.20    2.00
  -4   3   4    8.30    3.00
  -4   3   4    3.80    2.20
  -4   3   4    6.30    2.60
   4   3  -4    5.90    2.30
  -4   3   4    8.30    2.40
  -3  -3   4   20.00    4.10
  -3  -3   4   24.00    3.40
  -3  -3   4   27.40    3.80
  -3  -3   4   25.70    3.20
   3  -3  -4   25.50    2.60
  -3  -3   4   25.60    3.20
  -3   3   4   27.00    3.50
  -3   3   4   21.70    3.70
   3   3  -4   26.00    3.30
  -3   3   4   18.50    3.20
  -3   3   4   26.60    3.70
  -3   3   4   25.30    3.30
  -2  -3   4    9.90    2.30
   2  -3  -4   17.80    1.80
  -2  -3   4   14.80    2.10
  -2  -3   4   10.20    2.10
  -2  -3   4   12.90    2.00
  -2  -3   4   16.20    2.20
   2  -3  -4   14.30    2.00
  -2  -3   4   12.30    2.50
  -2   3   4   15.40    1.90
  -2   3   4    9.80    2.00
  -2   3   4   14.80    2.30
   2   3  -4   20.30    2.20
  -2   3   4   12.70    2.60
  -2   3   4   17.70    2.70
  -1  -3   4  673.03   41.30
  -1  -3   4  670.03   41.10
  -1  -3   4  618.34   41.00
  -1  -3   4  705.13   41.20
  -1  -3   4  683.53   41.40
  -1  -3   4  602.14   41.10
   1  -3  -4  684.03   46.00
  -1   3   4  665.83   41.20
   1   3  -4  724.03   45.90
  -1   3   4  643.54   41.00
  -1   3   4  620.24   41.10
  -1   3   4  679.33   41.30
   1   3  -4  797.22   46.10
  -1   3   4  657.03   41.20
   0  -3   4  162.78   10.30
   0  -3  -4  175.98   11.00
   0  -3   4  149.88   10.30
   0  -3   4  156.28   10.30
   0  -3  -4  160.48   11.10
   0  -3  -4  168.38   11.10
   0  -3  -4  172.18   11.00
   0   3  -4  158.58   11.00
   0   3   4  180.98   10.70
   0   3  -4  183.88   11.00
   0   3   4  163.78   10.30
   0   3   4  149.88   10.20
   0   3  -4  183.58   11.00
   0   3  -4  181.98   11.10
   0   3  -4  168.88   11.00
   1  -3   4  287.77   18.50
  -1  -3  -4  321.07   19.50
   1  -3   4  288.07   18.30
  -1  -3  -4  317.17   19.80
  -1  -3  -4  328.57   19.80
   1  -3   4  281.07   18.40
  -1  -3  -4  310.27   19.80
  -1  -3  -4  323.97   19.90
  -1   3  -4  282.07   19.60
  -1   3  -4  283.17   19.60
  -1   3  -4  325.07   19.90
  -1   3  -4  329.17   19.60
  -1   3  -4  302.87   19.70
   1   3   4  299.97   18.40
  -1   3  -4  303.07   19.80
  -1   3  -4  287.87   20.20
  -1   3  -4  328.17   19.90
   1   3   4  293.57   18.90
  -2  -3  -4   69.39    5.70
  -2  -3  -4   74.99    5.70
   2  -3   4   80.59    5.40
   2  -3   4   70.59    5.60
  -2  -3  -4   75.39    5.30
  -2  -3  -4   77.69    5.80
  -2  -3  -4   84.59    6.50
  -2   3  -4   80.39    5.70
   2   3   4   70.69    6.30
  -2   3  -4   76.19    5.50
  -2   3  -4   73.99    5.70
  -2   3  -4   76.99    5.50
  -2   3  -4   76.69    5.20
  -2   3  -4   70.99    5.60
  -2   3  -4   65.69    5.30
  -2   3  -4   70.79    5.10
   2   3   4   84.39    5.50
   3  -3   4    4.10    1.50
  -3  -3  -4    3.00    1.80
   3  -3   4    2.60    1.70
  -3  -3  -4    5.00    1.60
  -3  -3  -4   -0.10    2.20
  -3  -3  -4    2.20    2.70
   3   3   4    5.10    2.80
  -3   3  -4    0.90    1.80
  -3   3  -4    5.40    1.50
  -3   3  -4    3.80    1.70
  -3   3  -4    2.40    1.80
  -3   3  -4    4.20    1.50
   4  -3   4    1.30    1.60
  -4  -3  -4    1.10    2.00
  -4  -3  -4    0.00    2.10
  -4   3  -4    4.40    3.00
  -4   3  -4    0.10    1.90
  -4   3  -4    0.00    1.70
  -4   3  -4    3.90    2.50
  -4   3  -4   -0.10    2.00
   4  -4  -4   49.20    4.60
  -4  -4   4   26.10    4.80
  -4  -4   4   20.80    4.10
  -4  -4   4   33.30    4.50
  -4  -4   4   19.00    4.80
  -4   4   4   27.40    5.00
   4   4  -4   41.60    4.90
  -4   4   4   37.50    4.40
  -4   4   4   30.80    4.70
  -3  -4   4   70.49    6.90
  -3  -4   4   89.79    6.80
  -3  -4   4   96.49    6.70
  -3  -4   4   81.29    6.40
   3  -4  -4   90.69    6.40
  -3  -4   4   67.09    7.00
   3   4  -4   86.09    6.80
  -3   4   4   96.89    6.70
  -3   4   4   83.29    6.90
  -3   4   4   86.79    6.80
  -3   4   4   76.39    7.00
   3   4  -4   98.09    6.90
  -3   4   4   81.69    7.00
  -2  -4   4  259.47   16.50
  -2  -4   4  245.78   16.20
  -2  -4   4  222.88   16.50
   2  -4  -4  245.48   16.10
  -2  -4   4  243.78   16.10
   2  -4  -4  239.68   16.10
  -2  -4   4  267.47   16.10
   2   4  -4  257.47   16.30
  -2   4   4  257.87   16.30
  -2   4   4  246.78   16.40
   2   4  -4  268.37   16.20
  -2   4   4  249.28   16.50
  -2   4   4  248.68   16.10
  -2   4   4  244.48   16.30
  -2   4   4  258.17   16.60
  -1  -4   4  296.57   18.60
  -1  -4   4  264.87   18.30
  -1  -4   4  291.57   18.60
  -1  -4   4  297.27   18.40
   1  -4  -4  287.27   18.90
  -1  -4   4  290.17   18.20
   1  -4  -4  286.67   19.00
  -1  -4   4  298.77   18.30
  -1   4   4  309.77   18.60
  -1   4   4  264.47   18.20
  -1   4   4  288.37   18.40
  -1   4   4  289.67   18.30
  -1   4   4  286.37   18.50
   1   4  -4  325.77   19.00
  -1   4   4  272.67   18.40
   1   4  -4  299.57   18.90
   1   4  -4  296.17   18.90
   0  -4   4  213.78   14.60
   0  -4   4  229.68   14.70
   0  -4   4  247.78   14.70
   0  -4  -4  275.57   17.30
   0  -4   4  223.68   14.60
   0  -4   4  224.28   14.60
   0  -4  -4  281.87   17.20
   0  -4   4  219.18   14.60
   0  -4  -4  278.47   17.30
   0  -4  -4  271.07   17.20
   0   4  -4  279.47   17.20
   0   4   4  248.78   14.70
   0   4   4  218.28   14.60
   0   4  -4  245.38   17.20
   0   4   4  232.18   14.90
   0   4  -4  278.47   17.30
   0   4   4  238.48   14.50
   0   4  -4  259.77   17.10
  -1  -4  -4  640.34   38.70
   1  -4   4  618.14   38.70
  -1  -4  -4  522.45   38.60
  -1  -4  -4  617.54   38.70
   1  -4   4  602.74   38.60
   1  -4   4  641.74   38.80
  -1  -4  -4  605.94   38.70
  -1  -4  -4  633.34   38.50
  -1   4  -4  591.14   38.70
  -1   4  -4  669.33   38.70
   1   4   4  590.04   38.50
  -1   4  -4  603.04   38.50
  -1   4  -4  618.74   38.70
  -1   4  -4  622.14   38.50
   1   4   4  597.44   39.10
   1   4   4  646.94   38.70
  -1   4  -4  623.04   38.60
  -2  -4  -4   21.10    4.20
  -2  -4  -4   17.30    3.00
  -2  -4  -4   16.80    2.20
  -2  -4  -4   12.80    2.70
  -2  -4  -4   13.20    2.80
   2  -4   4   16.20    2.50
   2  -4   4   20.40    2.20
  -2   4  -4   17.40    2.50
  -2   4  -4   16.50    2.60
   2   4   4   20.90    3.40
  -2   4  -4   11.80    2.40
  -2   4  -4   16.00    2.10
  -2   4  -4   12.10    2.30
  -2   4  -4   11.90    2.50
   2   4   4   22.30    2.60
  -2   4  -4   12.30    1.90
  -2   4  -4   14.40    1.90
  -3  -4  -4    8.80    2.30
   3  -4   4   14.40    2.90
   3  -4   4   15.10    3.00
  -3  -4  -4    4.20    2.70
  -3  -4  -4    6.50    3.20
  -3  -4  -4    7.60    2.10
  -3   4  -4   12.30    2.20
  -3   4  -4   13.10    2.40
  -3   4  -4    8.70    2.20
   4  -4   4    0.90    1.70
  -4  -4  -4   -0.80    2.30
  -4  -4  -4    3.60    2.00
  -4   4  -4    5.20    2.80
  -4   4  -4    8.20    3.20
  -4   4  -4    2.50    2.10
  -4   4  -4    3.30    2.20
  -4  -5   4    6.40    3.50
  -4  -5   4    5.30    3.20
  -4  -5   4    7.40    2.40
   4  -5  -4    6.30    2.10
  -4  -5   4   11.70    3.40
   4   5  -4    8.50    2.40
  -4   5   4    4.40    3.10
  -4   5   4    5.10    2.70
   3  -5  -4   12.30    2.30
  -3  -5   4    4.50    2.10
  -3  -5   4    3.10    2.50
  -3  -5   4    6.90    2.50
  -3  -5   4    8.60    2.80
  -3   5   4    7.50    2.40
  -3   5   4    9.10    2.10
  -3   5   4    9.20    2.70
  -3   5   4    6.30    2.00
   3   5  -4   10.40    1.90
  -3   5   4    6.50    2.10
  -2  -5   4   39.20    3.90
  -2  -5   4   42.30    3.70
  -2  -5   4   39.20    4.60
  -2  -5   4   43.80    4.60
   2  -5  -4   46.30    3.70
   2  -5  -4   49.00    3.80
   2   5  -4   48.90    3.90
  -2   5   4   43.50    3.90
  -2   5   4   43.70    4.10
  -2   5   4   51.59    4.00
   2   5  -4   49.10    3.90
  -2   5   4   37.50    4.40
  -2   5   4   44.80    3.60
  -2   5   4   44.80    4.30
  -1  -5   4   44.60    3.40
  -1  -5   4   43.50    3.80
  -1  -5   4   43.90    4.20
  -1  -5   4   46.70    3.50
  -1  -5   4   39.10    3.50
   1  -5  -4   31.30    2.70
  -1  -5   4   43.50    4.10
  -1  -5   4   42.40    3.50
   1  -5  -4   29.60    2.50
  -1   5   4   41.30    3.40
  -1   5   4   44.80    3.70
   1   5  -4   32.40    2.60
  -1   5   4   45.00    3.30
  -1   5   4   45.80    4.00
   1   5  -4   33.30    2.70
   1   5  -4   32.00    2.80
  -1   5   4   44.20    3.60
  -1   5   4   46.20    3.90
   0  -5   4  755.32   47.90
   0  -5   4  789.42   47.80
   0  -5  -4  881.01   56.29
   0  -5   4  720.93   47.90
   0  -5  -4  915.21   56.29
   0  -5  -4  888.61   56.39
   0  -5   4  836.12   48.00
   0  -5   4  744.63   47.80
   0  -5  -4  872.31   56.19
   0  -5   4  784.12   47.90
   0  -5  -4  940.61   56.19
   0   5  -4  932.51   56.19
   0   5  -4  908.51   56.19
   0   5   4  816.32   48.00
   0   5  -4  880.11   56.29
   0   5   4  771.32   47.80
   0   5   4  731.43   48.20
   0   5  -4  863.71   56.19
   0   5  -4  905.11   56.29
   0   5   4  687.73   47.80
  -1  -5  -4   57.79    4.60
  -1  -5  -4   48.50    4.60
  -1  -5  -4   60.79    4.50
  -1  -5  -4   56.69    4.60
   1  -5   4   76.69    5.00
  -1  -5  -4   58.69    4.20
   1  -5   4   73.19    5.10
   1  -5   4   74.09    5.10
  -1   5  -4   55.79    4.20
  -1   5  -4   58.39    4.50
  -1   5  -4   60.79    4.60
  -1   5  -4   65.09    4.60
   1   5   4   65.79    4.90
  -1   5  -4   51.99    5.30
   1   5   4   65.29    5.60
  -1   5  -4   58.59    4.70
   1   5   4   74.59    5.10
  -1   5  -4   62.69    4.10
  -2  -5  -4   44.30    4.40
  -2  -5  -4   49.00    4.30
   2  -5   4   50.09    3.80
  -2  -5  -4   34.00    3.50
  -2  -5  -4   32.90    4.10
   2  -5   4   42.00    4.00
  -2  -5  -4   37.20    3.90
  -2   5  -4   47.90    4.10
  -2   5  -4   44.30    3.90
  -2   5  -4   48.00    3.80
   2   5   4   45.30    4.00
  -2   5  -4   38.60    3.90
  -2   5  -4   46.60    3.50
  -2   5  -4   38.80    3.40
  -2   5  -4   41.20    4.00
   3  -5   4    5.50    1.80
  -3  -5  -4    3.60    2.20
   3  -5   4    4.70    1.60
  -3  -5  -4    3.10    2.00
   3  -5   4    3.40    2.00
  -3   5  -4    8.60    2.20
  -3   5  -4   11.20    2.30
   3   5   4    3.80    3.40
   3   5   4    5.70    2.40
  -3   5  -4    7.70    2.10
  -3   5  -4    6.10    2.00
  -4  -5  -4   10.90    3.40
   4  -5   4   10.40    2.10
  -4   5  -4   11.70    3.60
  -4   5  -4   11.20    3.20
  -4   5  -4   11.90    3.50
   4  -6  -4    0.90    1.80
  -4  -6   4    2.70    4.80
  -4   6   4   -1.20    3.10
   4   6  -4   -2.10    2.70
  -4   6   4    6.70    3.50
   3  -6  -4   44.00    3.50
  -3  -6   4   34.50    4.50
  -3  -6   4   26.20    5.20
  -3  -6   4   29.80    4.40
   3  -6  -4   32.70    4.40
  -3   6   4   37.00    4.30
  -3   6   4   39.90    4.20
   3   6  -4   40.20    3.90
  -3   6   4   27.10    4.40
  -3   6   4   34.40    4.90
  -2  -6   4   11.40    2.40
  -2  -6   4   11.90    2.50
   2  -6  -4   20.80    2.20
  -2  -6   4   18.10    3.00
   2  -6  -4   21.20    2.60
  -2  -6   4   12.40    2.20
   2  -6  -4   20.30    2.90
  -2  -6   4   11.10    2.80
  -2   6   4   19.50    3.30
   2   6  -4   22.00    2.70
  -2   6   4   10.70    2.10
  -2   6   4   14.40    2.60
  -2   6   4   13.00    2.20
  -2   6   4   13.40    2.70
   2   6  -4   18.80    2.40
   1  -6  -4  234.58   15.80
  -1  -6   4  211.28   14.00
  -1  -6   4  215.58   14.50
   1  -6  -4  241.18   15.90
  -1  -6   4  210.68   14.10
   1  -6  -4  261.57   16.00
  -1  -6   4  216.58   14.10
  -1  -6   4  207.28   14.10
  -1  -6   4  204.78   14.50
   1   6  -4  253.77   15.80
  -1   6   4  233.98   14.40
  -1   6   4  222.68   14.60
  -1   6   4  218.18   14.20
   1   6  -4  243.48   15.80
  -1   6   4  213.78   14.00
  -1   6   4  227.48   14.10
  -1   6   4  223.98   14.20
   0  -6   4   45.40    3.30
   0  -6  -4   31.30    3.20
   0  -6  -4   35.00    2.80
   0  -6   4   46.40    3.40
   0  -6  -4   34.10    3.00
   0  -6  -4   33.80    2.80
   0  -6  -4   34.40    2.60
   0  -6   4   41.40    3.30
   0  -6   4   42.80    3.50
   0   6  -4   29.70    3.10
   0   6  -4   36.10    2.90
   0   6   4   38.70    3.60
   0   6  -4   37.40    2.70
   0   6   4   39.10    3.80
   0   6   4   42.30    3.20
   0   6  -4   35.90    2.90
   0   6   4   42.60    3.50
   1  -6   4   37.50    3.40
  -1  -6  -4   38.70    4.00
   1  -6   4   38.50    3.30
  -1  -6  -4   48.20    3.60
  -1  -6  -4   47.90    3.90
   1  -6   4   35.70    3.20
  -1  -6  -4   45.00    4.10
   1  -6   4   38.20    3.10
  -1  -6  -4   45.50    4.10
  -1   6  -4   41.80    4.20
  -1   6  -4   44.10    3.40
  -1   6  -4   42.90    3.50
  -1   6  -4   45.20    3.70
  -1   6  -4   46.00    3.80
   1   6   4   34.60    3.00
   1   6   4   38.50    3.30
  -1   6  -4   42.50    4.00
  -1   6  -4   49.99    4.00
   2  -6   4   20.90    2.90
   2  -6   4   22.90    2.60
  -2  -6  -4   19.00    2.90
  -2  -6  -4   15.70    3.40
   2  -6   4   23.80    2.60
  -2  -6  -4   22.50    3.20
  -2  -6  -4   23.10    3.40
  -2   6  -4   28.10    2.60
  -2   6  -4   22.90    3.20
   2   6   4   15.80    3.50
  -2   6  -4   23.80    3.10
   2   6   4   18.80    2.80
  -2   6  -4   20.70    2.50
  -2   6  -4   22.20    3.20
  -2   6  -4   18.00    3.10
  -2   6  -4   18.60    3.10
  -3  -6  -4   31.80    4.30
   3  -6   4   28.10    4.90
   3  -6   4   37.40    3.80
  -3  -6  -4   31.00    4.50
   3  -6   4   43.30    4.30
  -3   6  -4   34.70    4.30
  -3   6  -4   38.60    4.60
  -3   6  -4   29.00    4.60
   3   6   4   30.80    4.50
  -3   6  -4   27.60    4.10
   4  -6   4   -0.10    1.90
  -4  -6  -4   -3.30    2.00
  -4   6  -4    0.00    2.50
  -4   6  -4    2.60    2.40
  -4   6  -4   -0.40    3.20
  -4   6  -4    0.80    2.60
   4  -7  -4    1.00    1.90
  -4  -7   4    2.20    4.10
   4  -7  -4    3.70    2.00
   4   7  -4   -3.90    2.50
  -4   7   4   -1.90    2.30
  -4   7   4    3.40    2.70
   3  -7  -4    8.00    1.50
  -3  -7   4    5.00    2.80
  -3  -7   4    4.00    2.80
  -3  -7   4    3.20    3.50
  -3  -7   4    7.60    2.40
   3   7  -4    4.60    1.70
  -3   7   4    4.50    2.60
  -3   7   4    5.80    2.30
   2  -7  -4   54.59    3.90
  -2  -7   4   33.60    4.90
  -2  -7   4   33.40    5.40
   2  -7  -4   46.60    4.10
   2  -7  -4   46.20    4.70
  -2  -7   4   42.10    4.20
  -2   7   4   38.90    4.70
  -2   7   4   31.80    4.10
  -2   7   4   45.20    4.20
  -2   7   4   39.40    3.70
  -2   7   4   45.20    4.20
   2   7  -4   49.40    4.10
   2   7  -4   44.00    4.40
  -1  -7   4   38.60    3.90
  -1  -7   4   38.40    5.30
  -1  -7   4   44.20    4.60
   1  -7  -4   61.09    4.50
  -1  -7   4   48.50    4.30
  -1  -7   4   44.70    3.80
   1  -7  -4   57.19    4.40
  -1  -7   4   40.90    3.80
   1  -7  -4   55.49    4.20
  -1  -7   4   50.99    4.00
  -1  -7   4   46.70    3.90
  -1   7   4   48.00    4.50
   1   7  -4   57.49    4.50
  -1   7   4   47.80    3.80
  -1   7   4   46.60    3.60
  -1   7   4   40.70    4.00
   1   7  -4   59.89    4.30
  -1   7   4   49.90    4.20
  -1   7   4   46.20    4.70
   1   7  -4   44.80    4.70
   1   7  -4   53.19    4.10
   0  -7  -4   10.50    1.90
   0  -7   4   10.00    2.00
   0  -7  -4    6.70    1.60
   0  -7   4    8.70    1.70
   0  -7   4   10.70    2.10
   0  -7  -4    5.70    1.10
   0  -7  -4    7.60    1.30
   0  -7  -4    8.90    1.50
   0   7  -4    5.00    1.10
   0   7   4   10.70    1.90
   0   7   4    9.90    1.70
   0   7  -4    7.50    1.20
   0   7  -4    7.30    1.60
   0   7   4    9.20    2.60
   0   7  -4    5.60    1.20
   1  -7   4   29.20    2.80
  -1  -7  -4   26.30    3.40
  -1  -7  -4   26.90    3.20
   1  -7   4   28.90    2.80
   1  -7   4   25.50    3.30
   1  -7   4   28.00    3.00
  -1  -7  -4   28.90    2.90
  -1  -7  -4   31.00    3.50
  -1   7  -4   27.60    2.80
  -1   7  -4   24.10    3.20
  -1   7  -4   27.90    3.50
  -1   7  -4   32.30    3.20
   1   7   4   25.80    2.80
  -1   7  -4   29.00    2.50
   1   7   4   30.20    2.90
  -1   7  -4   27.30    3.10
  -2  -7  -4    9.30    2.50
  -2  -7  -4   15.50    3.20
   2  -7   4   11.60    2.30
  -2  -7  -4   11.00    2.40
  -2   7  -4   15.80    3.00
  -2   7  -4   10.30    2.10
   2   7   4    8.30    1.80
  -2   7  -4   13.60    2.50
   2   7   4    4.20    2.90
  -2   7  -4   11.40    2.40
  -2   7  -4    9.50    2.20
  -2   7  -4   13.50    2.50
   3  -7   4    9.50    1.90
  -3  -7  -4    9.80    2.80
  -3  -7  -4   10.30    2.80
  -3   7  -4   13.10    2.80
  -3   7  -4    9.80    2.50
  -3   7  -4   13.10    2.90
  -3   7  -4   16.90    2.90
   3   7   4    9.70    2.70
  -4  -7  -4    0.80    2.20
   4  -7   4    0.20    2.40
   4  -7   4    4.80    1.70
  -4   7  -4    1.70    3.20
  -4   7  -4    3.00    2.50
  -4   7  -4    7.40    3.10
  -4   8   4   -1.80    3.00
  -3  -8   4    3.40    3.00
  -3  -8   4    0.50    3.80
   3  -8  -4    5.70    1.50
  -3   8   4    6.50    2.40
  -3   8   4    7.30    2.40
   3   8  -4    4.20    1.70
   3   8  -4    1.30    2.30
  -3   8   4    5.80    2.80
  -2  -8   4   54.99    4.80
  -2  -8   4   39.70    6.80
   2  -8  -4   62.89    5.00
  -2  -8   4   49.80    5.20
   2  -8  -4   55.59    5.10
   2  -8  -4   67.79    4.70
   2   8  -4   57.99    4.70
  -2   8   4   55.49    5.80
  -2   8   4   62.19    5.10
  -2   8   4   44.20    5.00
  -2   8   4   50.89    4.90
  -2   8   4   49.40    4.60
   2   8  -4   57.29    5.40
   1  -8  -4  137.59    9.30
  -1  -8   4  125.49    9.60
  -1  -8   4  122.29    8.90
   1  -8  -4  151.08    9.50
   1  -8  -4  148.79    9.50
   1  -8  -4  125.59    9.40
  -1  -8   4  133.59    9.10
  -1  -8   4  125.29    9.10
  -1   8   4  130.99    9.30
  -1   8   4  119.39    9.70
  -1   8   4  139.79    8.80
   1   8  -4  148.09    9.30
  -1   8   4  140.49    9.00
   1   8  -4  115.29    9.40
  -1   8   4  130.39   10.10
   0  -8   4   36.70    3.50
   0  -8   4   34.00    3.30
   0  -8   4   36.80    3.30
   0  -8  -4   33.70    3.30
   0  -8  -4   30.50    3.60
   0  -8   4   43.30    3.80
   0  -8  -4   33.50    2.90
   0  -8  -4   35.30    3.10
   0  -8   4   40.90    3.00
   0   8  -4   31.90    3.10
   0   8   4   37.60    3.20
   0   8   4   39.20    3.50
   0   8  -4   30.20    2.80
   0   8  -4   35.90    3.10
   0   8  -4   35.50    3.80
   0   8   4   35.10    4.00
  -1  -8  -4    5.70    1.70
   1  -8   4    4.00    1.30
   1  -8   4    5.00    1.60
   1  -8   4    4.70    2.20
  -1   8  -4    4.20    1.30
  -1   8  -4    4.50    1.80
  -1   8  -4    6.50    1.80
   1   8   4    6.90    1.40
  -1   8  -4    5.00    1.10
   1   8   4    3.90    1.80
  -1   8  -4    2.50    1.40
   1   8   4    4.60    1.50
   2  -8   4   56.89    4.70
   2  -8   4   58.89    4.80
   2  -8   4   49.00    4.90
  -2  -8  -4   44.00    5.30
  -2  -8  -4   56.69    5.40
  -2  -8  -4   43.70    5.20
  -2   8  -4   62.79    5.40
   2   8   4   44.30    4.80
  -2   8  -4   52.59    5.00
  -2   8  -4   51.59    6.90
  -2   8  -4   48.70    4.20
  -2   8  -4   48.10    5.00
   3  -8   4   -0.20    1.60
  -3  -8  -4    4.10    3.00
  -3  -8  -4   -1.10    2.20
  -3   8  -4    2.60    2.40
  -3   8  -4    1.60    2.40
  -3   8  -4    2.50    2.40
   3   8   4    5.10    2.60
   3  -9  -4    6.10    1.50
  -3  -9   4    6.80    5.20
  -3  -9   4   -2.60    5.80
  -3   9   4    5.30    2.30
   3   9  -4    2.20    1.80
   3   9  -4    3.10    2.40
  -3   9   4    0.50    2.40
  -3   9   4    1.60    4.20
   2  -9  -4    5.60    1.80
  -2  -9   4    4.10    2.00
  -2  -9   4    4.60    2.30
   2  -9  -4    5.40    1.50
  -2  -9   4    0.10    4.70
  -2   9   4    7.80    1.80
   2   9  -4    7.30    2.00
   2   9  -4    2.40    1.40
  -2   9   4    3.70    2.10
  -2   9   4    5.80    2.20
   1  -9  -4   54.09    4.40
  -1  -9   4   51.89    4.50
   1  -9  -4   49.60    4.60
  -1  -9   4   46.70    4.30
  -1  -9   4   39.00    4.80
   1  -9  -4   59.59    4.40
  -1  -9   4   39.00    4.10
   1  -9  -4   52.49    4.90
   1  -9  -4   60.09    4.90
  -1   9   4   50.69    4.00
  -1   9   4   44.70    7.30
   1   9  -4   44.90    4.60
  -1   9   4   42.80    4.20
  -1   9   4   44.10    4.50
   1   9  -4   60.49    4.30
  -1   9   4   45.30    4.10
   0  -9  -4   30.90    3.20
   0  -9  -4   33.40    3.70
   0  -9   4   36.30    3.50
   0  -9   4   32.50    3.30
   0  -9   4   33.50    3.30
   0  -9  -4   33.10    3.80
   0  -9   4   31.80    2.90
   0   9  -4   31.70    3.10
   0   9   4   32.30    3.40
   0   9   4   29.10    4.20
   0   9   4   30.70    3.20
   0   9  -4   34.50    3.90
   0   9  -4   40.90    3.50
  -1  -9  -4    1.90    1.80
   1  -9   4    4.50    1.50
   1  -9   4    3.30    2.00
   1  -9   4    3.30    1.40
  -1  -9  -4    1.80    1.50
  -1  -9  -4    5.40    2.10
  -1  -9  -4    3.40    1.80
   1   9   4    2.70    1.60
  -1   9  -4    5.70    2.10
  -1   9  -4    5.30    1.40
  -1   9  -4    6.20    1.90
   1   9   4    2.90    1.60
   1   9   4    2.40    2.10
  -1   9  -4    5.40    1.30
  -2  -9  -4   59.09    6.20
   2  -9   4   79.29    5.80
   2  -9   4   63.29    6.30
   2  -9   4   70.69    6.00
  -2  -9  -4   60.39    6.00
  -2  -9  -4   56.19    6.20
  -2   9  -4   69.29    6.00
   2   9   4   52.69    5.70
  -2   9  -4   59.09    6.90
  -2   9  -4   65.69    6.00
  -2   9  -4   65.69    5.10
  -3  -9  -4   -1.60    2.00
   3  -9   4    1.00    1.80
   3  -9   4    2.60    1.70
  -3   9  -4    2.50    2.60
   3   9   4    0.30    2.90
  -3   9  -4    1.90    2.40
  -3   9  -4    0.60    3.30
  -3 -10   4   -1.50    3.50
   3 -10  -4    3.10    1.60
   3 -10  -4    2.30    2.20
  -3  10   4    3.80    2.80
   3  10  -4    5.30    2.30
   3  10  -4    1.70    2.10
  -3  10   4   -0.90    2.20
   2 -10  -4    7.50    1.70
  -2 -10   4    6.00    2.50
   2 -10  -4    8.10    2.20
   2 -10  -4    6.00    2.10
  -2 -10   4    7.50    2.20
  -2  10   4    6.50    2.40
   2  10  -4    7.30    2.10
  -2  10   4    8.40    2.90
  -2  10   4    9.60    2.00
   1 -10  -4   33.30    3.80
   1 -10  -4   30.00    4.40
   1 -10  -4   34.30    3.50
  -1 -10   4   26.00    3.80
  -1 -10   4   29.30    3.80
  -1 -10   4   27.40    3.80
   1 -10  -4   43.80    4.20
  -1  10   4   32.50    4.10
  -1  10   4   31.10    3.40
   1  10  -4   38.50    4.30
  -1  10   4   26.00    5.10
   1  10  -4   37.90    3.60
  -1  10   4   31.50    3.30
   1  10  -4   29.80    3.70
   0 -10  -4    2.00    1.90
   0 -10   4    2.40    1.50
   0 -10   4    3.50    1.90
   0 -10  -4    5.40    1.90
   0 -10   4    2.90    2.00
   0 -10  -4    5.50    1.60
   0  10   4    1.90    2.50
   0  10   4    3.20    1.50
   0  10  -4    6.10    1.30
   0  10   4    3.00    1.60
   0  10  -4    5.20    1.80
   0  10  -4    2.50    1.60
   0  10  -4    2.10    1.70
  -1 -10  -4   60.39    5.60
   1 -10   4   58.59    5.30
   1 -10   4   66.39    4.70
  -1 -10  -4   50.69    5.70
   1 -10   4   65.09    5.20
   1 -10   4   50.49    5.30
   1  10   4   61.79    5.20
  -1  10  -4   57.09    5.30
  -1  10  -4   57.59    5.50
  -1  10  -4   62.69    6.30
  -1  10  -4   61.99    4.90
  -1  10  -4   49.00    4.50
   1  10   4   52.29    5.30
   2 -10   4    1.20    1.70
   2 -10   4    0.20    1.50
  -2 -10  -4    3.00    2.50
  -2 -10  -4   -1.10    2.10
  -2 -10  -4    0.70    2.70
   2 -10   4   -1.60    2.80
   2  10   4    1.80    2.20
  -2  10  -4    1.50    2.60
  -2  10  -4   -0.30    1.50
  -2  10  -4    4.20    2.20
   3 -10   4    8.60    2.40
   3 -10   4    5.10    1.50
  -3 -10  -4    0.50    2.60
  -3  10  -4   -2.70    3.00
   3  10   4    2.00    3.30
  -3  10  -4    6.40    3.00
  -2 -11   4    3.90    2.10
   2 -11  -4    1.50    2.30
   2 -11  -4    3.10    1.60
   2 -11  -4    1.20    2.30
  -2 -11   4   -1.50    2.70
  -2  11   4    2.20    3.30
  -2  11   4    1.70    2.00
  -2  11   4    2.80    2.30
   2  11  -4    4.00    1.80
   2  11  -4    7.10    2.10
  -1 -11   4   11.10    2.50
   1 -11  -4    3.70    1.50
   1 -11  -4    3.70    2.60
   1 -11  -4    8.30    2.30
  -1 -11   4    7.40    2.30
  -1 -11   4    3.70    2.30
   1  11  -4    4.40    1.90
  -1  11   4    8.30    1.90
   1  11  -4    3.90    1.50
  -1  11   4    8.40    2.40
  -1  11   4   11.00    1.90
   1  11  -4    6.40    2.30
   0 -11  -4    4.20    1.70
   0 -11   4    6.10    2.10
   0 -11  -4    3.30    2.20
   0 -11   4   10.00    2.40
   0 -11  -4    2.80    2.10
   0 -11   4    7.70    2.00
   0 -11  -4   12.00    2.20
   0  11   4    3.10    1.80
   0  11   4    5.10    2.10
   0  11   4    3.40    1.70
   0  11  -4    5.60    2.10
   0  11  -4    7.90    2.30
   0  11  -4    8.30    1.50
   0  11  -4   12.30    2.20
  -1 -11  -4    6.40    2.40
  -1 -11  -4    8.40    2.30
  -1 -11  -4    3.10    2.30
   1 -11   4    4.50    2.50
  -1  11  -4    4.70    1.60
  -1  11  -4    7.10    2.30
   1  11   4    1.90    2.30
  -1  11  -4    8.30    2.80
   1  11   4    2.30    1.80
   2 -11   4    3.40    2.10
  -2 -11  -4    2.70    2.70
  -2 -11  -4    4.40    3.40
   2 -11   4    4.00    1.80
  -2 -11  -4    0.80    2.10
  -2  11  -4    0.00    1.70
  -2  11  -4    4.70    2.60
   2  11   4    2.20    2.30
   2 -12  -4    1.20    1.60
   2 -12  -4    4.70    2.60
  -2 -12   4    1.40    2.70
   2 -12  -4   -1.50    4.10
   2  12  -4    1.30    1.70
   2  12  -4    7.70    4.40
  -2  12   4    4.20    2.30
   2  12  -4    3.90    2.10
  -1 -12   4    2.80    2.20
  -1 -12   4    1.80    2.20
   1 -12  -4   10.00    3.60
  -1 -12   4    2.00    2.70
   1 -12  -4    4.40    2.00
   1 -12  -4    5.20    2.20
   1  12  -4    2.20    2.00
   1  12  -4    5.50    2.60
  -1  12   4    5.30    2.30
  -1  12   4    2.80    1.80
   1  12  -4    2.50    1.50
   0 -12  -4   -0.80    2.50
   0 -12   4   -4.60    4.10
   0 -12  -4   -0.90    2.00
   0 -12  -4    5.40    3.50
   0 -12   4    3.30    2.40
   0 -12  -4    3.50    2.70
   0  12   4    0.90    3.00
   0  12  -4    2.40    4.30
   0  12   4    1.60    2.30
   0  12  -4    1.70    1.90
   0  12  -4    0.60    2.40
  -1 -12  -4    1.20    2.30
   1 -12   4    3.80    3.10
   1 -12   4    4.00    2.20
  -1 -12  -4    0.00    2.40
  -1 -12  -4    4.60    2.70
  -1  12  -4    3.30    1.60
  -1  12  -4    7.00    2.70
   1  12   4    3.20    2.00
   0 -13   4    0.80    1.60
   0 -13   4    4.20    3.00
   0 -13  -4   -3.20    2.40
   0 -13  -4    2.10    2.60
   0 -13  -4   -3.40    3.40
   0 -13   4    3.60    2.50
   0  13   4    0.30    2.30
   0  13   4    2.50    1.90
   0  13   4    2.40    2.40
   0  13  -4   -2.70    2.90
   0  13  -4    3.30    2.90
   0  13  -4    1.40    1.60
  -4   0   5    0.30    2.50
  -4   0   5   -0.50    1.80
   4   0  -5    0.30    2.50
  -4   0   5   -2.90    2.40
  -3   0   5    3.10    1.60
  -3   0   5    0.80    1.80
   3   0  -5   -0.10    1.20
  -3   0   5   -0.60    1.60
  -2   0   5   -0.90    1.30
   2   0  -5    0.30    0.80
  -2   0   5    0.50    1.10
  -2   0   5    1.80    1.20
  -2   0   5    0.90    0.90
  -2   0   5   -0.30    1.30
   2   0  -5    0.40    0.80
  -1   0   5    0.90    1.10
  -1   0   5    1.50    0.70
   1   0  -5    2.10    0.70
  -1   0   5    0.40    1.00
   1   0  -5    0.90    0.60
   0   0  -5   -0.60    0.70
   0   0  -5    0.30    0.60
   0   0   5    0.80    0.60
   0   0  -5    2.10    0.80
   0   0  -5   -0.90    0.50
   0   0  -5    1.60    0.60
   0   0   5    0.50    0.80
   0   0   5    0.90    1.00
   1   0   5    1.30    1.30
  -1   0  -5    1.60    1.00
   1   0   5    5.10    1.00
  -1   0  -5    0.70    0.70
  -1   0  -5    1.80    1.00
  -1   0  -5    3.10    0.70
  -1   0  -5    1.90    0.80
  -1   0  -5    4.40    1.30
  -2   0  -5    1.60    1.10
   2   0   5    2.20    0.80
  -2   0  -5   -0.50    1.40
  -2   0  -5   -1.30    1.10
  -2   0  -5    1.70    1.30
  -2   0  -5    2.10    1.20
   2   0   5    2.10    1.00
  -3   0  -5   -1.40    1.10
  -3   0  -5    1.70    1.80
  -3   0  -5   -0.90    1.20
  -3   0  -5    0.20    1.70
   3   0   5    3.00    1.60
   3   0   5    0.90    2.40
  -4   0  -5   -0.60    1.60
  -4   0  -5    0.80    1.60
  -4   0  -5    1.20    3.10
  -4   0  -5   -4.30    2.50
  -4  -1   5   13.70    3.00
  -4  -1   5   12.40    2.90
  -4  -1   5   15.90    3.40
  -4  -1   5   16.20    3.50
   4   1  -5   14.10    3.20
  -4   1   5    6.80    3.10
  -4   1   5   10.50    2.80
  -4   1   5    8.70    3.20
  -4   1   5   15.70    3.20
   3  -1  -5   38.60    3.40
  -3  -1   5   32.80    3.50
  -3  -1   5   23.20    4.20
  -3  -1   5   39.00    4.20
  -3  -1   5   33.20    4.10
  -3   1   5   34.30    3.60
  -3   1   5   34.50    4.00
  -3   1   5   29.00    4.00
  -3   1   5   25.10    4.00
   3   1  -5   34.50    3.50
  -2  -1   5  178.88   11.90
   2  -1  -5  237.98   14.90
  -2  -1   5  179.48   12.30
  -2  -1   5  178.38   12.20
  -2  -1   5  187.08   11.60
   2  -1  -5  225.78   15.10
  -2  -1   5  187.78   12.10
   2   1  -5  242.18   15.00
  -2   1   5  178.38   11.90
  -2   1   5  165.78   11.50
  -2   1   5  180.08   12.10
  -2   1   5  183.98   12.20
  -2   1   5  176.88   12.00
  -1  -1   5   78.29    5.30
  -1  -1   5   86.19    5.50
   1  -1  -5   77.19    5.10
  -1  -1   5   82.69    5.30
  -1  -1   5   83.89    5.80
   1  -1  -5   77.89    5.10
  -1  -1   5   77.99    5.70
  -1   1   5   76.89    5.50
  -1   1   5   72.89    5.40
  -1   1   5   80.69    5.60
   1   1  -5   74.89    5.30
  -1   1   5   76.19    5.60
   1   1  -5   67.79    5.00
  -1   1   5   81.89    5.90
  -1   1   5   81.29    5.30
   1   1  -5   86.19    5.10
   0  -1  -5  988.10   63.09
   0  -1   5  919.11   56.39
   0  -1   5  894.21   56.29
   0  -1  -5 1031.10   63.09
   0  -1   5  873.31   56.29
   0  -1  -5 1069.49   63.09
   0  -1  -5  941.81   63.09
   0  -1  -5 1044.80   63.09
   0  -1   5  903.61   56.29
   0   1  -5 1039.10   63.09
   0   1   5  923.41   56.29
   0   1   5  895.11   56.29
   0   1  -5  963.90   63.09
   0   1  -5  952.50   63.09
   0   1  -5  985.60   63.09
   0   1  -5 1089.99   63.09
   1  -1   5   82.09    5.30
   1  -1   5   81.49    5.40
  -1  -1  -5   79.69    4.90
  -1  -1  -5   80.19    5.30
  -1  -1  -5   76.49    5.40
  -1  -1  -5   76.09    5.40
  -1  -1  -5   72.89    5.00
  -1  -1  -5   72.59    5.20
  -1   1  -5   67.29    4.90
   1   1   5   82.79    5.30
  -1   1  -5   67.69    5.40
   1   1   5   74.59    5.30
  -1   1  -5   65.99    5.40
  -1   1  -5   73.79    4.90
  -1   1  -5   76.69    5.40
  -1   1  -5   68.29    5.00
   1   1   5   78.79    6.00
  -1   1  -5   75.59    5.50
  -2  -1  -5   53.79    4.40
   2  -1   5   63.29    4.60
  -2  -1  -5   58.69    4.60
  -2  -1  -5   56.89    4.80
  -2  -1  -5   51.89    4.40
   2  -1   5   62.49    4.40
  -2   1  -5   64.19    4.70
  -2   1  -5   50.69    4.30
  -2   1  -5   50.99    4.30
  -2   1  -5   56.49    4.50
   2   1   5   65.99    5.80
  -2   1  -5   54.49    4.50
  -3  -1  -5   25.20    3.20
  -3  -1  -5   29.20    3.30
  -3  -1  -5   16.00    3.60
  -3  -1  -5   25.60    3.90
   3  -1   5   14.20    2.90
   3   1   5   13.90    3.20
  -3   1  -5   21.50    3.10
  -3   1  -5   22.00    4.00
  -3   1  -5   21.70    3.70
  -3   1  -5   30.40    3.20
  -4  -1  -5    6.40    2.20
  -4  -1  -5    3.60    2.00
  -4   1  -5    6.60    3.00
  -4   1  -5    5.20    2.70
  -4   1  -5    4.70    2.00
  -4  -2   5   10.90    2.50
  -4  -2   5   12.90    2.60
   4  -2  -5   11.60    3.90
  -4  -2   5   13.10    3.40
  -4  -2   5   11.40    3.30
  -4  -2   5   20.10    4.50
  -4   2   5   10.90    2.80
  -4   2   5    9.70    3.00
  -4   2   5   18.80    3.60
  -3  -2   5   54.89    4.70
  -3  -2   5   43.70    5.10
   3  -2  -5   48.00    4.20
  -3  -2   5   47.50    4.90
   3  -2  -5   56.79    4.40
  -3   2   5   59.79    5.20
  -3   2   5   47.70    4.70
  -3   2   5   41.70    4.90
   3   2  -5   57.29    4.70
  -3   2   5   51.09    4.50
  -2  -2   5  412.36   27.00
  -2  -2   5  411.06   27.60
   2  -2  -5  520.85   33.70
  -2  -2   5  427.26   27.20
  -2  -2   5  404.96   27.60
   2  -2  -5  535.35   33.60
  -2  -2   5  431.96   27.40
  -2   2   5  446.76   27.60
  -2   2   5  457.75   27.50
  -2   2   5  417.56   27.30
   2   2  -5  564.04   33.90
  -2   2   5  463.35   27.60
   2   2  -5  521.65   33.70
  -2   2   5  426.26   27.30
  -1  -2   5  279.87   20.50
   1  -2  -5  370.16   24.10
  -1  -2   5  321.67   20.10
  -1  -2   5  315.77   19.80
  -1  -2   5  332.17   19.90
  -1  -2   5  322.57   20.30
   1  -2  -5  392.66   24.10
   1  -2  -5  343.37   24.00
  -1  -2   5  268.27   19.80
  -1   2   5  328.57   20.10
  -1   2   5  305.17   19.90
  -1   2   5  324.27   20.00
  -1   2   5  327.27   19.70
  -1   2   5  319.07   19.90
  -1   2   5  312.97   19.90
   1   2  -5  411.06   24.00
   1   2  -5  396.16   24.20
   0  -2   5 1875.51  130.89
   0  -2  -5 2595.84  147.09
   0  -2   5 2278.87  131.29
   0  -2  -5 2323.57  146.99
   0  -2  -5 2199.88  146.99
   0  -2   5 1983.00  130.89
   0  -2  -5 2225.68  147.09
   0  -2   5 1979.50  130.89
   0  -2  -5 2233.58  146.99
   0   2  -5 2263.97  146.99
   0   2   5 2184.18  130.89
   0   2  -5 2188.68  146.99
   0   2   5 2105.09  130.89
   0   2  -5 2388.76  147.09
   0   2  -5 2722.33  147.09
   0   2   5 2309.37  131.29
   0   2   5 2082.49  130.79
   0   2  -5 2456.35  146.99
  -1  -2  -5  130.39    8.50
  -1  -2  -5  132.29    8.70
  -1  -2  -5  135.19    8.30
   1  -2   5  129.09    8.40
  -1  -2  -5  116.29    8.40
  -1  -2  -5  128.29    8.60
   1  -2   5  121.99    8.40
  -1  -2  -5  132.99    8.60
  -1   2  -5  127.79    8.40
  -1   2  -5  127.29    8.70
  -1   2  -5  123.29    8.40
   1   2   5  129.49    9.00
  -1   2  -5  127.99    8.20
  -1   2  -5  127.29    8.50
  -1   2  -5  131.79    8.70
   1   2   5  134.29    8.40
  -1   2  -5  135.19    8.60
  -1   2  -5  131.79    8.60
  -2  -2  -5  348.67   21.50
  -2  -2  -5  309.97   21.30
   2  -2   5  358.36   21.70
  -2  -2  -5  354.26   21.70
  -2  -2  -5  321.37   21.50
   2  -2   5  320.57   21.70
  -2   2  -5  337.77   21.60
  -2   2  -5  326.87   21.40
   2   2   5  347.47   22.70
  -2   2  -5  334.17   21.20
  -2   2  -5  341.07   21.40
  -2   2  -5  319.87   21.50
  -2   2  -5  338.47   21.40
  -3  -2  -5   39.70    4.80
  -3  -2  -5   46.30    4.30
   3  -2   5   39.70    5.70
  -3   2  -5   43.50    4.50
  -3   2  -5   47.20    4.10
  -3   2  -5   39.80    4.40
  -3   2  -5   41.30    4.40
  -3   2  -5   41.30    4.00
  -4  -2  -5    0.40    3.20
  -4  -2  -5    1.00    1.70
  -4  -2  -5   -0.50    1.90
  -4   2  -5    2.70    1.90
  -4   2  -5    3.20    1.80
  -4   2  -5    2.40    2.20
  -4  -3   5    0.80    2.90
  -4  -3   5    0.70    2.50
  -4  -3   5    8.80    5.00
  -4  -3   5    2.30    2.20
   4  -3  -5    2.10    2.00
  -4  -3   5    5.40    3.30
  -4   3   5    3.90    3.10
  -4   3   5    2.10    2.40
  -4   3   5   -0.40    1.90
   4   3  -5    6.50    2.20
  -4   3   5    0.30    2.50
  -3  -3   5   67.29    7.20
  -3  -3   5   66.79    6.60
  -3  -3   5   78.59    6.20
   3  -3  -5   96.79    6.70
   3  -3  -5   87.49    6.50
  -3   3   5   77.49    6.30
  -3   3   5   88.59    6.30
   3   3  -5   94.39    6.90
  -3   3   5   69.09    6.60
  -2  -3   5  102.89    8.80
  -2  -3   5  115.69    7.80
  -2  -3   5  117.59    8.00
  -2  -3   5  114.69    8.30
   2  -3  -5  127.39    8.50
  -2  -3   5  115.49    7.80
  -2  -3   5  106.89    8.60
   2   3  -5  136.59    8.70
  -2   3   5  126.39    8.20
   2   3  -5  124.99    8.50
  -2   3   5  120.59    8.00
  -2   3   5  121.49    8.30
  -2   3   5  128.99    8.50
  -2   3   5  120.59    8.40
   1  -3  -5  136.39    9.10
  -1  -3   5  157.38    9.90
  -1  -3   5  134.19    9.50
   1  -3  -5  142.39    9.00
  -1  -3   5  144.29    9.50
   1  -3  -5  130.39    9.10
  -1  -3   5  143.89    9.90
  -1  -3   5  152.28    9.70
   1   3  -5  147.99    9.10
  -1   3   5  139.89    9.50
  -1   3   5  146.79    9.30
  -1   3   5  143.59    9.60
   1   3  -5  142.09    9.00
  -1   3   5  153.28    9.60
   0  -3  -5  423.46   28.40
   0  -3  -5  459.65   28.40
   0  -3   5  380.16   25.30
   0  -3  -5  439.36   28.50
   0  -3  -5  452.55   28.40
   0  -3   5  414.76   25.30
   0   3  -5  484.85   28.40
   0   3  -5  431.26   28.40
   0   3  -5  468.65   28.40
   0   3  -5  404.56   28.40
   0   3   5  419.26   25.30
   0   3   5  391.96   25.20
   0   3  -5  505.55   28.50
   1  -3   5   94.19    6.30
  -1  -3  -5  124.69    8.20
  -1  -3  -5  126.99    7.80
   1  -3   5   90.39    6.50
  -1  -3  -5  120.19    8.10
  -1  -3  -5  122.19    8.00
  -1  -3  -5  113.39    8.20
  -1  -3  -5  116.69    8.10
   1  -3   5   95.79    6.30
  -1   3  -5  120.59    8.20
  -1   3  -5  120.19    8.00
  -1   3  -5  117.19    8.20
  -1   3  -5  123.29    7.80
  -1   3  -5  124.19    7.90
   1   3   5   93.39    7.00
  -1   3  -5  110.99    7.90
  -1   3  -5  128.59    8.20
   1   3   5   98.19    6.40
  -1   3  -5  114.99    8.10
   2  -3   5  119.69    7.50
   2  -3   5  108.79    7.40
  -2  -3  -5   82.79    7.00
   2  -3   5  107.99    7.80
  -2  -3  -5   99.59    7.00
  -2  -3  -5   96.79    6.70
  -2  -3  -5   94.59    7.30
  -2   3  -5  100.99    7.00
  -2   3  -5   97.69    7.10
  -2   3  -5   92.09    6.80
   2   3   5  110.69    7.60
  -2   3  -5   91.99    6.80
  -2   3  -5  107.29    6.60
  -2   3  -5   95.99    7.00
   2   3   5  107.39    8.60
   3  -3   5   34.00    3.80
  -3  -3  -5   31.00    4.20
  -3  -3  -5   20.00    3.70
   3  -3   5   34.30    3.80
  -3  -3  -5   24.70    3.60
   3   3   5   23.50    6.00
  -3   3  -5   35.80    3.80
  -3   3  -5   34.10    4.00
  -3   3  -5   27.10    3.70
  -3   3  -5   23.40    3.20
  -3   3  -5   30.30    3.40
  -4  -3  -5    2.10    1.90
  -4  -3  -5    2.80    2.10
   4  -3   5    0.00    1.60
  -4   3  -5   -2.70    1.90
   4   3   5   -2.40    2.20
  -4   3  -5    0.60    1.90
  -4   3  -5   -1.70    2.00
  -4  -4   5    5.30    2.80
  -4  -4   5    2.50    3.10
   4  -4  -5    4.20    2.10
  -4  -4   5   -0.10    2.80
  -4  -4   5    6.30    2.00
  -4   4   5    7.30    3.20
  -4   4   5    4.20    2.50
   4   4  -5    5.20    2.20
  -4   4   5    3.50    2.70
  -4   4   5    0.60    2.30
  -3  -4   5    4.50    1.70
  -3  -4   5    7.10    2.40
   3  -4  -5    4.70    1.30
  -3  -4   5    4.90    2.10
  -3  -4   5    4.80    2.50
  -3   4   5    8.20    2.30
   3   4  -5    7.10    1.70
   3   4  -5    5.40    1.70
  -3   4   5    9.80    2.00
  -3   4   5    6.30    2.20
  -3   4   5    5.90    1.90
   2  -4  -5   39.10    3.40
  -2  -4   5   28.80    3.00
  -2  -4   5   32.40    3.00
  -2  -4   5   34.30    3.70
  -2  -4   5   29.40    3.10
   2  -4  -5   40.10    3.10
   2   4  -5   42.10    3.40
  -2   4   5   31.50    3.30
  -2   4   5   33.20    3.00
  -2   4   5   29.20    3.70
   2   4  -5   39.30    3.40
  -2   4   5   37.40    3.60
  -2   4   5   29.50    3.40
  -1  -4   5    4.70    0.90
   1  -4  -5    7.20    1.50
  -1  -4   5    5.80    1.70
  -1  -4   5    5.60    1.10
  -1  -4   5    5.80    1.10
   1  -4  -5    7.10    1.30
  -1  -4   5    3.40    2.50
   1  -4  -5    2.90    0.90
  -1  -4   5    4.30    1.10
  -1   4   5    4.30    0.90
  -1   4   5    4.50    1.00
  -1   4   5    5.90    2.40
   1   4  -5    4.20    1.00
  -1   4   5    2.60    1.40
   1   4  -5    5.30    1.00
  -1   4   5    3.80    0.90
  -1   4   5    4.20    1.20
   0  -4   5   26.70    3.90
   0  -4   5   26.90    2.40
   0  -4  -5   28.40    2.70
   0  -4   5   30.60    2.40
   0  -4  -5   33.50    2.90
   0  -4   5   24.70    2.20
   0  -4   5   31.30    2.50
   0  -4  -5   32.90    2.60
   0  -4   5   27.30    2.40
   0   4  -5   34.00    2.60
   0   4  -5   25.80    3.00
   0   4  -5   36.20    2.50
   0   4  -5   33.90    2.60
   0   4   5   27.90    2.30
   0   4   5   28.30    2.90
   0   4   5   28.20    2.50
   0   4  -5   31.60    3.20
  -1  -4  -5  209.28   13.90
   1  -4   5  212.28   13.60
   1  -4   5  208.08   13.40
  -1  -4  -5  214.18   13.70
  -1  -4  -5  196.48   13.90
   1  -4   5  207.88   13.50
  -1  -4  -5  217.38   13.90
  -1  -4  -5  222.88   13.90
   1   4   5  224.98   13.60
  -1   4  -5  206.78   13.60
  -1   4  -5  216.98   13.70
  -1   4  -5  207.38   14.00
   1   4   5  197.98   14.10
  -1   4  -5  231.08   13.50
  -1   4  -5  196.28   13.60
  -1   4  -5  228.18   13.90
  -1   4  -5  208.08   13.70
  -1   4  -5  207.08   13.90
  -2  -4  -5    2.30    1.50
   2  -4   5    6.50    1.40
  -2  -4  -5    3.60    1.20
  -2  -4  -5    1.80    2.00
   2  -4   5    4.80    1.40
   2  -4   5    3.70    1.10
  -2  -4  -5    4.30    1.60
   2   4   5    2.00    1.70
  -2   4  -5    6.50    1.50
  -2   4  -5    3.20    1.00
  -2   4  -5    4.10    1.50
  -2   4  -5    5.80    1.70
  -2   4  -5    3.40    1.10
   2   4   5    7.00    1.60
  -2   4  -5    3.70    1.40
  -3  -4  -5    7.90    2.80
   3  -4   5    8.00    2.00
   3  -4   5    8.80    2.10
  -3  -4  -5    5.70    2.30
  -3   4  -5    6.00    2.00
  -3   4  -5    6.00    2.10
  -3   4  -5    6.90    1.60
  -3   4  -5    7.70    2.30
  -3   4  -5    7.00    2.20
  -4  -4  -5   -0.50    2.90
   4  -4   5    8.80    2.10
  -4  -4  -5    2.70    2.30
  -4   4  -5    3.90    2.50
  -4  -5   5    4.40    3.40
   4  -5  -5    0.70    1.90
  -4  -5   5   -1.50    2.80
  -4  -5   5    3.00    3.00
  -4  -5   5   -0.30    2.20
  -4   5   5    0.30    2.50
  -4   5   5   -0.60    2.60
   4   5  -5   -1.90    2.00
  -4   5   5   -3.30    2.10
  -4   5   5   -0.70    3.60
   3  -5  -5    0.70    1.80
  -3  -5   5    2.60    1.70
   3  -5  -5    2.90    1.20
  -3  -5   5   -1.50    2.30
  -3  -5   5    1.70    2.60
   3   5  -5   -2.90    2.00
  -3   5   5    3.80    2.00
  -3   5   5    3.70    2.00
  -3   5   5    3.00    1.90
   3   5  -5    2.10    1.50
  -3   5   5    4.20    2.40
  -2  -5   5  114.89    8.20
  -2  -5   5  132.39    8.60
   2  -5  -5  123.79    8.60
  -2  -5   5  115.99    8.20
  -2  -5   5   96.99    8.80
  -2  -5   5  125.59    8.30
  -2  -5   5  123.09    8.90
   2  -5  -5  124.29    8.70
  -2   5   5  118.69    8.60
   2   5  -5  141.69    8.90
   2   5  -5  134.39    8.90
  -2   5   5  111.69    8.40
  -2   5   5  117.09    8.70
  -2   5   5  129.79    8.50
  -2   5   5  117.39    8.20
   1  -5  -5   21.10    2.10
  -1  -5   5   18.40    2.50
   1  -5  -5   18.00    1.90
  -1  -5   5   17.50    2.80
  -1  -5   5   18.10    2.30
  -1  -5   5   14.30    3.20
   1  -5  -5   16.20    2.30
  -1  -5   5   17.40    2.20
  -1  -5   5   19.70    2.30
  -1   5   5   16.00    2.40
  -1   5   5   19.60    2.00
  -1   5   5   20.70    2.20
   1   5  -5   14.90    2.00
   1   5  -5   15.40    2.00
   1   5  -5   19.40    2.20
  -1   5   5   14.40    2.50
  -1   5   5   22.70    3.10
  -1   5   5   22.90    2.70
   0  -5  -5   52.19    3.80
   0  -5   5   43.80    3.40
   0  -5   5   43.30    3.60
   0  -5   5   39.50    3.30
   0  -5   5   42.50    3.20
   0  -5  -5   45.00    3.90
   0  -5   5   43.80    3.40
   0  -5  -5   46.70    3.60
   0  -5   5   41.90    3.40
   0  -5  -5   48.40    3.50
   0  -5  -5   49.00    3.50
   0   5   5   46.00    3.40
   0   5  -5   49.40    3.60
   0   5   5   45.70    3.30
   0   5  -5   41.90    3.80
   0   5   5   40.20    3.70
   0   5  -5   49.90    4.10
   0   5  -5   49.70    3.70
   0   5  -5   51.39    3.50
  -1  -5  -5   33.40    2.90
   1  -5   5   28.10    2.90
  -1  -5  -5   26.10    3.50
  -1  -5  -5   40.90    3.30
  -1  -5  -5   38.20    3.50
   1  -5   5   33.90    2.80
   1  -5   5   36.20    2.80
  -1  -5  -5   30.40    3.40
  -1   5  -5   33.90    3.30
  -1   5  -5   37.00    3.10
   1   5   5   33.30    3.00
  -1   5  -5   34.00    3.40
  -1   5  -5   31.30    2.80
  -1   5  -5   33.60    3.40
  -1   5  -5   33.90    2.70
  -1   5  -5   32.50    3.20
   1   5   5   31.10    3.60
  -2  -5  -5    1.60    1.50
   2  -5   5    2.50    1.20
  -2  -5  -5    1.20    2.20
  -2  -5  -5    1.90    1.40
  -2  -5  -5    2.60    1.60
   2  -5   5    1.20    1.40
  -2   5  -5   -0.40    1.00
  -2   5  -5    0.00    1.40
   2   5   5    4.40    1.90
  -2   5  -5    2.20    1.70
  -2   5  -5    1.20    1.30
  -2   5  -5    3.00    1.40
   2   5   5    2.20    1.50
   3  -5   5    6.10    1.80
  -3  -5  -5    2.70    2.40
   3  -5   5    7.90    2.20
  -3  -5  -5    7.80    2.40
   3  -5   5    8.00    2.20
  -3   5  -5    6.50    1.90
  -3   5  -5    6.10    2.40
   3   5   5    4.60    3.80
  -3   5  -5    7.00    2.00
  -3   5  -5    4.20    2.10
  -4  -5  -5    6.80    2.80
  -4  -5  -5    0.90    2.10
   4  -5   5    2.40    1.80
  -4   5  -5    0.90    2.20
  -4   5  -5    0.20    3.70
  -4   5  -5   -1.90    2.40
  -4   5  -5   -3.40    2.70
   4  -6  -5    9.40    2.50
  -4  -6   5    3.60    2.30
  -4  -6   5   -0.40    3.40
  -4  -6   5    4.50    3.10
   4  -6  -5    4.30    2.30
  -4   6   5    0.50    2.70
  -4   6   5    3.10    3.00
  -4   6   5    2.10    2.30
   4   6  -5    2.80    2.30
  -3  -6   5    4.10    3.10
  -3  -6   5    1.50    4.20
  -3  -6   5   10.10    3.30
  -3  -6   5    4.20    2.50
   3  -6  -5    3.50    2.10
  -3  -6   5    4.40    2.00
  -3   6   5    4.70    2.00
  -3   6   5    8.30    2.50
   3   6  -5    6.80    1.70
  -3   6   5    4.90    2.30
  -3   6   5    9.20    2.70
   2  -6  -5  177.58   11.90
   2  -6  -5  183.88   12.30
  -2  -6   5  154.58   10.20
  -2  -6   5  129.49   10.70
  -2  -6   5  146.59   10.00
   2  -6  -5  176.38   12.00
  -2   6   5  166.78   10.30
   2   6  -5  185.98   12.00
  -2   6   5  150.88   10.00
   2   6  -5  185.28   12.00
  -2   6   5  146.99   10.20
  -2   6   5  138.09   10.40
  -2   6   5  137.59   10.30
  -1  -6   5  184.58   12.30
  -1  -6   5  171.28   12.60
   1  -6  -5  199.98   13.20
   1  -6  -5  186.98   13.00
   1  -6  -5  218.38   13.20
  -1  -6   5  160.08   12.50
  -1  -6   5  187.18   12.30
   1  -6  -5  194.18   13.00
  -1  -6   5  177.28   12.20
  -1  -6   5  187.48   12.00
  -1  -6   5  212.58   12.40
  -1   6   5  178.18   12.50
  -1   6   5  193.98   12.20
   1   6  -5  209.28   13.10
  -1   6   5  183.18   12.30
  -1   6   5  193.38   12.30
   1   6  -5  197.48   13.00
  -1   6   5  184.48   12.60
  -1   6   5  190.38   12.00
   0  -6  -5  304.17   20.10
   0  -6   5  288.37   18.00
   0  -6  -5  304.67   19.90
   0  -6  -5  327.07   20.10
   0  -6   5  271.57   18.10
   0  -6   5  303.57   18.10
   0  -6  -5  274.97   19.70
   0  -6   5  290.57   18.10
   0  -6  -5  323.37   19.80
   0   6  -5  312.27   20.00
   0   6  -5  317.87   19.90
   0   6   5  245.78   18.40
   0   6   5  287.47   18.10
   0   6  -5  322.37   19.80
   0   6  -5  317.57   19.90
   0   6   5  284.97   17.90
  -1  -6  -5   64.49    5.00
   1  -6   5   57.59    4.50
   1  -6   5   57.29    4.40
   1  -6   5   63.29    4.60
  -1  -6  -5   61.29    5.00
   1  -6   5   62.39    4.50
  -1  -6  -5   56.79    4.90
  -1  -6  -5   59.29    4.50
  -1   6  -5   62.99    4.80
  -1   6  -5   56.59    4.30
  -1   6  -5   58.19    5.00
   1   6   5   59.99    4.60
  -1   6  -5   62.29    4.40
  -1   6  -5   53.29    4.60
  -1   6  -5   63.59    5.00
   1   6   5   50.69    4.40
   2  -6   5   91.49    6.40
  -2  -6  -5   76.79    6.70
  -2  -6  -5   85.09    6.70
  -2  -6  -5   78.49    5.90
   2  -6   5   85.79    6.50
  -2   6  -5   89.09    6.50
   2   6   5   77.99    6.40
  -2   6  -5   73.39    6.30
  -2   6  -5   79.89    6.00
  -2   6  -5   80.49    5.80
   3  -6   5   13.40    2.90
   3  -6   5    9.80    2.70
  -3  -6  -5   13.80    2.80
  -3  -6  -5   12.70    2.70
   3  -6   5   11.10    2.90
  -3   6  -5   12.70    2.60
  -3   6  -5   13.60    2.50
  -3   6  -5   13.70    2.80
  -3   6  -5    9.30    2.50
  -4  -6  -5    1.70    2.00
   4  -6   5    2.90    2.10
  -4  -6  -5   -1.60    3.10
  -4   6  -5    5.50    4.00
  -4   6  -5    3.20    2.50
  -4   6  -5    1.50    2.60
  -4   6  -5    2.50    2.80
  -4  -7   5   -1.10    4.30
   4  -7  -5    5.40    2.20
   4  -7  -5    3.20    2.10
   4   7  -5   -2.30    2.60
  -4   7   5   -1.30    2.40
  -4   7   5   -0.20    3.00
  -4   7   5   -0.70    2.90
   4   7  -5   -0.90    2.60
  -3  -7   5   38.50    6.70
   3  -7  -5   61.59    4.50
   3  -7  -5   48.10    5.60
  -3  -7   5   36.10    5.50
  -3  -7   5   33.70    5.60
  -3   7   5   52.19    5.00
  -3   7   5   47.20    5.60
  -3   7   5   54.79    5.70
  -3   7   5   48.70    5.40
   3   7  -5   44.50    4.60
  -2  -7   5    6.20    3.20
  -2  -7   5    4.80    1.90
   2  -7  -5    4.00    1.70
   2  -7  -5    5.10    1.50
   2  -7  -5    3.30    1.20
  -2  -7   5    4.40    2.70
  -2  -7   5    4.00    2.00
   2   7  -5    4.30    1.60
   2   7  -5    3.90    1.30
  -2   7   5    4.70    3.10
  -2   7   5    6.20    1.50
  -2   7   5    7.90    2.10
  -2   7   5    7.70    2.40
   1  -7  -5   38.00    3.40
   1  -7  -5   44.60    3.70
  -1  -7   5   28.50    3.00
  -1  -7   5   30.70    3.60
  -1  -7   5   32.00    3.10
  -1  -7   5   22.70    3.90
  -1  -7   5   22.30    3.00
   1  -7  -5   38.70    3.80
   1  -7  -5   40.00    3.40
   1  -7  -5   39.00    3.60
  -1  -7   5   32.70    3.00
  -1   7   5   33.20    3.30
  -1   7   5   27.20    2.90
  -1   7   5   26.90    3.70
   1   7  -5   44.90    3.50
  -1   7   5   28.70    3.60
  -1   7   5   34.70    2.80
   0  -7  -5   98.49    7.10
   0  -7   5  114.89    7.90
   0  -7  -5   88.69    6.50
   0  -7   5   98.99    7.70
   0  -7  -5  103.19    6.70
   0  -7   5  123.19    7.90
   0  -7   5  114.89    7.70
   0  -7  -5   98.39    6.80
   0  -7  -5  105.19    7.10
   0   7  -5   96.29    7.00
   0   7   5  112.59    7.90
   0   7  -5   99.29    6.80
   0   7   5  114.59    7.60
   0   7  -5   95.19    6.60
   0   7  -5   96.69    6.80
  -1  -7  -5   39.10    3.60
   1  -7   5   33.70    2.90
   1  -7   5   30.80    3.20
  -1  -7  -5   30.30    3.80
  -1  -7  -5   28.40    5.50
   1  -7   5   26.80    3.40
   1  -7   5   29.30    2.80
  -1  -7  -5   35.30    3.90
  -1  -7  -5   28.80    3.20
  -1   7  -5   31.00    2.80
   1   7   5   22.90    3.00
  -1   7  -5   35.90    3.50
   1   7   5   29.60    3.10
  -1   7  -5   33.10    4.00
  -1   7  -5   32.50    3.30
  -1   7  -5   27.70    2.90
   1   7   5   22.20    3.40
  -1   7  -5   32.20    3.40
   2  -7   5   12.30    2.40
  -2  -7  -5   14.20    2.70
   2  -7   5   10.80    2.30
   2  -7   5   15.90    2.70
  -2  -7  -5    6.40    2.40
  -2  -7  -5   10.30    2.30
  -2   7  -5   12.50    2.50
  -2   7  -5   13.20    2.50
  -2   7  -5    9.30    1.70
   2   7   5   12.20    2.20
  -2   7  -5   10.10    2.30
  -2   7  -5   14.20    2.50
  -2   7  -5   14.90    2.70
  -3  -7  -5    3.70    2.80
   3  -7   5    4.00    1.90
  -3  -7  -5    6.10    2.50
  -3   7  -5    8.20    2.50
  -3   7  -5    4.30    2.50
   3   7   5    8.70    4.10
  -3   7  -5    5.20    2.70
  -3   7  -5    5.80    2.30
  -3  -8   5    6.70    3.70
   3  -8  -5    9.00    2.00
   3  -8  -5    7.20    1.60
   3   8  -5    5.30    2.50
   3   8  -5    5.50    1.80
  -3   8   5    2.10    3.00
  -3   8   5   12.20    2.60
  -3   8   5   11.60    2.90
  -2  -8   5    4.80    2.30
  -2  -8   5    0.10    3.70
  -2  -8   5    8.80    2.00
   2  -8  -5    2.70    1.70
  -2  -8   5    2.20    2.80
  -2  -8   5    3.10    2.10
   2  -8  -5    2.40    1.80
   2  -8  -5    2.30    1.10
   2   8  -5    3.60    1.90
   2   8  -5    2.50    1.30
  -2   8   5    3.80    2.10
  -2   8   5    6.30    2.10
  -2   8   5    5.80    2.90
  -2   8   5    1.90    1.90
  -2   8   5    6.90    1.70
   2   8  -5    4.40    1.90
  -1  -8   5    1.40    1.50
  -1  -8   5    2.90    1.50
   1  -8  -5    2.10    1.40
  -1  -8   5    3.50    1.40
   1  -8  -5    1.50    1.70
   1  -8  -5    1.20    0.90
  -1   8   5    3.60    1.30
  -1   8   5    3.70    1.20
  -1   8   5    3.00    1.70
   1   8  -5    0.70    1.30
   1   8  -5    0.00    0.90
  -1   8   5    0.80    1.90
  -1   8   5    4.70    1.70
   0  -8   5   31.50    4.90
   0  -8  -5   37.40    4.20
   0  -8  -5   44.70    3.60
   0  -8  -5   38.70    3.60
   0  -8   5   43.50    3.30
   0  -8  -5   44.40    4.10
   0  -8   5   36.40    3.50
   0   8  -5   36.20    3.70
   0   8   5   37.80    4.40
   0   8   5   34.20    4.80
   0   8  -5   45.50    3.70
   0   8  -5   47.40    4.40
   0   8   5   37.80    3.30
   0   8  -5   46.40    3.50
   1  -8   5    4.10    1.20
  -1  -8  -5    1.10    1.40
  -1  -8  -5    1.00    1.90
   1  -8   5    4.40    1.60
   1  -8   5    5.20    1.50
  -1  -8  -5    4.30    1.80
  -1  -8  -5    3.90    1.60
   1   8   5    3.80    1.70
  -1   8  -5    1.00    1.00
   1   8   5    7.20    1.60
   1   8   5    4.30    1.60
  -1   8  -5    2.20    1.40
  -1   8  -5    2.70    1.70
  -2  -8  -5    6.40    2.60
  -2  -8  -5    2.50    2.20
   2  -8   5    1.60    2.00
  -2  -8  -5    5.20    2.10
   2  -8   5    6.30    1.70
   2  -8   5    3.80    1.70
   2   8   5    3.40    1.90
   2   8   5    3.70    2.60
  -2   8  -5    3.40    1.90
  -2   8  -5    7.10    2.50
  -2   8  -5    7.40    1.60
  -2   8  -5    4.00    2.10
   3  -8   5    4.30    1.90
  -3  -8  -5    7.90    2.50
  -3  -8  -5    4.10    3.20
  -3   8  -5    6.30    2.90
  -3   8  -5    8.30    3.00
  -3   8  -5    6.30    2.80
  -3  -9   5   -0.50    5.50
   3  -9  -5    1.10    2.40
   3  -9  -5    3.30    1.80
  -3   9   5    0.30    4.00
  -3   9   5    3.70    3.10
   3   9  -5    0.60    1.80
  -3   9   5    7.00    3.50
   2  -9  -5   16.90    2.60
   2  -9  -5   14.80    2.80
  -2  -9   5   13.10    5.50
  -2  -9   5   13.00    2.70
  -2  -9   5    9.90    2.50
   2  -9  -5   16.60    3.40
   2   9  -5   16.20    3.20
  -2   9   5   12.80    2.70
   2   9  -5   14.60    2.70
  -2   9   5   13.60    2.20
  -2   9   5   14.70    2.90
   1  -9  -5   17.80    2.50
  -1  -9   5   15.10    2.80
  -1  -9   5   15.50    2.90
   1  -9  -5   19.90    3.30
  -1  -9   5   14.40    3.40
   1  -9  -5   19.60    3.00
   1  -9  -5   19.60    2.70
   1  -9  -5   13.20    2.60
  -1  -9   5   14.40    2.30
  -1   9   5   12.20    2.80
   1   9  -5   17.60    3.00
  -1   9   5   14.20    2.60
  -1   9   5   12.90    2.50
  -1   9   5   17.30    2.50
   1   9  -5   20.70    2.50
  -1   9   5   13.60    3.00
   0  -9   5    2.40    1.50
   0  -9   5    1.90    1.60
   0  -9  -5    2.40    1.50
   0  -9  -5    4.90    2.00
   0  -9  -5    3.80    1.30
   0  -9   5    1.90    1.30
   0   9  -5    1.30    1.40
   0   9   5    4.20    1.50
   0   9  -5    1.70    1.80
   0   9   5    1.70    1.70
   0   9  -5    4.10    2.30
   0   9  -5    5.60    1.20
   0   9   5    2.10    1.30
   0   9  -5    3.30    1.50
   1  -9   5   18.10    2.70
   1  -9   5   13.90    2.60
  -1  -9  -5   13.30    2.40
  -1  -9  -5   10.80    2.60
  -1  -9  -5    9.20    2.00
  -1  -9  -5   17.30    3.60
   1  -9   5   13.30    2.40
   1   9   5   15.90    3.00
  -1   9  -5   13.10    2.30
   1   9   5   14.60    2.30
  -1   9  -5   12.10    2.20
  -1   9  -5   17.80    2.70
  -1   9  -5   13.20    2.30
  -1   9  -5   12.20    2.50
   2  -9   5    2.50    2.60
  -2  -9  -5    2.00    2.30
  -2  -9  -5    0.50    2.20
  -2  -9  -5    2.10    2.40
   2  -9   5    1.30    1.60
  -2   9  -5    1.00    4.50
  -2   9  -5    0.80    1.60
  -2   9  -5    2.00    2.00
  -2   9  -5   -2.20    1.90
   2   9   5   -1.20    2.00
   3  -9   5   -0.40    1.80
   3  -9   5    3.70    2.00
  -3  -9  -5   -1.60    2.30
  -3  -9  -5    6.00    3.50
  -3   9  -5    2.50    3.70
  -3   9  -5    3.40    2.80
  -3   9  -5    3.20    2.50
   3 -10  -5    3.60    2.20
   3 -10  -5   -0.10    1.50
  -3  10   5   -2.80    3.20
   3  10  -5   -1.70    2.40
   3  10  -5    0.90    2.00
  -3  10   5   -2.50    2.20
  -2 -10   5    9.90    3.00
   2 -10  -5   14.00    2.60
   2 -10  -5   15.80    2.70
   2 -10  -5   18.00    3.30
  -2 -10   5    7.50    2.40
  -2  10   5   13.10    2.20
   2  10  -5    9.10    1.90
  -2  10   5   12.10    2.60
  -2  10   5   13.50    3.30
  -1 -10   5   11.00    2.20
   1 -10  -5   17.00    3.00
   1 -10  -5   20.50    3.30
   1 -10  -5   13.30    3.00
  -1 -10   5   13.00    2.40
   1 -10  -5   18.40    2.60
   1  10  -5   12.40    2.20
  -1  10   5    8.90    2.30
   1  10  -5   14.60    2.50
  -1  10   5   12.80    2.60
  -1  10   5   16.90    2.80
   1  10  -5   14.10    2.50
   0 -10  -5   17.80    3.60
   0 -10  -5   10.70    2.30
   0 -10  -5   12.80    2.10
   0 -10   5   12.00    2.30
   0 -10   5   15.40    3.00
   0 -10   5   13.20    2.40
   0  10   5   11.20    2.40
   0  10  -5    9.60    2.10
   0  10  -5   15.20    2.30
   0  10  -5   16.70    3.30
   0  10   5   12.50    1.90
   1 -10   5    0.10    1.40
  -1 -10  -5   -0.30    1.90
   1 -10   5    2.40    1.50
  -1 -10  -5    1.40    1.90
   1 -10   5    1.10    2.10
  -1 -10  -5    0.10    1.90
  -1 -10  -5   -0.40    2.10
  -1  10  -5   -0.50    2.70
  -1  10  -5    3.10    2.90
  -1  10  -5    0.40    1.40
   1  10   5    0.10    1.60
  -1  10  -5    0.10    1.80
  -1  10  -5    0.20    1.20
   1  10   5   -1.80    3.20
   2 -10   5    4.00    2.90
  -2 -10  -5    3.10    2.50
  -2 -10  -5    1.40    2.70
  -2 -10  -5    2.20    2.40
   2 -10   5   -3.00    1.70
   2 -10   5    3.30    1.90
  -2  10  -5    1.80    2.20
  -2  10  -5    1.10    1.80
   2  10   5   -0.20    2.10
  -2  10  -5    3.30    2.70
  -2 -11   5    4.90    2.30
   2 -11  -5    5.70    2.40
   2 -11  -5    5.80    1.70
  -2 -11   5    3.40    2.70
  -2  11   5    7.80    2.10
   2  11  -5    5.70    1.90
  -2  11   5    5.90    2.40
   2  11  -5    4.00    2.00
   1 -11  -5   11.60    2.30
  -1 -11   5    4.50    2.20
   1 -11  -5    9.90    1.90
  -1 -11   5    4.50    2.40
   1 -11  -5   16.00    5.40
  -1 -11   5    6.90    2.50
   1  11  -5    7.00    2.10
  -1  11   5    8.80    2.00
  -1  11   5    7.70    1.80
   1  11  -5    8.80    2.80
  -1  11   5    8.00    2.50
   1  11  -5   14.00    2.90
   1  11  -5    9.60    1.70
   0 -11   5   10.90    2.50
   0 -11   5    8.10    2.20
   0 -11  -5    5.30    2.90
   0 -11  -5    6.60    2.40
   0 -11  -5    6.60    1.90
   0  11   5    5.80    1.90
   0  11  -5    8.40    2.30
   0  11   5    7.70    2.00
   0  11   5    5.40    2.30
   0  11  -5    9.50    1.50
   0  11  -5    9.10    2.20
  -1 -11  -5    2.80    2.30
   1 -11   5   -1.40    2.50
   1 -11   5    3.40    1.80
  -1 -11  -5    5.10    2.50
   1 -11   5    7.20    1.90
  -1 -11  -5    5.40    2.30
  -1  11  -5   10.40    2.70
   1  11   5    4.70    2.10
  -1  11  -5    6.40    1.70
  -2 -11  -5    0.60    2.50
  -2 -11  -5   -1.30    3.30
   2 -11   5    2.90    2.20
   2 -11   5    2.90    1.90
  -2  11  -5    1.30    2.00
  -2  11  -5    2.80    2.70
  -1 -12   5    3.30    2.00
   1 -12  -5   -1.10    2.10
   1 -12  -5    2.60    1.70
  -1 -12   5    6.00    2.40
   1  12  -5    4.00    2.50
  -1  12   5    2.30    1.70
  -1  12   5   -0.20    2.20
   1  12  -5    3.50    1.50
   1  12  -5   -1.00    2.10
   0 -12  -5    7.40    2.30
   0 -12  -5   -1.80    2.30
   0 -12   5    3.40    2.30
   0 -12   5    0.40    2.40
   0 -12  -5    5.70    2.70
   0 -12  -5    3.20    3.10
   0 -12   5    4.80    1.70
   0  12   5    6.60    1.80
   0  12  -5    2.40    1.50
   0  12  -5    6.60    2.90
   0  12   5    2.70    2.20
   0  12  -5    5.00    2.60
   0  12   5    5.50    2.20
   1 -12   5    5.30    2.40
  -1 -12  -5    3.00    2.70
  -1 -12  -5   -2.20    2.40
   1 -12   5    0.80    3.10
  -1 -12  -5    4.30    2.60
  -1  12  -5   -1.10    2.40
   1  12   5    7.30    2.60
  -1  12  -5    3.30    1.80
   1  12   5    3.70    2.20
  -4   0   6    4.90    2.90
  -4   0   6    4.70    2.50
  -4   0   6    7.40    2.30
   4   0  -6   13.30    3.00
  -3   0   6    7.90    2.60
   3   0  -6   12.60    2.50
  -3   0   6   14.30    2.90
  -3   0   6   10.40    2.50
  -3   0   6    4.40    2.30
  -2   0   6   31.70    2.70
  -2   0   6   34.40    3.20
   2   0  -6   55.09    3.90
  -2   0   6   31.60    3.60
  -2   0   6   31.90    3.90
  -2   0   6   25.20    3.40
   2   0  -6   50.59    3.90
  -1   0   6  674.03   41.20
   1   0  -6  782.92   48.70
  -1   0   6  685.03   41.20
  -1   0   6  650.13   41.00
  -1   0   6  623.54   41.10
   1   0  -6  773.42   48.60
  -1   0   6  638.34   40.90
   0   0  -6  251.17   16.10
   0   0  -6  233.38   16.00
   0   0   6  179.78   12.80
   0   0  -6  270.47   16.20
   0   0  -6  245.08   16.00
   0   0  -6  265.57   16.10
   0   0   6  195.38   12.90
   0   0   6  224.08   13.30
   0   0   6  207.88   13.00
  -1   0  -6 2060.69  132.59
  -1   0  -6 2048.30  132.29
  -1   0  -6 2159.08  132.49
   1   0   6 1864.51  121.39
  -1   0  -6 2277.97  132.59
  -1   0  -6 2057.79  132.39
   1   0   6 2008.50  120.79
  -1   0  -6 2196.88  132.29
  -1   0  -6 2057.09  132.49
  -2   0  -6  203.68   13.10
   2   0   6  215.58   13.20
  -2   0  -6  190.88   13.20
  -2   0  -6  192.68   13.10
  -2   0  -6  192.08   12.70
   2   0   6  212.38   14.40
   2   0   6  190.08   13.40
  -2   0  -6  202.48   12.90
  -3   0  -6   72.49    5.70
  -3   0  -6   59.29    6.10
  -3   0  -6   81.29    5.80
   3   0   6   50.49    6.60
  -3   0  -6   69.89    6.20
  -4   0  -6   28.20    5.10
   4   0   6   26.90    5.00
  -4   0  -6   42.80    4.20
  -4  -1   6    4.90    2.30
  -4  -1   6    4.50    2.90
  -4  -1   6    4.60    3.10
  -4  -1   6    2.50    2.60
  -4   1   6    9.80    3.00
  -4   1   6    3.80    2.90
  -4   1   6    4.80    2.20
   4   1  -6    4.80    2.60
  -4   1   6    5.50    2.50
   3  -1  -6    2.30    1.30
  -3  -1   6   -2.60    2.10
  -3   1   6    0.60    2.60
   3   1  -6    3.30    1.60
   3   1  -6    0.60    1.30
   2  -1  -6  281.47   18.00
  -2  -1   6  246.18   15.80
   2  -1  -6  274.37   17.90
  -2  -1   6  247.38   15.60
  -2  -1   6  233.98   15.90
  -2  -1   6  225.98   16.00
  -2   1   6  251.27   16.00
   2   1  -6  286.77   18.20
   2   1  -6  287.97   17.90
  -2   1   6  224.48   15.40
  -2   1   6  245.38   16.20
  -2   1   6  244.88   15.90
  -2   1   6  256.27   15.80
  -1  -1   6  152.78   11.60
  -1  -1   6  165.78   11.00
  -1  -1   6  157.58   10.60
   1  -1  -6  222.48   14.10
  -1  -1   6  161.48   10.50
   1  -1  -6  227.38   14.00
  -1  -1   6  165.98   10.40
  -1   1   6  161.98   10.60
  -1   1   6  151.58   10.60
   1   1  -6  224.38   14.00
  -1   1   6  170.08   10.40
   1   1  -6  223.68   14.20
   1   1  -6  203.68   13.90
  -1   1   6  166.88   10.70
  -1   1   6  172.78   10.70
   0  -1   6  835.22   50.79
   0  -1   6  781.52   50.59
   0  -1   6  809.42   50.59
   0  -1   6  778.52   50.59
   0  -1  -6  790.72   51.39
   0  -1   6  778.82   50.59
   0  -1  -6  793.52   51.49
   0  -1  -6  878.71   51.49
   0  -1  -6  797.22   51.69
   0  -1  -6  848.62   51.49
   0   1  -6  790.82   51.39
   0   1   6  783.22   50.59
   0   1  -6  848.12   51.49
   0   1   6  812.02   50.59
   0   1   6  884.71   50.89
   0   1  -6  816.42   51.39
   0   1  -6  883.11   51.49
   0   1  -6  824.22   51.39
   0   1  -6  775.42   51.49
  -1  -1  -6  723.23   46.90
  -1  -1  -6  697.03   46.70
  -1  -1  -6  777.12   47.00
  -1  -1  -6  755.32   46.80
   1  -1   6  706.93   43.80
   1  -1   6  686.63   43.80
  -1  -1  -6  768.22   46.90
  -1  -1  -6  738.93   47.00
  -1  -1  -6  736.83   46.90
   1   1   6  747.33   43.80
   1   1   6  703.73   43.90
   1   1   6  629.64   43.70
  -1   1  -6  728.63   47.00
  -1   1  -6  723.43   47.00
  -1   1  -6  721.03   46.80
  -1   1  -6  793.02   47.00
  -1   1  -6  752.32   46.80
  -1   1  -6  773.02   46.80
   1   1   6  720.83   44.50
  -1   1  -6  770.52   46.90
   2  -1   6   57.59    4.40
  -2  -1  -6   71.99    4.90
  -2  -1  -6   66.59    5.50
  -2  -1  -6   70.99    5.40
  -2  -1  -6   68.89    5.20
   2  -1   6   61.79    4.50
  -2  -1  -6   63.99    5.60
  -2   1  -6   65.99    5.50
   2   1   6   61.39    5.70
  -2   1  -6   69.49    5.40
  -2   1  -6   74.09    5.30
  -2   1  -6   68.69    4.90
  -2   1  -6   68.39    5.30
  -2   1  -6   70.89    5.20
  -3  -1  -6   10.10    2.50
  -3  -1  -6   14.60    2.40
   3  -1   6   16.60    2.90
   3  -1   6   11.50    3.00
  -3  -1  -6   11.20    2.10
  -3  -1  -6    8.90    2.40
  -3   1  -6   13.30    2.30
  -3   1  -6   17.60    2.80
  -3   1  -6    9.70    2.40
   3   1   6   12.30    2.70
   3   1   6   19.30    5.30
  -3   1  -6   13.40    2.80
  -4  -1  -6    9.00    2.20
   4  -1   6    9.50    3.00
  -4  -1  -6    3.90    2.10
  -4  -1  -6    5.30    3.00
  -4   1  -6    6.40    2.20
  -4   1  -6    6.50    2.70
  -4   1  -6    7.40    2.10
  -4   1  -6    3.90    3.20
  -4  -2   6    1.10    2.30
  -4  -2   6    1.10    2.70
  -4  -2   6   -1.90    2.30
   4  -2  -6    3.10    2.10
  -4   2   6   -1.20    2.70
  -4   2   6   -1.70    2.30
   4   2  -6    0.00    2.80
  -4   2   6    4.10    2.70
  -4   2   6    1.70    2.10
  -3  -2   6    6.90    2.50
   3  -2  -6   13.20    2.60
  -3  -2   6    8.40    2.10
  -3  -2   6    9.40    2.40
   3  -2  -6   13.00    2.40
  -3   2   6    7.10    2.50
   3   2  -6   13.50    2.80
  -3   2   6    4.30    2.30
  -3   2   6    8.80    2.10
  -3   2   6   10.70    2.10
  -2  -2   6   54.29    4.30
  -2  -2   6   47.90    4.80
  -2  -2   6   42.60    4.90
   2  -2  -6   58.69    4.40
   2  -2  -6   59.79    4.30
  -2  -2   6   51.09    3.90
   2   2  -6   60.89    4.30
  -2   2   6   51.39    4.20
  -2   2   6   52.19    4.40
  -2   2   6   52.59    4.70
   2   2  -6   58.89    4.60
  -2   2   6   45.40    3.90
  -2   2   6   54.29    4.70
   1  -2  -6    2.60    0.80
  -1  -2   6    2.30    1.20
  -1  -2   6    2.50    0.80
   1  -2  -6    2.20    0.70
  -1  -2   6    2.90    1.10
   1   2  -6    4.00    0.80
  -1   2   6    2.20    1.20
  -1   2   6    0.80    1.10
   1   2  -6    1.60    1.00
  -1   2   6    2.10    0.90
  -1   2   6    1.50    0.80
  -1   2   6    3.30    1.30
   1   2  -6    4.30    1.00
  -1   2   6    1.60    0.80
   0  -2  -6  403.76   25.50
   0  -2  -6  403.36   25.50
   0  -2  -6  392.46   25.50
   0  -2   6  347.27   21.50
   0  -2   6  344.17   21.60
   0  -2  -6  415.66   25.60
   0  -2   6  333.87   21.60
   0  -2  -6  379.16   25.50
   0  -2   6  346.07   21.60
   0  -2  -6  406.16   25.60
   0   2  -6  409.06   25.50
   0   2   6  291.77   22.70
   0   2  -6  430.36   25.50
   0   2  -6  426.66   25.40
   0   2   6  331.67   21.50
   0   2   6  371.06   21.60
   0   2   6  355.76   21.50
   0   2  -6  381.96   25.50
  -1  -2  -6   83.09    5.90
   1  -2   6   81.69    5.50
  -1  -2  -6   85.79    6.00
  -1  -2  -6   90.39    6.10
   1  -2   6   80.99    5.50
  -1  -2  -6   86.69    6.20
  -1  -2  -6   89.99    5.80
   1  -2   6   84.99    5.80
  -1  -2  -6   78.49    6.30
  -1   2  -6   86.49    6.30
  -1   2  -6   90.99    6.10
  -1   2  -6   91.29    6.10
  -1   2  -6   86.39    6.20
  -1   2  -6   83.59    5.80
  -1   2  -6   88.59    6.10
  -1   2  -6   91.09    5.90
   1   2   6   82.89    6.30
   1   2   6   76.99    5.50
  -2  -2  -6   72.19    5.90
  -2  -2  -6   61.29    5.40
  -2  -2  -6   63.69    5.70
   2  -2   6   65.79    4.80
  -2  -2  -6   66.39    5.00
  -2  -2  -6   74.49    5.50
   2  -2   6   66.59    4.80
  -2   2  -6   73.49    5.40
  -2   2  -6   76.59    5.10
  -2   2  -6   72.09    5.50
   2   2   6   67.69    6.10
  -2   2  -6   77.99    5.70
  -2   2  -6   73.69    5.60
  -2   2  -6   71.59    5.30
  -3  -2  -6   15.00    3.00
  -3  -2  -6   12.80    2.80
  -3  -2  -6   14.20    3.00
   3  -2   6   12.70    2.40
   3  -2   6    9.90    2.80
  -3   2  -6   11.20    2.40
  -3   2  -6   16.60    2.90
  -3   2  -6   14.30    2.50
   3   2   6    8.90    3.30
  -3   2  -6    8.20    2.90
  -4  -2  -6   -1.20    1.60
  -4  -2  -6    2.20    2.10
  -4  -2  -6   -1.00    3.60
  -4   2  -6    0.70    1.80
  -4   2  -6    5.70    3.00
  -4   2  -6   -0.20    2.10
  -4   2  -6   -3.90    2.20
  -4  -3   6   -2.10    2.60
  -4  -3   6    0.90    2.30
   4  -3  -6    1.10    1.90
  -4  -3   6    0.20    2.50
  -4   3   6    2.00    2.00
  -4   3   6    0.60    2.80
  -4   3   6    0.90    2.30
  -4   3   6    0.00    2.90
   4   3  -6    3.10    1.90
   3  -3  -6   17.70    2.60
  -3  -3   6    7.70    2.80
   3  -3  -6   18.50    2.70
  -3  -3   6    9.00    2.60
  -3  -3   6   11.60    2.30
  -3   3   6   10.10    2.60
  -3   3   6   10.70    2.20
  -3   3   6   13.10    2.30
  -3   3   6   12.50    2.60
   3   3  -6   19.10    3.10
  -2  -3   6   74.99    6.40
   2  -3  -6   88.49    6.10
  -2  -3   6   64.09    6.10
  -2  -3   6   76.89    5.80
   2  -3  -6   81.99    6.00
  -2  -3   6   69.39    5.20
  -2  -3   6   73.99    5.40
  -2   3   6   69.79    6.10
  -2   3   6   78.09    6.00
  -2   3   6   71.69    5.40
  -2   3   6   84.89    5.70
   2   3  -6   91.69    6.20
   2   3  -6   90.19    6.00
  -2   3   6   78.39    5.80
  -1  -3   6  199.88   12.70
  -1  -3   6  200.28   12.30
  -1  -3   6  177.18   12.30
   1  -3  -6  232.28   14.30
   1  -3  -6  224.18   14.30
  -1  -3   6  177.38   12.50
  -1  -3   6  183.38   12.40
   1  -3  -6  207.58   14.30
   1   3  -6  222.08   14.40
  -1   3   6  189.68   12.70
  -1   3   6  183.68   12.40
  -1   3   6  206.68   12.50
  -1   3   6  194.28   12.40
  -1   3   6  194.88   12.20
  -1   3   6  213.28   12.60
  -1   3   6  169.08   12.40
   1   3  -6  232.98   14.30
   0  -3  -6  348.17   23.20
   0  -3  -6  371.06   23.20
   0  -3  -6  356.86   23.20
   0  -3  -6  358.06   23.30
   0  -3  -6  404.36   23.40
   0  -3   6  314.97   19.80
   0  -3   6  286.67   19.80
   0  -3   6  295.87   19.70
   0   3  -6  344.47   23.10
   0   3   6  315.47   19.80
   0   3   6  336.37   20.20
   0   3  -6  394.46   23.30
   0   3   6  308.37   19.70
   0   3  -6  364.26   23.20
   0   3  -6  363.86   23.20
   0   3   6  323.17   19.70
   1  -3   6    2.20    0.80
  -1  -3  -6   -0.30    1.20
  -1  -3  -6    1.70    1.00
   1  -3   6    1.00    1.10
  -1  -3  -6    1.80    1.20
  -1  -3  -6    0.30    1.40
   1  -3   6    0.60    0.90
  -1  -3  -6    1.80    1.30
  -1  -3  -6    2.40    1.10
  -1   3  -6    2.80    1.20
   1   3   6    1.80    1.00
  -1   3  -6    2.50    1.20
  -1   3  -6   -0.80    1.50
  -1   3  -6    1.80    1.30
  -1   3  -6    0.30    1.00
  -1   3  -6    1.50    0.80
   1   3   6    0.90    1.30
  -1   3  -6   -0.20    0.70
   2  -3   6   38.40    3.00
  -2  -3  -6   28.60    2.90
  -2  -3  -6   29.30    3.60
  -2  -3  -6   34.80    3.50
   2  -3   6   34.60    3.40
  -2  -3  -6   27.90    3.90
   2  -3   6   29.90    3.00
  -2   3  -6   26.60    2.90
  -2   3  -6   28.10    3.50
  -2   3  -6   28.10    3.30
   2   3   6   29.10    4.50
  -2   3  -6   27.90    3.30
   2   3   6   27.10    4.20
  -2   3  -6   32.90    3.10
  -2   3  -6   31.30    3.10
  -3  -3  -6   20.10    3.50
   3  -3   6   10.20    2.20
  -3  -3  -6   17.30    2.90
   3   3   6    9.90    3.70
  -3   3  -6   20.00    3.10
  -3   3  -6   24.30    4.10
  -3   3  -6   24.30    3.60
  -3   3  -6   25.50    3.80
  -3   3  -6   18.50    3.00
  -4  -3  -6   -1.20    2.20
   4  -3   6    1.40    1.60
  -4   3  -6    1.90    3.10
  -4   3  -6    1.70    3.30
   4   3   6    3.60    2.30
  -4   3  -6    3.70    3.00
  -4  -4   6    1.50    2.80
  -4  -4   6    1.60    2.80
   4  -4  -6   -1.20    1.80
  -4   4   6    1.00    2.40
  -4   4   6    0.90    2.10
  -4   4   6   -0.90    2.70
   4   4  -6    1.30    2.00
  -4   4   6   -1.10    3.10
  -3  -4   6    2.20    2.10
  -3  -4   6    4.30    2.40
  -3  -4   6    5.00    2.30
   3  -4  -6   12.90    2.30
  -3   4   6    2.80    2.10
  -3   4   6    6.00    2.20
  -3   4   6    5.50    2.20
  -3   4   6    7.80    2.00
   3   4  -6   11.20    1.90
   3   4  -6    9.00    2.10
  -2  -4   6   41.20    3.70
  -2  -4   6   37.10    4.60
  -2  -4   6   46.30    3.80
  -2  -4   6   42.20    3.70
   2  -4  -6   45.70    3.70
   2  -4  -6   43.40    3.40
  -2  -4   6   40.10    4.20
  -2   4   6   49.70    4.00
  -2   4   6   45.80    3.70
  -2   4   6   44.80    4.20
   2   4  -6   40.70    3.70
   2   4  -6   44.30    3.60
  -2   4   6   37.10    4.40
  -2   4   6   42.80    4.10
  -1  -4   6  508.05   31.00
  -1  -4   6  501.75   31.30
  -1  -4   6  472.85   30.80
  -1  -4   6  490.35   31.20
   1  -4  -6  592.54   38.50
  -1  -4   6  474.85   31.10
   1  -4  -6  624.14   38.50
  -1  -4   6  464.55   31.00
   1   4  -6  590.74   38.50
  -1   4   6  520.85   31.10
  -1   4   6  524.45   31.30
   1   4  -6  619.74   38.50
  -1   4   6  494.35   31.10
  -1   4   6  470.45   31.30
  -1   4   6  472.75   31.10
   1   4  -6  631.64   38.40
   0  -4  -6  222.58   14.60
   0  -4   6  176.38   12.60
   0  -4   6  205.48   12.60
   0  -4  -6  218.78   14.70
   0  -4  -6  228.58   14.80
   0  -4   6  194.08   12.50
   0  -4  -6  221.48   14.70
   0   4  -6  255.57   14.90
   0   4  -6  233.88   14.70
   0   4   6  185.38   12.50
   0   4  -6  217.98   14.70
   0   4   6  209.48   12.60
   0   4   6  194.88   13.00
   0   4  -6  240.78   14.60
   0   4  -6  221.08   14.60
  -1  -4  -6  369.06   21.50
  -1  -4  -6  345.57   21.80
   1  -4   6  306.07   19.50
  -1  -4  -6  342.67   21.60
   1  -4   6  315.27   19.70
   1  -4   6  310.07   19.60
  -1  -4  -6  341.47   21.80
  -1  -4  -6  306.37   21.80
  -1  -4  -6  354.46   21.80
  -1   4  -6  348.37   21.40
   1   4   6  280.97   20.20
  -1   4  -6  348.97   21.80
  -1   4  -6  333.27   21.80
  -1   4  -6  325.27   21.50
  -1   4  -6  312.87   21.80
   1   4   6  324.97   19.70
  -1   4  -6  333.17   21.50
  -1   4  -6  338.97   21.60
  -2  -4  -6   92.69    7.50
   2  -4   6  106.49    6.70
  -2  -4  -6  103.79    7.20
   2  -4   6   96.49    7.00
   2  -4   6   90.39    6.60
  -2  -4  -6   99.49    7.90
  -2  -4  -6   94.29    7.70
  -2   4  -6   92.49    7.50
  -2   4  -6  105.19    7.20
  -2   4  -6  111.09    7.60
   2   4   6   97.19    6.80
  -2   4  -6  102.29    7.30
   2   4   6   82.39    7.70
  -2   4  -6  112.49    7.60
  -2   4  -6  110.09    7.50
  -3  -4  -6   52.39    5.70
   3  -4   6   61.49    5.40
   3  -4   6   51.49    5.10
  -3   4  -6   72.49    6.00
   3   4   6   41.80    7.80
  -3   4  -6   64.19    5.30
  -3   4  -6   64.99    5.60
  -3   4  -6   62.39    5.70
  -3   4  -6   58.79    6.00
  -4  -4  -6   -0.10    2.30
  -4  -4  -6    4.40    2.10
   4  -4   6    1.10    1.80
  -4   4  -6    0.90    2.20
  -4   4  -6   -1.00    3.00
   4   4   6    4.60    2.40
  -4  -5   6    5.40    2.50
  -4  -5   6   -1.10    3.10
  -4  -5   6    5.80    3.40
  -4  -5   6    4.80    3.30
  -4   5   6    1.70    3.20
  -4   5   6    9.60    2.60
  -4   5   6    4.90    2.70
  -4   5   6    6.90    4.30
   4   5  -6    2.00    3.10
  -3  -5   6   -0.10    2.30
   3  -5  -6    0.70    1.30
  -3  -5   6    3.10    2.50
  -3  -5   6    6.50    2.40
  -3  -5   6    1.20    1.70
   3  -5  -6    1.80    1.20
   3   5  -6    3.70    2.00
  -3   5   6    1.30    2.10
   3   5  -6    1.10    1.50
  -3   5   6    3.90    2.00
  -3   5   6    4.00    2.40
  -3   5   6    6.10    2.10
  -2  -5   6  205.38   14.10
  -2  -5   6  200.98   13.50
  -2  -5   6  201.28   13.50
   2  -5  -6  233.08   15.20
   2  -5  -6  232.48   15.10
   2  -5  -6  238.28   15.30
  -2  -5   6  175.48   14.00
  -2  -5   6  207.58   13.40
  -2  -5   6  188.58   14.10
  -2   5   6  215.08   13.90
   2   5  -6  230.68   15.20
   2   5  -6  234.48   15.20
  -2   5   6  221.28   13.70
  -2   5   6  206.38   13.70
  -2   5   6  200.88   14.00
  -2   5   6  224.38   13.60
  -1  -5   6  268.27   17.90
   1  -5  -6  293.97   18.80
  -1  -5   6  266.87   17.60
   1  -5  -6  294.67   18.80
  -1  -5   6  266.27   17.70
  -1  -5   6  265.87   17.40
  -1  -5   6  283.07   17.60
   1  -5  -6  303.37   18.80
   1   5  -6  304.77   18.70
  -1   5   6  282.57   17.70
   1   5  -6  269.27   18.70
   1   5  -6  296.07   18.80
  -1   5   6  279.07   17.70
  -1   5   6  285.87   18.00
  -1   5   6  270.57   17.70
  -1   5   6  265.77   17.90
   0  -5  -6   10.60    1.70
   0  -5  -6    9.30    1.60
   0  -5   6   21.00    1.90
   0  -5  -6   11.50    2.00
   0  -5   6   11.90    2.40
   0  -5   6   20.50    2.30
   0  -5   6   17.20    2.20
   0  -5   6   12.40    2.00
   0  -5  -6    9.50    1.70
   0  -5   6   17.10    2.10
   0   5  -6   10.00    1.70
   0   5   6   15.20    2.40
   0   5  -6   11.20    1.70
   0   5   6   16.40    2.00
   0   5   6   17.50    2.10
   0   5  -6    9.10    1.50
   0   5  -6   11.80    1.90
   0   5  -6    7.30    1.50
  -1  -5  -6  103.89    7.90
  -1  -5  -6  103.39    8.40
  -1  -5  -6  121.69    8.30
  -1  -5  -6  120.99    8.40
   1  -5   6  115.09    7.80
  -1  -5  -6  119.69    8.30
   1  -5   6  117.79    7.70
  -1  -5  -6  115.39    8.00
   1  -5   6  114.59    7.60
  -1   5  -6  115.29    8.20
  -1   5  -6  129.49    8.40
  -1   5  -6  117.69    8.00
  -1   5  -6  121.29    8.20
   1   5   6  119.09    7.70
   1   5   6   94.99    8.20
  -1   5  -6  122.39    7.80
  -1   5  -6  127.69    8.50
  -2  -5  -6   92.19    7.20
  -2  -5  -6   87.59    7.50
   2  -5   6   88.59    6.60
   2  -5   6  102.59    6.50
  -2  -5  -6   93.79    6.50
  -2   5  -6   78.69    6.70
  -2   5  -6   93.29    6.90
   2   5   6   86.49    6.50
  -2   5  -6   81.79    6.40
   2   5   6   73.69    7.30
  -2   5  -6   91.19    6.30
  -2   5  -6   75.79    8.40
   3  -5   6   10.50    2.40
  -3  -5  -6   10.80    2.80
   3  -5   6   20.70    4.30
   3  -5   6   14.30    2.90
  -3  -5  -6   10.70    2.60
  -3   5  -6   19.40    3.20
  -3   5  -6   13.00    2.70
  -3   5  -6   11.50    2.50
   4  -5   6    4.40    2.00
  -4  -5  -6    2.20    1.90
  -4  -5  -6   -2.10    2.50
  -4   5  -6    4.60    3.20
  -4   5  -6    7.40    2.70
  -4   5  -6    3.10    2.40
   4   5   6    2.80    2.30
  -4  -6   6   -0.90    3.70
   4  -6  -6   -0.80    2.00
  -4  -6   6    2.20    2.50
  -4  -6   6    1.80    3.20
  -4   6   6    4.50    2.40
  -4   6   6    0.60    2.80
  -4   6   6   -0.90    2.90
   4   6  -6   -2.80    2.10
  -3  -6   6   10.40    3.00
   3  -6  -6   15.70    3.00
  -3  -6   6    9.60    3.40
  -3  -6   6   11.00    3.60
   3  -6  -6    9.20    2.70
  -3  -6   6   10.80    2.50
   3   6  -6   16.20    2.80
   3   6  -6   13.40    3.10
  -3   6   6   16.90    3.20
  -2  -6   6   15.00    3.80
   2  -6  -6   23.20    3.10
   2  -6  -6   24.40    2.80
  -2  -6   6   17.20    3.30
  -2  -6   6   19.60    3.20
  -2  -6   6   18.20    2.90
  -2  -6   6   23.40    3.00
  -2   6   6   25.90    3.40
  -2   6   6   24.70    3.60
  -2   6   6   21.90    3.90
   2   6  -6   21.40    2.90
   2   6  -6   20.30    2.80
  -1  -6   6   16.40    2.20
   1  -6  -6   15.60    2.30
  -1  -6   6   16.80    2.50
  -1  -6   6   13.20    2.20
  -1  -6   6   11.50    2.30
   1  -6  -6    9.80    2.10
  -1  -6   6   14.30    3.00
   1  -6  -6   13.20    2.00
   1  -6  -6   14.30    1.90
  -1  -6   6   15.00    2.80
  -1   6   6   16.60    2.80
   1   6  -6   12.40    1.80
   1   6  -6   15.60    2.00
  -1   6   6   17.90    2.20
  -1   6   6   16.40    2.10
  -1   6   6   16.20    2.60
   1   6  -6   15.70    2.10
  -1   6   6   13.50    2.10
   0  -6  -6    7.00    1.30
   0  -6   6    9.40    1.60
   0  -6  -6   12.20    2.50
   0  -6   6   13.40    2.10
   0  -6  -6    6.60    1.30
   0  -6  -6   12.00    2.20
   0  -6   6   13.10    1.80
   0  -6   6   12.10    2.00
   0   6   6   10.20    2.40
   0   6  -6    8.60    1.70
   0   6  -6    9.00    1.80
   0   6  -6    9.80    1.60
   0   6   6   13.70    2.00
  -1  -6  -6  101.19    7.60
  -1  -6  -6   96.69    7.80
  -1  -6  -6   99.89    7.90
   1  -6   6  119.99    8.30
  -1  -6  -6  106.89    7.40
  -1  -6  -6  107.79    7.80
   1  -6   6  123.39    8.30
   1  -6   6  124.29    8.30
   1  -6   6  123.49    8.40
   1   6   6  114.39    8.40
  -1   6  -6  107.59    7.70
  -1   6  -6  106.29    7.20
  -1   6  -6  105.99    7.70
  -1   6  -6  111.99    7.80
  -1   6  -6  113.99    7.80
   2  -6   6    6.20    1.40
  -2  -6  -6   10.40    1.90
  -2  -6  -6    8.50    2.50
  -2  -6  -6    5.10    3.50
   2  -6   6    6.40    2.00
  -2  -6  -6    6.30    2.30
   2  -6   6    7.20    1.60
  -2   6  -6   12.90    2.50
  -2   6  -6   11.00    2.20
   2   6   6    8.40    2.40
   2   6   6    3.30    1.90
  -2   6  -6    9.10    1.60
  -3  -6  -6    4.10    2.50
   3  -6   6    2.80    2.40
   3  -6   6    2.90    1.70
  -3  -6  -6    2.80    2.30
  -3   6  -6    6.00    2.20
  -3   6  -6    8.60    2.40
  -3   6  -6    4.60    2.70
  -3   6  -6    3.60    2.10
  -4  -7   6    5.20    4.70
   4  -7  -6    1.90    1.90
   4   7  -6   -2.10    2.70
  -4   7   6    5.80    2.90
  -4   7   6    0.40    3.50
  -4   7   6   -2.70    2.40
   4   7  -6    0.20    2.40
  -3  -7   6    4.30    2.80
   3  -7  -6    2.50    1.60
   3  -7  -6    4.00    1.40
  -3  -7   6    5.00    3.70
  -3   7   6    5.90    2.20
   3   7  -6    1.70    1.50
  -3   7   6    2.70    2.70
  -3   7   6    8.10    2.60
  -3   7   6    0.40    2.50
  -2  -7   6    9.20    2.30
  -2  -7   6    8.70    3.40
  -2  -7   6    2.10    2.50
   2  -7  -6    9.10    1.70
   2  -7  -6   11.20    2.00
   2  -7  -6    5.30    1.80
   2  -7  -6    9.80    2.10
  -2  -7   6    4.90    2.30
  -2  -7   6    5.70    1.90
  -2   7   6    3.90    2.00
   2   7  -6    6.90    1.50
  -2   7   6    3.50    2.80
  -2   7   6    1.30    1.90
  -2   7   6    6.10    2.00
   2   7  -6    5.10    1.80
  -2   7   6    7.90    1.60
  -1  -7   6    8.20    1.70
   1  -7  -6    9.80    2.20
  -1  -7   6    6.10    2.50
  -1  -7   6    5.30    3.40
   1  -7  -6   11.70    1.90
  -1  -7   6    8.70    1.70
   1  -7  -6    7.10    1.80
   1  -7  -6    9.00    1.70
  -1  -7   6   11.60    2.40
  -1  -7   6    8.80    1.50
   1  -7  -6   10.60    2.00
  -1   7   6    9.40    1.50
  -1   7   6    9.00    2.20
  -1   7   6    7.40    1.90
   1   7  -6   12.40    1.90
  -1   7   6    7.30    1.70
  -1   7   6   12.80    2.10
   1   7  -6   10.30    2.00
   1   7  -6   11.00    2.10
   0  -7  -6   -0.70    1.00
   0  -7  -6    2.60    1.30
   0  -7   6    2.50    1.20
   0  -7  -6   -1.90    1.60
   0  -7   6    0.20    1.20
   0  -7   6    1.40    1.00
   0  -7   6   -0.20    1.20
   0  -7  -6    0.80    1.00
   0   7   6    0.70    1.00
   0   7  -6    2.10    1.20
   0   7   6    1.10    1.30
   0   7   6    3.60    1.10
   0   7  -6   -0.50    1.30
   0   7  -6    1.20    1.00
   0   7  -6    1.50    0.90
   1  -7   6   57.19    5.40
   1  -7   6   52.09    4.60
  -1  -7  -6   39.40    7.00
  -1  -7  -6   53.49    5.70
  -1  -7  -6   50.69    5.30
   1  -7   6   42.20    4.90
   1  -7   6   57.09    5.20
  -1  -7  -6   48.90    4.20
  -1  -7  -6   52.59    4.80
  -1   7  -6   45.30    4.90
   1   7   6   54.79    4.50
  -1   7  -6   50.69    4.90
  -1   7  -6   50.99    3.90
  -1   7  -6   48.70    4.50
  -2  -7  -6    3.80    2.10
   2  -7   6    2.90    2.00
   2  -7   6    1.50    1.70
   2  -7   6   -0.90    1.10
  -2  -7  -6    3.50    2.40
  -2  -7  -6    5.00    1.70
   2   7   6    1.60    2.10
  -2   7  -6    1.30    2.10
  -2   7  -6    2.60    1.40
  -2   7  -6    2.70    2.10
  -2   7  -6    1.20    2.00
  -2   7  -6    1.10    2.20
  -2   7  -6   -1.40    1.60
   2   7   6   -1.20    1.80
  -3  -7  -6    1.10    2.70
  -3  -7  -6   -0.50    2.30
   3  -7   6   -0.50    1.60
   3  -7   6   -1.10    2.90
  -3   7  -6    0.90    2.60
  -3   7  -6   -3.70    2.20
  -3   7  -6    5.50    2.30
  -3   7  -6    3.50    2.30
  -3  -8   6   -0.50    2.50
  -3  -8   6    4.30    2.90
   3  -8  -6    3.90    1.90
   3  -8  -6    6.30    1.70
  -3  -8   6    3.10    4.70
  -3   8   6    2.40    2.20
  -3   8   6    4.40    3.40
   3   8  -6    2.60    2.30
   3   8  -6    4.50    1.70
  -2  -8   6    1.10    2.20
   2  -8  -6    0.90    2.20
   2  -8  -6    2.50    1.30
   2  -8  -6    1.90    1.90
  -2  -8   6    0.80    1.90
  -2  -8   6   -0.60    2.20
   2  -8  -6    0.60    1.50
  -2  -8   6    2.40    2.70
  -2  -8   6    7.00    4.20
  -2   8   6    1.50    1.40
  -2   8   6    0.30    2.20
  -2   8   6    0.30    3.00
   2   8  -6    2.00    1.90
  -2   8   6    4.80    2.10
  -2   8   6    0.00    2.00
   2   8  -6   -0.50    1.60
   1  -8  -6   58.49    4.60
   1  -8  -6   62.29    5.00
  -1  -8   6   56.89    4.60
   1  -8  -6   52.09    5.40
  -1  -8   6   43.20    4.40
  -1  -8   6   50.29    4.40
  -1  -8   6   40.30    4.10
   1  -8  -6   64.09    4.60
  -1  -8   6   50.29    4.70
   1  -8  -6   62.29    4.80
   1   8  -6   51.39    4.90
   1   8  -6   53.39    5.40
  -1   8   6   53.99    4.40
  -1   8   6   47.30    5.30
  -1   8   6   58.59    4.90
   1   8  -6   53.49    4.40
  -1   8   6   50.09    4.20
   1   8  -6   58.69    4.70
   0  -8   6  126.29    8.20
   0  -8  -6  116.29    8.10
   0  -8  -6  114.19    8.50
   0  -8  -6  122.89    8.60
   0  -8   6  119.99    8.30
   0  -8  -6  114.29    8.00
   0  -8   6  114.19    8.10
   0   8  -6  125.49    8.60
   0   8  -6  117.19    7.90
   0   8   6  100.99    8.30
   0   8   6  103.39    7.80
   0   8  -6  125.29    8.20
   0   8  -6   98.49    8.00
   0   8   6  114.69    8.20
   1  -8   6   21.80    2.90
   1  -8   6   17.50    3.10
  -1  -8  -6   14.10    2.80
  -1  -8  -6   21.40    3.50
  -1  -8  -6   16.30    2.80
   1  -8   6   15.30    3.50
  -1  -8  -6   20.30    3.80
  -1   8  -6   22.00    2.50
   1   8   6   15.30    3.00
  -1   8  -6   24.30    3.40
  -1   8  -6   24.50    2.80
  -1   8  -6   20.30    3.20
  -2  -8  -6    8.80    3.20
   2  -8   6    9.60    2.00
   2  -8   6    5.00    2.20
  -2  -8  -6   10.50    2.70
  -2   8  -6   16.20    3.10
  -2   8  -6    9.20    2.00
  -2   8  -6   10.40    1.90
   2   8   6    7.60    3.00
   2   8   6    7.90    2.20
  -2   8  -6   10.80    2.40
  -3  -8  -6    7.50    3.10
   3  -8   6    4.10    2.10
  -3   8  -6   12.10    3.00
  -3   8  -6    2.20    2.80
  -3   8  -6   13.00    3.10
  -3  -9   6    7.10    6.10
   3  -9  -6    1.30    1.40
   3  -9  -6    2.00    1.80
   3   9  -6    1.50    2.40
  -3   9   6    1.00    3.00
  -3   9   6   -0.60    2.20
  -2  -9   6    7.60    2.30
   2  -9  -6    7.80    1.90
  -2  -9   6    7.40    2.60
   2  -9  -6   13.90    2.50
  -2   9   6    9.60    2.70
   2   9  -6    8.70    2.30
   2   9  -6    8.00    1.70
  -2   9   6   10.30    2.50
   2   9  -6   13.40    2.60
  -2   9   6    9.30    3.00
  -2   9   6   11.00    2.10
  -1  -9   6   24.50    4.10
  -1  -9   6   25.90    3.60
   1  -9  -6   26.10    3.10
  -1  -9   6   30.20    3.50
   1  -9  -6   33.50    3.80
   1  -9  -6   28.80    3.30
  -1   9   6   24.70    3.60
  -1   9   6   33.20    3.30
  -1   9   6   29.30    3.30
   1   9  -6   31.70    3.50
  -1   9   6   29.30    4.00
   1   9  -6   32.90    3.20
   0  -9  -6   14.40    3.10
   0  -9  -6   13.20    2.70
   0  -9   6   13.80    2.20
   0  -9   6   11.10    2.50
   0  -9  -6    8.10    2.30
   0  -9  -6   11.70    1.80
   0  -9   6   16.00    2.50
   0  -9   6   14.20    2.90
   0   9   6   13.50    3.80
   0   9  -6   16.90    2.60
   0   9  -6    8.20    2.20
   0   9  -6   14.30    2.10
   0   9   6    9.30    2.20
   0   9  -6   14.10    2.70
   0   9   6   10.20    1.90
  -1  -9  -6   11.00    2.40
  -1  -9  -6    8.80    2.50
  -1  -9  -6    9.30    2.80
  -1  -9  -6    8.40    2.00
   1  -9   6    7.90    2.50
   1  -9   6   11.80    2.60
   1   9   6    5.50    2.00
  -1   9  -6    7.50    1.50
  -1   9  -6   10.60    2.60
  -1   9  -6    9.90    1.80
  -1   9  -6    8.20    2.00
  -2  -9  -6   -2.10    2.30
   2  -9   6   -0.80    2.50
  -2  -9  -6    3.00    2.30
   2  -9   6    1.50    1.80
  -2   9  -6    6.30    2.40
  -2   9  -6    2.30    2.10
   2   9   6    3.20    2.10
  -2   9  -6    0.30    1.90
  -3  -9  -6    2.30    3.50
   3  -9   6   -2.20    2.00
  -3  -9  -6   -1.50    2.00
  -3   9  -6   -2.10    4.10
  -3   9  -6   -1.40    2.60
   3 -10  -6    2.20    1.70
   3 -10  -6    4.20    2.40
  -3  10   6   -2.60    4.30
   3  10  -6    1.80    2.50
  -3  10   6    5.40    2.50
   3  10  -6   -1.30    1.90
   2 -10  -6    5.70    2.40
   2 -10  -6    5.70    1.70
  -2 -10   6    0.20    2.60
   2 -10  -6    0.40    1.80
  -2 -10   6    3.70    2.20
   2  10  -6    2.50    1.40
  -2  10   6    6.50    1.80
  -2  10   6    5.40    2.40
   2  10  -6    1.30    2.10
   1 -10  -6   35.20    3.60
  -1 -10   6   39.30    4.50
  -1 -10   6   40.70    4.20
   1 -10  -6   28.40    3.80
   1  10  -6   38.20    4.20
   1  10  -6   26.20    3.70
  -1  10   6   37.50    4.10
  -1  10   6   41.00    4.10
  -1  10   6   41.90    4.70
   1  10  -6   35.90    3.40
   0 -10   6    0.40    2.30
   0 -10  -6    4.10    2.10
   0 -10  -6    5.00    1.70
   0 -10  -6    4.50    1.90
   0 -10   6    2.50    1.70
   0 -10   6    5.10    2.00
   0  10  -6    3.90    1.90
   0  10   6    2.70    2.70
   0  10   6    3.20    1.80
   0  10   6    3.40    1.70
   0  10  -6    1.10    1.60
   0  10   6    1.50    2.00
   0  10  -6    3.80    1.30
  -1 -10  -6   18.90    3.90
  -1 -10  -6   12.90    2.40
   1 -10   6   14.00    3.00
  -1 -10  -6   10.10    2.70
   1 -10   6   15.20    2.80
   1 -10   6   11.40    2.00
  -1 -10  -6   14.90    3.10
  -1  10  -6   11.50    2.00
   1  10   6   11.60    2.40
  -1  10  -6    8.70    1.80
  -1  10  -6   15.00    3.30
  -1  10  -6   11.70    2.50
   2 -10   6    2.90    2.70
  -2 -10  -6    0.40    2.60
  -2 -10  -6   -0.60    2.70
   2 -10   6    4.90    1.90
   2 -10   6    4.50    3.10
  -2  10  -6    3.80    2.70
   2  10   6    7.80    2.60
  -2  10  -6    8.40    2.90
  -2 -11   6   -1.60    3.00
   2 -11  -6    2.50    2.40
   2 -11  -6    4.10    3.00
  -2 -11   6    9.00    2.40
   2 -11  -6    2.00    1.90
  -2  11   6    3.10    2.40
  -2  11   6    4.40    1.90
   2  11  -6    1.90    2.00
   2  11  -6    1.60    1.60
  -1 -11   6   -0.40    2.00
   1 -11  -6   -0.40    1.90
  -1 -11   6   -1.50    2.00
   1 -11  -6   -0.10    1.50
  -1  11   6    1.80    2.50
   1  11  -6    0.70    1.30
   1  11  -6   -4.20    2.50
  -1  11   6    1.40    2.20
   1  11  -6    3.50    2.20
   1  11  -6    1.50    2.00
  -1  11   6    1.10    1.70
   0 -11   6    9.80    2.20
   0 -11   6    9.20    2.50
   0 -11  -6    8.80    2.60
   0 -11  -6   13.60    3.40
   0 -11  -6    6.60    2.50
   0  11  -6    7.30    2.30
   0  11   6   11.40    2.30
   0  11   6    6.80    2.00
   0  11  -6    9.00    2.60
   0  11   6    8.30    2.50
   0  11  -6    9.20    1.60
  -1 -11  -6   -1.50    2.70
   1 -11   6   -4.10    4.40
   1 -11   6   -0.20    2.70
  -1  11  -6   -1.00    2.60
   1  11   6   -4.20    3.80
   1  11   6    2.00    2.40
   2 -11   6   -0.90    2.00
   2 -11   6    5.60    2.30
  -2 -11  -6   -1.00    2.60
   2 -11   6    5.90    4.20
  -2 -11  -6    3.70    3.40
  -2  11  -6    4.30    2.80
   2  11   6    2.30    2.70
  -1 -12   6    5.80    2.40
   1 -12  -6    0.90    2.10
   1 -12  -6    0.80    1.70
   1  12  -6   -0.90    2.60
  -1  12   6    4.00    1.80
   1  12  -6    3.10    1.50
  -1  12   6    4.80    2.40
   1  12  -6   -0.80    2.40
   0 -12  -6    3.70    2.20
   0 -12   6    3.40    2.50
   0 -12  -6    1.70    2.30
   0 -12   6    5.40    2.50
   0 -12  -6   -0.70    3.90
   0 -12  -6    3.10    2.20
   0 -12   6    2.50    1.70
   0  12  -6    3.00    2.50
   0  12   6    4.10    2.70
   0  12  -6    3.80    1.40
  -1 -12  -6    5.00    3.10
   1 -12   6    2.00    2.40
  -1 -12  -6    4.70    3.00
   1 -12   6    5.70    3.10
  -1 -12  -6    7.00    2.70
   1  12   6    2.70    2.30
  -1  12  -6    6.60    1.90
  -1  12  -6    3.80    2.80
   1  12   6    6.10    3.20
  -4   0   7    0.00    2.40
   4   0  -7   -1.10    2.50
  -4   0   7    1.60    2.10
  -4   0   7   -0.50    2.50
  -3   0   7   -2.00    1.50
  -3   0   7   -0.30    2.10
  -3   0   7    2.30    2.00
   3   0  -7    1.50    1.30
   2   0  -7    2.40    1.00
  -2   0   7    0.80    1.30
   2   0  -7    0.60    1.20
  -2   0   7   -0.80    1.00
  -2   0   7   -0.40    1.50
  -1   0   7    1.90    1.40
   1   0  -7    0.80    0.90
   1   0  -7    1.60    0.80
  -1   0   7    1.70    0.80
  -1   0   7    1.10    1.00
  -1   0   7    0.00    1.10
   1   0  -7    1.00    0.80
  -1   0   7    1.70    1.30
   0   0  -7    0.40    0.70
   0   0   7    1.20    0.80
   0   0  -7    0.10    0.80
   0   0  -7   -0.50    1.10
   0   0   7    1.40    1.00
   0   0  -7    0.70    1.00
   0   0  -7    0.00    0.70
   0   0   7   -0.10    0.80
  -1   0  -7    2.00    1.10
   1   0   7   -0.60    0.80
  -1   0  -7    2.70    1.20
  -1   0  -7    1.50    0.80
  -1   0  -7    1.60    0.90
   1   0   7   -0.10    0.90
   1   0   7    2.60    1.40
  -1   0  -7    2.00    1.50
  -1   0  -7    1.60    0.90
  -2   0  -7   -0.20    1.00
  -2   0  -7   -1.40    1.50
  -2   0  -7   -0.10    1.80
   2   0   7   -0.10    1.00
  -2   0  -7   -1.40    1.00
  -2   0  -7    0.00    1.20
   2   0   7    0.50    1.60
   3   0   7   -3.40    2.90
  -3   0  -7   -1.00    1.40
  -3   0  -7   -2.10    2.00
   3   0   7    2.60    1.60
  -3   0  -7   -0.80    2.00
  -3   0  -7   -0.40    1.50
  -4   0  -7   -0.80    2.10
  -4   0  -7    3.50    3.00
  -4   0  -7    5.40    3.00
   4   0   7    0.30    2.90
  -4  -1   7    2.80    2.80
  -4  -1   7    2.20    2.70
   4  -1  -7    0.70    2.40
  -4  -1   7    0.20    2.10
  -4   1   7   -0.70    2.70
  -4   1   7    3.90    2.10
  -4   1   7   -1.80    2.50
   4   1  -7    3.10    2.50
  -3  -1   7   20.40    4.00
   3  -1  -7   32.00    3.30
  -3  -1   7   27.80    4.30
  -3  -1   7   28.10    3.50
  -3   1   7   24.40    4.30
  -3   1   7   20.00    3.80
  -3   1   7   31.20    3.60
   3   1  -7   29.90    3.40
   3   1  -7   30.60    3.80
  -3   1   7   22.90    3.80
  -2  -1   7    3.10    1.70
  -2  -1   7    4.00    1.60
  -2  -1   7    4.70    1.20
  -2  -1   7    2.50    1.40
   2  -1  -7    5.40    1.20
   2  -1  -7    4.80    1.10
  -2   1   7    4.90    1.60
   2   1  -7    8.60    1.70
  -2   1   7    3.40    1.10
   2   1  -7    6.50    1.40
  -2   1   7    4.30    2.10
  -2   1   7    5.40    1.60
  -2   1   7    3.10    1.80
  -1  -1   7  418.16   25.70
  -1  -1   7  394.76   25.30
  -1  -1   7  399.66   25.20
   1  -1  -7  473.15   29.50
   1  -1  -7  463.25   29.50
  -1  -1   7  402.86   25.40
  -1  -1   7  411.96   25.60
  -1   1   7  398.26   25.20
  -1   1   7  401.26   25.50
   1   1  -7  446.06   29.60
  -1   1   7  378.46   25.40
   1   1  -7  501.65   29.50
   1   1  -7  459.65   29.40
   0  -1  -7  194.98   13.70
   0  -1  -7  209.98   13.80
   0  -1   7  167.18   11.00
   0  -1  -7  222.48   13.90
   0  -1   7  166.68   10.70
   0  -1   7  157.28   10.70
   0  -1   7  169.98   10.80
   0  -1  -7  206.18   13.80
   0  -1  -7  206.78   13.80
   0  -1   7  166.98   10.80
   0   1  -7  214.18   13.90
   0   1  -7  217.28   13.80
   0   1  -7  237.18   13.80
   0   1   7  171.48   11.10
   0   1   7  165.58   10.60
   0   1  -7  218.68   13.80
   0   1  -7  224.28   13.80
   0   1  -7  219.78   13.90
   0   1   7  153.48   10.60
  -1  -1  -7  491.75   30.60
   1  -1   7  443.56   26.90
   1  -1   7  424.16   27.60
  -1  -1  -7  481.25   31.00
  -1  -1  -7  486.25   30.90
   1  -1   7  425.56   26.90
  -1  -1  -7  471.25   30.70
  -1  -1  -7  492.85   30.80
  -1  -1  -7  487.15   30.80
  -1   1  -7  503.05   30.60
  -1   1  -7  497.55   30.80
  -1   1  -7  465.65   30.90
  -1   1  -7  479.95   30.60
  -1   1  -7  466.35   30.70
   1   1   7  443.46   27.00
   1   1   7  404.66   26.80
   1   1   7  413.56   27.60
  -1   1  -7  508.05   30.80
  -1   1  -7  492.35   30.90
  -2  -1  -7   84.29    6.20
  -2  -1  -7   83.29    6.70
   2  -1   7   81.49    5.90
   2  -1   7   85.09    5.80
   2  -1   7   80.19    7.20
  -2  -1  -7   85.79    6.10
  -2  -1  -7   87.89    5.80
  -2  -1  -7   86.09    6.40
  -2   1  -7   73.59    6.40
  -2   1  -7   77.09    6.10
  -2   1  -7   85.79    6.00
  -2   1  -7   79.59    5.70
   2   1   7   83.29    6.00
   2   1   7   80.79    7.10
  -2   1  -7   77.19    6.20
  -2   1  -7   75.09    5.70
  -3  -1  -7   14.60    2.70
   3  -1   7    6.30    3.00
   3  -1   7    9.40    2.00
  -3  -1  -7   10.80    2.70
  -3  -1  -7    6.60    2.10
   3   1   7    6.30    2.90
   3   1   7    2.80    1.70
  -3   1  -7    9.00    2.40
  -3   1  -7    7.80    2.10
  -3   1  -7   10.30    2.40
  -3   1  -7    9.00    2.00
  -4  -1  -7    4.60    2.10
  -4  -1  -7    1.60    1.60
  -4  -1  -7    5.10    3.20
   4  -1   7    0.90    2.80
  -4   1  -7    4.20    2.20
  -4   1  -7    4.80    2.00
  -4   1  -7    1.70    2.90
  -4   1  -7    0.10    3.60
  -4  -2   7    8.80    3.20
   4  -2  -7    6.00    2.30
  -4  -2   7    3.10    2.90
  -4  -2   7    0.70    3.20
  -4  -2   7    6.90    2.10
  -4  -2   7    4.10    2.50
  -4   2   7   -0.20    3.20
  -4   2   7    6.00    2.80
  -4   2   7    2.00    2.10
  -4   2   7    8.10    3.10
   4   2  -7    6.20    2.90
  -3  -2   7    5.40    2.80
   3  -2  -7   13.20    2.40
  -3  -2   7    7.70    2.60
  -3  -2   7   11.20    2.40
   3   2  -7   10.60    2.10
  -3   2   7   11.20    2.40
  -3   2   7    4.90    2.70
  -3   2   7   11.70    2.60
  -3   2   7   15.00    3.00
  -2  -2   7   39.50    4.40
   2  -2  -7   43.60    3.50
  -2  -2   7   40.20    3.50
  -2  -2   7   34.00    4.50
   2  -2  -7   48.30    3.60
  -2  -2   7   44.70    3.90
   2   2  -7   44.10    3.70
  -2   2   7   45.50    4.30
   2   2  -7   44.70    3.50
  -2   2   7   43.40    4.60
  -2   2   7   40.40    3.80
  -2   2   7   41.20    4.00
  -1  -2   7   34.30    4.10
   1  -2  -7   34.60    2.70
   1  -2  -7   29.50    3.00
  -1  -2   7   39.80    3.20
  -1  -2   7   39.30    3.20
   1  -2  -7   36.30    2.70
  -1  -2   7   46.10    3.90
  -1   2   7   35.70    3.40
  -1   2   7   33.90    3.60
  -1   2   7   39.40    3.30
  -1   2   7   46.50    3.40
   1   2  -7   33.20    2.90
  -1   2   7   41.00    3.00
   1   2  -7   34.60    2.70
   1   2  -7   31.30    2.80
  -1   2   7   41.90    3.50
   0  -2   7  394.36   25.40
   0  -2  -7  542.65   33.70
   0  -2   7  388.86   25.40
   0  -2   7  390.76   25.50
   0  -2  -7  560.74   33.80
   0  -2  -7  519.05   33.70
   0  -2  -7  537.15   33.70
   0  -2  -7  506.45   33.70
   0  -2   7  416.66   25.50
   0   2  -7  518.75   33.70
   0   2   7  417.66   25.80
   0   2  -7  576.54   33.80
   0   2   7  414.06   25.40
   0   2   7  364.26   25.30
   0   2  -7  522.75   33.60
   0   2   7  428.86   25.40
   0   2  -7  548.15   33.60
   0   2  -7  523.75   33.70
   1  -2   7  131.09    8.20
  -1  -2  -7  128.19    8.80
  -1  -2  -7  134.89    8.90
  -1  -2  -7  131.09    9.00
  -1  -2  -7  137.69    9.00
  -1  -2  -7  135.49    8.60
   1  -2   7  127.59    8.50
  -1  -2  -7  126.09    9.10
   1  -2   7  120.19    8.20
   1   2   7  113.89    8.90
  -1   2  -7  135.19    8.60
   1   2   7  126.39    8.30
   1   2   7  126.29    8.20
  -1   2  -7  121.99    8.60
  -1   2  -7  132.39    8.80
  -1   2  -7  130.09    9.00
  -1   2  -7  128.99    8.90
  -1   2  -7  127.39    9.10
  -1   2  -7  138.89    8.90
   2  -2   7  154.78   10.60
  -2  -2  -7  185.68   11.90
  -2  -2  -7  172.48   12.30
  -2  -2  -7  189.78   12.40
   2  -2   7  168.48   10.30
  -2  -2  -7  171.38   12.50
   2  -2   7  158.48   10.30
  -2  -2  -7  183.78   12.80
  -2   2  -7  186.98   12.30
  -2   2  -7  186.88   12.20
  -2   2  -7  180.48   12.50
   2   2   7  136.99   11.40
  -2   2  -7  186.68   12.30
  -2   2  -7  171.08   12.50
  -2   2  -7  201.98   12.00
  -3  -2  -7  103.79    9.20
   3  -2   7   88.79    7.50
  -3  -2  -7  128.79    8.90
   3  -2   7   98.09    9.30
  -3  -2  -7  107.29    8.90
  -3   2  -7  113.29    9.10
  -3   2  -7  113.49    8.70
   3   2   7  105.09    7.10
  -3   2  -7  137.99    9.30
   3   2   7   79.79    9.60
  -3   2  -7  127.09    8.70
  -4  -2  -7   -1.20    1.90
  -4  -2  -7   -2.10    3.60
  -4  -2  -7    1.40    2.10
   4  -2   7   -1.90    3.80
  -4   2  -7    0.70    1.80
  -4   2  -7   -1.50    3.10
  -4   2  -7    1.30    1.90
  -4   2  -7    5.20    2.70
  -4  -3   7    7.80    3.20
  -4  -3   7    7.60    3.30
   4  -3  -7   10.60    2.30
  -4  -3   7    2.70    2.30
  -4   3   7    3.20    3.10
  -4   3   7   14.10    3.50
   4   3  -7    6.70    4.10
  -4   3   7    6.10    2.80
   4   3  -7    9.30    2.20
  -3  -3   7   20.70    4.30
  -3  -3   7   25.30    3.90
   3  -3  -7   38.10    3.70
  -3  -3   7   21.30    4.10
   3  -3  -7   40.20    3.70
   3   3  -7   35.10    4.10
  -3   3   7   35.60    4.60
  -3   3   7   32.60    4.80
  -3   3   7   27.80    3.70
  -2  -3   7   32.80    3.10
   2  -3  -7   29.30    2.80
  -2  -3   7   31.40    3.20
  -2  -3   7   34.70    3.70
   2  -3  -7   28.40    2.70
  -2  -3   7   30.80    4.00
  -2   3   7   29.90    3.30
  -2   3   7   35.50    3.70
  -2   3   7   33.10    3.10
  -2   3   7   41.30    4.00
   2   3  -7   30.70    3.00
  -2   3   7   27.10    4.10
   2   3  -7   31.70    2.90
  -1  -3   7  587.84   37.60
  -1  -3   7  600.54   37.70
   1  -3  -7  680.03   43.40
   1  -3  -7  655.63   43.40
  -1  -3   7  556.24   37.60
  -1  -3   7  597.64   37.90
  -1  -3   7  571.24   37.80
   1  -3  -7  688.53   43.30
   1   3  -7  756.82   43.30
  -1   3   7  582.34   37.70
  -1   3   7  642.44   37.90
  -1   3   7  600.34   37.70
   1   3  -7  700.43   43.30
   1   3  -7  657.03   43.40
  -1   3   7  635.34   37.90
  -1   3   7  599.44   37.50
   0  -3   7  308.57   20.00
   0  -3   7  296.27   20.10
   0  -3  -7  357.36   22.80
   0  -3  -7  376.36   23.00
   0  -3  -7  353.16   22.80
   0  -3  -7  343.87   22.80
   0  -3   7  320.77   20.10
   0  -3  -7  373.56   23.00
   0  -3  -7  359.26   22.80
   0   3  -7  339.37   22.70
   0   3  -7  357.56   22.80
   0   3   7  320.47   20.00
   0   3   7  323.97   20.10
   0   3  -7  376.16   23.00
   0   3   7  311.17   20.00
   0   3  -7  360.66   22.80
   0   3  -7  366.16   22.70
   0   3   7  326.47   20.50
   1  -3   7  110.19    7.40
  -1  -3  -7  111.29    7.10
  -1  -3  -7  107.99    7.30
  -1  -3  -7  108.09    7.70
   1  -3   7  108.79    7.20
  -1  -3  -7  112.49    7.50
  -1  -3  -7  107.49    7.40
   1  -3   7  104.89    7.20
  -1  -3  -7   96.69    7.30
   1   3   7   99.49    8.00
  -1   3  -7  105.09    7.30
  -1   3  -7  104.49    7.50
  -1   3  -7  106.99    7.60
  -1   3  -7  108.79    7.50
  -1   3  -7   93.39    7.10
  -1   3  -7  104.69    7.10
  -1   3  -7  113.69    7.50
   1   3   7  108.19    7.20
   2  -3   7  151.48   10.00
  -2  -3  -7  159.78   10.60
  -2  -3  -7  138.29   10.70
  -2  -3  -7  153.18   10.30
   2  -3   7  136.19    9.70
   2  -3   7  153.68    9.80
  -2  -3  -7  148.59   10.90
  -2   3  -7  160.08   10.40
  -2   3  -7  156.18   10.60
  -2   3  -7  155.98   10.60
  -2   3  -7  143.39   10.60
   2   3   7  137.89   11.00
  -2   3  -7  159.48   10.20
  -2   3  -7  146.79   10.30
   3  -3   7   68.59    5.70
   3  -3   7   70.09    7.90
  -3  -3  -7   79.59    6.80
  -3  -3  -7   65.69    6.70
   3   3   7   49.99    8.40
  -3   3  -7   81.29    6.80
  -3   3  -7   89.69    6.60
   3   3   7   62.59    5.50
  -3   3  -7   89.89    7.00
  -3   3  -7   78.99    6.40
  -4  -3  -7    1.30    1.90
   4  -3   7    4.50    1.90
  -4  -3  -7    0.00    2.10
  -4   3  -7    0.80    2.30
   4   3   7    1.30    2.60
  -4   3  -7   -1.20    3.10
  -4   3  -7   -1.60    1.90
  -4  -4   7    0.60    2.90
  -4  -4   7    0.00    2.90
  -4  -4   7    1.20    2.80
   4  -4  -7    0.20    2.00
   4   4  -7    1.90    2.00
  -4   4   7    5.60    3.40
  -4   4   7    0.40    2.70
  -4   4   7    6.20    2.40
  -4   4   7   -1.30    3.20
   3  -4  -7   20.00    2.70
  -3  -4   7   15.90    3.10
  -3  -4   7   17.80    3.90
  -3   4   7   19.20    3.80
   3   4  -7   15.80    2.30
   3   4  -7   13.40    2.40
  -3   4   7   14.00    3.10
  -3   4   7   23.00    4.20
  -2  -4   7   14.90    2.50
  -2  -4   7   15.40    3.20
  -2  -4   7   16.30    3.70
  -2  -4   7   18.20    2.50
   2  -4  -7   20.40    2.50
   2  -4  -7   23.70    2.40
   2   4  -7   22.30    2.60
  -2   4   7   11.80    2.60
   2   4  -7   19.30    2.60
  -2   4   7   16.40    2.90
   1  -4  -7  181.58   11.40
   1  -4  -7  166.38   11.30
  -1  -4   7  143.69   10.50
  -1  -4   7  152.08   10.30
   1  -4  -7  173.48   11.30
  -1  -4   7  153.98   10.30
  -1  -4   7  156.28   10.80
  -1  -4   7  148.99   10.70
  -1   4   7  157.68   10.00
  -1   4   7  167.68   10.40
   1   4  -7  169.88   11.30
   1   4  -7  179.18   11.30
   1   4  -7  171.48   11.40
  -1   4   7  157.18   10.50
  -1   4   7  167.08   10.60
  -1   4   7  151.58   10.40
   0  -4   7   78.79    5.30
   0  -4   7   76.79    5.20
   0  -4  -7   77.19    5.50
   0  -4  -7   73.39    5.40
   0  -4  -7   58.49    6.40
   0  -4   7   70.49    5.30
   0  -4  -7   71.09    5.10
   0  -4  -7   75.79    5.00
   0   4   7   72.09    5.80
   0   4   7   77.29    5.10
   0   4  -7   75.69    5.60
   0   4  -7   70.59    5.10
   0   4  -7   73.39    4.90
   0   4   7   74.39    5.20
   0   4  -7   72.19    5.10
   0   4   7   61.09    5.30
  -1  -4  -7   26.60    3.00
  -1  -4  -7   32.80    3.50
   1  -4   7   29.20    2.60
   1  -4   7   36.50    3.10
  -1  -4  -7   30.50    2.80
  -1  -4  -7   30.70    3.50
   1  -4   7   28.10    2.80
  -1  -4  -7   35.50    3.40
  -1   4  -7   36.00    3.40
  -1   4  -7   28.20    3.50
  -1   4  -7   35.40    3.20
  -1   4  -7   38.40    2.90
  -1   4  -7   30.80    2.70
   1   4   7   31.20    2.80
   1   4   7   23.10    3.60
  -1   4  -7   32.30    2.90
  -1   4  -7   33.00    3.60
  -2  -4  -7  222.68   14.50
  -2  -4  -7  214.28   14.80
   2  -4   7  222.78   14.40
   2  -4   7  243.88   14.20
   2  -4   7  208.68   14.00
  -2  -4  -7  217.88   15.10
  -2   4  -7  215.78   14.50
  -2   4  -7  195.68   16.00
  -2   4  -7  206.48   14.80
  -2   4  -7  228.38   14.40
  -2   4  -7  247.68   14.90
   2   4   7  183.08   15.20
  -3  -4  -7    7.30    2.30
   3  -4   7    6.80    2.20
  -3  -4  -7   10.70    2.40
  -3  -4  -7    2.70    3.10
  -3   4  -7    8.00    1.80
  -3   4  -7    4.60    2.20
  -3   4  -7    7.00    2.70
  -3   4  -7    8.50    2.40
   3   4   7    2.20    4.10
  -3   4  -7    7.80    2.30
  -4  -4  -7    0.40    1.70
   4  -4   7    4.50    2.10
  -4  -4  -7    1.30    2.60
  -4   4  -7    2.10    3.20
  -4   4  -7    6.10    2.50
  -4   4  -7    2.50    2.60
   4   4   7    0.40    2.50
  -4  -5   7    1.20    3.20
  -4  -5   7    2.30    3.10
   4  -5  -7    3.40    1.90
  -4   5   7   -4.30    2.60
  -4   5   7   -2.10    2.90
   4   5  -7   -0.80    1.90
  -4   5   7    1.10    3.60
  -4   5   7   -1.00    2.30
  -3  -5   7   -0.50    2.30
   3  -5  -7    1.30    1.30
  -3  -5   7    1.60    1.90
  -3  -5   7   -0.40    2.50
  -3  -5   7    1.40    2.60
   3  -5  -7    0.50    1.30
  -3   5   7   -2.20    2.30
  -3   5   7   -0.10    2.60
   3   5  -7   -0.90    1.60
  -3   5   7    3.20    2.10
   3   5  -7    0.40    1.90
  -3   5   7    1.60    2.20
  -2  -5   7   12.10    2.90
  -2  -5   7   15.80    2.80
  -2  -5   7   13.50    2.80
   2  -5  -7   23.80    2.80
   2  -5  -7   22.90    2.60
  -2  -5   7   13.60    2.40
   2   5  -7   25.20    2.80
  -2   5   7   19.00    2.40
  -2   5   7   14.00    2.60
   2   5  -7   27.10    2.90
  -2   5   7   21.00    3.30
  -1  -5   7   46.90    4.10
  -1  -5   7   53.79    4.00
   1  -5  -7   61.09    4.50
   1  -5  -7   59.29    4.50
  -1  -5   7   53.29    4.00
   1  -5  -7   58.19    4.70
  -1  -5   7   41.60    5.00
  -1  -5   7   49.90    4.20
  -1   5   7   49.50    4.00
   1   5  -7   66.69    4.60
   1   5  -7   62.99    4.50
  -1   5   7   56.29    4.20
  -1   5   7   48.90    4.50
   1   5  -7   56.49    4.50
  -1   5   7   43.10    4.30
  -1   5   7   47.60    4.40
   0  -5  -7    9.40    1.60
   0  -5   7    6.00    1.40
   0  -5   7   10.10    1.90
   0  -5   7    6.90    1.20
   0  -5  -7    8.00    1.70
   0  -5   7    5.70    1.30
   0  -5  -7    6.20    1.50
   0  -5   7    5.30    1.70
   0  -5   7    7.20    1.50
   0  -5  -7    6.00    1.30
   0   5   7    7.30    1.30
   0   5  -7    8.70    1.50
   0   5   7    5.30    1.30
   0   5  -7    4.50    1.20
   0   5  -7    5.00    1.50
   0   5  -7    7.60    1.20
   0   5   7    4.90    1.30
   0   5   7    6.10    1.50
   0   5  -7    7.00    2.10
   1  -5   7   63.69    4.80
   1  -5   7   68.29    5.00
  -1  -5  -7   66.19    5.90
  -1  -5  -7   71.19    5.70
  -1  -5  -7   73.39    5.70
  -1  -5  -7   63.79    5.30
  -1  -5  -7   73.99    5.10
  -1  -5  -7   70.09    5.60
   1  -5   7   63.39    5.10
  -1   5  -7   74.19    5.70
  -1   5  -7   67.29    5.00
  -1   5  -7   67.69    5.40
  -1   5  -7   66.19    5.10
  -1   5  -7   69.09    5.60
   1   5   7   66.89    5.00
  -1   5  -7   74.99    5.50
  -1   5  -7   68.29    4.90
   2  -5   7   11.20    2.50
   2  -5   7    8.10    2.10
   2  -5   7    9.20    2.30
  -2  -5  -7    6.80    2.20
  -2  -5  -7    9.60    2.80
  -2  -5  -7    7.80    2.30
  -2   5  -7    8.50    1.60
  -2   5  -7   10.20    2.40
   2   5   7    7.00    2.10
  -2   5  -7    9.70    1.90
  -2   5  -7    8.00    2.70
   2   5   7    4.70    2.40
  -3  -5  -7    1.90    2.30
   3  -5   7    7.00    1.90
   3  -5   7    4.30    2.30
  -3  -5  -7    2.40    2.30
  -3   5  -7    5.30    2.40
  -3   5  -7    4.20    2.00
  -3   5  -7    5.30    2.80
  -3   5  -7    8.90    2.50
  -4  -5  -7    3.80    2.70
   4  -5   7    3.30    2.10
  -4  -5  -7   -0.40    1.80
   4   5   7    0.60    2.20
  -4   5  -7   -0.50    2.50
  -4   5  -7   -1.00    2.40
  -4   5  -7    3.90    3.20
  -4  -6   7    2.10    3.90
  -4  -6   7    4.90    3.20
   4  -6  -7    3.20    1.80
  -4  -6   7    3.50    2.70
  -4   6   7   -1.80    4.90
  -4   6   7    3.80    3.50
  -4   6   7    2.80    3.00
  -4   6   7    1.10    2.30
   4   6  -7   -0.30    2.20
  -3  -6   7    0.70    3.00
  -3  -6   7   -0.50    3.10
  -3  -6   7    7.40    2.50
   3  -6  -7    3.10    1.50
  -3  -6   7    4.10    2.60
   3  -6  -7    3.60    2.70
   3   6  -7    5.70    2.50
  -3   6   7    3.20    2.30
  -3   6   7    9.70    3.00
  -3   6   7    4.10    2.70
  -3   6   7    8.80    2.30
   3   6  -7    4.90    1.60
  -2  -6   7    5.90    2.10
   2  -6  -7   10.80    2.10
   2  -6  -7    8.70    1.80
  -2  -6   7    7.00    2.60
  -2  -6   7   10.20    2.20
   2  -6  -7   11.70    2.40
  -2  -6   7    5.70    2.30
  -2  -6   7    4.30    2.90
  -2   6   7    8.70    2.30
  -2   6   7    9.50    2.70
  -2   6   7    6.80    2.20
   2   6  -7   13.00    2.30
  -2   6   7    8.80    2.10
   2   6  -7    9.60    1.90
   1  -6  -7   39.60    3.60
  -1  -6   7   34.30    4.50
   1  -6  -7   41.90    3.60
   1  -6  -7   49.90    4.00
  -1  -6   7   42.10    3.90
  -1  -6   7   46.70    3.80
  -1  -6   7   29.30    6.20
  -1  -6   7   52.59    4.30
  -1  -6   7   49.50    3.70
  -1  -6   7   35.00    3.60
  -1   6   7   47.00    3.70
   1   6  -7   40.70    3.50
   1   6  -7   43.30    3.80
  -1   6   7   34.20    4.60
  -1   6   7   41.30    4.20
   1   6  -7   46.40    3.70
  -1   6   7   47.70    4.10
   0  -6  -7    7.20    1.40
   0  -6   7    5.60    1.50
   0  -6  -7    9.90    1.70
   0  -6  -7    6.40    1.80
   0  -6   7    4.80    1.30
   0  -6   7    5.90    1.20
   0  -6  -7    9.90    1.80
   0  -6  -7   12.80    2.10
   0  -6  -7    6.80    1.40
   0  -6   7    2.30    1.20
   0   6   7    3.10    1.50
   0   6  -7    8.20    1.60
   0   6  -7    9.30    1.40
   0   6  -7    7.70    1.10
   0   6  -7    4.90    1.40
   0   6   7    3.90    1.40
   0   6  -7    9.40    1.90
  -1  -6  -7  199.98   13.20
  -1  -6  -7  184.88   13.10
  -1  -6  -7  173.88   13.20
  -1  -6  -7  202.18   13.10
   1  -6   7  188.18   11.60
   1  -6   7  163.08   11.60
  -1  -6  -7  186.08   12.80
   1  -6   7  169.78   11.50
   1  -6   7  173.38   11.50
  -1   6  -7  193.18   13.00
  -1   6  -7  195.88   13.10
  -1   6  -7  198.28   13.00
  -1   6  -7  187.98   12.40
  -1   6  -7  204.38   13.10
   1   6   7  165.58   11.50
  -1   6  -7  182.28   12.60
  -2  -6  -7   35.50    5.60
   2  -6   7   56.59    4.70
  -2  -6  -7   41.20    4.40
  -2  -6  -7   50.69    5.20
  -2  -6  -7   42.80    5.20
   2  -6   7   54.59    4.40
   2  -6   7   44.20    4.70
  -2   6  -7   57.49    5.20
  -2   6  -7   54.49    5.00
  -2   6  -7   54.99    4.90
  -2   6  -7   47.90    4.20
  -2   6  -7   44.80    4.80
   2   6   7   44.30    4.80
  -3  -6  -7    0.20    2.40
   3  -6   7    0.40    1.50
  -3  -6  -7   -2.80    2.50
   3  -6   7    2.70    2.50
  -3   6  -7    4.90    2.30
  -3   6  -7    3.30    2.40
  -3   6  -7   -1.90    2.80
  -3   6  -7    2.40    2.20
   3  -7  -7   28.80    3.50
  -3  -7   7    8.10    4.20
  -3  -7   7   19.50    4.30
   3  -7  -7   40.30    3.90
  -3  -7   7    9.50    3.30
  -3   7   7   14.00    3.50
  -3   7   7   15.80    3.30
  -3   7   7   20.50    3.80
  -3   7   7   12.20    3.10
   2  -7  -7   38.40    3.40
   2  -7  -7   35.50    3.60
   2  -7  -7   31.00    4.30
  -2  -7   7   27.30    3.70
   2  -7  -7   32.60    4.20
  -2   7   7   36.50    4.70
   2   7  -7   34.30    3.80
  -2   7   7   34.20    4.30
  -2   7   7   35.50    3.60
  -2   7   7   38.40    4.20
   2   7  -7   34.20    3.40
   1  -7  -7   35.10    3.00
   1  -7  -7   28.40    3.50
   1  -7  -7   30.20    3.40
   1  -7  -7   24.00    2.90
  -1  -7   7   14.50    3.00
  -1  -7   7   22.90    3.00
  -1  -7   7   18.60    2.80
   1   7  -7   28.30    3.60
  -1   7   7   16.80    3.40
   1   7  -7   28.40    2.80
  -1   7   7   21.30    4.80
   0  -7   7  184.68   12.40
   0  -7  -7  194.78   13.10
   0  -7   7  192.58   12.20
   0  -7   7  208.48   12.40
   0  -7   7  186.88   13.30
   0  -7  -7  198.18   13.30
   0  -7  -7  203.78   13.40
   0  -7  -7  205.48   12.90
   0  -7  -7  206.78   14.40
   0   7   7  184.58   12.20
   0   7  -7  201.08   13.20
   0   7   7  177.48   12.40
   0   7  -7  205.58   13.30
   0   7   7  157.78   12.30
   0   7  -7  167.98   12.90
   0   7  -7  193.98   12.80
   1  -7   7   63.49    5.30
  -1  -7  -7   49.30    5.70
  -1  -7  -7   56.89    5.60
   1  -7   7   66.89    4.90
  -1  -7  -7   56.99    5.50
  -1  -7  -7   65.59    5.60
  -1  -7  -7   58.89    4.90
   1  -7   7   56.89    5.30
   1  -7   7   72.49    5.20
  -1   7  -7   57.19    5.60
  -1   7  -7   60.99    4.80
   1   7   7   57.19    5.30
  -1   7  -7   68.49    5.40
  -1   7  -7   67.49    5.40
  -1   7  -7   57.59    4.60
   2  -7   7    1.60    1.40
   2  -7   7    4.70    2.20
  -2  -7  -7    2.70    1.90
  -2  -7  -7    3.70    2.30
  -2  -7  -7    6.40    2.30
   2  -7   7    1.70    2.10
  -2   7  -7   -0.70    2.20
   2   7   7    3.80    2.40
  -2   7  -7    2.40    2.10
   2   7   7    2.00    2.10
  -2   7  -7    0.70    2.00
  -2   7  -7    2.70    1.40
  -2   7  -7    3.00    2.20
   3  -7   7    6.60    3.70
  -3  -7  -7    4.30    3.20
   3  -7   7    2.40    1.80
  -3  -7  -7    6.50    2.40
  -3   7  -7    7.70    3.00
  -3   7  -7    9.00    4.90
  -3   7  -7    7.20    2.90
  -3   7  -7    3.20    3.00
  -3  -8   7    4.90    3.20
   3  -8  -7   10.70    1.90
  -3  -8   7    0.40    5.40
   3  -8  -7    9.60    2.10
  -3  -8   7    6.50    2.90
   3   8  -7    8.30    2.70
  -3   8   7    0.70    5.80
   3   8  -7    8.30    1.90
  -3   8   7   11.20    3.50
  -2  -8   7   10.60    2.40
   2  -8  -7    9.20    2.70
  -2  -8   7   11.40    2.90
  -2  -8   7   13.40    5.10
   2  -8  -7   15.30    2.70
   2  -8  -7   11.60    2.50
   2  -8  -7   12.90    2.40
  -2  -8   7    7.10    3.00
   2   8  -7    8.20    2.30
   2   8  -7    9.80    1.80
  -2   8   7   13.30    2.60
   2   8  -7   11.80    2.10
  -2   8   7   12.60    3.10
  -2   8   7   11.70    2.60
  -2   8   7   13.40    2.70
   1  -8  -7   11.80    2.50
  -1  -8   7   14.70    2.50
  -1  -8   7   24.90    2.90
  -1  -8   7   20.80    3.10
   1  -8  -7   17.30    3.40
  -1   8   7   24.50    3.50
   1   8  -7   14.60    3.50
  -1   8   7   21.20    3.30
   1   8  -7   19.20    2.70
  -1   8   7   18.40    2.90
   1   8  -7   14.40    2.20
   1   8  -7   10.50    2.10
  -1   8   7   13.30    3.90
   0  -8   7  199.18   12.50
   0  -8  -7  201.78   13.20
   0  -8  -7  215.18   13.70
   0  -8  -7  198.78   13.70
   0  -8   7  188.68   12.50
   0  -8  -7  178.88   13.00
   0  -8   7  181.28   12.50
   0  -8  -7  185.88   13.70
   0  -8   7  202.68   12.30
   0   8  -7  196.98   13.50
   0   8   7  191.18   12.40
   0   8   7  158.28   12.40
   0   8   7  159.38   12.00
   0   8  -7  204.28   13.20
   0   8  -7  198.48   13.00
  -1  -8  -7    3.90    2.10
   1  -8   7   14.70    2.90
   1  -8   7    9.90    2.10
  -1  -8  -7    6.00    2.20
  -1  -8  -7    8.50    1.90
   1  -8   7   10.80    2.80
  -1  -8  -7    5.70    2.30
  -1   8  -7    7.30    2.10
  -1   8  -7    5.70    1.40
  -1   8  -7    7.90    1.50
  -1   8  -7   10.80    2.20
   1   8   7    8.40    2.00
   1   8   7    6.60    2.20
  -2  -8  -7    0.50    2.40
  -2  -8  -7   -2.00    3.90
  -2  -8  -7    3.50    2.50
   2  -8   7    7.60    2.30
   2  -8   7    4.20    1.70
   2   8   7    4.50    2.50
  -2   8  -7    7.50    1.60
  -2   8  -7    4.30    2.20
  -2   8  -7    3.70    2.70
  -2   8  -7    3.30    2.20
   3  -8   7    1.00    2.00
  -3  -8  -7    5.50    2.50
  -3  -8  -7    3.40    3.20
  -3   8  -7    2.00    3.10
  -3   8  -7    1.20    2.70
  -3   8  -7   -0.40    3.00
   3  -9  -7    5.40    1.70
   3  -9  -7    2.50    1.90
  -3   9   7    3.50    3.80
   3   9  -7    1.90    1.70
   3   9  -7    3.40    2.30
  -3   9   7   -0.10    2.30
   2  -9  -7    2.10    1.70
   2  -9  -7   -0.40    2.50
  -2  -9   7   -0.30    2.10
  -2  -9   7   -0.10    2.80
   2  -9  -7    4.00    1.40
   2   9  -7    1.70    1.30
   2   9  -7   -1.60    1.80
  -2   9   7    6.40    2.40
  -2   9   7   -0.40    2.30
  -2   9   7    2.90    1.60
   2   9  -7   -0.80    2.10
  -1  -9   7   48.10    4.30
   1  -9  -7   43.30    4.40
  -1  -9   7   36.30    4.30
   1  -9  -7   38.40    3.70
   1  -9  -7   38.00    3.90
   1   9  -7   38.80    3.90
   1   9  -7   33.60    3.50
  -1   9   7   45.20    4.20
  -1   9   7   42.90    4.80
   0  -9  -7    4.90    2.20
   0  -9   7    6.10    1.90
   0  -9   7    5.00    1.70
   0  -9  -7    5.40    1.70
   0  -9   7    4.30    2.00
   0  -9  -7    4.90    2.20
   0  -9   7    5.90    2.50
   0  -9  -7    5.70    2.60
   0   9   7    6.20    1.90
   0   9  -7    5.70    1.50
   0   9   7    7.90    2.20
   0   9  -7    2.20    1.90
   0   9  -7    3.60    1.30
   0   9  -7    5.40    2.50
   0   9   7    3.60    1.70
   1  -9   7    6.10    1.80
  -1  -9  -7    9.10    2.40
   1  -9   7    9.20    2.40
  -1  -9  -7    7.50    1.90
   1  -9   7    7.30    2.30
  -1  -9  -7    3.80    2.50
  -1  -9  -7    4.90    2.20
  -1   9  -7    7.30    1.50
   1   9   7    3.40    2.00
  -1   9  -7    6.40    2.10
  -1   9  -7    7.80    2.40
  -2  -9  -7    4.20    2.70
   2  -9   7    4.00    2.70
  -2  -9  -7    5.50    2.70
   2  -9   7    7.00    2.10
  -2   9  -7    7.50    2.70
  -2   9  -7    6.20    2.30
   2   9   7    4.10    2.60
   2 -10  -7    5.70    2.70
  -2 -10   7   -2.80    2.70
   2 -10  -7    1.10    2.30
   2 -10  -7   -1.70    3.70
  -2 -10   7    0.10    3.10
  -2  10   7    2.00    3.00
   2  10  -7    5.10    3.80
  -2  10   7   -0.20    2.60
  -2  10   7    1.80    2.90
   2  10  -7    0.30    1.50
   1 -10  -7    7.20    1.60
  -1 -10   7    5.60    2.10
   1 -10  -7    8.00    2.30
   1 -10  -7    3.80    2.00
  -1  10   7    5.20    1.80
   1  10  -7    4.60    1.50
  -1  10   7    4.70    2.00
   1  10  -7    6.70    2.10
   1  10  -7    3.60    2.00
   0 -10   7    4.50    1.90
   0 -10   7    3.60    1.80
   0 -10  -7    6.80    2.30
   0 -10  -7    8.90    1.90
   0 -10  -7    8.80    3.20
   0  10  -7   13.90    2.70
   0  10  -7    4.50    1.50
   0  10   7    2.40    2.30
   0  10   7    5.20    1.80
   0  10  -7    7.10    2.30
  -1 -10  -7    2.50    2.20
   1 -10   7   -0.90    2.20
  -1 -10  -7    0.80    2.80
   1 -10   7    1.40    1.80
   1 -10   7    3.70    1.90
  -1 -10  -7    2.30    2.40
  -1 -10  -7    1.40    2.00
   1  10   7    1.60    2.00
  -1  10  -7   -1.70    1.50
  -1  10  -7   -3.50    2.70
  -1  10  -7    2.00    1.90
  -1  10  -7    0.50    1.40
   1  10   7    1.10    2.50
   2 -10   7    6.30    3.30
  -2 -10  -7    0.70    3.00
   2 -10   7    6.50    2.20
  -2 -10  -7    4.30    2.70
  -2  10  -7    3.10    2.90
   2  10   7    7.50    2.80
  -2  10  -7    7.00    2.70
   2 -11  -7    7.00    2.10
   2 -11  -7    4.30    2.70
  -2  11   7    7.80    2.20
   2  11  -7    1.30    2.20
   2  11  -7    1.90    1.60
  -2  11   7    8.20    2.70
   1 -11  -7    9.50    2.50
  -1 -11   7    8.70    2.50
   1 -11  -7    9.90    2.10
  -1 -11   7    9.80    2.50
   1  11  -7   14.00    3.00
   1  11  -7    9.70    2.70
  -1  11   7   14.00    2.80
  -1  11   7   10.90    2.20
   1  11  -7   11.70    2.20
  -1  11   7   12.10    2.80
   1  11  -7    5.00    2.40
   0 -11  -7   -3.40    2.20
   0 -11   7   -2.10    3.30
   0 -11  -7    2.20    1.90
   0 -11   7    6.40    2.50
   0  11   7    2.60    2.70
   0  11   7    5.20    1.80
   0  11  -7   -1.70    1.90
   0  11  -7    1.00    1.40
   0  11  -7    3.30    2.20
   1 -11   7    3.90    2.20
  -1 -11  -7    0.10    2.60
  -1 -11  -7    1.20    3.10
  -1 -11  -7    0.50    2.30
   1 -11   7    3.50    2.60
  -1  11  -7   -2.50    2.30
  -1  11  -7    1.60    1.80
   1  11   7    6.80    3.10
  -1  11  -7   -0.90    1.70
   1 -12  -7   -0.30    2.00
   1 -12  -7    0.00    2.30
  -1 -12   7    3.20    2.40
   1 -12  -7    3.30    2.90
  -1 -12   7   -0.40    2.50
  -1  12   7    5.10    1.90
   1  12  -7    4.50    2.70
   1  12  -7   -0.50    1.40
  -1  12   7    3.60    2.70
   0 -12  -7    4.20    2.80
   0 -12  -7    5.60    2.50
   0 -12   7    3.70    2.60
   0 -12   7    5.10    2.80
   0 -12  -7    4.50    2.30
   0  12   7    1.70    2.70
   0  12   7    2.70    2.90
   0  12  -7    4.60    2.50
   0  12  -7    4.70    1.70
   0  12  -7    8.10    2.80
   0  12   7    6.90    2.20
  -4   0   8   17.80    3.00
  -4   0   8   16.40    3.60
   4   0  -8    7.80    2.80
  -3   0   8   34.80    4.60
   3   0  -8   49.99    4.60
  -3   0   8   41.90    4.30
  -3   0   8   36.70    5.20
   3   0  -8   55.69    5.20
  -2   0   8  178.38   12.70
  -2   0   8  190.48   12.50
   2   0  -8  203.58   13.60
  -2   0   8  196.58   12.90
  -2   0   8  181.58   12.20
   2   0  -8  207.28   13.30
   1   0  -8  397.26   25.20
  -1   0   8  340.47   21.30
  -1   0   8  340.87   21.70
  -1   0   8  336.57   21.60
   1   0  -8  381.56   25.40
  -1   0   8  327.27   21.60
   1   0  -8  418.46   25.20
   0   0  -8  586.34   36.90
   0   0   8  557.14   35.40
   0   0  -8  615.04   37.00
   0   0   8  574.94   35.50
   0   0   8  558.54   35.90
   0   0  -8  597.24   36.90
   0   0  -8  537.05   36.90
   0   0  -8  600.34   36.90
   1   0   8  197.98   12.60
  -1   0  -8  253.47   15.80
  -1   0  -8  261.17   15.70
  -1   0  -8  214.08   16.10
  -1   0  -8  261.17   15.90
  -1   0  -8  264.87   16.10
  -1   0  -8  250.27   15.90
  -1   0  -8  219.18   16.20
   1   0   8  176.88   13.40
   1   0   8  207.48   12.70
   2   0   8  110.09    8.90
   2   0   8  100.49    7.40
  -2   0  -8  101.89    8.20
  -2   0  -8  110.89    7.70
  -2   0  -8  106.49    8.00
  -2   0  -8  104.69    7.90
  -2   0  -8  115.79    7.50
   3   0   8    6.20    3.50
  -3   0  -8   14.30    2.60
  -3   0  -8   20.10    4.10
  -3   0  -8   17.80    3.20
   4   0   8   40.80    5.50
  -4   0  -8   28.20    5.30
  -4  -1   8   -0.20    2.20
  -4  -1   8    0.70    3.00
   4  -1  -8   -3.30    2.40
  -4  -1   8    1.60    2.80
  -4   1   8   -2.80    2.00
   4   1  -8    0.80    2.40
  -3  -1   8    8.00    2.80
  -3  -1   8   18.40    3.30
   3  -1  -8   11.70    2.00
  -3  -1   8    9.40    3.00
  -3   1   8   19.60    4.20
  -3   1   8   13.60    2.50
   3   1  -8   11.40    2.00
   3   1  -8   16.90    3.30
   2  -1  -8   84.79    6.00
  -2  -1   8   67.69    5.30
   2  -1  -8   84.39    6.00
  -2  -1   8   65.29    5.10
  -2  -1   8   67.19    6.00
  -2  -1   8   64.99    5.90
   2   1  -8   83.09    6.20
  -2   1   8   71.29    5.80
  -2   1   8   72.89    5.50
  -2   1   8   66.29    5.70
   2   1  -8   88.19    6.00
  -2   1   8   68.69    5.00
   1  -1  -8  113.59    7.70
   1  -1  -8  116.49    7.70
  -1  -1   8  116.19    7.80
   1  -1  -8  117.49    7.70
  -1  -1   8  107.19    7.40
  -1  -1   8  107.49    7.30
   1  -1  -8  110.49    7.90
  -1   1   8  105.99    7.40
   1   1  -8  116.39    7.70
  -1   1   8  102.29    7.50
   1   1  -8  120.79    7.70
  -1   1   8  115.99    7.70
  -1   1   8  114.29    7.30
   1   1  -8  114.39    7.80
  -1   1   8  107.49    7.70
   0  -1  -8  592.94   37.30
   0  -1  -8  589.64   37.30
   0  -1   8  487.85   29.90
   0  -1   8  446.36   30.00
   0  -1   8  458.45   29.90
   0  -1   8  474.05   30.30
   0  -1  -8  619.94   37.40
   0  -1  -8  568.04   37.20
   0  -1  -8  585.64   37.30
   0  -1   8  491.45   30.00
   0   1   8  454.75   29.90
   0   1  -8  623.54   37.30
   0   1  -8  557.34   37.30
   0   1   8  488.85   29.90
   0   1  -8  580.64   37.30
   0   1  -8  611.44   37.30
   0   1   8  488.95   30.40
   0   1  -8  604.04   37.50
  -1  -1  -8  205.28   13.30
  -1  -1  -8  208.88   13.50
   1  -1   8  171.58   11.20
  -1  -1  -8  199.98   13.30
   1  -1   8  177.58   11.30
  -1  -1  -8  211.68   13.50
   1  -1   8  170.18   12.00
  -1  -1  -8  202.58   13.70
  -1  -1  -8  207.58   13.20
  -1   1  -8  198.18   13.30
   1   1   8  157.88   12.00
   1   1   8  178.88   11.30
  -1   1  -8  205.68   13.20
  -1   1  -8  199.28   13.60
  -1   1  -8  201.38   13.60
  -1   1  -8  200.98   13.20
  -1   1  -8  211.28   13.40
  -2  -1  -8   43.50    3.70
  -2  -1  -8   46.80    4.00
   2  -1   8   39.00    3.70
  -2  -1  -8   41.20    4.30
   2  -1   8   31.40    3.20
   2  -1   8   37.00    4.90
  -2  -1  -8   39.80    4.80
  -2  -1  -8   44.60    4.40
  -2   1  -8   37.80    4.40
  -2   1  -8   41.50    4.10
  -2   1  -8   47.30    3.90
  -2   1  -8   43.60    3.60
   2   1   8   35.40    3.40
   2   1   8   32.80    5.00
  -2   1  -8   46.30    4.30
   3  -1   8   37.20    3.70
  -3  -1  -8   33.60    4.30
   3  -1   8   27.70    4.40
  -3  -1  -8   37.10    5.00
  -3  -1  -8   32.90    3.90
   3   1   8   30.70    3.70
   3   1   8   27.20    6.90
  -3   1  -8   45.30    4.10
  -3   1  -8   38.30    4.70
  -3   1  -8   33.80    4.70
  -3   1  -8   36.30    4.20
  -4  -1  -8    5.80    3.60
   4  -1   8    8.10    3.30
  -4  -1  -8    5.30    2.00
  -4  -1  -8   10.80    2.40
   4   1   8   13.00    3.30
  -4   1  -8    8.80    3.30
   4  -2  -8    9.30    2.80
  -4  -2   8    5.90    3.00
  -4  -2   8    1.70    3.30
  -4  -2   8    1.40    2.30
   4  -2  -8    3.00    2.40
  -4  -2   8    6.90    2.30
  -4   2   8    4.70    2.80
   4   2  -8    4.10    2.80
  -4   2   8    3.30    2.20
  -4   2   8    3.70    3.00
  -3  -2   8    2.10    1.90
  -3  -2   8    1.20    2.30
   3  -2  -8    3.40    1.50
  -3  -2   8    2.20    2.60
  -3   2   8    0.90    2.10
  -3   2   8    1.30    1.80
   3   2  -8    4.20    2.00
  -3   2   8   -1.10    2.20
   2  -2  -8   21.70    2.50
  -2  -2   8   15.40    2.40
  -2  -2   8   10.10    2.70
  -2  -2   8   15.60    3.50
  -2  -2   8   14.10    2.80
   2  -2  -8   17.80    2.30
  -2   2   8   17.90    3.10
   2   2  -8   19.80    2.50
  -2   2   8   16.70    2.80
   2   2  -8   17.70    2.30
  -2   2   8   22.00    3.30
   1  -2  -8  146.69    9.40
  -1  -2   8  121.59    8.50
  -1  -2   8  119.29    8.30
  -1  -2   8  117.79    8.80
  -1  -2   8  120.79    8.30
   1  -2  -8  137.19    9.30
   1  -2  -8  138.79    9.30
  -1   2   8  128.39    8.20
  -1   2   8  110.79    8.60
  -1   2   8  121.99    8.40
  -1   2   8  130.19    8.50
   1   2  -8  136.59    9.40
   1   2  -8  146.29    9.30
   1   2  -8  141.39    9.20
  -1   2   8  142.49    8.50
  -1   2   8  134.79    8.70
   0  -2   8  174.38   12.00
   0  -2  -8  213.38   14.30
   0  -2  -8  213.48   14.30
   0  -2  -8  228.78   14.40
   0  -2   8  178.28   12.20
   0  -2   8  186.98   11.90
   0  -2   8  173.38   12.10
   0  -2  -8  213.48   14.20
   0  -2  -8  213.18   14.30
   0  -2   8  186.98   11.90
   0   2   8  181.28   12.40
   0   2  -8  215.68   14.30
   0   2  -8  235.38   14.50
   0   2   8  195.08   11.80
   0   2  -8  225.18   14.30
   0   2  -8  235.88   14.20
   0   2   8  184.38   11.90
   0   2  -8  227.18   14.30
  -1  -2  -8   19.50    2.60
  -1  -2  -8   21.90    3.10
  -1  -2  -8   26.70    2.40
  -1  -2  -8   21.10    3.10
  -1  -2  -8   21.30    3.30
  -1  -2  -8   27.60    2.90
  -1   2  -8   21.20    3.20
  -1   2  -8   16.40    3.00
  -1   2  -8   19.80    2.80
  -1   2  -8   23.10    2.80
  -1   2  -8   26.00    2.80
   1   2   8   16.10    2.10
   1   2   8   15.30    2.50
  -1   2  -8   27.80    2.40
   1   2   8   16.50    3.30
  -1   2  -8   23.50    2.40
   2  -2   8   47.00    3.80
  -2  -2  -8   45.90    4.60
  -2  -2  -8   46.60    4.00
  -2  -2  -8   49.90    5.10
  -2  -2  -8   45.50    5.30
   2  -2   8   41.80    4.30
  -2  -2  -8   47.70    4.40
   2  -2   8   49.50    4.10
  -2   2  -8   51.59    4.30
  -2   2  -8   47.60    3.90
  -2   2  -8   53.59    4.10
  -2   2  -8   53.29    4.30
   2   2   8   42.80    5.30
  -2   2  -8   44.30    4.50
   2   2   8   45.80    4.00
   3  -2   8   56.19    8.30
  -3  -2  -8   71.39    7.10
   3  -2   8   65.49    6.00
   3  -2   8   71.09    6.20
  -3  -2  -8   65.09    6.70
  -3  -2  -8   79.69    6.50
  -3   2  -8   86.79    6.50
  -3   2  -8   69.99    6.90
  -3   2  -8   80.79    6.50
  -3   2  -8   87.79    7.10
   3   2   8   67.29    5.40
   3   2   8   50.39    8.70
  -4  -2  -8    0.60    2.00
  -4  -2  -8   -4.40    3.80
  -4  -2  -8    0.10    2.00
   4  -2   8    0.40    3.30
  -4   2  -8    1.80    2.60
  -4   2  -8    4.40    3.80
  -4   2  -8   -4.10    2.30
  -4   2  -8    5.20    2.20
  -4  -3   8   -0.70    2.80
  -4  -3   8    1.10    2.50
  -4  -3   8    2.30    2.00
  -4  -3   8   -1.50    2.90
   4  -3  -8    2.00    2.10
   4   3  -8   -0.20    1.90
  -4   3   8    1.70    3.20
  -4   3   8   -3.60    2.60
  -4   3   8    7.40    2.50
  -3  -3   8    6.60    2.40
   3  -3  -8    5.70    2.00
  -3  -3   8    1.30    2.60
  -3   3   8    5.60    2.20
  -3   3   8    7.50    2.00
   3   3  -8    6.30    2.00
  -3   3   8    6.40    2.70
  -3   3   8    1.70    2.60
  -2  -3   8   20.70    3.80
  -2  -3   8   27.20    3.00
   2  -3  -8   31.00    3.00
  -2  -3   8   24.60    3.40
   2  -3  -8   31.40    3.20
  -2   3   8   19.40    3.50
  -2   3   8   29.50    2.70
  -2   3   8   26.90    3.10
   2   3  -8   34.10    3.40
  -2   3   8   17.40    3.50
   2   3  -8   37.10    3.20
  -1  -3   8   78.99    6.40
  -1  -3   8   80.79    5.70
   1  -3  -8  100.79    6.80
  -1  -3   8   72.59    6.10
  -1  -3   8   71.99    6.00
   1  -3  -8   91.69    6.60
  -1  -3   8   75.79    5.70
   1   3  -8   98.89    6.80
  -1   3   8   88.69    6.10
  -1   3   8   92.99    6.00
  -1   3   8   84.59    6.00
  -1   3   8   89.49    5.80
   1   3  -8   93.39    6.70
  -1   3   8   80.89    5.50
  -1   3   8   70.39    6.10
   1   3  -8   95.79    6.50
   0  -3  -8  164.28   11.20
   0  -3   8  138.29    8.90
   0  -3  -8  180.78   11.40
   0  -3   8  136.49    8.90
   0  -3  -8  176.88   11.20
   0  -3   8  125.29    9.00
   0  -3  -8  167.98   11.10
   0  -3  -8  184.98   11.30
   0   3   8  138.79    8.90
   0   3   8  122.19    8.90
   0   3  -8  167.68   11.00
   0   3   8  130.79    9.40
   0   3  -8  166.68   11.20
   0   3   8  142.09    8.80
   0   3  -8  167.58   11.40
   0   3  -8  168.68   11.20
   1  -3   8   54.59    4.20
  -1  -3  -8   62.29    4.70
  -1  -3  -8   61.89    5.40
  -1  -3  -8   65.79    5.10
  -1  -3  -8   59.89    5.00
  -1  -3  -8   65.29    4.60
   1  -3   8   53.39    4.10
  -1  -3  -8   57.99    6.00
   1  -3   8   59.99    4.30
   1   3   8   53.69    4.20
  -1   3  -8   52.39    5.20
  -1   3  -8   66.29    5.20
  -1   3  -8   67.19    5.00
  -1   3  -8   61.39    4.80
   1   3   8   45.70    4.20
  -1   3  -8   62.89    4.50
  -1   3  -8   63.29    4.60
  -1   3  -8   57.99    5.00
   1   3   8   53.29    5.20
   2  -3   8   52.89    4.40
   2  -3   8   60.49    4.70
  -2  -3  -8   59.99    5.70
   2  -3   8   51.69    4.70
  -2  -3  -8   56.09    5.70
  -2   3  -8   64.79    5.40
  -2   3  -8   63.29    5.30
  -2   3  -8   68.79    5.70
  -2   3  -8   57.59    5.50
   2   3   8   54.09    4.60
   2   3   8   44.40    6.00
  -2   3  -8   66.29    5.20
  -2   3  -8   55.89    4.90
  -3  -3  -8   -1.80    2.00
   3  -3   8   -1.10    2.00
  -3  -3  -8    1.80    2.00
  -3  -3  -8    0.00    3.00
   3  -3   8    3.60    3.60
   3   3   8    2.20    4.30
  -3   3  -8    4.70    2.00
  -3   3  -8    0.70    1.70
  -3   3  -8   -1.40    2.30
  -3   3  -8    2.40    2.30
  -4  -3  -8    0.80    2.30
   4  -3   8    0.50    1.80
  -4  -3  -8   -2.10    1.70
   4   3   8   -4.00    2.70
  -4   3  -8    2.40    2.40
  -4   3  -8    7.90    3.80
  -4  -4   8   12.50    3.80
  -4  -4   8   12.50    2.90
  -4  -4   8    8.90    3.50
  -4  -4   8   11.00    3.70
   4  -4  -8   14.60    2.60
  -4   4   8    8.70    2.80
  -4   4   8   14.40    3.40
  -4   4   8   13.40    3.90
   4   4  -8   15.10    2.60
   3  -4  -8   21.00    2.90
  -3  -4   8   12.20    3.00
   3  -4  -8   16.50    3.00
  -3   4   8   18.00    3.50
   3   4  -8   12.50    2.20
  -3   4   8   18.90    4.00
   3   4  -8   15.90    3.40
  -3   4   8   18.60    3.50
  -3   4   8   19.70    3.80
  -2  -4   8   56.39    4.40
   2  -4  -8   66.89    4.60
   2  -4  -8   59.89    4.70
  -2  -4   8   51.39    5.00
  -2   4   8   51.39    5.10
   2   4  -8   56.39    4.70
  -2   4   8   47.70    4.30
   2   4  -8   54.79    4.70
  -2   4   8   57.79    5.10
   2   4  -8   59.39    4.80
  -2   4   8   47.50    4.60
  -1  -4   8   27.20    3.20
   1  -4  -8   37.30    3.50
   1  -4  -8   34.60    3.10
  -1  -4   8   28.10    4.20
  -1  -4   8   35.50    3.00
   1  -4  -8   33.70    3.10
  -1  -4   8   31.20    2.90
  -1   4   8   26.90    2.60
   1   4  -8   34.10    3.10
  -1   4   8   30.90    3.40
   1   4  -8   33.10    3.00
  -1   4   8   31.70    2.90
  -1   4   8   31.40    3.20
   1   4  -8   34.30    3.10
   0  -4  -8  130.49    9.00
   0  -4  -8  146.99    9.20
   0  -4  -8  133.89    8.90
   0  -4   8  138.49    9.00
   0  -4  -8  134.89    9.20
   0  -4   8  129.89    9.10
   0  -4   8  141.39    9.10
   0  -4  -8  123.39    8.90
   0  -4  -8  143.69    9.30
   0   4   8  133.39    9.10
   0   4  -8  132.79    8.90
   0   4   8  138.49    8.90
   0   4  -8  127.69    8.80
   0   4   8  136.09    9.10
   0   4   8  124.09    9.50
   0   4  -8  135.59    8.90
   0   4  -8  130.99    9.30
   1  -4   8   98.59    7.10
  -1  -4  -8  109.49    7.60
  -1  -4  -8  112.09    7.80
  -1  -4  -8  100.09    8.00
  -1  -4  -8  115.39    7.30
   1  -4   8  106.79    7.10
  -1  -4  -8  100.19    7.50
   1  -4   8  100.79    6.90
   1   4   8  100.89    7.00
  -1   4  -8  109.89    7.80
  -1   4  -8   93.09    7.70
  -1   4  -8  105.29    7.30
  -1   4  -8  109.59    7.50
   1   4   8   91.89    7.80
  -1   4  -8  107.29    7.30
  -1   4  -8  104.29    7.70
  -2  -4  -8   56.99    6.40
  -2  -4  -8   66.59    5.40
  -2  -4  -8   67.49    6.10
  -2  -4  -8   73.09    6.00
   2  -4   8   49.90    4.40
   2  -4   8   54.29    4.80
  -2   4  -8   58.09    5.80
  -2   4  -8   60.59    5.70
  -2   4  -8   71.59    5.40
  -2   4  -8   69.29    5.90
  -2   4  -8   73.19    5.80
  -3  -4  -8   27.70    4.20
   3  -4   8   18.90    3.70
  -3  -4  -8   25.20    4.20
  -3  -4  -8   32.40    4.70
   3   4   8   24.50    3.60
  -3   4  -8   34.20    3.90
  -3   4  -8   34.20    4.90
  -4  -5   8   -2.00    3.10
  -4  -5   8    4.70    2.70
  -4  -5   8   -3.50    3.30
  -4  -5   8    9.30    3.70
   4  -5  -8    0.90    1.90
  -4   5   8    8.10    3.60
  -4   5   8    2.00    2.90
   4   5  -8    2.80    1.90
  -4   5   8    2.10    2.40
   3  -5  -8   63.69    5.10
  -3  -5   8   35.90    5.20
   3  -5  -8   58.89    5.00
  -3  -5   8   41.00    5.70
  -3  -5   8   39.10    5.70
   3   5  -8   62.39    5.30
   3   5  -8   57.09    5.50
  -3   5   8   39.10    6.10
   2  -5  -8   47.20    3.80
  -2  -5   8   23.20    4.60
  -2  -5   8   20.10    4.20
  -2  -5   8   28.30    3.00
   2  -5  -8   40.10    3.90
  -2  -5   8   21.80    3.10
  -2   5   8   23.30    4.10
   2   5  -8   42.00    4.00
   2   5  -8   47.20    4.00
   1  -5  -8  180.58   12.10
  -1  -5   8  149.99   10.80
  -1  -5   8  156.08   10.50
   1  -5  -8  188.58   12.10
  -1  -5   8  152.88   10.50
   1  -5  -8  200.18   12.30
   1   5  -8  189.18   12.00
   1   5  -8  165.18   12.00
  -1   5   8  155.98   10.60
  -1   5   8  166.28   10.60
  -1   5   8  154.58   10.90
  -1   5   8  175.98   10.90
   1   5  -8  178.28   12.10
  -1   5   8  143.19   10.20
   0  -5  -8  179.18   11.60
   0  -5   8  164.88   10.30
   0  -5  -8  196.08   11.70
   0  -5   8  146.89   10.40
   0  -5   8  159.88   10.20
   0  -5  -8  155.98   11.30
   0  -5   8  164.48   10.30
   0  -5  -8  168.38   11.30
   0  -5  -8  177.18   11.60
   0   5   8  129.79   10.60
   0   5   8  161.28   10.40
   0   5  -8  168.28   11.30
   0   5   8  156.98   10.20
   0   5  -8  156.78   11.10
   0   5  -8  171.08   11.70
   0   5   8  146.39   10.40
   0   5  -8  165.28   11.60
   0   5  -8  175.38   11.20
   1  -5   8  117.29    8.00
  -1  -5  -8  111.39    9.20
  -1  -5  -8  121.19    8.80
  -1  -5  -8  120.59    9.00
   1  -5   8  122.69    8.00
   1  -5   8  114.09    7.70
  -1  -5  -8  117.99    8.50
  -1  -5  -8  139.29    9.10
  -1   5  -8  132.19    9.00
  -1   5  -8  125.59    9.00
  -1   5  -8  121.19    8.40
   1   5   8  106.19    7.80
  -1   5  -8  130.69    8.80
  -1   5  -8  128.69    8.60
   1   5   8   98.19    8.60
  -1   5  -8  132.69    9.10
  -1   5  -8  129.89    8.50
   2  -5   8   50.69    5.20
  -2  -5  -8   65.59    6.10
   2  -5   8   52.99    4.70
  -2  -5  -8   62.49    5.60
  -2  -5  -8   67.69    6.60
  -2   5  -8   79.49    6.20
   2   5   8   47.00    6.20
  -2   5  -8   74.99    5.70
  -2   5  -8   73.69    5.50
  -2   5  -8   71.29    6.30
  -2   5  -8   60.99    6.20
  -3  -5  -8   -1.00    2.30
   3  -5   8    4.50    2.30
  -3  -5  -8    7.10    2.70
  -3   5  -8    3.40    2.30
   3   5   8    6.40    2.20
  -3   5  -8    5.10    2.50
  -3   5  -8    6.80    2.30
   4  -6  -8    7.60    2.30
  -4  -6   8    5.60    4.30
   4   6  -8   -1.50    2.20
  -4   6   8    3.40    4.10
  -4   6   8    3.40    3.20
  -4   6   8    1.20    2.50
  -3  -6   8    5.60    4.70
   3  -6  -8   11.40    2.10
  -3  -6   8   13.80    3.80
  -3  -6   8    9.70    3.50
   3  -6  -8   10.90    2.00
  -3   6   8   11.10    2.80
  -3   6   8   17.60    3.60
   3   6  -8    9.30    2.60
  -3   6   8    5.80    3.00
   3   6  -8   12.00    1.90
   2  -6  -8   92.69    6.70
  -2  -6   8   80.29    6.30
   2  -6  -8   95.39    6.60
  -2  -6   8   72.29    6.30
   2   6  -8   90.49    6.70
   2   6  -8   82.39    6.50
  -2   6   8   91.09    6.40
  -2   6   8   79.59    7.00
  -2   6   8   92.19    6.90
  -2   6   8   77.59    6.90
  -1  -6   8   13.00    2.90
   1  -6  -8   20.60    2.50
   1  -6  -8   18.10    3.10
  -1  -6   8   13.10    3.10
   1  -6  -8   23.70    3.30
  -1  -6   8   15.00    2.70
  -1   6   8   20.70    4.00
   1   6  -8   23.80    2.80
  -1   6   8   13.40    2.90
  -1   6   8   15.40    2.70
   0  -6  -8   19.40    2.70
   0  -6  -8   19.10    2.70
   0  -6   8   23.00    2.90
   0  -6   8   29.50    3.10
   0  -6  -8   21.70    3.60
   0  -6  -8   29.50    3.30
   0  -6   8   28.90    2.70
   0   6  -8   23.40    3.20
   0   6   8   20.40    3.30
   0   6  -8   26.20    2.40
   0   6   8   31.30    3.00
   0   6   8   25.80    2.80
   0   6  -8   29.60    2.80
   0   6  -8   25.30    2.70
   0   6   8   19.40    3.30
  -1  -6  -8  250.47   16.00
   1  -6   8  229.78   14.70
   1  -6   8  230.38   14.70
  -1  -6  -8  220.68   16.00
  -1  -6  -8  239.38   16.00
   1  -6   8  211.98   14.50
  -1  -6  -8  245.48   15.90
   1  -6   8  229.88   14.50
  -1  -6  -8  216.88   15.50
  -1   6  -8  235.98   15.50
  -1   6  -8  241.48   15.90
  -1   6  -8  232.28   15.80
   1   6   8  200.58   14.50
  -1   6  -8  226.78   15.20
  -1   6  -8  250.37   15.90
   2  -6   8   24.00    3.00
   2  -6   8   19.80    3.60
   2  -6   8   23.00    3.80
  -2  -6  -8   17.30    3.30
  -2  -6  -8   20.40    3.80
  -2  -6  -8   12.80    2.30
  -2  -6  -8   15.70    2.90
  -2   6  -8   17.00    2.90
   2   6   8   15.80    3.00
  -2   6  -8   13.70    2.60
  -2   6  -8   23.60    3.70
  -2   6  -8   21.70    3.80
  -3  -6  -8    3.80    2.30
   3  -6   8    3.50    2.60
  -3  -6  -8    4.20    2.80
   3  -6   8    2.60    1.80
   3   6   8    4.50    2.20
  -3   6  -8    3.30    2.50
  -3   6  -8    3.20    2.40
  -3   6  -8    5.20    2.50
   3  -7  -8    5.30    1.70
  -3  -7   8    1.00    3.00
  -3  -7   8    2.40    2.60
   3  -7  -8    4.80    1.90
  -3  -7   8    5.50    4.40
  -3   7   8    6.20    2.90
   3   7  -8   -1.30    4.00
  -3   7   8    3.50    2.30
   3   7  -8    4.30    1.60
  -3   7   8    2.80    2.90
  -2  -7   8   21.30    3.30
   2  -7  -8   30.30    3.20
  -2  -7   8   18.70    3.30
   2  -7  -8   24.10    4.40
   2  -7  -8   28.00    3.20
  -2   7   8   14.70    3.30
   2   7  -8   18.80    3.00
  -2   7   8   22.80    3.80
   2   7  -8   23.20    3.30
   1  -7  -8    3.70    1.80
   1  -7  -8    1.80    1.30
  -1  -7   8    2.50    1.80
   1  -7  -8    3.10    1.20
  -1  -7   8    1.90    1.60
  -1  -7   8    3.10    2.40
  -1  -7   8    2.40    1.50
   1  -7  -8    2.00    2.00
  -1  -7   8   -0.30    2.60
   1   7  -8    2.00    1.40
  -1   7   8    0.50    1.20
   1   7  -8    0.50    1.80
  -1   7   8   -1.00    1.70
   1   7  -8    0.80    1.10
  -1   7   8    6.10    1.90
   0  -7  -8   58.09    4.50
   0  -7   8   60.79    4.80
   0  -7  -8   56.39    5.20
   0  -7   8   51.49    4.90
   0  -7  -8   45.80    4.30
   0  -7   8   57.99    4.80
   0  -7  -8   48.40    5.20
   0  -7   8   54.29    4.50
   0   7  -8   50.69    4.90
   0   7  -8   48.60    4.10
   0   7   8   56.69    4.80
   0   7   8   54.09    4.40
   0   7  -8   58.49    4.50
  -1  -7  -8    1.50    2.10
  -1  -7  -8    2.30    2.10
   1  -7   8   -0.40    1.90
  -1  -7  -8    5.40    2.50
  -1  -7  -8    0.00    2.70
  -1  -7  -8    0.70    1.50
   1  -7   8    3.60    1.90
   1  -7   8    3.40    1.40
   1  -7   8    2.90    1.60
  -1   7  -8    4.10    1.80
  -1   7  -8    3.40    1.80
   1   7   8    1.90    1.60
  -1   7  -8   -0.60    2.50
   1   7   8    0.20    3.90
   1   7   8    2.70    1.70
  -1   7  -8    2.10    1.20
  -1   7  -8    2.80    1.30
   2  -7   8    3.70    1.70
  -2  -7  -8    4.40    2.50
  -2  -7  -8    2.50    2.00
  -2  -7  -8    0.70    2.30
   2  -7   8    5.20    2.60
   2   7   8    1.50    2.70
  -2   7  -8    5.00    2.60
   2   7   8    3.10    2.60
  -2   7  -8    4.80    2.50
  -2   7  -8    5.90    2.70
  -2   7  -8    2.20    2.20
  -2   7  -8    3.30    1.50
  -3  -7  -8    6.20    2.90
   3  -7   8    1.50    1.60
  -3  -7  -8   -1.40    2.30
   3  -7   8   -1.00    3.00
  -3   7  -8    2.60    2.70
  -3   7  -8    4.60    3.60
   3   7   8    3.20    2.10
  -3   7  -8   -1.10    2.60
   3  -8  -8    0.00    1.80
  -3  -8   8   -2.20    2.90
   3  -8  -8    3.50    1.60
  -3  -8   8    2.40    5.70
   3   8  -8   -0.90    2.00
  -3   8   8    1.10    3.50
  -3   8   8    0.30    2.30
  -3   8   8    5.50    3.30
   3   8  -8    4.00    1.60
   2  -8  -8   16.90    2.80
   2  -8  -8   15.80    3.00
  -2  -8   8   14.80    3.30
  -2  -8   8   10.70    2.40
   2  -8  -8   12.50    4.10
  -2   8   8   14.60    2.80
  -2   8   8   12.00    2.80
  -2   8   8   11.90    2.20
   2   8  -8   18.50    2.70
   2   8  -8   20.60    3.40
   1  -8  -8    6.00    1.60
  -1  -8   8    8.30    2.10
   1  -8  -8    5.10    1.60
  -1  -8   8    6.90    2.40
   1  -8  -8    7.10    2.00
  -1  -8   8   10.00    1.90
  -1   8   8    9.60    2.30
   1   8  -8    8.90    2.50
  -1   8   8    9.40    1.90
  -1   8   8    7.50    2.10
   1   8  -8    6.40    1.80
   1   8  -8    4.50    1.80
   1   8  -8    5.70    1.40
   0  -8   8   17.50    3.50
   0  -8   8   22.20    2.90
   0  -8   8   22.20    3.20
   0  -8   8   26.60    3.40
   0  -8  -8   24.80    3.90
   0  -8  -8   22.20    3.10
   0  -8  -8   21.90    3.50
   0   8   8   14.70    2.80
   0   8  -8   27.20    2.80
   0   8   8   21.20    3.20
   0   8  -8   26.70    3.00
   0   8  -8   19.60    3.80
   0   8   8   20.50    4.10
   0   8   8   18.90    3.60
   1  -8   8    4.80    2.10
  -1  -8  -8   10.70    3.00
   1  -8   8    2.70    1.90
  -1  -8  -8    3.00    1.80
  -1  -8  -8   10.20    2.70
  -1  -8  -8    7.50    2.30
  -1   8  -8    7.00    2.20
  -1   8  -8    6.60    2.30
   1   8   8    2.60    2.50
   1   8   8    1.60    2.20
   1   8   8    2.40    1.80
  -1   8  -8    6.90    1.60
  -1   8  -8    6.70    1.60
   2  -8   8   -1.70    1.50
  -2  -8  -8    2.20    2.40
   2  -8   8   -3.20    2.10
  -2  -8  -8    5.30    2.50
  -2  -8  -8    2.70    2.50
  -2   8  -8   -1.10    2.00
  -2   8  -8    3.30    3.20
  -2   8  -8   -1.60    2.50
   2   8   8   -0.20    2.60
   3  -8   8    2.60    2.10
  -3  -8  -8    6.80    3.30
  -3  -8  -8    0.30    2.40
  -3   8  -8    3.70    3.90
  -3   8  -8    2.40    3.50
  -3   8  -8    5.70    3.10
   3   8   8   -0.10    2.20
   3  -9  -8    2.20    1.90
   3  -9  -8    2.60    2.10
   3   9  -8    4.00    1.70
  -3   9   8    2.10    2.60
   3   9  -8   -1.70    2.20
   2  -9  -8   11.30    2.40
   2  -9  -8   16.00    2.70
  -2   9   8   14.10    2.90
   2   9  -8   10.70    1.90
   2   9  -8   10.70    2.50
  -2   9   8   17.40    3.10
   2   9  -8    6.80    2.30
  -1  -9   8    2.90    2.20
  -1  -9   8    5.80    2.20
   1  -9  -8    5.60    1.80
   1  -9  -8    9.90    2.30
   1  -9  -8    6.20    1.70
  -1  -9   8    2.50    3.20
  -1  -9   8    4.70    2.00
   1   9  -8    3.90    1.40
  -1   9   8    7.00    2.10
  -1   9   8    1.70    4.20
  -1   9   8    2.40    1.70
   1   9  -8    5.50    1.90
   1   9  -8    6.20    1.80
  -1   9   8    3.90    2.20
   0  -9  -8   38.80    4.60
   0  -9   8   23.90    4.40
   0  -9  -8   25.30    3.60
   0  -9   8   28.10    3.60
   0  -9   8   34.10    4.40
   0  -9  -8   28.70    4.50
   0   9  -8   34.70    4.50
   0   9   8   37.40    4.40
   0   9  -8   35.30    3.50
   0   9  -8   34.20    4.60
   0   9   8   28.10    3.70
   0   9  -8   26.10    3.20
  -1  -9  -8   11.40    2.80
   1  -9   8    9.80    2.40
  -1  -9  -8   13.60    3.40
  -1  -9  -8    9.40    2.70
  -1  -9  -8   11.20    2.20
   1  -9   8   15.70    2.90
   1   9   8   11.70    2.40
  -1   9  -8    8.00    1.90
  -1   9  -8    9.70    2.10
  -1   9  -8   14.50    2.80
   1   9   8   11.40    3.10
  -2  -9  -8    9.00    3.10
  -2  -9  -8   -1.20    2.70
   2  -9   8    5.50    2.40
   2  -9   8    0.60    2.50
  -2   9  -8    5.10    2.70
  -2   9  -8    2.30    2.50
   2   9   8    0.30    2.80
   2 -10  -8   13.60    2.50
  -2 -10   8   14.40    2.80
   2  10  -8    9.50    1.80
   2  10  -8    6.90    2.40
  -2  10   8    6.90    3.10
  -2  10   8   10.80    3.00
   1 -10  -8   33.20    4.80
   1 -10  -8   36.10    3.90
   1 -10  -8   40.00    4.90
   1 -10  -8   27.00    4.20
  -1 -10   8   23.60    3.60
  -1 -10   8   33.70    4.20
   1  10  -8   39.30    4.10
  -1  10   8   30.40    3.70
  -1  10   8   24.10    3.80
   1  10  -8   36.20    3.50
  -1  10   8   25.10    4.10
   0 -10  -8   29.20    4.70
   0 -10   8   42.20    4.60
   0 -10   8   52.39    4.70
   0 -10  -8   50.79    5.10
   0 -10  -8   40.60    4.20
   0  10  -8   38.20    5.00
   0  10   8   47.10    4.60
   0  10   8   41.20    5.30
   0  10  -8   45.60    4.20
   0  10  -8   35.80    3.80
  -1 -10  -8    6.50    2.80
   1 -10   8    6.90    2.60
  -1 -10  -8    4.80    3.80
  -1 -10  -8    2.50    2.30
   1 -10   8    4.50    2.10
   1  10   8    4.90    4.60
  -1  10  -8    4.90    3.70
  -1  10  -8    6.00    2.40
  -1  10  -8    4.90    1.90
   1  10   8    5.30    2.20
  -1  10  -8    6.20    3.50
  -2 -10  -8    5.40    3.00
   2 -10   8    6.50    2.20
   2 -10   8    4.20    2.10
   2 -10   8    0.10    3.30
  -2 -10  -8    4.50    3.00
  -2  10  -8    8.20    3.00
  -2  10  -8    6.10    3.00
   2  10   8    1.10    2.40
   2  10   8    4.40    3.20
   1 -11  -8   -1.40    2.30
   1 -11  -8    2.50    2.80
   1 -11  -8    5.20    1.80
  -1 -11   8    4.60    2.60
  -1 -11   8    8.90    2.40
  -1  11   8    4.40    2.50
   1  11  -8    4.40    2.50
   1  11  -8    3.10    1.50
  -1  11   8    5.70    2.70
  -1  11   8    4.20    1.80
   1  11  -8    3.30    2.20
   0 -11  -8   -0.40    2.50
   0 -11  -8   -1.30    2.00
   0 -11   8    8.80    2.70
   0 -11  -8    2.80    1.90
   0 -11   8    3.10    2.00
   0 -11   8   -0.30    2.20
   0  11   8    2.50    2.00
   0  11  -8    1.90    2.00
   0  11   8   -1.70    2.80
   0  11  -8   -1.60    1.30
   0  11  -8    2.20    2.30
  -1 -11  -8    1.40    4.00
   1 -11   8    4.50    2.20
   1 -11   8    3.60    2.50
  -1 -11  -8    1.00    2.60
  -1 -11  -8    2.90    2.70
  -1  11  -8    5.50    2.10
  -1  11  -8   -0.90    1.80
   1  11   8    0.10    2.40
   1  11   8    2.00    6.20
  -1  11  -8    3.70    2.60
   4   0  -9    1.70    2.60
  -4   0   9   -2.40    3.20
  -4   0   9    4.60    3.10
  -4   0   9   -2.50    2.30
  -3   0   9   -1.00    1.80
  -3   0   9   -1.50    2.50
   3   0  -9    1.40    1.60
   3   0  -9    1.00    1.70
  -3   0   9    2.80    2.30
  -2   0   9   -1.00    1.50
  -2   0   9    2.50    1.40
   2   0  -9    1.90    1.20
  -2   0   9    2.70    1.90
   2   0  -9    1.50    1.10
  -2   0   9    1.80    1.80
  -1   0   9    0.40    1.10
   1   0  -9   -1.50    1.00
  -1   0   9   -0.10    1.40
  -1   0   9    1.00    0.90
   1   0  -9    0.20    1.00
   1   0  -9   -0.70    0.80
  -1   0   9    4.00    1.50
   0   0  -9   -0.30    1.20
   0   0  -9    0.60    1.00
   0   0  -9    1.20    1.40
   0   0   9    1.30    0.90
   0   0   9   -0.90    1.10
   0   0   9    2.70    1.50
   0   0  -9   -0.80    1.70
   0   0   9   -0.60    1.10
   0   0  -9   -0.70    0.70
   0   0  -9    0.30    0.80
   1   0   9    1.00    1.00
  -1   0  -9    1.40    1.10
   1   0   9    0.60    1.50
  -1   0  -9    0.80    1.00
   1   0   9    0.00    1.40
  -1   0  -9   -1.10    1.30
  -1   0  -9    1.30    1.50
  -1   0  -9    1.90    1.70
  -1   0  -9    1.20    0.90
  -2   0  -9    1.50    1.60
   2   0   9   -0.80    2.00
  -2   0  -9    1.10    1.50
  -2   0  -9   -0.50    1.30
   2   0   9    2.90    1.50
  -2   0  -9    0.30    2.10
  -2   0  -9    1.90    2.00
  -3   0  -9    0.70    1.60
  -3   0  -9   -3.10    2.70
  -3   0  -9   -0.50    1.70
  -3   0  -9    5.80    2.60
   3   0   9   -1.30    1.80
  -4   0  -9    1.20    2.40
  -4   0  -9   -2.20    2.10
  -4   0  -9   -0.90    3.30
   4   0   9   -4.00    2.90
   4  -1  -9    1.30    2.70
  -4  -1   9    0.40    2.40
  -4  -1   9    2.20    3.20
  -4  -1   9    1.70    3.30
   4   1  -9    0.90    2.60
  -4   1   9   -3.70    2.80
  -4   1   9    2.80    2.30
  -3  -1   9    9.80    2.80
  -3  -1   9    8.80    2.40
   3  -1  -9   12.10    2.50
  -3  -1   9    5.50    3.00
   3  -1  -9    6.40    1.80
   3   1  -9    5.80    2.00
  -3   1   9    9.60    2.90
  -3   1   9    6.70    2.20
   3   1  -9    8.10    2.00
  -3   1   9   10.20    2.70
   2  -1  -9   27.00    2.60
   2  -1  -9   18.40    3.00
  -2  -1   9   11.60    2.60
  -2  -1   9   16.80    2.50
  -2  -1   9   16.40    2.90
   2  -1  -9   24.70    3.10
  -2   1   9   22.40    3.30
   2   1  -9   25.70    2.90
  -2   1   9   16.70    2.50
   2   1  -9   24.10    2.60
  -1  -1   9  179.68   11.70
   1  -1  -9  203.28   13.70
  -1  -1   9  177.88   12.10
  -1  -1   9  167.08   11.80
  -1  -1   9  165.28   11.60
   1  -1  -9  213.38   13.70
   1  -1  -9  215.18   13.70
   1  -1  -9  201.28   13.80
   1   1  -9  224.58   13.60
   1   1  -9  206.88   13.80
  -1   1   9  178.48   11.60
  -1   1   9  180.48   12.00
  -1   1   9  210.68   11.90
   1   1  -9  210.78   13.60
  -1   1   9  173.18   11.80
   0  -1   9  194.48   12.40
   0  -1  -9  206.48   13.40
   0  -1  -9  196.58   13.40
   0  -1   9  194.98   12.70
   0  -1   9  173.58   12.50
   0  -1  -9  228.98   13.60
   0  -1  -9  199.68   13.30
   0  -1   9  195.38   12.50
   0  -1   9  190.58   12.90
   0   1  -9  201.68   13.20
   0   1  -9  203.98   13.40
   0   1  -9  209.78   14.40
   0   1   9  180.98   12.40
   0   1  -9  201.98   13.40
   0   1   9  196.88   13.00
   0   1  -9  204.18   13.40
   0   1   9  202.28   12.40
   0   1  -9  218.48   13.80
  -1  -1  -9  114.49    8.50
   1  -1   9   82.09    7.20
  -1  -1  -9  110.09    8.10
   1  -1   9   95.89    6.50
  -1  -1  -9  118.59    8.30
  -1  -1  -9  117.79    8.00
  -1  -1  -9  123.79    8.10
   1  -1   9   90.29    6.20
  -1  -1  -9  122.69    8.40
  -1   1  -9  119.39    8.00
  -1   1  -9  109.49    8.50
  -1   1  -9  115.59    8.20
   1   1   9   87.89    6.30
  -1   1  -9  121.39    7.90
  -1   1  -9  115.09    8.40
  -1   1  -9  117.39    8.10
  -2  -1  -9   54.79    5.70
   2  -1   9   35.10    5.60
  -2  -1  -9   69.29    6.10
  -2  -1  -9   63.19    5.60
  -2  -1  -9   68.89    5.20
  -2  -1  -9   58.39    5.00
   2  -1   9   50.29    4.70
   2   1   9   44.90    5.90
   2   1   9   48.30    4.20
  -2   1  -9   64.59    5.10
  -2   1  -9   69.39    5.30
  -2   1  -9   63.89    5.40
  -2   1  -9   52.79    5.80
   3  -1   9    7.40    2.70
   3  -1   9    4.20    2.20
  -3  -1  -9   10.00    2.30
  -3  -1  -9    5.80    2.10
  -3  -1  -9    5.40    3.00
  -3   1  -9    6.80    2.10
  -3   1  -9    9.00    2.90
  -3   1  -9    3.60    2.10
  -3   1  -9   10.80    2.90
   3   1   9    6.50    2.00
  -4  -1  -9   -0.20    1.90
  -4  -1  -9   -1.80    2.20
   4  -1   9    0.90    3.10
  -4   1  -9    5.10    2.30
   4   1   9   -4.30    2.80
  -4   1  -9    5.30    2.30
  -4  -2   9   17.00    5.40
   4  -2  -9   -1.40    2.60
  -4  -2   9    6.30    3.20
  -4  -2   9    6.40    5.00
  -4   2   9    8.50    4.70
   4   2  -9    9.50    3.10
  -3  -2   9  133.69   10.80
   3  -2  -9  188.28   12.80
  -3  -2   9  137.79   11.50
   3   2  -9  196.28   14.30
  -3   2   9  174.98   11.70
   3   2  -9  190.38   13.20
  -3   2   9  154.38   10.80
  -3   2   9  145.39   11.20
   2  -2  -9   44.50    3.80
   2  -2  -9   45.40    4.00
  -2  -2   9   37.30    4.10
  -2  -2   9   40.70    3.60
  -2  -2   9   34.70    4.60
  -2   2   9   44.90    4.60
   2   2  -9   47.20    4.00
  -2   2   9   42.90    4.10
  -2   2   9   37.40    4.30
   2   2  -9   46.00    3.80
  -1  -2   9  264.87   18.40
   1  -2  -9  332.97   21.50
   1  -2  -9  336.97   21.40
  -1  -2   9  287.57   18.50
  -1  -2   9  300.87   18.90
   1  -2  -9  359.76   21.50
   1  -2  -9  315.47   21.60
  -1  -2   9  282.27   18.60
   1   2  -9  352.26   21.40
  -1   2   9  254.97   18.80
  -1   2   9  312.87   18.80
  -1   2   9  319.27   18.70
  -1   2   9  293.97   18.60
  -1   2   9  281.07   18.40
  -1   2   9  284.37   18.60
   1   2  -9  316.77   21.50
   0  -2  -9  130.69    8.70
   0  -2   9  107.09    6.90
   0  -2   9   96.59    7.20
   0  -2  -9  135.99    8.90
   0  -2  -9  130.89    8.80
   0  -2   9   95.69    7.50
   0  -2   9  102.39    7.00
   0  -2  -9  127.19    8.60
   0   2  -9  135.39    9.10
   0   2  -9  128.29    8.70
   0   2  -9  124.79    8.50
   0   2   9  103.49    7.60
   0   2  -9  129.19    8.70
   0   2   9  107.19    6.90
   0   2   9   96.19    7.00
   1  -2   9  279.87   17.60
  -1  -2  -9  295.07   20.20
   1  -2   9  289.97   17.80
  -1  -2  -9  305.87   19.80
  -1  -2  -9  317.67   20.10
  -1  -2  -9  314.67   19.70
  -1  -2  -9  321.37   19.90
   1  -2   9  256.37   18.50
   1  -2   9  294.77   17.90
  -1   2  -9  286.77   20.10
  -1   2  -9  309.77   19.70
  -1   2  -9  297.97   19.70
   1   2   9  243.38   18.50
  -1   2  -9  304.87   19.80
  -1   2  -9  299.17   19.90
  -1   2  -9  314.27   20.10
  -1   2  -9  314.17   19.90
   1   2   9  276.07   17.70
   2  -2   9   18.00    4.60
   2  -2   9   19.80    4.00
  -2  -2  -9   24.10    3.90
  -2  -2  -9   25.60    3.10
   2  -2   9   25.00    3.60
  -2  -2  -9   26.30    4.30
  -2  -2  -9   26.20    3.60
   2  -2   9   28.60    3.10
   2   2   9   25.30    3.00
  -2   2  -9   31.60    4.00
  -2   2  -9   23.80    3.60
  -2   2  -9   31.90    3.50
  -2   2  -9   29.50    4.20
   2   2   9   22.40    4.90
  -2   2  -9   30.10    3.00
  -2   2  -9   30.30    3.60
  -3  -2  -9    2.90    2.30
  -3  -2  -9    2.90    1.90
   3  -2   9    2.60    2.50
   3  -2   9    0.80    2.10
  -3  -2  -9    2.90    3.00
   3   2   9    0.70    1.80
  -3   2  -9    7.50    2.10
  -3   2  -9    3.90    2.50
  -3   2  -9    6.50    2.20
  -3   2  -9    2.50    2.70
   4  -3  -9   14.80    2.80
  -4  -3   9    9.40    3.70
  -4  -3   9   22.50    4.70
  -4   3   9   14.80    3.80
  -4   3   9   10.00    3.10
   4   3  -9   19.00    3.50
  -4   3   9   14.00    2.90
   4   3  -9   13.80    2.90
  -3  -3   9    7.40    3.20
  -3  -3   9    7.80    2.60
  -3   3   9   11.40    3.00
  -3   3   9    5.70    2.40
   3   3  -9    8.40    2.30
  -3   3   9    9.30    2.70
  -2  -3   9   95.09    6.70
  -2  -3   9   76.09    7.40
   2  -3  -9  118.69    7.90
  -2  -3   9   92.59    7.00
  -2   3   9   96.19    6.90
   2   3  -9   99.79    8.80
   2   3  -9  118.79    7.80
  -2   3   9  108.59    9.40
  -2   3   9   79.19    7.30
  -2   3   9   92.69    7.80
  -1  -3   9    7.00    1.40
  -1  -3   9    4.20    1.30
   1  -3  -9    3.50    1.20
   1  -3  -9    1.50    1.00
  -1  -3   9    5.90    2.20
  -1  -3   9    6.80    2.30
  -1   3   9    3.50    1.30
   1   3  -9    1.50    1.90
   1   3  -9    0.10    0.90
  -1   3   9    3.90    1.20
   1   3  -9    4.30    1.10
  -1   3   9    2.20    1.70
   1   3  -9    2.00    1.00
  -1   3   9    4.20    1.60
  -1   3   9    3.60    1.20
   0  -3   9  277.57   19.20
   0  -3  -9  340.77   22.20
   0  -3  -9  337.37   22.00
   0  -3   9  301.07   18.80
   0  -3  -9  353.96   22.30
   0  -3  -9  351.26   22.10
   0  -3   9  287.07   19.00
   0  -3   9  302.97   18.80
   0   3   9  278.87   19.30
   0   3   9  305.07   18.70
   0   3  -9  331.57   21.90
   0   3  -9  346.97   22.30
   0   3  -9  362.86   22.10
   0   3  -9  346.07   22.10
   0   3   9  295.77   18.90
  -1  -3  -9  116.99    9.10
   1  -3   9  109.09    7.50
   1  -3   9  108.29    7.50
  -1  -3  -9  117.09    8.90
  -1  -3  -9  126.79    8.40
   1  -3   9  113.29    7.30
  -1  -3  -9  125.59    8.70
  -1  -3  -9  124.29    8.60
   1   3   9  103.79    7.30
  -1   3  -9  130.89    8.90
  -1   3  -9  122.39    8.40
  -1   3  -9  116.89    8.90
   1   3   9   94.59    7.30
   1   3   9   99.59    8.30
  -1   3  -9  130.89    8.70
  -1   3  -9  125.39    8.40
  -1   3  -9  121.29    8.50
  -2  -3  -9   30.70    4.00
  -2  -3  -9   32.70    3.40
   2  -3   9   29.80    3.40
   2  -3   9   27.10    3.10
  -2  -3  -9   29.70    4.60
   2  -3   9   22.70    4.80
  -2  -3  -9   32.60    4.20
   2  -3   9   22.80    5.00
   2   3   9   30.40    3.30
  -2   3  -9   22.50    4.10
  -2   3  -9   24.40    4.00
  -2   3  -9   33.10    4.00
  -2   3  -9   31.40    3.60
  -2   3  -9   38.40    4.20
   2   3   9   20.20    5.00
   3  -3   9    4.10    2.30
  -3  -3  -9    8.10    3.40
  -3  -3  -9    7.70    2.70
  -3  -3  -9    6.20    2.40
  -3   3  -9    8.20    2.30
  -3   3  -9   10.90    2.50
  -3   3  -9    4.70    2.80
  -3   3  -9    3.60    2.70
   3   3   9    3.10    1.90
  -4  -4   9    0.70    3.30
   4  -4  -9    4.40    2.30
  -4  -4   9    0.40    3.10
  -4  -4   9    3.70    3.20
  -4  -4   9    3.50    2.50
  -4   4   9    2.50    2.60
   4   4  -9    1.20    2.10
  -4   4   9    0.60    3.30
  -4   4   9    2.10    3.10
  -3  -4   9    5.70    3.00
   3  -4  -9    7.00    2.20
  -3  -4   9    6.30    2.80
  -3   4   9    7.80    2.60
  -3   4   9    9.90    2.40
   3   4  -9   10.70    2.10
  -3   4   9    7.50    2.90
   3   4  -9    7.80    2.10
   2  -4  -9   32.30    4.50
  -2  -4   9   27.60    3.10
  -2  -4   9   20.40    3.40
   2  -4  -9   35.90    3.30
  -2  -4   9   21.70    4.30
  -2   4   9   23.10    4.30
  -2   4   9   30.20    3.10
   2   4  -9   28.40    3.30
  -2   4   9   23.70    4.00
   2   4  -9   30.40    3.50
  -2   4   9   23.50    3.70
   2   4  -9   30.70    3.50
  -1  -4   9   27.00    3.50
  -1  -4   9   29.50    3.10
   1  -4  -9   44.80    3.60
   1  -4  -9   42.40    4.10
   1  -4  -9   41.80    3.70
  -1  -4   9   21.80    4.70
  -1   4   9   35.50    3.10
  -1   4   9   27.20    2.80
  -1   4   9   34.30    3.60
  -1   4   9   35.10    3.40
   1   4  -9   38.00    3.60
   1   4  -9   37.20    3.50
  -1   4   9   34.60    3.60
   1   4  -9   46.60    3.50
   0  -4  -9  169.58   11.20
   0  -4  -9  184.28   11.40
   0  -4  -9  145.19   10.90
   0  -4   9  169.08   10.70
   0  -4  -9  159.38   11.00
   0  -4   9  168.68   10.70
   0  -4   9  153.58   10.90
   0   4  -9  182.28   11.50
   0   4   9  159.58   10.60
   0   4  -9  165.38   10.90
   0   4  -9  168.68   11.00
   0   4   9  163.38   10.70
   0   4   9  146.69   11.20
   0   4  -9  165.78   11.10
  -1  -4  -9   13.40    2.80
  -1  -4  -9   15.20    3.20
  -1  -4  -9   17.20    2.60
   1  -4   9   20.30    2.80
  -1  -4  -9   21.80    3.30
  -1  -4  -9   13.20    2.50
   1  -4   9   23.90    2.50
  -1   4  -9   16.90    2.30
  -1   4  -9   18.90    3.40
   1   4   9   20.20    2.60
   1   4   9   15.00    3.70
  -1   4  -9   15.00    3.20
  -1   4  -9   19.30    2.40
   1   4   9   17.00    2.80
  -1   4  -9   16.00    2.20
   2  -4   9   85.09    6.60
   2  -4   9   85.09    6.90
  -2  -4  -9   94.89    8.80
  -2  -4  -9   97.89    8.60
  -2  -4  -9  105.59    8.30
   2  -4   9   97.79    7.10
  -2  -4  -9  101.49    7.90
  -2   4  -9  115.39    8.40
   2   4   9   83.99    6.70
  -2   4  -9  113.89    7.90
  -2   4  -9  123.09    8.50
  -2   4  -9  114.09    7.90
  -2   4  -9  100.09    8.40
   3  -4   9   10.70    2.50
  -3  -4  -9    4.80    2.20
  -3  -4  -9    7.80    3.70
  -3  -4  -9    7.20    2.60
  -3   4  -9    4.70    2.40
   3   4   9    7.00    2.10
  -3   4  -9    9.90    2.30
   4  -5  -9   -0.50    1.90
  -4  -5   9    0.60    3.70
  -4   5   9    2.30    3.60
  -4   5   9    3.30    2.60
   4   5  -9    1.90    1.90
  -4   5   9    2.20    3.20
  -3  -5   9    7.60    3.30
  -3  -5   9    1.90    3.00
   3  -5  -9    4.20    1.60
  -3  -5   9    7.30    2.40
  -3  -5   9    3.30    2.80
   3  -5  -9    4.90    2.00
  -3   5   9    7.10    2.40
   3   5  -9    4.20    1.90
  -3   5   9    3.10    2.70
   3   5  -9    7.70    2.30
  -3   5   9    7.60    2.90
   2  -5  -9   16.90    2.60
  -2  -5   9    9.60    2.00
  -2  -5   9    8.80    3.00
  -2  -5   9   14.40    3.10
   2  -5  -9   12.90    2.50
  -2   5   9    2.20    3.50
  -2   5   9   11.00    2.00
   2   5  -9   10.10    2.00
  -2   5   9   10.00    2.50
  -2   5   9   13.70    2.30
   1  -5  -9    2.10    1.20
  -1  -5   9    5.20    1.50
  -1  -5   9    1.80    1.70
   1  -5  -9    1.20    1.70
  -1  -5   9    6.30    1.70
   1  -5  -9    2.50    1.10
   1   5  -9    2.70    1.30
  -1   5   9    4.60    1.80
   1   5  -9   -0.50    0.90
  -1   5   9    4.70    1.60
  -1   5   9    5.90    2.10
   1   5  -9    0.60    1.10
  -1   5   9    3.70    1.40
   0  -5  -9    6.30    1.40
   0  -5   9    5.80    1.40
   0  -5   9    5.40    1.40
   0  -5   9    5.60    1.50
   0  -5  -9    4.40    1.40
   0  -5   9    5.30    1.60
   0  -5  -9    7.60    1.90
   0   5  -9    5.50    1.20
   0   5   9    3.20    2.00
   0   5  -9    6.00    2.40
   0   5   9    3.20    1.30
   0   5  -9    3.80    1.60
   0   5   9    9.30    1.90
   0   5  -9    5.70    1.40
   0   5  -9   10.30    1.90
  -1  -5  -9   52.29    4.50
  -1  -5  -9   54.49    4.60
   1  -5   9   49.20    4.20
  -1  -5  -9   48.50    5.10
   1  -5   9   48.40    4.40
  -1  -5  -9   50.59    5.30
   1   5   9   42.50    4.40
  -1   5  -9   50.79    5.00
   1   5   9   53.99    4.30
  -1   5  -9   55.79    5.00
  -1   5  -9   49.90    5.10
  -1   5  -9   54.29    4.40
  -1   5  -9   62.89    4.30
  -1   5  -9   47.90    5.10
  -2  -5  -9   -2.50    2.10
   2  -5   9   -0.30    1.80
  -2  -5  -9   -0.90    1.70
  -2  -5  -9   -0.90    1.90
   2  -5   9    2.60    2.30
  -2  -5  -9    5.40    3.00
  -2   5  -9    1.30    1.90
   2   5   9    1.50    1.70
  -2   5  -9    1.50    2.20
   2   5   9    3.40    2.70
  -2   5  -9    4.90    2.40
  -2   5  -9    1.40    2.00
  -2   5  -9    0.40    1.40
  -3  -5  -9    6.10    2.80
  -3  -5  -9    2.70    2.30
   3  -5   9    4.80    2.30
   3  -5   9    3.80    1.80
  -3   5  -9    1.20    2.30
   3   5   9    5.60    2.00
  -3   5  -9    8.80    2.40
  -3   5  -9    4.60    2.50
  -3  -6   9   -1.40    3.90
   3  -6  -9    5.00    2.00
  -3  -6   9    6.90    2.60
   3  -6  -9    7.60    1.90
  -3  -6   9    0.80    3.00
   3   6  -9    4.90    2.40
  -3   6   9    7.70    3.00
   3   6  -9    5.90    1.80
  -3   6   9    4.10    3.00
  -3   6   9    4.90    2.40
  -2  -6   9   14.20    2.40
  -2  -6   9   11.60    3.10
   2  -6  -9   23.00    3.00
   2  -6  -9   20.40    2.90
  -2  -6   9   20.50    2.90
  -2  -6   9   10.00    3.80
  -2   6   9   15.00    3.30
  -2   6   9   17.00    2.90
   2   6  -9   19.80    3.10
   2   6  -9   19.20    2.70
  -2   6   9   18.50    3.80
  -1  -6   9   54.79    4.70
  -1  -6   9   55.19    5.20
   1  -6  -9   67.49    4.90
  -1  -6   9   60.29    4.70
   1  -6  -9   59.89    5.00
   1  -6  -9   56.69    5.40
   1   6  -9   59.19    4.70
  -1   6   9   58.79    5.10
  -1   6   9   40.30    6.60
  -1   6   9   59.39    4.80
   1   6  -9   63.39    4.90
   1   6  -9   60.99    4.90
  -1   6   9   46.90    5.20
   0  -6   9  101.59    7.00
   0  -6   9  109.99    7.40
   0  -6  -9  121.29    8.20
   0  -6  -9  132.79    8.80
   0  -6   9  112.49    7.30
   0  -6  -9  109.39    8.00
   0  -6  -9  106.89    9.60
   0  -6   9  101.49    7.60
   0   6   9   93.39    7.00
   0   6  -9  121.49    8.60
   0   6   9  101.89    7.40
   0   6  -9  116.59    8.10
   0   6  -9  101.39    7.80
   0   6   9   81.29    7.50
   1  -6   9  134.39    9.10
  -1  -6  -9  120.69    9.40
   1  -6   9  134.79    9.00
  -1  -6  -9  121.49    9.20
  -1  -6  -9  115.69    9.50
   1  -6   9  140.99    9.30
   1  -6   9  132.79    9.30
  -1  -6  -9  122.19    8.80
   1   6   9  113.49    9.00
  -1   6  -9  135.39    9.10
  -1   6  -9  103.09   10.50
   1   6   9  119.49    9.20
  -1   6  -9  125.89    8.60
  -1   6  -9  133.19    9.20
   2  -6   9   18.70    3.40
  -2  -6  -9   17.20    4.00
   2  -6   9   16.10    2.90
  -2  -6  -9   23.00    4.50
  -2  -6  -9   17.00    3.40
  -2  -6  -9   10.00    2.90
   2  -6   9   17.40    3.20
  -2   6  -9   20.10    3.10
  -2   6  -9   26.30    4.70
   2   6   9   16.40    3.30
  -2   6  -9   14.80    3.00
  -2   6  -9   17.00    2.90
   3  -6   9    3.50    2.80
  -3  -6  -9   -0.10    2.60
   3  -6   9    0.90    1.80
  -3  -6  -9    3.10    2.30
  -3   6  -9    4.10    2.60
  -3   6  -9    2.00    2.60
   3   6   9    3.70    1.90
  -3   6  -9    3.40    2.50
  -3  -7   9   -8.20    5.10
   3  -7  -9    2.40    1.70
  -3  -7   9    1.60    3.20
   3   7  -9   -0.40    1.70
  -3   7   9   -0.50    3.50
  -3   7   9   -3.00    4.70
  -3   7   9    0.50    2.50
   3   7  -9    2.20    2.70
  -2  -7   9   47.90    4.60
   2  -7  -9   48.30    5.70
  -2  -7   9   50.39    5.60
   2  -7  -9   47.40    4.30
   2  -7  -9   49.99    4.30
  -2   7   9   44.80    5.10
  -2   7   9   38.90    5.10
   2   7  -9   37.60    4.00
  -2   7   9   45.20    4.40
   2   7  -9   40.80    4.30
  -1  -7   9   24.00    3.10
  -1  -7   9   15.80    3.80
  -1  -7   9   21.70    3.00
  -1  -7   9   15.20    3.00
   1  -7  -9   27.80    3.30
  -1  -7   9   13.80    3.00
   1  -7  -9   32.20    4.10
   1  -7  -9   25.70    3.20
  -1   7   9   16.90    3.90
  -1   7   9   21.70    3.10
  -1   7   9   16.40    3.50
   1   7  -9   30.30    3.30
   1   7  -9   24.90    2.90
  -1   7   9   20.90    3.40
   0  -7   9   14.50    2.40
   0  -7  -9   12.20    2.10
   0  -7   9   11.70    2.40
   0  -7   9   14.70    3.00
   0  -7  -9   21.20    3.60
   0  -7   9   12.40    2.60
   0  -7  -9   10.60    2.40
   0  -7  -9   14.90    2.70
   0   7   9   18.80    2.90
   0   7   9   12.50    2.50
   0   7  -9   22.00    2.70
   0   7   9   14.50    2.80
   0   7  -9   17.70    2.30
   0   7  -9   20.40    3.60
   1  -7   9   18.20    2.70
  -1  -7  -9   17.10    3.40
  -1  -7  -9   26.00    3.90
  -1  -7  -9   16.10    3.20
  -1  -7  -9   25.30    4.20
   1   7   9   12.60    2.80
   1   7   9   17.20    3.30
  -1   7  -9   15.10    2.90
  -1   7  -9   27.80    3.90
   1   7   9   17.30    4.10
  -1   7  -9   22.30    3.90
  -2  -7  -9   37.40    5.60
  -2  -7  -9   36.00    5.20
   2  -7   9   52.49    5.20
  -2  -7  -9   39.40    4.80
  -2   7  -9   51.59    5.70
   2   7   9   44.80    4.80
  -2   7  -9   43.20    5.40
  -3  -7  -9    0.30    2.40
  -3  -7  -9    3.40    3.00
   3  -7   9    3.20    3.10
   3  -7   9    1.40    1.80
  -3   7  -9    5.00    3.10
   3   7   9   -0.20    2.10
  -3   7  -9    7.20    2.90
  -3  -8   9    0.70    3.80
   3  -8  -9    5.30    1.80
  -3  -8   9    3.00    3.40
   3  -8  -9    7.30    2.20
   3   8  -9    3.80    1.60
   3   8  -9    4.80    2.40
  -3   8   9    7.60    2.60
  -3   8   9    4.30    3.30
  -2  -8   9   -0.90    3.10
   2  -8  -9    5.20    1.80
   2  -8  -9    0.90    1.60
  -2  -8   9    0.20    3.50
  -2  -8   9    2.10    2.30
  -2   8   9    2.70    2.30
   2   8  -9    1.50    1.80
   2   8  -9    0.10    1.90
   2   8  -9    2.30    1.30
  -2   8   9   -0.50    2.10
  -2   8   9    2.20    1.60
  -1  -8   9  127.29    8.70
   1  -8  -9  136.09    9.40
   1  -8  -9  149.99   10.10
   1  -8  -9  121.89   10.00
  -1  -8   9  109.59    9.40
   1  -8  -9  146.49    9.60
  -1  -8   9  103.09    8.70
   1   8  -9  127.49   10.00
   1   8  -9  136.39    9.50
  -1   8   9  140.39    9.00
  -1   8   9  130.29    9.10
   1   8  -9  120.49    9.20
  -1   8   9  117.79    9.00
   0  -8   9   13.30    2.80
   0  -8  -9   18.80    3.80
   0  -8   9    8.70    2.30
   0  -8  -9   16.00    3.00
   0  -8  -9   17.90    2.90
   0  -8   9    8.80    2.10
   0   8   9    8.90    2.80
   0   8   9   12.80    2.10
   0   8  -9   16.80    2.70
   0   8   9    7.10    2.60
   0   8  -9   13.30    2.60
   0   8   9    8.40    2.10
   0   8  -9   13.10    2.50
  -1  -8  -9   11.50    2.30
  -1  -8  -9   15.30    3.00
  -1  -8  -9   14.90    3.50
   1  -8   9   16.80    3.20
   1  -8   9   15.20    2.60
  -1  -8  -9    6.90    6.10
   1  -8   9   13.90    2.90
  -1   8  -9   12.00    2.00
  -1   8  -9   18.10    2.90
  -1   8  -9   18.10    3.70
   1   8   9   14.60    2.90
   1   8   9   19.40    3.50
  -1   8  -9   19.10    3.70
  -2  -8  -9   12.20    4.50
  -2  -8  -9   15.20    3.30
   2  -8   9   12.10    2.80
  -2  -8  -9   10.20    3.20
  -2   8  -9   15.00    2.40
   2   8   9    9.90    2.40
  -2   8  -9   21.20    4.60
  -2   8  -9   17.10    3.60
   2  -9  -9    0.80    1.90
  -2  -9   9   -0.40    2.60
  -2   9   9    1.40    2.00
   2   9  -9    4.50    3.70
  -2   9   9    1.60    3.50
   2   9  -9    4.10    4.00
   2   9  -9    4.00    1.50
  -2   9   9    1.80    3.30
  -1  -9   9   33.40    4.00
  -1  -9   9   29.50    4.50
   1  -9  -9   32.80    4.30
   1  -9  -9   40.80    5.10
   1  -9  -9   48.40    4.30
   1  -9  -9   41.20    5.20
   1   9  -9   36.20    3.70
  -1   9   9   42.30    4.20
   1   9  -9   41.60    4.20
  -1   9   9   35.20    4.30
  -1   9   9   33.90    4.60
   0  -9   9    4.60    2.10
   0  -9   9    5.40    2.10
   0  -9  -9    2.60    1.70
   0  -9  -9    4.70    2.60
   0  -9   9    9.40    2.60
   0  -9  -9    2.30    3.00
   0  -9  -9    6.10    2.60
   0   9  -9    2.40    2.10
   0   9   9    9.00    2.10
   0   9  -9    3.70    1.50
   0   9  -9    5.10    1.50
   0   9   9    4.90    2.80
   0   9  -9    4.70    2.50
   1  -9   9    5.00    2.00
   1  -9   9    3.20    2.20
  -1  -9  -9    3.80    2.30
  -1  -9  -9    3.60    3.40
   1   9   9    3.70    2.00
   1   9   9    5.10    2.20
  -1   9  -9    2.10    2.50
  -1   9  -9    2.20    2.10
  -1   9  -9    2.20    1.80
   2  -9   9    2.70    2.00
  -2  -9  -9    2.10    3.00
  -2  -9  -9   -1.50    2.80
   2  -9   9   -0.50    2.60
  -2   9  -9   -2.50    2.70
   2   9   9    4.30    2.10
  -2   9  -9    0.50    2.70
  -2 -10   9    3.00    2.60
   2 -10  -9    0.90    2.00
   2 -10  -9    1.90    2.20
  -2  10   9    3.60    1.90
  -2  10   9    1.90    3.00
   2  10  -9    1.90    1.60
  -2  10   9   -0.60    2.70
   2  10  -9    1.00    2.40
  -1 -10   9    6.50    2.70
   1 -10  -9    2.00    2.80
  -1 -10   9    0.10    3.10
  -1  10   9    2.50    3.40
   1  10  -9    4.00    2.80
  -1  10   9    3.50    2.60
  -1  10   9    6.50    2.70
   0 -10  -9    1.00    2.40
   0 -10  -9    2.50    1.90
   0 -10   9   -1.80    3.80
   0 -10  -9    7.00    2.50
   0 -10   9    1.10    2.00
   0  10  -9    5.00    1.40
   0  10  -9    2.90    2.00
   0  10   9    5.90    2.10
   0  10   9    5.60    3.90
   1 -10   9    2.20    2.50
   1 -10   9    4.40    2.20
  -1 -10  -9    0.70    2.50
  -1 -10  -9    0.90    2.30
  -1  10  -9    2.40    3.00
   1  10   9    0.40    2.30
  -1  10  -9    4.20    1.90
   1  10   9   -0.10    2.20
  -1  10  -9   -1.10    2.40
   1 -11  -9    2.10    1.90
  -1 -11   9    1.20    2.40
   1 -11  -9    0.10    3.40
   1 -11  -9    4.70    2.70
  -1  11   9   -0.30    1.80
   1  11  -9    1.60    2.50
   1  11  -9    0.80    1.50
   1  11  -9   -0.30    2.40
  -1  11   9    7.40    3.30
  -1  11   9    1.10    2.40
   0 -11  -9    6.40    2.40
   0 -11   9    3.00    2.30
   0 -11   9    3.20    2.10
   0 -11  -9    0.40    2.20
   0 -11  -9    1.80    2.80
   0  11  -9    1.90    1.70
   0  11   9    2.70    2.20
   0  11   9   -0.90    2.20
   0  11  -9    4.70    2.50
   0  11   9    7.30    3.60
   0  11  -9    4.00    2.20
  -4   0  10    3.30    2.90
  -4   0  10   10.50    3.50
  -4   0  10    6.70    3.90
   4   0 -10    6.90    2.80
  -3   0  10   11.60    2.50
   3   0 -10   11.80    2.20
   3   0 -10    7.00    2.00
  -3   0  10   10.30    3.10
  -3   0  10    9.40    3.30
  -2   0  10  600.04   38.40
   2   0 -10  808.62   50.99
  -2   0  10  579.14   38.50
  -2   0  10  642.94   39.20
   1   0 -10   70.09    4.90
   1   0 -10   64.69    4.70
  -1   0  10   61.59    4.50
   1   0 -10   57.69    4.80
  -1   0  10   60.79    5.20
   0   0 -10  243.28   16.20
   0   0 -10  241.68   16.20
   0   0  10  195.68   13.80
   0   0  10  208.68   13.20
   0   0 -10  262.17   16.30
   0   0  10  209.98   13.30
   0   0 -10  253.37   16.60
   0   0 -10  258.57   16.40
   0   0  10  194.48   13.40
  -1   0 -10   32.40    3.10
  -1   0 -10   29.20    3.40
   1   0  10   16.10    3.80
  -1   0 -10   31.80    3.80
  -1   0 -10   29.70    3.80
  -1   0 -10   30.60    3.00
  -1   0 -10   29.30    2.90
   1   0  10   19.20    2.30
  -1   0 -10   30.40    3.40
  -2   0 -10  151.08    9.90
  -2   0 -10  135.49   10.30
  -2   0 -10  149.19   10.40
  -2   0 -10  134.49   10.80
   2   0  10  107.79   10.20
   2   0  10  129.59    8.50
  -2   0 -10  147.09   10.10
  -3   0 -10   19.20    3.80
  -3   0 -10   32.70    4.10
   3   0  10   16.80    3.40
   3   0  10   20.30    3.20
  -3   0 -10   28.20    3.90
  -4  -1  10    3.20    2.70
   4  -1 -10    5.00    2.80
  -4  -1  10   -3.30    3.20
   4   1 -10   -4.10    2.50
  -4   1  10    7.80    3.70
  -4   1  10    2.20    2.50
  -4   1  10    1.80    3.10
   3  -1 -10   41.20    4.60
  -3  -1  10   20.50    4.10
  -3  -1  10   24.70    4.90
  -3  -1  10   22.10    4.10
   3  -1 -10   38.00    4.00
  -3   1  10   23.10    4.00
   3   1 -10   39.90    4.50
   3   1 -10   34.90    4.30
  -3   1  10   30.30    5.10
   2  -1 -10  166.18   10.40
  -2  -1  10  115.89    7.60
   2  -1 -10  154.88   10.60
   2  -1 -10  146.39   10.60
  -2  -1  10   95.59    7.80
  -2  -1  10   99.59    8.90
  -2   1  10  120.59    8.70
  -2   1  10  109.99    8.50
  -2   1  10  104.49    7.90
  -2   1  10  102.59    7.50
   2   1 -10  148.49   10.50
   2   1 -10  143.69   10.20
  -1  -1  10   90.59    6.30
  -1  -1  10   87.29    6.90
   1  -1 -10  113.29    8.50
   1  -1 -10  126.99    8.50
   1  -1 -10  125.99    8.50
  -1  -1  10   82.99    6.10
  -1   1  10  101.39    6.50
  -1   1  10   76.49    6.60
  -1   1  10   93.59    6.70
   1   1 -10  125.99    8.40
  -1   1  10   88.59    6.20
   1   1 -10  117.59    8.60
   1   1 -10  139.19    8.50
   0  -1 -10   41.10    3.50
   0  -1 -10   41.30    3.50
   0  -1 -10   46.30    4.10
   0  -1  10   44.20    4.40
   0  -1  10   40.70    3.60
   0  -1  10   37.10    4.30
   0  -1  10   47.80    3.70
   0  -1 -10   43.30    3.70
   0  -1 -10   38.50    3.90
   0   1 -10   44.40    4.20
   0   1  10   45.70    4.00
   0   1 -10   38.40    3.40
   0   1 -10   48.90    4.30
   0   1 -10   41.20    3.50
   0   1  10   52.09    3.70
   0   1 -10   48.10    3.60
   0   1  10   44.60    4.50
   1  -1  10  131.39    8.60
   1  -1  10  111.89    9.60
   1  -1  10  131.99    9.00
  -1  -1 -10  141.99    9.30
  -1  -1 -10  135.29    9.10
  -1  -1 -10  145.29    9.70
  -1  -1 -10  139.89    9.50
  -1  -1 -10  124.39    9.70
  -1  -1 -10  130.59    9.30
   1  -1  10  131.39    9.00
  -1   1 -10  127.29    9.30
  -1   1 -10  140.49    9.70
  -1   1 -10  135.59    9.00
  -1   1 -10  135.39    9.30
  -1   1 -10  131.69    9.10
   1   1  10  129.59    8.60
  -1   1 -10  123.59    9.60
   1   1  10  115.99    9.60
  -2  -1 -10    4.40    2.10
   2  -1  10    3.10    2.00
  -2  -1 -10    7.90    2.20
   2  -1  10    5.70    1.70
  -2  -1 -10    5.80    2.60
   2  -1  10    2.70    2.60
  -2  -1 -10    6.90    1.70
  -2   1 -10    8.60    2.00
  -2   1 -10    9.40    2.70
   2   1  10   -0.50    2.50
  -2   1 -10    7.30    2.30
  -2   1 -10    9.20    2.20
   2   1  10    5.20    1.70
  -2   1 -10    8.80    1.80
   3  -1  10   -0.10    2.30
  -3  -1 -10    4.20    2.00
   3  -1  10    3.60    2.20
  -3  -1 -10    3.60    2.30
  -3  -1 -10    5.50    2.80
  -3   1 -10    6.80    2.90
  -3   1 -10    2.70    2.20
   3   1  10    0.00    1.80
  -3   1 -10    8.50    3.00
  -3   1 -10    4.00    2.10
   4  -2 -10    0.20    2.50
   4  -2 -10    2.40    2.70
  -4  -2  10    6.30    2.90
  -4  -2  10    3.00    3.20
  -4  -2  10   -0.30    2.30
  -4  -2  10    2.50    3.00
  -4   2  10   -1.40    2.30
   4   2 -10    2.00    2.90
  -4   2  10    4.40    3.00
   4   2 -10    3.20    2.20
  -4   2  10    6.70    3.60
   3  -2 -10   22.90    3.40
  -3  -2  10   13.80    3.40
  -3  -2  10   12.00    2.60
  -3  -2  10   13.80    2.90
   3  -2 -10   23.80    4.10
   3   2 -10   13.80    4.00
  -3   2  10   14.50    3.10
  -3   2  10   17.50    3.70
   3   2 -10   23.50    3.90
  -3   2  10   16.10    3.30
   2  -2 -10    0.50    1.50
   2  -2 -10    0.40    1.30
   2  -2 -10    2.70    1.60
  -2  -2  10   -0.40    2.00
  -2  -2  10    0.20    2.10
  -2   2  10    0.40    2.10
   2   2 -10   -0.40    1.20
  -2   2  10    1.50    1.90
   2   2 -10   -0.50    1.30
  -2   2  10    3.10    2.20
  -1  -2  10   83.69    6.00
   1  -2 -10  107.39    7.60
  -1  -2  10   74.39    5.90
  -1  -2  10   77.09    6.80
   1  -2 -10  114.69    7.40
   1  -2 -10   96.39    7.50
   1  -2 -10  114.49    7.50
  -1   2  10   72.29    6.40
  -1   2  10   86.39    5.80
  -1   2  10   86.79    6.10
   1   2 -10  110.29    7.30
   1   2 -10  104.19    7.60
  -1   2  10   91.59    6.20
  -1   2  10   92.69    6.50
   1   2 -10   97.79    7.40
   0  -2  10    4.40    1.70
   0  -2 -10    9.50    1.90
   0  -2  10    7.90    1.70
   0  -2 -10    7.20    1.40
   0  -2 -10    7.60    1.70
   0  -2  10    4.30    1.40
   0  -2 -10    6.40    1.40
   0   2 -10    7.10    2.10
   0   2  10    4.50    1.40
   0   2  10    4.90    1.20
   0   2 -10    7.60    1.40
   0   2  10    4.50    1.60
   0   2 -10    9.00    1.20
   0   2 -10    8.90    1.80
  -1  -2 -10    0.00    2.10
   1  -2  10    2.80    1.70
   1  -2  10    1.70    1.20
  -1  -2 -10    0.70    2.00
   1  -2  10    1.50    1.80
  -1  -2 -10    4.80    1.90
  -1  -2 -10    2.80    1.30
  -1  -2 -10    3.50    1.90
   1  -2  10    2.30    1.40
  -1   2 -10    5.40    2.10
  -1   2 -10    1.40    1.20
  -1   2 -10    2.70    2.00
  -1   2 -10    2.20    1.60
  -1   2 -10    4.90    1.70
   1   2  10    1.30    1.30
  -1   2 -10    4.60    1.20
   2  -2  10   25.00    3.60
  -2  -2 -10   23.30    3.60
   2  -2  10   26.60    3.00
  -2  -2 -10   20.40    4.30
  -2  -2 -10   28.00    3.80
  -2  -2 -10   28.40    4.60
  -2   2 -10   29.00    3.90
   2   2  10   17.40    3.70
  -2   2 -10   36.10    3.80
  -2   2 -10   23.20    4.20
  -2   2 -10   28.80    4.10
   2   2  10   21.70    3.10
  -2   2 -10   34.00    3.30
  -3  -2 -10   15.70    3.00
  -3  -2 -10    8.80    3.50
   3  -2  10   13.90    2.80
  -3  -2 -10   13.90    2.80
  -3   2 -10   19.60    3.60
  -3   2 -10   12.80    3.30
  -3   2 -10   16.30    3.50
   3   2  10   16.70    3.20
  -4  -3  10    7.60    3.30
   4  -3 -10    8.60    2.80
  -4  -3  10   -0.20    2.70
  -4  -3  10    0.30    3.50
  -4  -3  10    4.80    3.50
   4  -3 -10    5.40    2.90
   4   3 -10    9.90    2.60
  -4   3  10    3.10    3.60
  -4   3  10    3.50    2.60
   4   3 -10   12.50    3.40
  -4   3  10    2.60    3.40
  -3  -3  10    3.20    2.90
   3  -3 -10    3.80    1.70
  -3  -3  10    4.30    2.50
   3   3 -10    1.90    1.90
  -3   3  10   -2.60    2.40
  -3   3  10    0.60    2.10
  -3   3  10   -2.30    2.50
  -2  -3  10    1.50    2.20
   2  -3 -10    2.30    1.40
  -2  -3  10    5.50    2.70
  -2  -3  10    2.70    1.50
  -2   3  10   -0.80    2.00
   2   3 -10    2.10    1.60
  -2   3  10   -0.90    2.20
   2   3 -10    1.70    1.40
  -2   3  10    1.60    2.10
   1  -3 -10   24.20    3.30
   1  -3 -10   23.30    2.70
  -1  -3  10   19.50    2.60
   1  -3 -10   20.80    2.90
  -1  -3  10   21.20    4.30
  -1  -3  10   26.40    2.80
  -1   3  10   24.30    3.20
   1   3 -10   18.70    3.70
  -1   3  10   25.70    3.00
  -1   3  10   21.80    2.70
  -1   3  10   23.00    3.40
   1   3 -10   20.80    2.60
  -1   3  10   24.00    2.50
   1   3 -10   21.70    2.70
   1   3 -10   28.40    2.60
   0  -3  10  146.19    9.50
   0  -3 -10  156.18   10.80
   0  -3 -10  161.48   10.70
   0  -3  10  147.09    9.60
   0  -3  10  140.49    9.80
   0  -3  10  131.69   10.10
   0  -3 -10  177.38   11.10
   0  -3 -10  163.68   10.90
   0   3  10  142.09    9.50
   0   3 -10  153.28   10.80
   0   3  10  148.19    9.40
   0   3 -10  160.08   11.20
   0   3 -10  174.28   10.80
   0   3  10  128.99   10.10
   0   3 -10  152.58   10.50
   1  -3  10    7.50    2.10
  -1  -3 -10    5.60    2.90
   1  -3  10    4.00    1.70
  -1  -3 -10    7.70    1.60
  -1  -3 -10   10.30    2.20
  -1  -3 -10    8.50    2.10
  -1  -3 -10    5.90    1.60
   1  -3  10   10.40    2.10
   1  -3  10    8.10    1.60
  -1   3 -10    8.60    2.40
  -1   3 -10    6.10    1.50
  -1   3 -10    4.70    1.90
  -1   3 -10    7.80    1.90
  -1   3 -10    9.00    2.30
  -1   3 -10    5.60    1.50
   2  -3  10   23.60    3.30
   2  -3  10   23.40    5.50
  -2  -3 -10   26.40    4.40
   2  -3  10   27.30    3.70
  -2  -3 -10   23.30    3.90
  -2  -3 -10   27.00    4.80
  -2   3 -10   30.30    3.70
  -2   3 -10   32.10    4.40
  -2   3 -10   34.70    3.80
  -2   3 -10   38.50    4.40
  -2   3 -10   32.10    4.60
   2   3  10   27.70    3.40
  -3  -3 -10    1.40    3.50
   3  -3  10    1.40    2.10
  -3  -3 -10    2.40    2.30
  -3  -3 -10   -1.20    1.80
  -3   3 -10    2.20    2.50
   3   3  10    0.20    1.80
  -3   3 -10    6.80    3.00
  -3   3 -10    2.10    2.00
  -4  -4  10    2.20    3.80
   4  -4 -10    4.50    2.80
  -4  -4  10    4.00    3.70
  -4   4  10   10.20    3.60
  -4   4  10    5.30    3.60
   4   4 -10    6.70    2.30
  -3  -4  10   15.70    3.50
   3  -4 -10   24.80    3.30
  -3  -4  10   12.90    3.60
  -3   4  10   18.20    3.60
   3   4 -10   22.40    3.40
   3   4 -10   18.60    3.80
   2  -4 -10   97.19    6.50
   2  -4 -10   87.89    6.40
  -2  -4  10   67.79    7.00
  -2  -4  10   73.29    5.90
  -2   4  10   84.99    6.90
   2   4 -10   90.39    6.60
   2   4 -10   76.39    6.40
  -2   4  10   68.59    6.20
  -2   4  10   78.29    6.00
   2   4 -10   77.19    7.40
   1  -4 -10   24.30    2.70
   1  -4 -10   19.10    3.00
   1  -4 -10   21.20    3.40
  -1  -4  10   25.60    3.00
  -1  -4  10   23.90    2.70
   1  -4 -10   16.20    3.40
   1   4 -10   24.90    2.60
  -1   4  10   20.90    3.40
  -1   4  10   19.10    3.70
  -1   4  10   20.40    3.10
   1   4 -10   18.80    2.40
   1   4 -10   21.50    2.80
  -1   4  10   21.10    3.00
   0  -4 -10  297.67   18.80
   0  -4  10  267.07   17.00
   0  -4  10  228.18   17.20
   0  -4 -10  291.37   18.90
   0  -4  10  276.17   16.70
   0  -4 -10  302.17   19.10
   0  -4  10  275.17   16.70
   0   4 -10  316.07   18.80
   0   4 -10  295.97   19.20
   0   4  10  220.98   17.10
   0   4 -10  264.27   18.50
   0   4  10  272.67   16.80
   0   4 -10  281.17   19.10
   0   4 -10  275.57   18.80
   0   4  10  253.77   16.50
   1  -4  10   83.99    5.80
  -1  -4 -10   95.89    7.70
   1  -4  10   64.09    6.70
  -1  -4 -10  101.79    7.40
  -1  -4 -10  100.39    8.20
  -1  -4 -10  102.09    7.20
  -1  -4 -10  100.39    8.10
   1  -4  10   79.29    6.00
   1  -4  10   77.89    5.50
   1   4  10   58.99    6.50
   1   4  10   72.39    5.50
  -1   4 -10  103.69    7.30
  -1   4 -10  112.69    7.90
  -1   4 -10   97.99    7.50
  -1   4 -10   98.79    7.20
   1   4  10   64.09    5.80
  -1   4 -10  101.69    7.60
  -2  -4 -10   39.90    4.20
   2  -4  10   41.20    4.40
  -2  -4 -10   37.10    4.70
  -2  -4 -10   44.30    5.80
  -2  -4 -10   34.20    5.10
   2  -4  10   46.50    4.20
   2  -4  10   43.70    5.80
   2  -4  10   41.50    6.70
  -2   4 -10   38.00    5.00
   2   4  10   39.80    4.20
  -2   4 -10   50.69    4.50
  -2   4 -10   39.10    4.30
  -2   4 -10   47.60    4.90
  -3  -4 -10   -1.20    3.10
   3  -4  10   -0.40    3.10
  -3  -4 -10    5.70    3.80
   3   4  10   -1.20    3.30
  -3   4 -10   -0.50    2.50
  -3   4 -10    1.20    3.60
  -3   4 -10    1.40    3.20
   3  -5 -10   30.00    4.20
  -3  -5  10   15.00    3.90
  -3  -5  10   14.20    3.60
   3  -5 -10   33.00    3.70
  -3  -5  10    7.70    3.90
   3   5 -10   27.00    3.70
  -3   5  10   19.70    3.90
   3   5 -10   27.30    4.20
   2  -5 -10    8.80    1.60
  -2  -5  10    8.40    1.90
   2  -5 -10    9.50    1.90
  -2  -5  10    2.20    3.20
  -2   5  10   11.20    2.70
   2   5 -10    7.10    1.60
  -2   5  10    8.50    1.90
  -2   5  10   10.30    2.30
  -1  -5  10   83.99    6.90
   1  -5 -10  103.59    7.50
  -1  -5  10   83.99    6.20
   1  -5 -10  111.39    7.50
  -1  -5  10   88.09    6.30
  -1   5  10   89.89    6.80
   1   5 -10  107.49    8.10
   1   5 -10  104.39    7.50
  -1   5  10   82.19    6.70
  -1   5  10   69.09    6.10
  -1   5  10   97.49    6.50
   1   5 -10   95.29    7.20
  -1   5  10   73.59    8.50
   0  -5  10   42.60    3.70
   0  -5  10   41.50    3.70
   0  -5 -10   30.50    4.30
   0  -5  10   40.30    4.00
   0  -5 -10   36.10    4.20
   0  -5 -10   42.80    3.80
   0  -5  10   40.70    3.40
   0   5 -10   42.10    3.50
   0   5  10   32.80    3.90
   0   5 -10   38.30    3.50
   0   5 -10   30.80    3.20
   0   5  10   30.10    4.00
   0   5 -10   39.00    4.20
   0   5 -10   31.30    5.00
   1  -5  10   49.20    4.50
  -1  -5 -10   61.29    6.40
  -1  -5 -10   63.69    6.20
   1  -5  10   50.99    4.30
  -1  -5 -10   58.59    5.30
  -1  -5 -10   60.09    6.00
   1   5  10   48.20    4.90
  -1   5 -10   66.29    5.00
  -1   5 -10   68.59    5.20
  -1   5 -10   72.69    5.90
  -1   5 -10   65.99    5.80
   1   5  10   45.00    4.20
  -1   5 -10   57.49    6.00
  -2  -5 -10    4.80    2.10
   2  -5  10    6.40    3.60
   2  -5  10    6.00    3.40
   2  -5  10    7.00    2.40
  -2  -5 -10   13.40    3.40
  -2  -5 -10    5.70    2.60
   2  -5  10    9.50    2.30
  -2  -5 -10    5.60    2.60
   2   5  10    4.70    3.80
  -2   5 -10    8.80    2.80
  -2   5 -10    8.10    2.40
  -2   5 -10    6.60    2.00
   2   5  10    3.40    1.90
  -3  -5 -10    1.90    2.30
   3  -5  10    2.10    2.30
   3  -5  10    1.30    1.60
  -3  -5 -10   -1.00    2.40
  -3   5 -10    3.30    2.80
  -3   5 -10    2.30    2.70
   3   5  10    4.80    2.10
  -3  -6  10    0.00    5.80
   3  -6 -10    0.20    1.60
  -3  -6  10    2.90    2.50
  -3  -6  10   -0.20    2.90
   3  -6 -10    3.70    3.60
   3   6 -10    2.00    2.30
  -3   6  10    2.60    3.00
   3   6 -10    4.10    1.70
  -3   6  10    6.50    2.70
   2  -6 -10   15.80    2.80
  -2  -6  10    8.70    2.00
  -2  -6  10    7.00    3.00
  -2  -6  10   12.20    2.80
   2  -6 -10   15.30    2.90
  -2  -6  10    4.90    2.20
  -2   6  10    8.00    2.40
   2   6 -10   13.70    2.60
  -2   6  10   13.40    2.70
   1  -6 -10    5.20    2.10
   1  -6 -10    4.80    1.80
  -1  -6  10    4.10    2.60
   1  -6 -10    6.00    2.30
  -1  -6  10    4.60    1.70
  -1  -6  10    5.60    2.30
  -1  -6  10    5.30    1.80
   1  -6 -10    4.30    1.60
  -1  -6  10    7.90    3.10
  -1   6  10    5.30    2.30
   1   6 -10    5.30    1.80
   1   6 -10    5.80    1.30
   1   6 -10    7.70    1.80
  -1   6  10    6.60    1.70
  -1   6  10    4.50    2.00
  -1   6  10    2.90    1.90
   0  -6 -10   88.79    7.10
   0  -6  10   80.19    6.50
   0  -6 -10   94.89    6.90
   0  -6  10   85.99    6.20
   0  -6 -10   94.89    7.70
   0  -6  10   93.19    6.60
   0  -6  10   83.29    6.90
   0   6 -10  105.09    6.90
   0   6 -10   89.39    6.90
   0   6  10   84.89    6.10
   0   6  10   84.99    6.60
   0   6 -10   82.99    6.50
   0   6 -10  103.79    7.60
   1  -6  10   14.10    2.50
   1  -6  10   15.20    3.00
   1  -6  10   10.70    2.30
  -1  -6 -10    7.80    3.00
  -1  -6 -10    9.90    2.80
  -1  -6 -10   12.70    3.20
   1  -6  10    9.10    2.60
  -1   6 -10    9.30    3.10
  -1   6 -10   11.00    1.70
  -1   6 -10   15.70    3.30
   1   6  10    7.20    2.30
   1   6  10    9.90    2.30
   1   6  10   14.80    2.50
   2  -6  10   -0.90    1.40
  -2  -6 -10   -0.40    2.60
  -2  -6 -10    3.10    3.90
  -2  -6 -10   -3.20    2.00
  -2  -6 -10   -1.60    2.30
  -2   6 -10    3.60    3.10
  -2   6 -10   -0.90    2.90
  -2   6 -10   -0.90    1.70
  -2   6 -10    4.40    2.70
  -2   6 -10    1.70    2.40
   2   6  10   -1.90    1.60
   3  -6  10    8.10    3.00
   3  -6  10    2.80    2.00
  -3  -6 -10   -1.40    2.40
  -3  -6 -10    2.60    2.60
  -3   6 -10    4.10    3.30
  -3   6 -10    2.80    2.70
  -3   6 -10    0.10    2.70
   3   6  10   -0.10    2.00
   3  -7 -10   -3.10    1.70
  -3  -7  10    7.60    3.70
   3  -7 -10    0.70    2.10
  -3  -7  10   -4.70    3.10
   3   7 -10    2.20    2.70
  -3   7  10    2.60    2.60
   3   7 -10    0.30    1.70
  -3   7  10    0.50    3.00
  -2  -7  10    3.30    2.40
  -2  -7  10    1.70    2.00
   2  -7 -10    3.30    1.60
  -2  -7  10    2.20    5.90
  -2  -7  10    1.80    3.80
   2  -7 -10    1.40    1.50
  -2   7  10    4.20    1.80
   2   7 -10    3.10    1.80
   2   7 -10    0.00    1.30
  -2   7  10   -1.10    2.10
  -1  -7  10    4.10    1.80
   1  -7 -10    0.00    1.50
  -1  -7  10    2.00    2.30
  -1  -7  10    1.10    1.80
   1  -7 -10    0.70    2.30
   1  -7 -10    1.70    1.60
  -1   7  10    3.40    1.60
  -1   7  10    2.40    1.80
   1   7 -10   -1.70    1.10
   1   7 -10    3.20    1.50
   1   7 -10   -1.50    1.90
  -1   7  10    3.60    2.30
  -1   7  10    5.20    2.40
   0  -7 -10   27.90    4.50
   0  -7  10   21.50    4.20
   0  -7 -10   23.30    3.50
   0  -7  10   28.10    3.30
   0  -7 -10   29.80    3.60
   0  -7 -10   31.40    4.40
   0  -7  10   24.70    3.10
   0   7  10   16.30    3.90
   0   7 -10   32.10    4.20
   0   7  10   23.20    3.00
   0   7 -10   33.30    3.50
   0   7 -10   30.50    3.10
   0   7  10   25.10    3.50
   1  -7  10    7.30    1.80
   1  -7  10    7.10    2.30
  -1  -7 -10    4.50    2.30
  -1  -7 -10    2.90    3.20
   1  -7  10    3.30    2.60
  -1  -7 -10    6.10    3.30
  -1  -7 -10    6.60    1.90
   1   7  10   -0.30    2.30
  -1   7 -10    5.50    2.30
  -1   7 -10    5.30    2.40
  -1   7 -10    4.20    1.50
   1   7  10    4.00    2.40
   1   7  10    6.30    1.80
   2  -7  10    8.20    2.50
  -2  -7 -10    5.40    3.00
  -2  -7 -10    9.40    3.10
   2  -7  10    6.10    1.80
  -2  -7 -10    8.40    2.70
  -2   7 -10    6.40    2.00
  -2   7 -10    6.80    3.20
  -2   7 -10   12.50    3.10
  -2   7 -10    7.30    3.20
   2   7  10    3.60    2.00
   3  -8 -10   -0.10    1.90
   3  -8 -10    1.40    2.30
   3   8 -10    2.70    2.50
  -3   8  10   -5.00    3.20
   3   8 -10   -0.30    1.60
  -3   8  10    1.80    2.70
   2  -8 -10    7.80    1.90
   2  -8 -10    6.80    1.90
  -2  -8  10   10.20    4.90
  -2   8  10   -0.10    2.50
   2   8 -10   -0.10    2.10
   2   8 -10    0.10    1.90
  -2   8  10    4.10    1.80
   2   8 -10    3.90    1.50
  -2   8  10    2.80    2.40
   1  -8 -10    1.10    2.40
  -1  -8  10    0.00    1.60
  -1  -8  10    0.40    1.80
   1  -8 -10    3.50    2.70
   1  -8 -10    4.10    1.60
  -1   8  10    1.80    2.50
   1   8 -10    0.40    1.60
   1   8 -10    0.30    1.20
   1   8 -10    2.00    2.40
  -1   8  10    1.20    2.10
  -1   8  10    0.20    1.60
   1   8 -10    3.50    2.30
   0  -8  10   33.20    3.90
   0  -8  10   24.30    3.70
   0  -8 -10   32.90    4.80
   0  -8 -10   31.30    4.70
   0  -8 -10   31.90    3.80
   0  -8  10   25.80    3.50
   0   8 -10   39.10    4.60
   0   8 -10   35.50    4.80
   0   8 -10   31.90    3.60
   0   8  10   26.30    3.80
  -1  -8 -10    3.60    2.00
  -1  -8 -10   -0.90    2.50
   1  -8  10    0.70    1.70
   1  -8  10    6.10    3.00
  -1  -8 -10    7.50    4.40
   1   8  10    3.40    1.80
  -1   8 -10    1.50    2.00
   1   8  10    2.00    2.40
  -1   8 -10    5.20    1.60
  -1   8 -10    0.10    2.30
  -2  -8 -10    2.90    3.30
  -2  -8 -10    6.40    3.10
   2  -8  10    7.80    2.20
   2  -8  10   10.90    2.50
  -2  -8 -10    5.70    2.80
  -2   8 -10   14.00    3.50
   2   8  10    4.60    2.10
  -2   8 -10    9.70    3.20
  -2   8 -10    8.60    2.10
   2  -9 -10   -0.20    2.10
  -2  -9  10   -1.70    2.50
   2  -9 -10    3.50    1.90
   2  -9 -10    1.70    3.00
   2   9 -10    4.50    1.40
   2   9 -10   -0.70    2.30
  -2   9  10    1.80    2.50
  -2   9  10    2.60    2.60
  -2   9  10   -0.70    1.60
   2   9 -10    2.30    2.40
   1  -9 -10    9.70    2.20
  -1  -9  10    6.60    2.10
   1  -9 -10    5.60    2.70
  -1  -9  10    6.60    2.50
   1  -9 -10    9.50    3.10
   1  -9 -10    5.00    1.90
  -1   9  10    9.60    2.20
   1   9 -10    5.00    1.50
  -1   9  10    8.50    3.10
   1   9 -10    4.70    1.90
  -1   9  10   10.20    2.60
   1   9 -10    6.20    3.40
   0  -9  10   -0.90    2.50
   0  -9 -10    2.20    2.30
   0  -9 -10    1.00    2.10
   0  -9  10    4.30    2.10
   0  -9 -10    1.80    3.40
   0  -9  10    3.40    2.50
   0   9 -10    6.10    2.60
   0   9 -10    4.80    2.50
   0   9  10    4.30    2.00
   0   9 -10    3.30    1.60
   0   9 -10    3.70    1.50
  -1  -9 -10    4.10    2.40
   1  -9  10    7.20    2.40
  -1   9 -10    5.00    3.10
  -1   9 -10    4.50    3.00
  -1   9 -10    1.70    2.40
   1   9  10    2.90    2.70
   1   9  10    2.90    2.10
  -2  -9 -10   -2.60    3.90
   2  -9  10   -1.90    2.10
  -2  -9 -10    1.50    3.00
   2  -9  10    1.30    2.60
  -2   9 -10    7.50    3.70
  -2   9 -10    7.10    3.20
   2   9  10   -0.10    2.20
   1 -10 -10    1.60    3.40
   1 -10 -10    1.70    1.90
   1 -10 -10    5.20    2.70
  -1 -10  10   -1.80    2.10
  -1  10  10    1.10    1.80
   1  10 -10    4.50    2.10
  -1  10  10   -1.30    2.20
  -1  10  10    1.20    3.30
   0 -10 -10   11.40    3.30
   0 -10  10   12.60    2.60
   0 -10 -10   10.20    3.00
   0 -10 -10   13.60    2.60
   0  10 -10   12.50    2.10
   0  10 -10   18.30    2.90
   0  10 -10   16.30    4.00
   0  10  10   18.00    3.70
   0  10 -10   12.40    2.30
   1 -10  10   -1.10    2.40
   1 -10  10   -1.80    2.30
  -1 -10 -10   -0.80    2.60
  -1 -10 -10    1.20    2.60
  -1  10 -10    4.00    3.20
  -1  10 -10    0.40    2.10
   1  10  10    1.80    2.90
  -1  10 -10    8.50    3.00
  -4   0  11   -1.20    2.60
   4   0 -11   -1.50    2.80
  -4   0  11    1.20    3.30
   3   0 -11    1.30    1.90
  -3   0  11    0.10    3.10
  -3   0  11    4.50    2.50
   3   0 -11    0.80    1.90
  -2   0  11   -0.70    2.40
   2   0 -11   -0.50    1.30
   2   0 -11   -0.30    1.30
  -2   0  11    0.40    1.50
  -1   0  11    0.20    1.00
   1   0 -11   -1.30    1.40
  -1   0  11   -2.50    1.80
   1   0 -11    1.90    1.30
   1   0 -11   -0.50    0.90
   0   0  11    0.90    1.40
   0   0 -11    0.30    1.20
   0   0  11    0.70    1.70
   0   0 -11    1.40    1.10
   0   0 -11    1.40    1.20
   0   0 -11    0.80    1.90
   1   0  11   -2.40    1.80
  -1   0 -11    1.60    1.30
  -1   0 -11    1.70    1.70
   1   0  11   -1.70    1.60
  -1   0 -11    2.80    2.30
  -1   0 -11    1.50    2.20
  -1   0 -11    3.10    2.00
   1   0  11    0.10    1.30
  -2   0 -11    2.20    2.50
  -2   0 -11   -0.10    1.80
  -2   0 -11   -2.20    1.90
  -2   0 -11    1.30    2.40
   2   0  11   -0.40    1.60
   2   0  11    0.10    2.00
   3   0  11    2.00    2.40
  -3   0 -11    0.90    2.90
  -3   0 -11    1.40    3.00
  -3   0 -11    2.40    2.40
  -4  -1  11    4.10    3.30
   4  -1 -11    0.70    2.60
  -4  -1  11    8.60    2.90
  -4   1  11    6.10    2.70
   4   1 -11    4.30    2.80
  -4   1  11    1.60    3.20
  -3  -1  11    6.90    3.20
   3  -1 -11    8.00    2.10
  -3  -1  11   12.90    3.00
   3  -1 -11   12.20    2.60
   3   1 -11   11.00    2.50
  -3   1  11    6.50    3.30
  -3   1  11    6.90    3.30
   3   1 -11   11.80    2.50
  -3   1  11    8.50    2.50
  -2  -1  11    9.20    2.90
   2  -1 -11    9.80    1.80
   2  -1 -11    5.80    3.50
  -2  -1  11   13.10    2.50
   2  -1 -11   10.60    2.00
  -2  -1  11   11.20    2.50
   2   1 -11    9.10    1.70
  -2   1  11    6.30    2.70
   2   1 -11    8.10    1.90
  -1  -1  11  106.29    7.60
  -1  -1  11  108.99    8.40
   1  -1 -11  149.59    9.40
   1  -1 -11  133.19    9.60
   1  -1 -11  123.29    9.30
   1   1 -11  155.18    9.40
   1   1 -11  122.89    9.40
  -1   1  11  118.89    8.20
  -1   1  11  105.79    7.50
   1   1 -11  140.09    9.30
   0  -1  11   78.49    6.70
   0  -1  11   87.19    6.00
   0  -1 -11  103.69    7.30
   0  -1 -11   87.09    6.80
   0  -1 -11   87.89    6.80
   0  -1 -11  102.19    7.40
   0  -1  11   76.09    6.80
   0  -1 -11  100.19    7.00
   0  -1  11   82.49    6.10
   0   1 -11   89.59    6.80
   0   1 -11  109.49    7.60
   0   1  11   87.29    5.90
   0   1 -11   98.79    6.90
   0   1 -11  100.79    6.90
   0   1  11   79.09    6.80
   0   1  11   81.29    6.40
   0   1  11   86.59    6.20
  -1  -1 -11    2.80    1.90
   1  -1  11    0.10    1.50
  -1  -1 -11    2.50    2.10
  -1  -1 -11    0.00    2.10
  -1  -1 -11    2.40    1.40
  -1  -1 -11   -1.40    1.90
   1  -1  11    1.70    1.30
   1  -1  11   -0.50    2.10
  -1   1 -11    0.90    2.20
  -1   1 -11    3.20    2.00
   1   1  11    1.90    1.40
  -1   1 -11    0.20    2.10
   1   1  11    0.70    2.00
  -1   1 -11    0.70    1.40
  -1   1 -11    2.50    1.20
  -1   1 -11    6.20    1.90
   2  -1  11   40.20    7.10
   2  -1  11   46.40    4.40
   2  -1  11   40.20    4.80
  -2  -1 -11   50.69    4.70
  -2  -1 -11   53.09    5.80
  -2  -1 -11   47.30    5.20
  -2  -1 -11   38.50    5.70
  -2  -1 -11   50.39    4.90
  -2   1 -11   47.00    5.00
  -2   1 -11   54.59    4.50
  -2   1 -11   40.30    5.60
  -2   1 -11   53.99    5.50
  -2   1 -11   49.70    5.00
   2   1  11   50.59    4.30
  -3  -1 -11    2.30    5.20
   3  -1  11    6.80    3.70
  -3  -1 -11    2.20    3.30
   3  -1  11    4.40    2.50
  -3   1 -11    1.50    3.30
  -3   1 -11    5.10    3.60
   3   1  11    2.60    2.90
   3   1  11    6.30    2.80
   4  -2 -11    2.90    3.20
  -4  -2  11    5.70    3.50
  -4  -2  11    4.10    3.20
   4  -2 -11    3.90    2.90
  -4   2  11    6.40    3.30
   4   2 -11    6.50    2.20
  -4   2  11    1.20    2.70
  -4   2  11    6.10    4.20
   4   2 -11    5.60    3.20
  -3  -2  11   18.40    3.00
  -3  -2  11   21.10    4.50
   3  -2 -11   47.10    4.70
  -3  -2  11   19.50    4.20
   3  -2 -11   50.49    5.30
  -3   2  11   27.30    5.20
  -3   2  11   28.30    4.20
   3   2 -11   48.00    5.10
  -3   2  11   28.80    5.90
   2  -2 -11   73.69    6.30
   2  -2 -11   84.89    6.10
  -2  -2  11   47.40    6.20
  -2  -2  11   66.99    5.00
   2  -2 -11   70.19    6.30
  -2   2  11   55.19    5.50
   2   2 -11   80.79    6.00
   2   2 -11   81.19    6.20
  -2   2  11   61.09    7.00
   1  -2 -11  365.26   22.00
  -1  -2  11  210.98   16.70
   1  -2 -11  380.66   21.90
   1  -2 -11  311.47   21.90
  -1  -2  11  221.18   15.70
  -1  -2  11  243.48   16.40
   1   2 -11  284.77   22.40
  -1   2  11  246.58   15.70
   1   2 -11  313.77   21.70
   1   2 -11  371.56   22.10
  -1   2  11  258.37   16.20
   1   2 -11  348.87   22.00
  -1   2  11  276.77   16.40
   0  -2  11   54.39    4.20
   0  -2 -11   55.99    6.10
   0  -2 -11   52.69    5.00
   0  -2  11   52.19    4.80
   0  -2 -11   50.69    4.20
   0  -2 -11   53.89    4.50
   0  -2 -11   47.50    4.20
   0   2 -11   56.19    4.70
   0   2  11   51.99    4.70
   0   2  11   54.79    4.20
   0   2 -11   51.39    4.20
   0   2  11   52.49    4.40
   0   2  11   44.40    5.00
   0   2 -11   51.39    5.10
   1  -2  11   96.09    6.60
  -1  -2 -11   99.79    7.30
   1  -2  11   93.39    6.70
  -1  -2 -11  103.59    7.50
  -1  -2 -11  109.39    8.30
   1  -2  11   89.59    7.30
  -1  -2 -11   99.29    8.00
  -1  -2 -11   98.49    7.90
  -1  -2 -11   94.09    7.70
  -1   2 -11   99.19    7.30
  -1   2 -11  107.49    7.30
  -1   2 -11   97.69    7.60
   1   2  11   95.29    6.60
  -1   2 -11  116.29    8.00
   1   2  11   70.99    7.80
  -1   2 -11  101.19    8.20
   2  -2  11   -1.00    1.70
   2  -2  11   -1.20    3.10
  -2  -2 -11    0.90    2.10
  -2  -2 -11    1.70    2.10
   2  -2  11    0.50    1.60
  -2  -2 -11   -0.20    1.90
  -2   2 -11   -0.10    1.80
  -2   2 -11    3.70    2.40
   2   2  11   -1.10    1.60
  -2   2 -11    0.40    2.30
  -2   2 -11    1.10    1.50
  -2   2 -11   -1.20    2.20
  -3  -2 -11    1.90    3.50
   3  -2  11    9.60    2.70
  -3  -2 -11    7.40    2.50
  -3  -2 -11    4.00    2.50
  -3   2 -11    6.90    3.30
  -3   2 -11   12.90    3.30
   3   2  11   15.00    3.20
  -3   2 -11    9.40    2.40
  -4  -3  11    9.60    4.10
   4  -3 -11    7.80    2.80
  -4  -3  11    3.40    3.90
   4  -3 -11    6.50    2.80
   4   3 -11    3.50    2.30
   4   3 -11    5.40    3.30
  -4   3  11   -1.00    2.70
  -4   3  11   -0.50    4.50
  -4   3  11    3.80    3.50
   3  -3 -11    8.10    2.20
  -3  -3  11    1.80    3.30
  -3  -3  11    4.80    3.10
  -3   3  11    7.50    3.10
   3   3 -11   10.10    2.60
  -3   3  11    7.70    2.50
   3   3 -11    9.70    2.10
  -3   3  11    3.30    3.10
  -2  -3  11   50.39    6.00
  -2  -3  11   35.20    5.80
   2  -3 -11   68.19    5.40
   2  -3 -11   66.79    5.70
   2  -3 -11   69.79    5.40
  -2  -3  11   48.50    4.30
  -2   3  11   37.60    6.80
   2   3 -11   63.69    5.30
  -2   3  11   50.99    4.80
   2   3 -11   64.79    5.50
   2   3 -11   59.79    5.20
   1  -3 -11   67.69    5.70
   1  -3 -11   78.19    5.70
   1  -3 -11   77.19    5.90
  -1  -3  11   52.39    4.90
   1  -3 -11   75.39    6.20
   1   3 -11   69.89    5.50
   1   3 -11   80.49    5.60
  -1   3  11   57.19    4.70
  -1   3  11   74.69    5.70
   1   3 -11   71.29    6.50
  -1   3  11   73.19    5.20
   1   3 -11   72.99    5.70
  -1   3  11   61.69    5.30
   0  -3 -11  124.59   10.10
   0  -3  11   87.39    7.80
   0  -3 -11  155.38    9.40
   0  -3  11   96.99    7.80
   0  -3 -11  148.59    9.70
   0  -3 -11  124.19   10.00
   0   3  11  105.89    7.10
   0   3 -11  114.59    9.80
   0   3 -11  122.89    9.00
   0   3 -11  158.18    9.30
   0   3 -11  123.89    9.80
   0   3  11   94.79    7.80
  -1  -3 -11   76.79    6.70
  -1  -3 -11   75.59    5.70
   1  -3  11   71.09    5.80
  -1  -3 -11   73.49    6.60
  -1  -3 -11   73.89    5.90
   1  -3  11   72.79    6.40
  -1  -3 -11   72.39    6.10
   1  -3  11   81.69    5.70
  -1   3 -11   64.89    6.60
   1   3  11   58.59    6.90
  -1   3 -11   78.69    5.70
   1   3  11   76.99    5.60
  -1   3 -11   69.99    6.10
  -1   3 -11   69.19    5.60
   2  -3  11   23.70    6.50
   2  -3  11   23.20    3.20
   2  -3  11   16.00    3.40
  -2  -3 -11   17.90    3.80
  -2  -3 -11   17.10    3.40
   2   3  11   18.70    3.10
   2   3  11   14.20    3.90
  -2   3 -11   14.50    3.10
  -2   3 -11   20.10    3.60
  -2   3 -11   21.40    3.90
  -3  -3 -11   -0.10    2.30
  -3  -3 -11    2.00    2.30
   3  -3  11   -1.30    2.10
  -3  -3 -11    1.80    3.70
  -3   3 -11    6.50    3.20
  -3   3 -11    1.40    2.40
  -3   3 -11   -0.40    2.00
   3   3  11    3.20    2.00
   3  -4 -11    2.80    2.20
  -3  -4  11    1.90    3.50
   3  -4 -11    4.70    1.90
  -3  -4  11    2.60    3.50
  -3   4  11    6.90    2.60
   3   4 -11    0.40    2.00
  -3   4  11    4.00    2.90
   3   4 -11   -1.10    1.60
  -3   4  11   -2.20    3.40
   2  -4 -11    1.30    1.70
  -2  -4  11    1.20    1.60
   2  -4 -11    4.20    1.90
   2  -4 -11    4.10    1.60
  -2  -4  11    1.20    3.20
   2   4 -11    4.10    2.00
  -2   4  11    8.10    2.50
   2   4 -11    3.80    1.70
  -2   4  11    3.30    2.30
   2   4 -11    5.90    1.60
   1  -4 -11   29.90    3.80
   1  -4 -11   33.30    4.50
   1  -4 -11   41.60    3.70
  -1  -4  11   28.30    3.10
   1  -4 -11   34.70    3.50
  -1  -4  11   31.50    3.20
   1   4 -11   35.50    3.50
  -1   4  11   24.70    4.30
   1   4 -11   37.30    3.50
  -1   4  11   34.50    3.50
  -1   4  11   33.10    3.90
   1   4 -11   29.00    3.30
  -1   4  11   22.50    2.80
   0  -4  11   12.70    2.40
   0  -4  11   10.60    2.40
   0  -4 -11   18.20    2.90
   0  -4 -11   16.50    2.70
   0  -4  11   12.30    4.30
   0  -4 -11   16.60    2.70
   0  -4  11   16.30    2.50
   0   4  11   14.60    3.10
   0   4 -11   21.90    2.70
   0   4 -11   16.00    3.00
   0   4 -11   17.90    2.60
   0   4  11   12.70    2.30
   0   4 -11   17.80    3.40
   1  -4  11    8.90    2.50
   1  -4  11    9.80    2.00
   1  -4  11    9.60    1.90
  -1  -4 -11   11.50    3.10
  -1  -4 -11   11.70    2.10
  -1  -4 -11    5.60    2.60
  -1  -4 -11   11.10    2.90
   1   4  11    5.80    2.70
  -1   4 -11   11.60    2.00
   1   4  11    6.70    1.80
  -1   4 -11   13.90    2.50
  -1   4 -11   13.60    2.50
  -1   4 -11    9.90    2.80
  -2  -4 -11   -1.50    2.20
   2  -4  11   -0.20    1.90
  -2  -4 -11    3.20    3.10
  -2  -4 -11    2.20    2.50
   2  -4  11    2.60    1.90
  -2   4 -11    3.20    2.10
  -2   4 -11    2.60    2.10
   2   4  11   -0.40    1.70
  -2   4 -11    1.60    2.70
  -3  -4 -11   -1.60    2.40
   3  -4  11    2.70    2.40
  -3  -4 -11   -1.10    2.40
  -3  -4 -11   13.70    4.40
  -3   4 -11   10.10    2.90
  -3   4 -11    3.50    2.40
   3   4  11   -1.40    2.00
  -3   4 -11    4.80    3.10
   3  -5 -11   11.20    2.70
   3  -5 -11    6.30    2.10
  -3  -5  11    7.30    2.80
  -3  -5  11    6.00    7.20
  -3  -5  11    3.30    3.10
   3   5 -11    7.70    2.40
  -3   5  11   10.00    2.90
  -3   5  11    3.60    2.90
   3   5 -11    6.60    2.00
  -2  -5  11    7.60    4.30
   2  -5 -11   11.30    2.00
   2  -5 -11    6.90    1.90
  -2  -5  11    7.90    2.00
  -2   5  11    7.60    2.00
  -2   5  11    7.20    2.60
   2   5 -11    8.10    1.80
  -2   5  11    9.60    2.80
   2   5 -11   10.40    2.10
   1  -5 -11    6.90    1.80
   1  -5 -11    3.90    2.20
   1  -5 -11    7.20    1.60
   1  -5 -11    7.10    1.90
  -1  -5  11    5.90    1.70
  -1  -5  11    6.00    1.70
   1   5 -11    6.00    1.70
  -1   5  11    8.50    2.40
   1   5 -11   10.50    1.80
  -1   5  11    5.50    2.60
   1   5 -11    4.20    1.40
  -1   5  11    4.40    1.60
  -1   5  11    4.70    2.00
   0  -5 -11    0.70    1.40
   0  -5  11   -0.90    1.40
   0  -5  11    2.30    1.60
   0  -5 -11    0.60    1.80
   0  -5 -11    2.30    1.60
   0  -5  11   -0.60    1.50
   0  -5  11    3.30    2.10
   0   5 -11    0.80    1.80
   0   5 -11    0.50    1.20
   0   5 -11    3.80    1.50
   0   5 -11    3.70    3.30
   0   5 -11    5.90    1.30
   0   5  11    1.90    1.60
   0   5  11    1.90    1.40
   1  -5  11  111.09    7.80
   1  -5  11  108.79    7.90
  -1  -5 -11   88.59    9.50
  -1  -5 -11   99.99    7.90
   1  -5  11  103.49    8.60
  -1  -5 -11   94.59    8.80
  -1  -5 -11  110.59    8.10
  -1  -5 -11  106.49    9.00
   1  -5  11  119.09    7.80
   1   5  11  100.69    7.70
  -1   5 -11  114.09    7.80
  -1   5 -11  118.59    8.60
  -1   5 -11  128.79    7.90
   1   5  11   93.89    8.20
  -1   5 -11   93.89    8.50
  -2  -5 -11   -0.30    2.60
   2  -5  11    4.20    2.00
  -2  -5 -11    2.90    3.60
   2  -5  11    3.40    2.50
  -2   5 -11   -0.10    1.90
  -2   5 -11    3.80    2.40
  -2   5 -11   -4.20    2.40
  -2   5 -11    3.10    2.70
   2   5  11    5.10    1.90
   3  -5  11    1.90    1.80
  -3  -5 -11    0.80    2.70
   3  -5  11   -3.60    2.40
  -3  -5 -11    2.10    2.80
  -3   5 -11    9.20    3.40
   3   5  11    3.70    2.10
  -3   5 -11   -1.50    2.50
  -3   5 -11    1.70    3.20
   3  -6 -11    5.80    2.00
  -3  -6  11   12.10    3.30
   3  -6 -11    5.90    2.70
  -3   6  11    6.60    3.20
   3   6 -11    3.40    2.40
   3   6 -11    3.70    1.80
  -3   6  11    8.10    2.90
  -2  -6  11   -1.90    1.50
   2  -6 -11   -3.50    2.80
  -2  -6  11   -0.20    2.80
  -2  -6  11    1.10    3.90
   2  -6 -11    0.90    1.60
   2  -6 -11    3.20    1.70
  -2   6  11    0.80    2.30
   2   6 -11    4.40    1.80
  -2   6  11    1.30    1.60
   2   6 -11   -0.40    1.40
  -2   6  11   -0.30    2.50
  -1  -6  11   37.10    4.10
   1  -6 -11   47.00    4.40
   1  -6 -11   45.50    5.20
  -1  -6  11   47.40    4.20
   1  -6 -11   40.10    4.90
   1  -6 -11   49.99    4.60
  -1   6  11   35.10    5.20
  -1   6  11   35.20    4.70
   1   6 -11   48.90    5.00
   1   6 -11   47.40    4.40
   1   6 -11   56.09    4.60
  -1   6  11   44.20    4.30
   1   6 -11   42.40    4.00
   0  -6 -11   10.50    2.00
   0  -6  11    9.80    2.90
   0  -6  11   14.90    2.90
   0  -6  11   11.60    2.10
   0  -6  11   19.40    3.10
   0  -6 -11    8.50    2.40
   0  -6 -11    7.60    2.10
   0   6 -11    8.40    2.50
   0   6  11   18.10    3.10
   0   6 -11   11.30    1.90
   0   6  11   16.50    2.50
   0   6 -11    6.80    1.50
   1  -6  11   72.29    5.80
  -1  -6 -11   77.79    7.30
   1  -6  11   78.99    5.60
  -1  -6 -11   74.19    7.10
   1  -6  11   64.09    6.80
   1  -6  11   61.59    5.70
  -1  -6 -11   66.09    6.10
   1   6  11   64.69    5.40
  -1   6 -11   74.19    6.80
  -1   6 -11   73.89    5.80
   1   6  11   60.39    6.30
  -1   6 -11   73.79    6.70
  -2  -6 -11    7.50    3.10
   2  -6  11    2.80    2.20
  -2  -6 -11    5.60    3.20
  -2  -6 -11    7.50    4.50
   2  -6  11    4.40    1.80
   2   6  11    2.30    1.90
  -2   6 -11    5.50    2.10
  -2   6 -11    1.60    2.70
  -2   6 -11    6.00    2.50
   3  -7 -11    3.30    2.00
   3  -7 -11    4.10    2.70
   3   7 -11    3.00    2.80
  -3   7  11   -1.00    2.90
  -3   7  11    3.80    3.10
   2  -7 -11   37.70    3.90
  -2  -7  11   12.60    4.60
   2  -7 -11   31.00    4.00
  -2  -7  11   18.60    4.00
   2  -7 -11   25.60    5.30
   2   7 -11   27.70    3.90
   2   7 -11   23.60    4.70
   2   7 -11   32.60    3.40
  -2   7  11   22.00    4.30
  -2   7  11   19.40    3.40
  -1  -7  11    5.00    2.10
   1  -7 -11    5.90    2.60
   1  -7 -11    7.70    2.00
   1  -7 -11    6.50    1.80
  -1   7  11    3.70    2.40
  -1   7  11    5.50    3.10
   1   7 -11    7.20    2.40
   1   7 -11    7.80    1.50
   1   7 -11    9.50    1.90
   0  -7 -11   13.40    3.00
   0  -7  11   19.60    3.60
   0  -7 -11   20.70    3.40
   0  -7  11   11.60    5.30
   0  -7 -11   17.40    3.20
   0  -7  11   26.60    3.70
   0  -7  11   24.80    3.20
   0   7 -11   21.00    3.00
   0   7 -11   16.20    2.90
   0   7 -11   13.90    2.90
   0   7  11   14.40    3.00
  -1  -7 -11   18.50    3.60
   1  -7  11   22.30    4.10
   1  -7  11   25.10    3.30
  -1  -7 -11   11.60    2.40
   1  -7  11   16.80    3.50
  -1  -7 -11   19.90    4.00
  -1   7 -11   16.70    3.20
   1   7  11   14.80    3.10
  -1   7 -11   19.10    4.00
   1   7  11   20.70    4.30
  -2  -7 -11   12.50    3.70
  -2  -7 -11    6.40    2.90
   2  -7  11    9.80    2.20
   2  -7  11   15.30    3.00
  -2   7 -11    8.40    2.20
   2  -8 -11    3.90    1.90
   2  -8 -11    1.00    3.30
   2  -8 -11    7.10    2.00
  -2   8  11    5.40    2.00
  -2   8  11    4.50    2.50
   2   8 -11    4.10    1.50
   2   8 -11    0.30    2.40
   2   8 -11    8.10    2.10
  -1  -8  11    1.80    1.80
   1  -8 -11    2.00    1.80
  -1  -8  11   -0.80    2.00
   1  -8 -11    2.60    2.50
   1  -8 -11    1.50    1.80
   1   8 -11    2.70    2.50
   1   8 -11    0.80    1.70
   1   8 -11    2.90    1.50
  -1   8  11    2.60    1.80
  -1   8  11    3.50    3.30
  -1   8  11    3.90    2.10
   0  -8  11   -0.90    2.10
   0  -8 -11   -1.10    2.70
   0  -8 -11   -0.60    2.10
   0  -8  11    5.40    1.90
   0  -8 -11    2.70    1.90
   0   8 -11    4.70    2.60
   0   8 -11   -0.80    1.50
   0   8 -11   -0.20    2.30
   0   8 -11   -1.80    1.60
   1  -8  11    5.80    2.20
  -1  -8 -11    8.80    2.50
   1  -8  11    8.20    2.80
  -1  -8 -11   10.60    3.30
  -1   8 -11   19.20    4.00
  -1   8 -11   11.20    2.10
  -1   8 -11   12.60    4.20
   1   8  11    7.40    2.90
  -2  -8 -11    1.50    3.20
   2  -8  11    7.50    2.30
   2  -8  11   10.40    2.80
  -2   8 -11    2.70    2.80
   2  -9 -11    1.40    2.00
   2  -9 -11    1.20    3.30
   2  -9 -11   -0.60    1.90
  -2   9  11   -1.90    1.70
   2   9 -11   -1.50    1.30
   2   9 -11   -4.20    2.80
   2   9 -11    2.50    2.40
  -2   9  11    3.20    3.40
  -2   9  11   -1.30    2.60
   1  -9 -11    7.00    2.70
  -1  -9  11    1.00    2.40
  -1  -9  11    2.20    2.20
   1  -9 -11    5.00    1.90
   1  -9 -11    1.70    2.30
  -1   9  11    1.10    2.10
   1   9 -11    0.50    3.40
  -1   9  11   -1.70    3.90
   1   9 -11    3.00    1.50
   1   9 -11    3.80    1.80
   0  -9  11    1.30    2.00
   0  -9  11   -1.80    2.50
   0  -9 -11   -1.60    1.80
   0  -9 -11    1.80    2.60
   0  -9 -11    1.70    3.80
   0   9  11   -0.50    2.10
   0   9 -11    3.50    2.50
   0   9 -11    1.80    2.70
   0   9 -11    1.10    1.80
  -1  -9 -11    3.00    2.70
   1  -9  11    0.90    2.40
   1   9  11    0.80    2.20
  -1   9 -11    4.00    2.80
  -1   9 -11    2.20    2.00
  -1   9 -11    2.60    3.00
  -1 -10  11   -0.70    2.40
   1 -10 -11   -2.90    2.70
   1 -10 -11   -5.20    5.60
   1 -10 -11    4.20    2.20
  -1  10  11   -0.40    2.10
  -1  10  11    0.90    2.00
   1  10 -11    1.70    2.50
   1  10 -11    0.30    2.10
   1  10 -11   -0.50    1.50
   0 -10 -11    5.80    2.30
   0 -10 -11    3.30    2.70
   0 -10  11   -3.30    1.90
   0  10  11    1.30    2.30
   0  10 -11    3.80    2.10
   0  10  11   -2.20    2.10
   0  10 -11    0.70    2.00
   0  10 -11   -2.10    2.50
  -3   0  12   91.49    8.30
  -3   0  12   75.79    7.60
   3   0 -12  126.09    9.60
   3   0 -12  138.09    9.90
  -2   0  12  114.99    9.40
   2   0 -12  148.59   10.60
  -2   0  12  111.89    8.10
   2   0 -12  152.58   10.40
   1   0 -12   67.19    5.80
  -1   0  12   53.19    4.10
   1   0 -12   77.29    5.80
  -1   0  12   42.60    6.20
   1   0 -12   82.19    6.00
   0   0 -12  404.76   28.20
   0   0 -12  431.56   28.30
   0   0 -12  459.45   28.30
   0   0  12  297.17   20.20
   0   0  12  282.27   20.50
   0   0  12  296.87   20.00
   0   0  12  351.56   19.90
   0   0 -12  475.25   28.90
  -1   0 -12   55.29    4.60
  -1   0 -12   48.60    5.90
  -1   0 -12   53.49    5.60
   1   0  12   48.60    4.80
   1   0  12   54.69    4.50
  -1   0 -12   56.39    5.20
  -2   0 -12    2.90    1.70
  -2   0 -12   -2.20    2.90
  -2   0 -12    0.60    2.10
  -2   0 -12    5.70    2.60
   2   0  12    3.20    1.90
   2   0  12    1.40    2.00
  -2   0 -12    5.40    2.90
  -3   0 -12    6.20    2.80
  -3   0 -12    6.00    3.00
   3   0  12    3.40    2.30
   3   0  12    4.20    2.50
  -3  -1  12    8.70    3.20
   3  -1 -12   17.30    3.30
   3  -1 -12   13.00    2.70
  -3  -1  12    4.40    3.60
   3   1 -12   14.80    2.80
   3   1 -12   14.00    2.80
  -3   1  12    7.40    2.80
  -3   1  12    8.90    3.30
   2  -1 -12   34.70    4.00
   2  -1 -12   36.80    3.80
  -2  -1  12   21.20    3.00
  -2  -1  12   21.40    3.60
  -2   1  12   17.90    3.30
   2   1 -12   36.40    3.70
   2   1 -12   33.30    4.00
  -2   1  12   20.00    3.10
  -1  -1  12   34.40    3.50
   1  -1 -12   45.40    4.20
   1  -1 -12   40.70    4.10
   1  -1 -12   45.60    3.90
  -1  -1  12   48.90    5.30
  -1   1  12   31.50    4.70
  -1   1  12   41.00    3.50
   1   1 -12   39.90    4.00
   1   1 -12   33.50    4.50
   1   1 -12   43.10    3.80
   1   1 -12   45.60    4.30
   0  -1 -12   50.09    5.10
   0  -1 -12   43.00    5.10
   0  -1  12   38.60    3.50
   0  -1 -12   51.19    4.20
   0  -1  12   29.90    4.90
   0  -1  12   43.00    3.50
   0  -1 -12   46.90    4.00
   0   1 -12   43.90    4.00
   0   1 -12   44.10    4.10
   0   1  12   30.50    4.40
   0   1 -12   44.10    5.10
   0   1  12   36.70    3.40
   0   1  12   36.70    3.60
   0   1  12   36.00    4.80
  -1  -1 -12   88.09    6.60
  -1  -1 -12   75.29    7.30
   1  -1  12   64.29    5.40
   1  -1  12   63.29    5.20
  -1  -1 -12   87.49    7.10
  -1  -1 -12   76.69    6.30
  -1  -1 -12   84.29    7.20
  -1   1 -12   75.29    6.40
  -1   1 -12   82.09    6.80
  -1   1 -12  100.89    7.30
  -1   1 -12   88.79    6.40
  -1   1 -12   84.69    7.40
   1   1  12   63.19    5.10
   2  -1  12    1.10    1.80
  -2  -1 -12   -0.20    2.40
   2  -1  12    3.90    1.90
  -2  -1 -12   -1.50    2.60
  -2  -1 -12    2.60    1.90
  -2  -1 -12    0.00    2.20
  -2   1 -12    2.20    1.70
  -2   1 -12    0.40    2.50
  -2   1 -12    1.00    2.50
  -2   1 -12   -1.60    2.40
  -2   1 -12    2.80    2.20
   2   1  12    0.30    1.70
   3  -1  12    1.20    2.20
  -3  -1 -12    5.70    2.80
   3  -1  12    3.20    2.70
  -3  -1 -12    3.70    3.20
  -3  -1 -12    1.80    2.60
  -3   1 -12    2.90    2.40
  -3   1 -12    2.60    2.90
   3   1  12    2.10    2.30
  -3   1 -12    5.80    3.20
   3   1  12    5.10    2.80
   3  -2 -12   15.10    2.70
   3  -2 -12   13.10    2.30
  -3  -2  12    2.50    3.30
  -3  -2  12   13.20    3.80
   3   2 -12    9.50    2.60
  -3   2  12    8.10    2.90
  -3   2  12   15.50    3.70
   2  -2 -12   52.59    5.00
  -2  -2  12   38.70    5.90
  -2  -2  12   35.60    3.80
   2  -2 -12   46.30    4.70
   2  -2 -12   51.99    5.20
   2   2 -12   53.29    4.60
  -2   2  12   30.90    4.90
   2   2 -12   52.09    4.80
   1  -2 -12  141.99   11.00
   1  -2 -12  169.28   11.00
   1  -2 -12  158.58   11.00
  -1  -2  12  135.39    9.10
  -1  -2  12  118.39   10.20
   1   2 -12  149.79   10.80
   1   2 -12  153.98   11.00
  -1   2  12  140.09    9.80
  -1   2  12  132.39    9.00
   1   2 -12  181.68   11.60
   1   2 -12  176.78   11.00
   0  -2 -12    1.70    2.30
   0  -2 -12    6.30    2.50
   0  -2 -12    4.70    1.60
   0  -2  12    3.60    1.50
   0  -2 -12    3.80    1.50
   0  -2  12    5.30    1.60
   0  -2  12    1.90    2.50
   0  -2 -12    3.90    1.50
   0   2  12   -1.30    2.60
   0   2  12    2.00    2.30
   0   2 -12    4.30    2.40
   0   2 -12    6.60    1.50
   0   2  12    5.20    2.20
  -1  -2 -12   10.20    2.00
  -1  -2 -12    9.80    2.50
  -1  -2 -12   10.90    3.00
  -1  -2 -12   10.90    3.10
   1  -2  12    8.40    1.90
  -1  -2 -12    8.00    1.80
   1  -2  12   13.20    2.80
  -1   2 -12   15.50    2.70
  -1   2 -12   11.00    1.90
  -1   2 -12   15.70    2.60
  -1   2 -12   15.30    2.60
   1   2  12    4.80    2.70
   1   2  12   10.00    1.80
  -1   2 -12   14.30    3.00
  -2  -2 -12    2.40    2.50
   2  -2  12    0.50    1.90
  -2  -2 -12    2.30    2.20
  -2  -2 -12    3.10    2.40
   2  -2  12    1.00    1.70
  -2  -2 -12    8.10    3.00
  -2   2 -12    2.80    2.30
  -2   2 -12    3.10    2.60
   2   2  12    1.00    1.80
  -2   2 -12   -0.30    2.50
  -3  -2 -12    0.30    2.50
  -3  -2 -12    1.20    3.70
  -3  -2 -12    1.10    2.30
   3  -2  12    2.00    2.10
   3   2  12    1.30    2.10
  -3   2 -12    0.10    2.30
   3   2  12   -0.10    2.50
  -3   2 -12   -0.50    3.80
  -3   2 -12    1.20    2.70
   3  -3 -12   -1.30    1.70
   3  -3 -12   -2.30    2.10
  -3  -3  12   -2.80    4.00
  -3  -3  12   -1.30    3.70
   3   3 -12    1.40    2.10
  -3   3  12   -0.10    2.90
   3   3 -12    0.60    1.80
  -3   3  12   -5.60    4.50
  -3   3  12    2.70    2.80
   2  -3 -12   15.30    2.70
  -2  -3  12    9.20    2.10
  -2  -3  12    4.90    3.60
   2  -3 -12   17.50    2.70
   2  -3 -12   19.60    3.00
   2   3 -12   21.50    3.30
   2   3 -12   15.40    2.30
  -2   3  12   14.30    3.10
  -2   3  12    6.10    3.00
   2   3 -12   15.50    3.10
   1  -3 -12  138.29    9.30
   1  -3 -12  135.49    9.20
  -1  -3  12  105.99    7.20
  -1  -3  12   86.29    7.00
   1  -3 -12  120.29    9.20
   1   3 -12  129.09    9.20
   1   3 -12  127.79   10.00
  -1   3  12   93.19    6.90
  -1   3  12  109.99    7.90
   1   3 -12  134.59    9.10
   0  -3 -12   22.30    3.90
   0  -3  12   17.20    2.70
   0  -3 -12   19.00    3.00
   0  -3  12   18.30    2.70
   0  -3 -12   21.00    4.10
   0  -3 -12   17.20    3.10
   0   3  12   13.10    2.30
   0   3  12   10.10    2.50
   0   3 -12   22.50    2.90
   0   3 -12   19.80    3.60
   0   3  12   17.30    3.20
   1  -3  12   18.30    2.90
  -1  -3 -12   16.20    3.40
   1  -3  12   18.40    2.90
  -1  -3 -12   11.60    2.90
   1  -3  12   13.50    3.50
  -1  -3 -12   13.20    2.40
  -1  -3 -12   15.70    2.90
  -1   3 -12   16.30    3.00
  -1   3 -12   20.90    3.70
  -1   3 -12   21.90    3.00
  -1   3 -12   20.20    2.80
   1   3  12   15.70    2.70
   2  -3  12   10.60    2.40
   2  -3  12   14.40    2.60
  -2  -3 -12    8.70    3.60
  -2  -3 -12   13.40    3.20
  -2   3 -12   11.50    3.10
  -2   3 -12   13.80    2.80
  -2   3 -12   16.80    3.20
   2   3  12   10.00    2.30
  -3  -3 -12    0.20    2.40
  -3  -3 -12    3.00    4.30
   3  -3  12    1.60    2.30
  -3  -3 -12    5.10    2.70
  -3   3 -12    5.20    3.30
  -3   3 -12    9.00    2.90
  -3   3 -12   13.60    3.80
   3   3  12    0.70    1.90
  -3  -4  12   -0.30    4.00
   3  -4 -12   -3.60    2.50
   3  -4 -12   -2.10    2.10
   3   4 -12    0.30    1.80
   3   4 -12    1.50    2.50
  -3   4  12   -2.80    2.80
  -3   4  12   -1.30    4.20
  -2  -4  12   12.80    2.30
   2  -4 -12   16.90    2.90
   2  -4 -12   24.50    3.70
   2   4 -12   18.40    3.40
  -2   4  12    9.50    3.10
   2   4 -12   22.00    3.70
  -2   4  12   14.80    3.30
   2   4 -12   15.00    2.80
   1  -4 -12   44.90    5.40
  -1  -4  12   36.20    4.00
   1  -4 -12   40.90    4.60
  -1  -4  12   54.29    4.30
   1  -4 -12   56.19    4.70
   1  -4 -12   50.09    4.40
  -1   4  12   48.40    5.10
   1   4 -12   48.90    4.40
  -1   4  12   49.00    4.50
  -1   4  12   40.20    3.90
   1   4 -12   43.00    4.00
   1   4 -12   52.39    4.40
   0  -4  12   27.50    3.60
   0  -4 -12   54.09    4.90
   0  -4 -12   56.69    5.60
   0  -4  12   40.20    3.70
   0  -4  12   34.70    3.60
   0  -4 -12   56.99    5.80
   0  -4 -12   54.49    4.80
   0  -4  12   35.00    5.00
   0   4  12   31.20    3.40
   0   4 -12   41.90    5.90
   0   4 -12   48.60    4.60
   0   4 -12   63.69    4.80
   0   4  12   36.80    4.30
   0   4 -12   60.19    5.60
   0   4  12   36.70    4.00
   1  -4  12   25.90    3.40
   1  -4  12   20.80    3.20
   1  -4  12   19.90    3.80
  -1  -4 -12   20.80    3.40
  -1  -4 -12   13.90    3.70
  -1  -4 -12   22.30    3.50
  -1   4 -12   14.70    3.20
  -1   4 -12   19.10    2.90
  -1   4 -12   21.70    3.10
   1   4  12   20.30    2.90
  -2  -4 -12   17.40    4.20
  -2  -4 -12   13.90    3.30
   2  -4  12   12.40    2.60
  -2  -4 -12   12.40    3.10
   2  -4  12   13.50    2.60
   2   4  12   11.10    2.30
  -2   4 -12   17.40    3.40
  -3  -5  12   -0.40    5.50
  -3  -5  12    8.90    3.10
   3  -5 -12    4.00    2.10
   3  -5 -12    1.40    2.40
  -3   5  12    8.00    3.40
   3   5 -12    9.20    2.60
   3   5 -12    5.40    1.80
  -3   5  12    4.90    3.00
   2  -5 -12   24.70    3.30
   2  -5 -12   18.60    3.90
  -2  -5  12   18.50    3.20
   2  -5 -12   22.00    3.70
   2   5 -12   24.10    3.30
  -2   5  12   17.30    3.50
  -2   5  12   21.60    4.60
   2   5 -12   17.60    2.90
  -1  -5  12    8.50    2.00
   1  -5 -12   15.70    3.00
   1  -5 -12   17.90    3.10
   1  -5 -12   19.10    3.30
  -1  -5  12    8.20    2.00
   1   5 -12   14.60    2.90
  -1   5  12    7.50    2.50
   1   5 -12   17.50    3.00
  -1   5  12    6.10    2.00
   1   5 -12   13.40    1.90
   0  -5  12  104.09    7.60
   0  -5 -12  131.49   10.10
   0  -5 -12  129.59    9.40
   0  -5 -12  134.79   10.00
   0  -5  12   94.79    8.70
   0  -5 -12  136.09    9.70
   0   5 -12  123.19    9.40
   0   5 -12  139.29   10.10
   0   5  12   98.69    8.10
   0   5  12  102.99    7.20
   0   5  12  106.09    7.80
   0   5 -12  137.09    9.40
   1  -5  12    4.30    2.00
  -1  -5 -12   -1.30    2.70
   1  -5  12   -2.00    4.50
  -1  -5 -12    3.30    2.50
   1  -5  12    7.50    1.80
   1  -5  12    5.30    2.10
  -1  -5 -12    2.00    1.80
  -1   5 -12    2.20    2.90
  -1   5 -12    6.00    1.80
   1   5  12    2.00    1.60
  -1   5 -12    6.70    2.30
  -2  -5 -12    9.00    8.00
  -2  -5 -12    7.00    3.30
  -2  -5 -12    7.00    3.00
   2  -5  12    9.00    2.60
   2  -5  12    3.20    3.10
   2  -5  12    4.80    2.50
   2   5  12    6.50    2.20
  -2   5 -12    8.90    3.30
   3  -6 -12    0.60    1.80
   3  -6 -12    5.70    2.80
   3   6 -12    3.00    2.60
  -3   6  12    3.20    3.40
   3   6 -12    1.00    1.80
  -3   6  12    3.30    3.10
  -2  -6  12    3.30    1.80
  -2  -6  12    0.40    3.90
  -2  -6  12    1.60    3.40
   2  -6 -12    1.90    1.70
   2  -6 -12   -0.50    2.40
   2   6 -12    1.50    1.90
  -2   6  12   -3.40    3.10
   2   6 -12    3.90    1.60
  -2   6  12    3.00    2.60
   1  -6 -12    6.90    2.80
  -1  -6  12    3.80    2.00
   1  -6 -12    6.00    2.10
   1  -6 -12    6.40    1.90
  -1  -6  12    4.40    2.00
   1   6 -12    5.80    2.10
  -1   6  12    4.50    1.90
  -1   6  12    4.70    2.40
   1   6 -12    5.20    1.50
   1   6 -12    2.80    2.10
   1   6 -12    3.70    1.70
   0  -6 -12    7.20    2.00
   0  -6 -12    4.90    2.70
   0  -6  12    5.30    2.00
   0  -6 -12    4.60    2.00
   0  -6 -12    6.00    2.70
   0  -6  12    9.20    2.10
   0   6 -12    6.70    1.90
   0   6  12    8.00    2.30
   0   6 -12    6.50    1.80
   0   6 -12    9.10    2.90
   0   6 -12    6.50    2.30
   0   6  12    5.30    1.80
  -1  -6 -12    5.60    2.90
  -1  -6 -12    5.20    2.00
  -1  -6 -12    0.00    3.30
   1  -6  12    4.40    2.30
   1  -6  12    2.40    1.90
   1  -6  12   10.30    2.30
  -1   6 -12    3.50    2.30
  -1   6 -12    4.40    1.80
   1   6  12    6.10    1.90
   2  -6  12    3.10    2.10
   2  -6  12    3.10    1.90
  -2  -6 -12    1.00    4.70
  -2  -6 -12   -1.30    2.50
  -2   6 -12    0.70    3.20
  -2   6 -12   -1.10    2.40
  -2   6 -12   -1.30    2.70
   2  -7 -12    4.30    2.20
   2  -7 -12    4.40    2.90
   2  -7 -12    2.60    1.70
  -2  -7  12   -1.00    2.00
  -2   7  12    0.70    1.80
  -2   7  12    4.10    3.50
   2   7 -12    5.80    2.90
   2   7 -12   -0.70    1.50
  -2   7  12    2.00    2.40
  -1  -7  12    0.20    1.90
  -1  -7  12   -0.20    1.90
   1  -7 -12    0.80    1.70
   1  -7 -12   -0.30    1.70
   1  -7 -12   -0.90    2.80
  -1   7  12    5.10    2.30
   1   7 -12    0.80    1.50
   1   7 -12   -0.30    2.40
   1   7 -12    1.40    1.70
   1   7 -12    4.10    3.20
  -1   7  12   -0.40    1.80
   0  -7  12    1.50    1.90
   0  -7  12    3.70    2.10
   0  -7 -12   -0.10    2.10
   0  -7 -12    2.70    1.80
   0  -7 -12    4.10    3.00
   0  -7 -12   -2.30    2.20
   0   7 -12    3.10    1.80
   0   7  12    2.20    2.30
   0   7 -12    6.90    2.70
   0   7 -12    5.10    2.50
   0   7  12    2.50    1.90
   0   7  12    2.00    2.00
  -1  -7 -12    3.30    2.00
   1  -7  12    3.00    2.50
  -1  -7 -12    2.80    2.60
  -1  -7 -12   -2.00    6.60
   1  -7  12    5.50    2.20
   1  -7  12    3.80    4.10
  -1   7 -12    4.50    2.40
  -1   7 -12   -2.30    5.90
   1   7  12    3.00    2.10
  -1   7 -12    1.50    1.90
   2  -7  12    7.60    2.60
   2  -7  12    9.50    2.20
  -2   7 -12   14.50    3.50
   2   7  12    4.30    2.20
   2  -8 -12    0.60    1.90
   2  -8 -12    3.90    2.20
   2   8 -12    7.40    1.70
   2   8 -12   -0.40    3.50
   2   8 -12    8.80    2.20
  -2   8  12    3.40    2.70
  -2   8  12    5.00    6.00
  -1  -8  12    2.20    2.10
   1  -8 -12    2.40    2.90
  -1  -8  12    0.90    2.20
   1  -8 -12    4.90    2.10
  -1   8  12   -0.30    2.40
   1   8 -12    3.10    2.80
   1   8 -12    0.70    2.10
   1   8 -12    4.00    1.60
  -1   8  12    1.90    1.90
   0  -8  12   -2.50    2.90
   0  -8 -12    3.20    3.80
   0  -8 -12    9.20    3.50
   0  -8 -12    1.80    5.20
   0   8 -12   -2.70    2.90
   0   8  12    0.80    2.70
   0   8  12    0.50    3.00
   0   8 -12    6.80    3.40
   1  -8  12    0.50    2.00
  -1  -8 -12    4.00    2.30
  -1  -8 -12    5.80    2.80
   1  -8  12    1.10    2.40
  -1   8 -12    3.80    3.60
   1   8  12    3.60    2.00
  -1   8 -12    6.70    2.70
  -1   8 -12    1.90    1.80
   1  -9 -12    3.30    3.20
   1  -9 -12    6.00    2.30
  -1  -9  12    7.30    2.70
   1  -9 -12    2.90    3.00
  -1  -9  12    2.80    2.30
   1   9 -12    6.30    1.70
  -1   9  12    5.10    2.40
   1   9 -12    3.60    2.10
  -1   9  12    3.70    2.00
   1   9 -12    3.20    4.00
   0  -9 -12    1.60    2.00
   0  -9  12    2.30    3.00
   0  -9 -12    0.70    3.00
   0  -9  12    3.80    2.20
   0  -9 -12    1.40    4.80
   0   9 -12    2.90    2.90
   0   9  12    8.00    2.50
   0   9  12    0.90    2.20
   0   9 -12    3.80    2.80
   3   0 -13    1.10    2.50
   3   0 -13   -0.60    3.00
  -2   0  13    5.60    2.90
   2   0 -13   -1.70    1.50
  -2   0  13    0.50    1.80
   2   0 -13    2.20    1.80
  -1   0  13    0.40    1.30
   1   0 -13    0.30    1.40
   1   0 -13    2.20    1.50
   1   0 -13    1.30    1.90
   0   0 -13    0.00    1.50
   0   0 -13   -2.80    2.20
   0   0  13    0.70    1.30
   0   0  13    0.70    1.70
   0   0 -13   -0.10    1.40
   0   0 -13    0.00    1.30
   1   0  13    2.30    1.80
  -1   0 -13   -2.20    2.40
   1   0  13   -3.10    3.20
  -1   0 -13   -3.20    2.50
   1   0  13    0.30    1.60
  -1   0 -13   -0.20    2.50
  -2   0 -13   -0.70    2.50
  -2   0 -13   -2.90    3.00
  -2   0 -13    3.30    1.80
  -2   0 -13   -3.00    3.60
  -2   0 -13   -2.40    3.30
   2   0  13    1.60    1.80
  -3  -1  13   10.90    4.20
   3  -1 -13   -1.40    3.70
  -3   1  13   -5.30    4.70
   3   1 -13   -4.20    2.40
   3   1 -13   -0.80    3.40
   2  -1 -13   20.80    3.60
  -2  -1  13   13.70    3.90
   2  -1 -13   22.80    3.10
  -2  -1  13   11.80    2.20
  -2   1  13   14.30    2.30
   2   1 -13   19.30    3.00
   2   1 -13   13.80    3.10
   2   1 -13   13.40    2.70
  -2   1  13   10.20    3.50
  -1  -1  13   -2.80    3.30
   1  -1 -13    3.80    1.90
   1  -1 -13    2.70    1.70
   1  -1 -13    3.40    1.60
  -1  -1  13    1.80    1.30
   1  -1 -13    8.20    2.40
   1   1 -13    5.10    1.60
   1   1 -13    3.40    1.60
   1   1 -13    3.90    2.70
   0  -1 -13   85.49    6.70
   0  -1 -13   79.29    6.60
   0  -1 -13  104.79    7.80
   0  -1  13   52.09    4.40
   0  -1 -13   98.49    6.90
   0   1 -13   84.59    7.70
   0   1 -13  102.69    7.40
   0   1 -13   83.99    6.60
   0   1 -13   85.29    6.70
   0   1  13   53.89    4.50
   0   1  13   55.29    4.40
   0   1  13   46.80    5.70
  -1  -1 -13   70.19    5.70
  -1  -1 -13   66.79    7.10
  -1  -1 -13   73.09    6.70
   1  -1  13   69.19    5.50
  -1  -1 -13   66.69    6.60
   1  -1  13   67.69    5.30
   1   1  13   55.19    5.60
  -1   1 -13   65.39    5.50
  -1   1 -13   82.59    6.80
  -1   1 -13   63.99    6.90
  -2  -1 -13    4.50    2.20
  -2  -1 -13    0.00    2.50
  -2  -1 -13    6.40    3.00
   2  -1  13   -0.60    2.00
  -2  -1 -13    4.00    3.20
   2  -1  13    3.50    1.90
   2   1  13    1.90    2.00
  -2   1 -13    8.70    3.20
  -2   1 -13    1.20    3.00
  -2   1 -13    0.80    2.50
   2   1  13    0.90    2.30
   3  -2 -13   13.10    2.80
   3  -2 -13    8.40    2.40
  -3  -2  13    4.90    4.10
  -3   2  13   12.20    5.80
   3   2 -13   13.20    2.70
   3   2 -13   13.80    2.40
  -3   2  13   11.80    3.70
  -2  -2  13   19.80    4.20
   2  -2 -13   29.90    3.70
  -2  -2  13   16.00    3.10
   2  -2 -13   37.40    4.10
   2   2 -13   25.70    3.80
   2   2 -13   26.40    3.60
  -2   2  13   19.60    3.70
   2   2 -13   28.20    3.50
   1  -2 -13    1.00    1.80
   1  -2 -13    2.40    1.70
   1  -2 -13   -0.20    1.70
  -1  -2  13    5.40    1.60
  -1   2  13    2.50    1.50
   1   2 -13    2.60    1.50
  -1   2  13    8.10    2.70
   1   2 -13    3.60    1.60
   1   2 -13    2.80    1.60
   1   2 -13    9.20    3.00
   0  -2  13    3.40    1.70
   0  -2 -13    1.00    2.60
   0  -2 -13    4.60    1.70
   0  -2 -13    3.80    2.90
   0  -2 -13    1.40    1.50
   0   2  13    5.90    2.50
   0   2 -13    3.70    2.50
   0   2  13    2.00    1.40
   0   2  13    3.50    2.60
   0   2 -13    1.90    1.50
   0   2  13    7.70    2.10
   0   2 -13    1.00    2.00
  -1  -2 -13   33.00    4.10
  -1  -2 -13   31.50    5.50
  -1  -2 -13   41.20    4.10
  -1  -2 -13   28.90    5.20
   1  -2  13   22.70    3.30
  -1   2 -13   45.40    5.00
  -1   2 -13   29.70    3.90
  -1   2 -13   44.00    3.90
   1   2  13   21.90    4.40
   1   2  13   26.40    3.70
   1   2  13   22.00    3.20
  -1   2 -13   35.50    5.20
  -2  -2 -13   13.80    3.30
  -2  -2 -13    8.90    3.80
  -2  -2 -13   10.40    3.40
   2  -2  13   14.20    3.10
   2  -2  13    9.30    2.50
   2   2  13   10.60    2.30
   2   2  13   13.80    2.70
  -2   2 -13   11.20    3.20
   3  -3 -13    6.30    2.40
   3  -3 -13    6.00    2.00
  -3  -3  13    3.10    4.30
   3   3 -13    3.80    2.50
   3   3 -13   -0.50    1.90
  -3   3  13    7.80    3.40
   2  -3 -13    3.00    2.40
   2  -3 -13    4.60    1.70
   2  -3 -13    3.50    2.00
  -2  -3  13    4.20    1.90
  -2  -3  13   -1.30    4.10
   2   3 -13    1.70    1.80
  -2   3  13    0.30    2.60
   2   3 -13    1.60    2.00
   2   3 -13    1.70    1.60
   1  -3 -13   75.09    5.40
   1  -3 -13   67.79    5.50
  -1  -3  13   46.20    4.30
   1  -3 -13   57.29    5.70
  -1   3  13   50.79    5.40
   1   3 -13   67.79    5.30
   1   3 -13   65.79    5.30
  -1   3  13   43.00    4.10
   1   3 -13   56.09    7.00
   1   3 -13   52.59    5.00
   0  -3 -13   43.80    5.30
   0  -3 -13   31.20    5.00
   0  -3 -13   30.20    3.80
   0   3 -13   34.00    3.70
   0   3  13   19.50    4.80
   0   3 -13   36.60    3.70
   0   3  13   23.90    4.00
   0   3  13   20.80    4.20
   0   3 -13   41.10    4.70
   0   3 -13   30.10    4.40
  -1  -3 -13   10.70    2.80
  -1  -3 -13    8.20    2.10
   1  -3  13    3.70    6.30
  -1  -3 -13    5.60    2.20
  -1  -3 -13   13.60    3.40
   1  -3  13    5.10    2.00
  -1   3 -13    7.20    3.00
  -1   3 -13    6.60    1.90
  -1   3 -13    6.60    1.80
   1   3  13    3.60    1.70
   1   3  13    7.70    3.00
  -1   3 -13   11.00    2.60
   2  -3  13   11.10    2.90
  -2  -3 -13    6.30    4.60
   2  -3  13    9.40    3.20
  -2  -3 -13    1.80    5.10
  -2   3 -13    6.80    3.50
   2   3  13    9.70    2.30
  -3  -4  13   -0.20    3.00
  -3  -4  13   -3.30    3.80
   3  -4 -13   -2.70    2.30
   3  -4 -13   -2.60    1.90
  -3  -4  13    2.00    5.20
  -3   4  13    2.20    3.00
   3   4 -13    4.30    1.80
   3   4 -13    3.80    2.30
   2  -4 -13   12.80    2.80
   2  -4 -13   10.40    2.60
  -2  -4  13    9.80    2.20
   2  -4 -13    9.50    2.20
  -2   4  13   12.30    3.20
   2   4 -13    9.50    2.60
   2   4 -13   12.40    2.30
   2   4 -13    9.50    2.00
   1  -4 -13    5.20    1.80
  -1  -4  13    4.30    2.00
   1  -4 -13    9.70    2.40
   1  -4 -13    9.80    2.20
  -1   4  13    5.30    2.60
   1   4 -13    5.60    1.60
  -1   4  13    4.90    1.80
   1   4 -13    5.60    1.70
   1   4 -13   10.00    2.00
   0  -4 -13   59.99    5.90
   0  -4 -13   49.10    4.70
   0  -4 -13   46.30    4.50
   0  -4  13   45.50    4.30
   0  -4 -13   32.70    5.90
   0   4 -13   41.40    4.40
   0   4  13   36.00    4.90
   0   4  13   40.90    3.90
   0   4 -13   47.00    4.40
   0   4 -13   58.59    5.50
   0   4  13   46.00    4.90
  -1  -4 -13    9.10    2.30
  -1  -4 -13    8.80    3.30
   1  -4  13    8.80    2.20
  -1  -4 -13    6.40    2.80
  -1  -4 -13    5.10    2.20
  -1   4 -13    8.50    3.20
   1   4  13   11.00    2.00
  -1   4 -13   10.30    2.10
  -1   4 -13   12.60    2.70
  -1   4 -13    9.60    2.00
   2  -4  13   -0.80    2.40
  -2  -4 -13   -3.60    3.60
  -2  -4 -13   -3.10    2.70
   2  -4  13    1.30    2.10
  -2   4 -13    3.90    2.90
   2   4  13   -1.70    1.80
  -2   4 -13    3.10    2.80
   3  -5 -13   -2.80    2.50
   3  -5 -13    2.30    2.00
  -3   5  13   -4.00    2.90
   3   5 -13    1.00    1.70
  -2  -5  13    1.90    3.40
   2  -5 -13    4.30    2.50
  -2  -5  13    5.80    2.00
  -2  -5  13    5.50    4.30
   2  -5 -13    2.60    1.70
   2  -5 -13    5.40    2.40
   2   5 -13    2.00    1.90
   2   5 -13    5.20    1.70
  -2   5  13    5.10    2.90
   1  -5 -13    7.40    2.00
  -1  -5  13    5.70    2.20
  -1  -5  13    7.50    2.10
   1  -5 -13   14.10    5.00
   1  -5 -13   10.40    2.20
  -1   5  13    6.10    2.60
   1   5 -13    5.90    2.40
   1   5 -13    6.00    1.70
   1   5 -13    9.90    2.10
  -1   5  13    9.80    2.20
   0  -5  13    4.80    2.00
   0  -5 -13   14.60    2.60
   0  -5 -13   14.70    3.40
   0  -5  13   10.40    2.20
   0  -5 -13   22.20    4.50
   0  -5 -13    9.50    2.20
   0   5  13    6.10    1.80
   0   5  13    6.70    2.60
   0   5 -13   10.60    2.90
   0   5 -13   16.00    3.60
   0   5 -13   13.60    2.30
   0   5  13    8.90    2.60
   1  -5  13    1.40    2.00
   1  -5  13    4.20    2.10
  -1  -5 -13   -0.70    2.00
  -1  -5 -13    0.00    3.00
  -1  -5 -13    4.10    3.00
   1  -5  13    6.60    2.10
   1   5  13    1.90    1.70
  -1   5 -13    0.20    1.70
  -1   5 -13    1.10    2.20
  -1   5 -13    0.20    3.20
   2  -5  13    2.90    2.00
  -2  -5 -13    1.20    4.10
   2  -5  13    1.50    2.20
  -2  -5 -13   -0.20    2.80
  -2   5 -13    6.30    3.20
  -2   5 -13    2.00    3.30
   2   5  13    4.50    2.10
  -2  -6  13    7.00    2.10
   2  -6 -13    8.70    2.10
   2  -6 -13   13.40    2.90
   2  -6 -13   11.90    2.70
   2   6 -13    8.30    1.90
  -2   6  13   10.00    3.00
   2   6 -13    4.10    2.30
   1  -6 -13    0.60    3.10
  -1  -6  13    3.10    2.20
   1  -6 -13    1.70    1.90
   1  -6 -13    3.30    2.00
  -1  -6  13    0.20    1.90
  -1   6  13   -0.50    2.30
   1   6 -13    6.00    2.30
   1   6 -13    2.20    1.60
  -1   6  13    0.70    1.90
   1   6 -13    2.30    2.50
   0  -6 -13   10.00    2.40
   0  -6 -13   18.20    3.50
   0  -6 -13   11.60    2.60
   0  -6 -13   13.90    3.50
   0  -6  13   20.80    3.40
   0   6 -13   17.00    3.10
   0   6  13   14.20    3.00
   0   6 -13   16.90    3.00
   0   6 -13   19.30    3.60
   0   6  13   18.70    4.10
   0   6 -13   12.80    2.10
   1  -6  13    2.90    2.90
   1  -6  13    4.40    2.10
   1  -6  13   -5.00    3.20
  -1  -6 -13    8.50    4.50
  -1  -6 -13    5.60    2.90
  -1   6 -13    0.50    2.10
   1   6  13   -1.50    2.40
  -1   6 -13    4.40    2.50
  -2  -6 -13    0.40    5.30
   2  -6  13   -1.80    2.20
   2  -6  13    3.70    2.40
  -2  -6 -13    2.60    3.00
  -2   6 -13    1.00    3.00
   2   6  13   -0.30    1.90
   2  -7 -13   -1.30    2.20
  -2  -7  13    2.90    2.20
   2   7 -13   -1.60    3.10
  -2   7  13    4.00    2.80
   2   7 -13    2.40    1.60
   2   7 -13   -0.80    2.30
  -1  -7  13    6.20    2.20
   1  -7 -13    6.40    2.60
  -1  -7  13    6.80    2.50
   1  -7 -13   10.00    2.30
   1  -7 -13    8.70    3.40
   1   7 -13    8.60    2.40
  -1   7  13    8.60    2.40
  -1   7  13   10.40    3.00
   1   7 -13   14.60    3.20
   1   7 -13    6.60    1.80
   0  -7 -13    2.10    3.40
   0  -7  13   -2.00    3.10
   0  -7 -13   -1.60    3.60
   0  -7  13    1.80    2.10
   0   7 -13    1.90    3.70
   0   7 -13   -0.80    2.50
   0   7  13    1.40    2.50
   0   7 -13   -1.00    3.00
   0   7  13    4.10    4.20
  -1  -7 -13   22.30    5.00
  -1  -7 -13   18.40    4.30
   1  -7  13   21.70    3.50
   1  -7  13   22.50    4.00
  -1  -7 -13   22.20    4.30
   1  -7  13   16.90    3.50
  -1   7 -13   30.80    4.90
   1   7  13   14.80    3.10
  -1   7 -13   30.50    3.80
  -1  -8  13    6.40    2.40
   1  -8 -13    1.30    3.40
   1  -8 -13    7.20    2.90
   1  -8 -13    6.20    2.50
   1  -8 -13    4.50    2.30
   1   8 -13    3.50    2.20
  -1   8  13    8.90    2.40
   1   8 -13    5.60    2.90
   1   8 -13    5.20    2.00
   0  -8 -13    3.00    2.30
   0  -8 -13    6.40    3.50
   0  -8 -13   11.20    4.00
   0  -8  13    4.80    2.30
   0  -8  13    8.30    2.70
   0   8 -13   10.40    3.30
   0   8  13    0.00    2.50
   0   8  13    8.00    2.90
   0   8 -13    7.20    2.80
   0   8 -13    8.20    2.10
  -1   8 -13    2.20    2.80
   3   0 -14    1.60    2.50
  -3   0  14   -5.00    3.70
   3   0 -14    0.40    2.30
   2   0 -14   37.10    4.50
  -2   0  14   18.90    3.50
  -2   0  14   22.90    4.40
   2   0 -14   39.50    4.20
   2   0 -14   37.00    5.10
   1   0 -14   66.69    5.70
   1   0 -14   81.09    6.90
  -1   0  14   55.39    4.40
  -1   0  14   42.60    6.60
   1   0 -14   65.89    5.90
   0   0 -14   26.30    4.80
   0   0 -14   20.20    4.30
   0   0 -14   18.30    3.30
   0   0  14   12.50    2.20
   0   0  14   18.50    2.80
   0   0 -14   17.50    3.10
   1   0  14    9.30    2.30
  -1   0 -14    9.90    3.40
   1   0  14    5.80    2.00
  -1   0 -14   10.10    3.10
  -1   0 -14   12.90    2.20
  -2   0 -14    9.30    3.20
  -2   0 -14    6.10    3.20
   2   0  14    2.50    2.10
   3  -1 -14   -1.10    2.20
  -3  -1  14    9.50    4.20
   3  -1 -14    5.90    2.50
   3   1 -14   -0.30    2.40
  -3   1  14   -0.30    3.60
   3   1 -14    6.90    2.90
   3   1 -14   -0.80    2.20
   2  -1 -14   11.80    2.50
   2  -1 -14    8.60    2.20
  -2  -1  14    9.40    2.30
  -2  -1  14    6.90    4.30
   2   1 -14    4.40    3.90
   2   1 -14    9.90    2.10
   2   1 -14   11.00    2.30
  -2   1  14   13.80    3.60
   2   1 -14    5.30    2.20
   1  -1 -14    5.20    2.70
  -1  -1  14    5.30    1.70
   1  -1 -14    3.60    1.80
   1  -1 -14    4.00    1.90
   1  -1 -14    4.60    2.30
   1   1 -14    6.20    2.00
   1   1 -14    5.80    3.00
   1   1 -14    4.50    1.70
  -1   1  14    7.50    3.40
  -1   1  14    7.50    1.80
   0  -1 -14   11.90    2.80
   0  -1 -14   14.90    3.00
   0  -1  14    9.20    2.10
   0  -1 -14   11.40    2.30
   0  -1  14   14.30    2.70
   0  -1 -14   10.20    3.10
   0   1 -14   12.00    2.10
   0   1 -14    7.70    3.10
   0   1  14    8.90    2.20
   0   1 -14    8.00    2.70
   0   1  14   11.70    2.00
   0   1  14   12.90    4.50
   1  -1  14   -0.50    1.80
  -1  -1 -14    1.10    2.70
   1  -1  14    2.40    1.70
  -1  -1 -14    4.70    1.80
  -1  -1 -14    4.70    3.30
  -1   1 -14    1.70    2.90
  -1   1 -14    3.40    2.70
   1   1  14    3.10    1.80
  -1   1 -14    3.80    1.70
   1   1  14    3.90    2.10
  -2  -1 -14    6.60    3.30
   2  -1  14   10.50    2.30
   2  -1  14   10.70    2.40
  -2  -1 -14    4.50    3.20
  -2   1 -14   11.90    6.20
  -2   1 -14    8.20    3.00
   2   1  14   12.50    2.50
   2   1  14   11.40    2.50
   3  -2 -14    1.00    2.30
  -3  -2  14    0.90    4.60
   3   2 -14    1.00    2.30
   3   2 -14    4.70    2.00
  -3   2  14   -1.20    3.50
   2  -2 -14    0.90    1.70
   2  -2 -14    2.80    2.10
  -2  -2  14    3.70    1.90
  -2  -2  14    0.30    4.50
   2   2 -14    0.80    1.90
  -2   2  14   -2.60    3.00
   2   2 -14   -0.10    1.70
   2   2 -14    3.20    1.80
   1  -2 -14    6.80    2.50
   1  -2 -14    4.80    2.10
   1  -2 -14   10.40    2.40
  -1  -2  14    8.70    1.90
   1  -2 -14    8.50    2.10
  -1   2  14    6.50    1.70
   1   2 -14    7.80    3.50
   1   2 -14    9.30    1.90
   1   2 -14   10.00    2.00
  -1   2  14    2.90    2.90
   0  -2 -14   -1.10    1.70
   0  -2  14    3.10    1.60
   0  -2 -14    3.10    2.70
   0  -2 -14    1.70    1.60
   0  -2 -14   -3.20    2.70
   0  -2  14    3.10    1.80
   0   2 -14    1.00    1.60
   0   2  14    2.60    3.10
   0   2 -14    1.20    2.70
   0   2 -14   -0.80    1.50
   0   2 -14   -1.80    2.20
   0   2  14    3.00    1.60
   1  -2  14    1.90    1.70
  -1  -2 -14    1.90    2.70
  -1  -2 -14    1.30    1.70
  -1  -2 -14    4.60    3.10
   1  -2  14   -1.10    1.70
   1   2  14    0.70    2.20
  -1   2 -14    5.40    2.70
   1   2  14    2.80    1.70
  -1   2 -14    2.80    1.50
  -1   2 -14    0.10    3.00
  -2  -2 -14    5.90    3.30
   2  -2  14    4.40    2.00
   2  -2  14    5.10    2.10
  -2  -2 -14    0.50    3.20
   2   2  14   -1.10    2.40
  -2   2 -14   11.60    3.60
   2   2  14    0.40    1.80
  -2   2 -14    5.70    3.10
  -3  -3  14    3.90    6.50
   3  -3 -14    2.10    2.80
   3  -3 -14    6.30    2.30
   3   3 -14    4.00    2.30
   3   3 -14    1.00    2.10
  -3   3  14    0.80    3.50
   2  -3 -14    1.50    1.70
  -2  -3  14    0.40    1.90
   2  -3 -14    2.30    2.20
   2   3 -14    0.40    1.70
   2   3 -14   -0.60    1.90
   2   3 -14    0.80    1.80
  -2   3  14    8.90    3.20
   1  -3 -14    3.00    2.00
   1  -3 -14    4.00    2.20
   1  -3 -14    3.40    1.80
  -1  -3  14    2.70    1.70
   1  -3 -14    3.00    2.30
  -1   3  14    0.20    1.70
  -1   3  14    7.30    2.90
   1   3 -14    1.00    1.60
   1   3 -14    1.90    1.70
   0  -3 -14    3.00    2.00
   0  -3 -14    2.50    2.80
   0  -3  14    2.90    1.80
   0  -3 -14    0.40    1.70
   0  -3  14    3.70    1.70
   0   3  14    1.40    2.80
   0   3  14    2.40    1.60
   0   3 -14    7.20    3.20
   0   3 -14    4.50    1.60
   0   3 -14    4.60    2.30
   0   3 -14    1.20    1.60
  -1  -3 -14    4.10    3.30
  -1  -3 -14    1.80    3.10
   1  -3  14    0.80    1.80
  -1  -3 -14    4.70    2.10
  -1  -3 -14   -2.10    1.80
   1  -3  14    2.50    1.80
   1   3  14    2.70    2.30
  -1   3 -14    2.70    2.40
  -1   3 -14    7.30    3.00
   1   3  14    2.70    1.70
  -1   3 -14    0.60    3.00
  -1   3 -14    0.40    1.70
  -2  -3 -14    4.50    3.70
   2  -3  14    2.50    2.30
  -2  -3 -14    4.10    3.20
  -2   3 -14    5.60    3.40
  -2   3 -14   10.20    3.20
   2   3  14    4.80    2.20
   2   3  14    9.30    2.40
   2  -4 -14    2.00    2.30
   2  -4 -14    1.80    2.30
  -2  -4  14    2.60    1.90
   2  -4 -14    1.10    2.80
   2   4 -14    4.80    2.60
   2   4 -14    1.30    2.60
   2   4 -14    4.00    1.80
  -2   4  14    5.40    3.60
  -1  -4  14   11.50    2.20
   1  -4 -14    9.60    2.40
   1  -4 -14    7.10    2.10
   1  -4 -14    9.30    2.80
  -1   4  14   11.40    3.10
   1   4 -14   10.50    2.20
   0  -4 -14   15.60    2.60
   0  -4  14   10.00    2.30
   0  -4 -14   15.10    3.90
   0  -4 -14    9.60    2.20
   0  -4 -14    9.10    3.20
   0  -4  14   10.60    2.30
   0   4 -14   12.50    2.20
   0   4 -14    9.00    4.30
   0   4  14    6.60    2.90
   0   4 -14   12.50    2.30
   0   4 -14   13.10    2.90
   0   4  14   11.80    2.10
  -1  -4 -14    1.60    2.10
  -1  -4 -14    6.20    3.20
   1  -4  14   -2.60    1.90
  -1  -4 -14    1.30    3.70
  -1  -4 -14    0.50    3.50
   1  -4  14    1.80    2.10
  -1   4 -14    5.20    4.30
   1   4  14    3.90    1.80
  -1   4 -14    2.00    2.40
  -1   4 -14    3.30    1.80
  -2  -4 -14    5.30    3.20
  -2  -4 -14    7.80    4.20
   2  -4  14    4.80    2.20
   2  -4  14    1.70    2.20
   2  -4  14    3.40    2.90
   2   4  14    5.90    2.60
  -2   4 -14   -1.20    3.30
   2   4  14    1.00    2.10
  -2   4 -14    6.70    3.40
   2  -5 -14    3.00    2.70
  -2  -5  14   -0.10    2.00
   2  -5 -14    7.10    2.00
   2  -5 -14    6.70    2.70
   2   5 -14    8.30    2.30
   2   5 -14    3.70    1.80
  -2   5  14    1.60    3.00
   1  -5 -14   14.40    3.10
   1  -5 -14   11.40    2.50
   1  -5 -14   16.60    3.30
  -1   5  14    8.50    3.10
   1   5 -14   13.60    2.60
   1   5 -14   11.70    2.80
   1   5 -14   15.50    2.90
   1   5 -14   11.20    3.30
   0  -5 -14    6.80    2.10
   0  -5 -14   12.50    3.20
   0  -5 -14    6.00    3.70
   0  -5  14    5.20    1.90
   0  -5  14    3.50    2.00
   0  -5 -14    4.60    2.30
   0   5 -14    9.20    2.80
   0   5  14    4.80    2.90
   0   5 -14    5.10    1.90
   0   5 -14    7.60    1.90
   0   5  14    6.80    2.00
   1  -5  14    5.70    2.50
  -1  -5 -14    7.10    3.70
   1  -5  14   13.50    2.40
  -1  -5 -14   10.90    3.50
  -1  -5 -14    8.40    2.50
   1  -5  14   10.80    2.40
   1   5  14    5.20    3.30
  -1   5 -14    6.60    2.20
  -1   5 -14    7.50    7.50
   1   5  14    8.50    2.10
   2  -6 -14    0.40    1.80
  -2  -6  14   -0.70    2.00
   2  -6 -14    1.10    2.60
  -2   6  14   -1.40    2.80
   2   6 -14    3.10    2.20
   2   6 -14   -1.30    1.70
   1  -6 -14    1.30    2.30
  -1  -6  14   -0.50    2.70
   1  -6 -14    1.60    2.10
   1  -6 -14    1.30    1.90
  -1  -6  14    3.60    2.00
   1   6 -14    1.40    1.70
   1   6 -14    3.80    2.40
  -1   6  14   -1.30    2.60
   1   6 -14   -0.90    2.30
   0  -6 -14    0.10    3.00
   0  -6 -14   -1.00    2.00
   0  -6  14    0.60    2.20
   0  -6 -14    2.60    3.80
   0  -6  14    1.60    2.00
   0  -6 -14   -0.20    2.30
   0   6  14    1.70    3.70
   0   6 -14    1.40    1.80
   0   6 -14    5.30    1.80
   0   6  14   -0.70    2.80
   0   6 -14    2.10    2.60
   0   6  14    1.20    2.10
   1  -6  14   13.30    3.10
   1  -6  14    8.70    2.20
  -1  -6 -14    4.80    3.50
  -1  -6 -14    7.40    2.30
  -1   6 -14   11.90    2.30
   1   6  14    8.70    2.30
   1   6  14    9.10    3.40
  -1  -7  14    1.80    2.60
   1  -7 -14    0.80    2.00
  -1  -7  14    1.40    2.20
   1  -7 -14    5.10    2.80
   1  -7 -14   -3.20    2.10
  -1   7  14   -1.30    2.70
   1   7 -14   -0.20    1.80
   0  -7  14    2.80    2.20
   0  -7  14    5.40    2.50
   0  -7 -14    2.60    3.50
   0  -7 -14    0.80    3.90
   0   7  14   -3.80    2.80
   0   7  14    1.10    3.80
   0   7 -14    2.90    2.00
   0   7 -14    1.70    2.70
   2   0 -15    2.80    2.40
   2   0 -15    2.30    2.00
   2   0 -15    0.00    3.70
  -2   0  15    1.70    2.30
  -2   0  15    6.40    4.50
   2   0 -15   -3.00    1.80
  -1   0  15   -1.60    1.60
   1   0 -15    1.40    2.90
   1   0 -15   -1.70    1.70
   1   0 -15   -1.30    1.70
   0   0 -15   -1.10    1.60
   0   0 -15    1.40    2.90
   0   0 -15    0.80    2.40
  -1   0 -15   -1.30    3.10
  -1   0 -15    5.70    3.40
   1   0  15    3.50    2.60
   1   0  15    4.20    2.10
   2   0  15   -0.90    1.90
  -2   0 -15   -0.60    2.90
   2   0  15   -2.30    2.10
   2  -1 -15   21.10    3.80
  -2  -1  15   15.30    3.30
  -2  -1  15    7.40    5.00
   2  -1 -15   18.80    2.90
   2   1 -15   23.10    3.70
  -2   1  15   17.40    4.50
   2   1 -15   19.50    3.70
   2   1 -15   19.80    3.50
   1  -1 -15    5.30    2.10
   1  -1 -15    7.00    2.00
   1  -1 -15   10.90    3.10
  -1  -1  15    3.80    1.70
   1  -1 -15    8.20    2.70
   1   1 -15    9.80    3.50
  -1   1  15    7.10    1.80
   1   1 -15   10.50    2.20
  -1   1  15    5.00    4.10
   1   1 -15    8.10    2.00
   0  -1  15    3.60    1.80
   0  -1 -15    2.40    1.60
   0  -1  15   -0.20    2.00
   0  -1 -15    4.80    2.90
   0  -1 -15    6.60    2.90
   0   1 -15    3.70    1.80
   0   1 -15    4.40    2.60
   0   1 -15    0.90    2.00
   0   1 -15    0.90    3.20
   0   1  15    6.70    1.80
   1  -1  15    6.90    2.20
  -1  -1 -15   16.10    4.90
  -1  -1 -15    4.90    2.20
  -1   1 -15    9.90    3.00
  -1   1 -15    7.50    2.80
   1   1  15    4.90    2.20
  -2  -1 -15    2.10    3.30
   2  -2 -15   16.10    2.90
  -2  -2  15   12.30    2.40
   2  -2 -15   18.30    3.10
   2  -2 -15   15.50    2.60
   2   2 -15    9.50    2.50
   2   2 -15   13.50    2.70
   2   2 -15   12.40    2.50
  -2   2  15    6.40    3.60
   1  -2 -15   13.60    2.80
   1  -2 -15   16.00    2.50
   1  -2 -15    9.60    3.20
  -1  -2  15    9.20    2.00
   1  -2 -15   12.00    2.40
   1   2 -15    4.30    3.90
  -1   2  15    6.70    3.60
  -1   2  15    8.00    2.00
   1   2 -15   11.90    2.20
   1   2 -15   16.10    3.00
   0  -2  15   60.09    5.10
   0  -2 -15   52.69    8.30
   0  -2 -15   72.09    6.00
   0  -2 -15   62.89    5.70
   0   2  15   55.19    4.80
   0   2 -15   59.29    5.70
   0   2 -15   60.79    7.30
   0   2 -15   76.99    6.80
   0   2 -15   73.39    5.70
  -1  -2 -15    8.20    2.20
  -1  -2 -15    8.90    3.30
   1  -2  15    5.20    2.10
   1  -2  15    6.90    2.20
  -1   2 -15   12.60    3.70
  -1   2 -15    8.10    3.00
  -1   2 -15   12.10    2.20
   1   2  15    5.60    2.10
   1   2  15    9.70    2.40
   2  -3 -15    7.30    2.10
  -2  -3  15    3.30    2.10
   2  -3 -15    4.90    2.50
   2   3 -15    5.90    2.00
   2   3 -15    4.90    2.60
  -2   3  15    2.00    3.50
   2   3 -15    0.70    2.10
  -1  -3  15   15.20    2.90
   1  -3 -15   12.90    2.50
   1  -3 -15   12.00    3.30
   1  -3 -15   16.00    3.00
   1   3 -15   19.80    3.20
   1   3 -15   17.30    3.20
  -1   3  15   14.00    3.80
   0  -3 -15   36.30    4.30
   0  -3  15   23.70    3.80
   0  -3 -15   36.50    4.50
   0   3 -15   36.70    4.10
   0   3  15   29.40    3.40
   0   3 -15   26.20    5.00
   0   3 -15   47.00    4.20
   0   3  15   19.50    4.60
  -1  -3 -15    8.60    6.00
  -1  -3 -15    5.80    3.40
   1  -3  15    2.80    2.00
  -1  -3 -15    7.70    2.30
   1  -3  15    2.80    2.00
  -1   3 -15    5.50    3.40
   1   3  15    3.30    1.90
  -1   3 -15    6.20    1.90
  -1   3 -15    3.30    2.80
   1   3  15   -1.10    2.40
   2  -4 -15   -2.10    2.00
   2  -4 -15    1.60    2.70
  -2  -4  15    1.80    2.10
  -2   4  15   -5.30    3.20
   2   4 -15    1.50    2.20
   2   4 -15    1.80    2.10
  -1  -4  15    1.80    1.90
   1  -4 -15    2.10    2.70
   1  -4 -15    0.20    1.90
   1  -4 -15   -0.80    2.20
   1   4 -15   -1.50    1.70
  -1   4  15    5.00    3.20
   1   4 -15    3.40    2.40
   1   4 -15    0.80    1.70
   0  -4 -15    2.50    2.30
   0  -4  15    6.30    2.10
   0  -4  15    3.20    2.10
   0  -4 -15    1.50    2.10
   0  -4 -15    2.30    3.40
   0   4 -15    5.40    1.80
   0   4 -15    5.00    1.90
   0   4  15    5.30    3.40
   0   4  15    3.70    1.90
   0   4 -15    3.20    2.80
  -1  -4 -15    4.60    4.30
   1  -4  15    8.20    2.30
  -1  -4 -15    5.90    3.40
   1  -4  15    9.20    2.20
   1   4  15    4.10    3.80
  -1   4 -15    8.70    4.00
   1   4  15    7.10    2.00
  -1   4 -15   10.80    2.30
  -1   4 -15    7.10    3.00
   1  -5 -15   -1.40    2.10
  -1  -5  15    2.60    1.90
   1  -5 -15    0.50    2.00
   1  -5 -15   -0.80    2.90
  -1   5  15    1.90    3.20
   1   5 -15    1.40    2.20
   1   5 -15    0.50    2.00
   1   5 -15    1.70    2.30
   0  -5 -15    6.60    2.40
   0  -5 -15   -0.60    2.90
   0  -5 -15    5.80    2.60
   0  -5  15    7.00    2.20
   0   5 -15    2.60    2.00
   0   5  15    5.80    2.20
   0   5 -15    0.00    1.90
   0   5 -15    6.40    2.80
   0   5  15    4.10    3.30
  -1  -5 -15   -1.60    3.70
   1  -5  15   -1.10    2.40
  -1  -5 -15    0.90    4.10
   1  -5  15    0.50    2.20
  -1   5 -15   -1.30    2.80
   1   5  15    0.10    1.90
   1  -6 -15   -0.30    2.20
   1  -6 -15   -0.40    2.50
   1  -6 -15    2.50    2.90
   1   6 -15    0.20    2.60
  -1   6  15   -1.00    3.20
   1   6 -15   -2.40    2.90
   0  -6  15    4.10    2.30
   0  -6 -15    6.40    3.40
   0  -6 -15    0.60    2.50
   0  -6  15    9.80    2.60
   0   6 -15    4.30    2.00
   0   6  15    9.00    3.30
   0   6 -15    1.30    2.60
   2   0 -16   15.70    2.90
   2   0 -16   20.30    3.90
   1   0 -16   83.69    7.60
   1   0 -16   57.09    5.90
   1   0 -16   68.09    5.90
  -1   0  16   51.89    4.60
   0   0 -16    5.10    2.00
   0   0 -16    3.30    3.20
   0   0  16    0.50    1.70
   0   0 -16    5.80    3.00
   1   0  16    7.80    2.50
   1   0  16    9.30    2.40
  -1   0 -16   15.70    4.00
  -1   0 -16   21.10    3.60
   2  -1 -16    9.10    2.50
   2  -1 -16   10.30    2.40
  -2  -1  16    2.50    2.70
   2  -1 -16   12.20    4.00
  -2   1  16    6.70    5.00
   2   1 -16    6.00    2.40
   2   1 -16    6.20    2.40
   1  -1 -16   22.60    4.40
  -1  -1  16   16.90    3.00
   1  -1 -16   15.00    2.80
  -1   1  16   13.70    2.30
   1   1 -16   16.90    3.60
   1   1 -16   16.80    4.40
   0  -1 -16   11.20    3.40
   0  -1 -16   18.40    3.30
   0  -1  16    9.00    2.10
   0  -1 -16   15.00    3.70
   0   1 -16    8.20    3.40
   0   1  16   10.50    2.10
   0   1 -16   12.70    3.20
   0   1 -16   12.10    2.30
   1  -1  16    8.70    2.30
  -1  -1 -16    8.60    3.30
   1  -1  16    3.80    2.30
  -1  -1 -16   11.60    2.40
  -1   1 -16    7.00    3.50
   1   1  16    3.50    2.60
  -1   1 -16    6.30    2.30
   1   1  16    7.10    2.10
  -1   1 -16    7.10    3.80
   2  -2 -16    4.30    2.70
   2  -2 -16    0.60    3.60
   2  -2 -16    2.20    1.90
  -2  -2  16    6.00    2.50
   2   2 -16    5.00    2.10
   2   2 -16   -0.10    2.40
  -2   2  16   -4.60    4.10
   1  -2 -16    0.40    1.90
   1  -2 -16    1.90    3.00
  -1  -2  16    2.20    1.90
  -1   2  16    1.70    4.60
  -1   2  16   -1.30    2.10
   1   2 -16    1.60    2.00
   1   2 -16   -2.70    2.50
   1   2 -16    1.00    2.00
   0  -2 -16    1.90    3.20
   0  -2  16    1.70    1.80
   0  -2 -16    6.20    2.10
   0   2 -16    9.40    3.10
   0   2 -16    3.90    3.70
   0   2  16    3.00    1.80
   0   2 -16    3.20    2.90
   0   2 -16    5.80    2.00
  -1  -2 -16    2.00    3.70
   1  -2  16    4.80    2.00
  -1  -2 -16   -0.20    2.50
   1  -2  16   -2.20    2.00
  -1   2 -16   -4.50    3.20
   1   2  16   -0.20    1.80
  -1   2 -16    0.50    1.90
   1   2  16    3.60    2.80
  -1   2 -16    0.30    3.20
   1  -3 -16    9.90    2.20
   1  -3 -16    9.20    3.00
   1  -3 -16   12.00    3.30
   1   3 -16    8.30    3.00
   1   3 -16   10.80    2.40
  -1   3  16    9.20    4.50
   1   3 -16    7.60    2.30
   0  -3 -16    2.80    3.30
   0  -3  16    2.40    3.40
   0  -3 -16    6.70    2.10
   0  -3  16    2.40    1.90
   0   3 -16    1.30    2.10
   0   3 -16    8.60    2.90
   0   3  16    3.50    2.00
   0   3 -16    4.60    1.90
   1  -4 -16    5.50    2.10
  -1  -4  16    4.20    2.00
   1  -4 -16    3.50    3.20
   1  -4 -16    4.10    2.90
   1   4 -16    7.10    2.40
   1   4 -16    9.90    2.80
   1   4 -16    8.70    2.30
  -1   4  16   11.80    4.10
   0  -4  16   10.00    2.40
   0  -4 -16    8.80    4.00
   0  -4 -16    7.00    2.70
   0  -4 -16    6.40    2.30
   0  -4  16    3.20    2.70
   0   4 -16    7.30    2.10
   0   4 -16    9.90    3.00
   0   4  16    8.60    2.30
   0   4  16    6.90    5.20
   0   4 -16    6.60    2.20
   1   0 -17    2.50    4.00
  -1   0  17    0.50    2.00
   1   0 -17    3.10    2.00
   1   0 -17   -1.00    3.00
   0   0  17    3.30    1.90
   0   0 -17   -3.00    3.70
   0   0 -17   -4.40    3.60
   0   0 -17   -1.50    2.00
   1   1 -17   14.00    3.50
   0   1 -17   12.90    3.60
   0   0   0    0.00    0.00

_computing_structure_solution     'SHELXT 2014/5 (Sheldrick, 2014)'
;
_shelx_hkl_checksum              19720
_olex2_exptl_crystal_mounting_method 'mounted on a cryoloop'
_olex2_submission_original_sample_id JDW-AL-414
_olex2_submission_special_instructions 'No special instructions were received'
loop_
_space_group_symop_operation_xyz
'x, y, z'
'x, -y, z+1/2'
loop_
_atom_site_label
_atom_site_type_symbol
_atom_site_fract_x
_atom_site_fract_y
_atom_site_fract_z
_atom_site_U_iso_or_equiv
_atom_site_adp_type
_atom_site_occupancy
_atom_site_site_symmetry_order
_atom_site_calc_flag
_atom_site_refinement_flags_posn
_atom_site_refinement_flags_adp
_atom_site_refinement_flags_occupancy
_atom_site_disorder_assembly
_atom_site_disorder_group
Cl1 Cl 0.6290(4) 0.60473(16) 0.70726(13) 0.0884(7) Uani 1 1 d . . . . .
O1 O 0.9876(11) 0.7964(4) 0.6231(4) 0.0799(12) Uani 1 1 d . . . . .
O2 O -0.2990(15) 0.1229(5) 0.5029(5) 0.0962(16) Uani 1 1 d . . . . .
O3 O -0.1422(19) 0.1510(6) 0.3633(5) 0.115(2) Uani 1 1 d . . . . .
N1 N 0.7107(13) 0.6457(5) 0.5257(4) 0.0708(13) Uani 1 1 d . . . . .
N2 N 0.926(4) 0.7535(10) 0.2918(6) 0.161(5) Uani 1 1 d . . . . .
N3 N -0.1460(14) 0.1774(5) 0.4473(5) 0.0844(16) Uani 1 1 d . . . . .
C1 C 0.8967(15) 0.7446(6) 0.5372(5) 0.0700(15) Uani 1 1 d . . . . .
C2 C 1.0244(18) 0.8066(6) 0.4685(5) 0.0814(19) Uani 1 1 d . . . . .
C3 C 1.2041(18) 0.9013(6) 0.5118(6) 0.0794(18) Uani 1 1 d . . . . .
H3 H 1.322476 0.959430 0.481028 0.095 Uiso 1 1 calc R . . . .
C4 C 1.1763(19) 0.8939(5) 0.6049(6) 0.0777(18) Uani 1 1 d . . . . .
C5 C 1.302(2) 0.9643(7) 0.6888(6) 0.098(2) Uani 1 1 d . . . . .
H5A H 1.123078 0.995895 0.720746 0.146 Uiso 1 1 calc GR . . . .
H5B H 1.431824 1.030757 0.668796 0.146 Uiso 1 1 calc GR . . . .
H5C H 1.434034 0.912570 0.732376 0.146 Uiso 1 1 calc GR . . . .
C6 C 0.973(3) 0.7767(8) 0.3700(7) 0.105(3) Uani 1 1 d . . . . .
C7 C 0.5854(15) 0.5802(6) 0.5851(5) 0.0711(16) Uani 1 1 d . . . . .
C8 C 0.3943(15) 0.4751(6) 0.5527(4) 0.0669(14) Uani 1 1 d . . . . .
C9 C 0.3486(15) 0.4537(6) 0.4546(5) 0.0727(16) Uani 1 1 d . . . . .
H9 H 0.437753 0.506969 0.412128 0.087 Uiso 1 1 calc R . . . .
C10 C 0.1754(17) 0.3557(6) 0.4200(5) 0.0762(17) Uani 1 1 d . . . . .
H10 H 0.145350 0.340426 0.354020 0.091 Uiso 1 1 calc R . . . .
C11 C 0.0466(16) 0.2804(6) 0.4834(5) 0.0734(16) Uani 1 1 d . . . . .
C12 C 0.0857(16) 0.2993(6) 0.5807(5) 0.0732(16) Uani 1 1 d . . . . .
H12 H -0.007128 0.246412 0.622749 0.088 Uiso 1 1 calc R . . . .
C13 C 0.2623(16) 0.3965(6) 0.6143(5) 0.0716(16) Uani 1 1 d . . . . .
H13 H 0.294649 0.410121 0.680464 0.086 Uiso 1 1 calc R . . . .
loop_
_atom_site_aniso_label
_atom_site_aniso_U_11
_atom_site_aniso_U_22
_atom_site_aniso_U_33
_atom_site_aniso_U_23
_atom_site_aniso_U_13
_atom_site_aniso_U_12
Cl1 0.1055(14) 0.0956(11) 0.0641(9) -0.0028(8) 0.0078(8) -0.0108(9)
O1 0.082(3) 0.082(3) 0.075(3) 0.004(2) -0.001(2) 0.003(2)
O2 0.091(4) 0.082(3) 0.116(5) 0.005(3) 0.014(3) -0.007(3)
O3 0.143(5) 0.116(4) 0.084(4) -0.011(3) 0.000(4) -0.031(4)
N1 0.071(3) 0.074(3) 0.068(3) 0.006(3) 0.010(2) 0.008(3)
N2 0.245(14) 0.168(9) 0.075(5) -0.018(5) 0.046(6) -0.071(9)
N3 0.075(4) 0.080(3) 0.097(5) 0.004(3) 0.000(3) 0.005(3)
C1 0.067(4) 0.072(4) 0.070(4) -0.001(3) 0.006(3) 0.012(3)
C2 0.084(5) 0.077(4) 0.086(5) 0.004(3) 0.024(4) 0.009(3)
C3 0.079(4) 0.068(3) 0.092(5) 0.001(3) 0.015(4) 0.007(3)
C4 0.075(4) 0.069(4) 0.088(5) 0.003(3) 0.001(3) 0.009(3)
C5 0.106(6) 0.091(5) 0.093(5) -0.005(4) -0.008(4) -0.009(4)
C6 0.137(8) 0.095(5) 0.089(6) 0.000(4) 0.041(5) -0.018(5)
C7 0.068(4) 0.077(3) 0.068(4) 0.005(3) 0.005(3) 0.019(3)
C8 0.067(3) 0.069(3) 0.064(3) 0.001(3) 0.002(3) 0.009(3)
C9 0.073(4) 0.078(4) 0.067(3) 0.008(3) 0.006(3) 0.005(3)
C10 0.084(4) 0.081(4) 0.063(3) 0.003(3) 0.005(3) 0.002(3)
C11 0.073(4) 0.074(3) 0.072(4) -0.001(3) 0.000(3) 0.009(3)
C12 0.075(4) 0.070(3) 0.075(4) 0.009(3) 0.012(3) 0.005(3)
C13 0.074(4) 0.077(4) 0.064(3) 0.005(3) 0.010(3) 0.010(3)
loop_
_atom_type_symbol
_atom_type_description
_atom_type_scat_dispersion_real
_atom_type_scat_dispersion_imag
_atom_type_scat_source
C C 0.0137 0.0070 'International Tables Vol C Tables 4.2.6.8 and 6.1.1.4'
H H 0.0000 0.0000 'International Tables Vol C Tables 4.2.6.8 and 6.1.1.4'
Cl Cl 0.3281 0.5435 'International Tables Vol C Tables 4.2.6.8 and 6.1.1.4'
N N 0.0241 0.0136 'International Tables Vol C Tables 4.2.6.8 and 6.1.1.4'
O O 0.0387 0.0250 'International Tables Vol C Tables 4.2.6.8 and 6.1.1.4'
loop_
_geom_angle_atom_site_label_1
_geom_angle_atom_site_label_2
_geom_angle_atom_site_label_3
_geom_angle
_geom_angle_site_symmetry_1
_geom_angle_site_symmetry_3
_geom_angle_publ_flag
C1 O1 C4 106.4(6) . . ?
C7 N1 C1 131.4(6) . . ?
O2 N3 O3 124.2(7) . . ?
O2 N3 C11 117.9(6) . . ?
O3 N3 C11 117.9(6) . . ?
N1 C1 O1 124.1(6) . . ?
C2 C1 O1 109.3(6) . . ?
C2 C1 N1 126.6(6) . . ?
C1 C2 C3 107.6(7) . . ?
C1 C2 C6 123.6(7) . . ?
C3 C2 C6 128.8(7) . . ?
C2 C3 H3 126.5 . . ?
C4 C3 C2 107.0(6) . . ?
C4 C3 H3 126.5 . . ?
O1 C4 C5 115.6(7) . . ?
C3 C4 O1 109.7(6) . . ?
C3 C4 C5 134.7(7) . . ?
C4 C5 H5A 109.5 . . ?
C4 C5 H5B 109.5 . . ?
C4 C5 H5C 109.5 . . ?
H5A C5 H5B 109.5 . . ?
H5A C5 H5C 109.5 . . ?
H5B C5 H5C 109.5 . . ?
N2 C6 C2 178.5(12) . . ?
N1 C7 Cl1 124.0(6) . . ?
N1 C7 C8 120.0(6) . . ?
C8 C7 Cl1 116.0(5) . . ?
C9 C8 C7 117.7(6) . . ?
C13 C8 C7 123.0(6) . . ?
C13 C8 C9 119.3(6) . . ?
C8 C9 H9 119.8 . . ?
C10 C9 C8 120.4(6) . . ?
C10 C9 H9 119.8 . . ?
C9 C10 H10 120.8 . . ?
C9 C10 C11 118.4(6) . . ?
C11 C10 H10 120.8 . . ?
C10 C11 N3 119.0(6) . . ?
C10 C11 C12 122.7(6) . . ?
C12 C11 N3 118.3(6) . . ?
C11 C12 H12 120.9 . . ?
C13 C12 C11 118.3(6) . . ?
C13 C12 H12 120.9 . . ?
C8 C13 H13 119.5 . . ?
C12 C13 C8 120.9(6) . . ?
C12 C13 H13 119.5 . . ?
loop_
_geom_bond_atom_site_label_1
_geom_bond_atom_site_label_2
_geom_bond_distance
_geom_bond_site_symmetry_2
_geom_bond_publ_flag
Cl1 C7 1.751(7) . ?
O1 C1 1.373(8) . ?
O1 C4 1.387(9) . ?
O2 N3 1.227(8) . ?
O3 N3 1.232(9) . ?
N1 C1 1.354(9) . ?
N1 C7 1.269(9) . ?
N2 C6 1.141(13) . ?
N3 C11 1.472(9) . ?
C1 C2 1.350(10) . ?
C2 C3 1.408(11) . ?
C2 C6 1.437(12) . ?
C3 H3 0.9500 . ?
C3 C4 1.342(12) . ?
C4 C5 1.485(11) . ?
C5 H5A 0.9800 . ?
C5 H5B 0.9800 . ?
C5 H5C 0.9800 . ?
C7 C8 1.472(10) . ?
C8 C9 1.412(9) . ?
C8 C13 1.392(9) . ?
C9 H9 0.9500 . ?
C9 C10 1.379(11) . ?
C10 H10 0.9500 . ?
C10 C11 1.381(10) . ?
C11 C12 1.394(9) . ?
C12 H12 0.9500 . ?
C12 C13 1.375(10) . ?
C13 H13 0.9500 . ?
loop_
_geom_torsion_atom_site_label_1
_geom_torsion_atom_site_label_2
_geom_torsion_atom_site_label_3
_geom_torsion_atom_site_label_4
_geom_torsion
_geom_torsion_site_symmetry_1
_geom_torsion_site_symmetry_2
_geom_torsion_site_symmetry_3
_geom_torsion_site_symmetry_4
_geom_torsion_publ_flag
Cl1 C7 C8 C9 178.8(5) . . . . ?
Cl1 C7 C8 C13 -2.0(8) . . . . ?
O1 C1 C2 C3 0.1(7) . . . . ?
O1 C1 C2 C6 -179.4(7) . . . . ?
O2 N3 C11 C10 -168.7(6) . . . . ?
O2 N3 C11 C12 10.0(8) . . . . ?
O3 N3 C11 C10 11.5(10) . . . . ?
O3 N3 C11 C12 -169.8(7) . . . . ?
N1 C1 C2 C3 -179.1(6) . . . . ?
N1 C1 C2 C6 1.4(11) . . . . ?
N1 C7 C8 C9 -2.2(8) . . . . ?
N1 C7 C8 C13 177.0(6) . . . . ?
N3 C11 C12 C13 -179.2(6) . . . . ?
C1 O1 C4 C3 -0.7(7) . . . . ?
C1 O1 C4 C5 179.9(6) . . . . ?
C1 N1 C7 Cl1 -0.2(10) . . . . ?
C1 N1 C7 C8 -179.1(6) . . . . ?
C1 C2 C3 C4 -0.6(8) . . . . ?
C2 C3 C4 O1 0.8(8) . . . . ?
C2 C3 C4 C5 -179.9(8) . . . . ?
C4 O1 C1 N1 179.6(6) . . . . ?
C4 O1 C1 C2 0.3(7) . . . . ?
C6 C2 C3 C4 178.9(8) . . . . ?
C7 N1 C1 O1 -0.7(10) . . . . ?
C7 N1 C1 C2 178.4(7) . . . . ?
C7 C8 C9 C10 179.1(6) . . . . ?
C7 C8 C13 C12 -179.9(6) . . . . ?
C8 C9 C10 C11 0.5(10) . . . . ?
C9 C8 C13 C12 -0.7(9) . . . . ?
C9 C10 C11 N3 178.4(6) . . . . ?
C9 C10 C11 C12 -0.2(11) . . . . ?
C10 C11 C12 C13 -0.6(10) . . . . ?
C11 C12 C13 C8 1.0(9) . . . . ?
C13 C8 C9 C10 -0.1(9) . . . . ?
