#------------------------------------------------------------------------------
#$Date: 2021-01-04 05:13:17 +0200 (Mon, 04 Jan 2021) $
#$Revision: 260427 $
#$URL: file:///home/coder/svn-repositories/cod/cif/4/13/54/4135408.cif $
#------------------------------------------------------------------------------
#
# This file is available in the Crystallography Open Database (COD),
# http://www.crystallography.net/
#
# All data on this site have been placed in the public domain by the
# contributors.
#
data_4135408
loop_
_publ_author_name
'Tang, Yuan-Yuan'
'Xie, Yongfa'
'Ai, Yong'
'Liao, Wei-Qiang'
'Li, Peng-Fei'
'Nakamura, Takayoshi'
'Xiong, Ren-Gen'
_publ_section_title
;
 Organic Ferroelectric Vortex-Antivortex Domain Structure.
;
_journal_issue                   52
_journal_name_full               'Journal of the American Chemical Society'
_journal_page_first              21932
_journal_page_last               21937
_journal_paper_doi               10.1021/jacs.0c11416
_journal_volume                  142
_journal_year                    2020
_chemical_formula_moiety         'C7 H13 F N, O4 Re'
_chemical_formula_sum            'C7 H13 F N O4 Re'
_chemical_formula_weight         380.39
_space_group_crystal_system      monoclinic
_space_group_IT_number           7
_space_group_name_Hall           'P -2yac'
_space_group_name_H-M_alt        'P 1 n 1'
_atom_sites_solution_hydrogens   difmap
_audit_creation_method           SHELXL-2014/7
_cell_angle_alpha                90
_cell_angle_beta                 90.03
_cell_angle_gamma                90
_cell_formula_units_Z            2
_cell_length_a                   8.8349(2)
_cell_length_b                   6.07230(10)
_cell_length_c                   9.3144(2)
_cell_measurement_reflns_used    12033
_cell_measurement_temperature    293(2)
_cell_measurement_theta_max      31.6240
_cell_measurement_theta_min      3.1440
_cell_volume                     499.700(18)
_computing_cell_refinement       'CrysAlisPro 1.171.39.46 (Rigaku OD, 2018)'
_computing_data_collection       'CrysAlisPro 1.171.39.46 (Rigaku OD, 2018)'
_computing_data_reduction        'CrysAlisPro 1.171.39.46 (Rigaku OD, 2018)'
_computing_molecular_graphics    'DIAMOND (Brandenburg & Putz, 2005)'
_computing_publication_material  'SHELXL-2014/7 (Sheldrick, 2014)'
_computing_structure_refinement  'SHELXL-2014/7 (Sheldrick, 2014)'
_computing_structure_solution    'SHELXL-2014/7 (Sheldrick, 2014)'
_diffrn_ambient_temperature      293(2)
_diffrn_measured_fraction_theta_full 1.000
_diffrn_measured_fraction_theta_max 1.000
_diffrn_measurement_device_type  'XtaLAB Synergy R, DW system, HyPix'
_diffrn_measurement_method       'four-circle diffractometer'
_diffrn_radiation_type           MoK\a
_diffrn_radiation_wavelength     0.71073
_diffrn_reflns_av_R_equivalents  0.0997
_diffrn_reflns_av_unetI/netI     0.0456
_diffrn_reflns_Laue_measured_fraction_full 1.000
_diffrn_reflns_Laue_measured_fraction_max 1.000
_diffrn_reflns_limit_h_max       11
_diffrn_reflns_limit_h_min       -11
_diffrn_reflns_limit_k_max       7
_diffrn_reflns_limit_k_min       -7
_diffrn_reflns_limit_l_max       11
_diffrn_reflns_limit_l_min       -11
_diffrn_reflns_number            12972
_diffrn_reflns_point_group_measured_fraction_full 1.000
_diffrn_reflns_point_group_measured_fraction_max 1.000
_diffrn_reflns_theta_full        25.242
_diffrn_reflns_theta_max         26.749
_diffrn_reflns_theta_min         3.177
_diffrn_source                   'Rotating-anode X-ray tube'
_exptl_absorpt_coefficient_mu    12.163
_exptl_absorpt_correction_T_max  0.097
_exptl_absorpt_correction_T_min  0.088
_exptl_absorpt_correction_type   multi-scan
_exptl_absorpt_process_details   'CrysAlisPro 1.171.39.46 (Rigaku OD, 2018)'
_exptl_crystal_colour            colourless
_exptl_crystal_density_diffrn    2.528
_exptl_crystal_description       block
_exptl_crystal_F_000             356
_exptl_crystal_size_max          0.210
_exptl_crystal_size_mid          0.210
_exptl_crystal_size_min          0.200
_refine_diff_density_max         0.743
_refine_diff_density_min         -1.371
_refine_diff_density_rms         0.191
_refine_ls_abs_structure_details
;
 Refined as an inversion twin.
;
_refine_ls_abs_structure_Flack   0.01(4)
_refine_ls_extinction_method     none
_refine_ls_goodness_of_fit_ref   1.002
_refine_ls_hydrogen_treatment    constr
_refine_ls_matrix_type           full
_refine_ls_number_parameters     128
_refine_ls_number_reflns         2126
_refine_ls_number_restraints     8
_refine_ls_restrained_S_all      1.010
_refine_ls_R_factor_all          0.0371
_refine_ls_R_factor_gt           0.0367
_refine_ls_shift/su_max          0.011
_refine_ls_shift/su_mean         0.003
_refine_ls_structure_factor_coef Fsqd
_refine_ls_weighting_details
'w=1/[\s^2^(Fo^2^)+(0.0653P)^2^+0.6000P] where P=(Fo^2^+2Fc^2^)/3'
_refine_ls_weighting_scheme      calc
_refine_ls_wR_factor_gt          0.0940
_refine_ls_wR_factor_ref         0.0944
_reflns_Friedel_coverage         0.993
_reflns_Friedel_fraction_full    1.000
_reflns_Friedel_fraction_max     1.000
_reflns_number_gt                2069
_reflns_number_total             2126
_reflns_threshold_expression     'I > 2\s(I)'
_cod_data_source_file            ja0c11416_si_005.cif
_cod_data_source_block           Pn
_cod_depositor_comments
'Adding full bibliography for 4135405--4135410.cif.'
_cod_original_sg_symbol_H-M      'P n'
_cod_database_code               4135408
_shelx_shelxl_version_number     2014/7
_shelx_space_group_comment
;
The symmetry employed for this shelxl refinement is uniquely defined
by the following loop, which should always be used as a source of
symmetry information in preference to the above space-group names.
They are only intended as comments.
;
_shelx_estimated_absorpt_t_min   0.184
_shelx_estimated_absorpt_t_max   0.195
_shelx_res_file
;

    Pn.res created by SHELXL-2014/7


TITL Pn in Pn
CELL 0.71073   8.8349   6.0723   9.3144  90.000  90.030  90.000
ZERR    2.00   0.0002   0.0001   0.0002   0.000   0.000   0.000
LATT -1
SYMM 0.5+X, -Y, 0.5+Z
SFAC C  H  N  O  F  Re
UNIT 14 26 2 8 2 2
OMIT  -3.00  53.50
L.S. 25
ACTA
BOND
FMAP 2
PLAN 10
HTAB C7 O1_$7
EQIV $7 x+1/2, -y+1, z+1/2
HTAB C7 O4_$6
EQIV $6 x-1/2, -y+1, z+1/2
HTAB C5 O1_$5
EQIV $5 x+1/2, -y, z+1/2
HTAB C5 F1_$4
EQIV $4 x+1/2, -y+1, z-1/2
HTAB C3 F1_$3
EQIV $3 x-1/2, -y+1, z-1/2
HTAB C3 O4_$2
EQIV $2 x-1/2, -y, z+1/2
HTAB N1 O3
HTAB N1 O2_$1
EQIV $1 x, y+1, z
TWIN
CONF
ISOR 0.001 Re1
SIZE 0.20 0.21 0.21
TEMP 20
WGHT    0.065300    0.600000
BASF   0.01497
FVAR       0.45745
MOLE 1
RE1   6    0.999781    0.016054    0.000847    11.00000    0.02668    0.03240 =
         0.02324   -0.00040    0.00034   -0.00013
O1    4    0.842450    0.027856   -0.107000    11.00000    0.04649    0.06045 =
         0.05745    0.00507   -0.01783    0.00336
O2    4    1.001082   -0.224722    0.098883    11.00000    0.07972    0.05726 =
         0.03573    0.01884   -0.00003    0.00935
O3    4    1.000563    0.233367    0.117635    11.00000    0.11307    0.05649 =
         0.04681   -0.02793   -0.00149    0.00037
O4    4    1.161369    0.025555   -0.103490    11.00000    0.03356    0.05200 =
         0.06411    0.00527    0.01878   -0.00273
F1    5    0.999398    0.515732    0.782917    11.00000    0.05284    0.07962 =
         0.01818    0.00185    0.00090   -0.00154
C1    1    0.995073    0.522426    0.634341    11.00000    0.02626    0.03599 =
         0.02181    0.00448   -0.00115    0.00201
N1    3    0.996323    0.548568    0.366160    11.00000    0.03348    0.03929 =
         0.02216    0.00699    0.00100    0.00631
AFIX   3
H1    2    0.995633    0.556942    0.261090    11.00000   -1.20000
AFIX   0
C3    1    0.859460    0.434586    0.414694    11.00000    0.03141    0.07339 =
         0.02454   -0.00656   -0.01236   -0.00659
AFIX   3
H3A   2    0.854778    0.290037    0.370588    11.00000   -1.20000
H3B   2    0.770906    0.516949    0.384539    11.00000   -1.20000
AFIX   0
C2    1    0.858427    0.410411    0.576760    11.00000    0.04690    0.05980 =
         0.05077    0.00207   -0.01813   -0.02717
AFIX   3
H2A   2    0.767727    0.476808    0.616341    11.00000   -1.20000
H2B   2    0.859584    0.255760    0.602816    11.00000   -1.20000
AFIX   0
C5    1    1.136000    0.432552    0.414045    11.00000    0.03364    0.06657 =
         0.02932   -0.00949    0.01649    0.01379
AFIX   3
H5A   2    1.224494    0.515640    0.384673    11.00000   -1.20000
H5B   2    1.140922    0.288359    0.369475    11.00000   -1.20000
AFIX   0
C4    1    1.134827    0.408287    0.576763    11.00000    0.04281    0.05750 =
         0.05272    0.00471    0.00590    0.02154
AFIX   3
H4A   2    1.133165    0.253574    0.602638    11.00000   -1.20000
H4B   2    1.225168    0.474245    0.617471    11.00000   -1.20000
AFIX   0
C7    1    1.000480    0.775039    0.426134    11.00000    0.04379    0.01954 =
         0.05311    0.00544    0.00206   -0.00097
AFIX   3
H7A   2    0.913419    0.858112    0.393034    11.00000   -1.20000
H7B   2    1.091417    0.850173    0.394463    11.00000   -1.20000
AFIX   0
C6    1    0.998764    0.759659    0.590034    11.00000    0.09149    0.06698 =
         0.03161   -0.01456   -0.00898   -0.00212
AFIX   3
H6A   2    1.088375    0.829928    0.629090    11.00000   -1.20000
H6B   2    0.910561    0.835343    0.627556    11.00000   -1.20000
AFIX   0
HKLF 4

REM  Pn in Pn
REM R1 =  0.0367 for    2069 Fo > 4sig(Fo)  and  0.0371 for all    2126 data
REM    128 parameters refined using      8 restraints

END

WGHT      0.0651      0.0000

REM Highest difference peak  0.743,  deepest hole -1.371,  1-sigma level  0.191
Q1    1   1.0402  0.0133  0.0633  11.00000  0.05    0.74
Q2    1   0.9617  0.0168 -0.0637  11.00000  0.05    0.72
Q3    1   0.8382  0.0430 -0.0016  11.00000  0.05    0.56
Q4    1   0.7985  0.7804  0.6372  11.00000  0.05    0.47
Q5    1   0.8380  0.2341 -0.1383  11.00000  0.05    0.47
Q6    1   0.8813  0.2398  0.0005  11.00000  0.05    0.47
Q7    1   1.1639  0.0389  0.0001  11.00000  0.05    0.47
Q8    1   0.8381 -0.1497 -0.1235  11.00000  0.05    0.46
Q9    1   1.1815  0.2574  0.1435  11.00000  0.05    0.46
Q10   1   1.1644  0.1867  0.1253  11.00000  0.05    0.46
;
_shelx_res_checksum              91824
_shelx_hkl_file
;
 -11   0   0    2.72    7.89
 -11   0   0   -0.72    4.52
 -10   0   0  342.40   20.89
 -10   0   0  309.97   30.43
  -9   0   0    0.62    3.85
  -9   0   0   -0.28    3.21
  -9   0   0    2.30    7.07
  -8   0   0 1285.53   44.81
  -8   0   0 1176.11   59.13
  -8   0   0 1173.65   54.65
  -7   0   0    0.98    2.92
  -7   0   0   -1.01    4.41
  -7   0   0    0.31    3.12
  -7   0   0    1.42    2.80
  -6   0   0 3073.90   82.12
  -6   0   0 3021.11   85.00
  -6   0   0 2800.43   92.67
  -5   0   0   -1.13    3.21
  -5   0   0    0.22    1.89
  -4   0   0 2696.59   81.98
  -4   0   0 2878.96   75.62
  -3   0   0    0.22    2.07
  -3   0   0    0.26    1.28
  -2   0   0 5341.22  133.52
  -2   0   0 5492.75  129.74
   2   0   0 6882.41  178.29
   2   0   0 5930.48  142.84
   3   0   0   -0.34    1.18
   3   0   0    0.85    5.72
   3   0   0    0.61    1.26
   4   0   0 3223.27   81.16
   4   0   0 3109.10   81.27
   5   0   0   -1.27    7.98
   5   0   0    0.19    1.98
   5   0   0   -0.22    2.12
   5   0   0    0.19    2.00
   6   0   0 3540.24   91.15
   6   0   0 3510.17   90.49
   6   0   0 3350.26   92.55
   7   0   0   -0.31    2.90
   7   0   0   -1.59    8.32
   7   0   0   -0.77    2.88
   7   0   0    0.27    3.25
   7   0   0   -0.50    5.17
   7   0   0    0.27    2.91
   8   0   0 1599.32   47.09
   8   0   0 1430.62   47.05
   8   0   0 1515.72   44.68
   8   0   0  681.11   65.25
   8   0   0 1536.46   46.08
   9   0   0    1.78    8.76
   9   0   0   -1.56    3.96
   9   0   0    0.34    4.31
  10   0   0  456.33   25.65
  10   0   0  391.11   25.17
  11   0   0    2.05    5.64
  11   0   0    1.92   10.05
  11   0   0    3.17    5.81
  12   0   0  226.49   19.89
 -11  -1   0    1.72    7.34
 -11   1   0    1.51    4.42
 -11  -1   0    1.38    4.31
 -11   1   0   -1.93    7.89
 -10   1   0  306.59   20.29
 -10  -1   0  292.60   20.95
 -10  -1   0  296.55   19.12
 -10   1   0  285.94   30.35
  -9  -1   0    1.08    3.97
  -9   1   0   -2.51    6.68
  -9   1   0    0.87    3.72
  -9  -1   0    9.21    9.12
  -9  -1   0    1.18    3.50
  -9   1   0    0.97    4.06
  -8  -1   0  413.30   23.28
  -8   1   0  537.78   24.04
  -8   1   0  469.99   23.80
  -8   1   0  394.20   50.34
  -8   1   0  402.56   33.18
  -8  -1   0  435.60   28.82
  -8  -1   0  444.39   22.39
  -8   1   0  405.17   30.78
  -7   1   0    1.67   10.07
  -7  -1   0    7.69    3.46
  -7   1   0   12.20    4.20
  -7  -1   0    7.39    4.92
  -7  -1   0    6.96    7.29
  -7   1   0    6.10    5.92
  -7   1   0   12.09    5.86
  -7   1   0   12.20    4.16
  -6   1   0  969.90   46.74
  -6  -1   0  969.49   41.53
  -6  -1   0 1050.77   37.10
  -6   1   0 1094.18   76.59
  -6   1   0 1107.66   37.44
  -6   1   0 1162.75   37.51
  -6   1   0  923.67   48.46
  -5   1   0    4.18    2.41
  -5  -1   0    5.94    9.35
  -5   1   0    3.55    4.06
  -5   1   0    2.51    8.20
  -5  -1   0    1.47    1.98
  -5  -1   0    3.18    4.54
  -5   1   0    1.33    3.54
  -5   1   0    0.93    1.92
  -4   1   0 1378.28   55.88
  -4   1   0 1649.66   46.04
  -4  -1   0 1754.46   61.66
  -4   1   0 1796.46   84.92
  -4  -1   0 1601.09   44.72
  -4  -1   0 1613.67   87.87
  -4   1   0 1623.28   45.82
  -4   1   0 1345.55   53.91
  -3   1   0  113.06    7.00
  -3  -1   0  102.59    6.02
  -3  -1   0  109.88    6.43
  -3   1   0   87.40    9.54
  -3   1   0   95.42   10.54
  -3   1   0   87.88   16.41
  -3  -1   0   87.97   18.42
  -3  -1   0  117.09    7.05
  -3  -1   0   74.97   10.10
  -2   1   0 2030.47   60.27
  -2   1   0 2067.60   59.07
  -2  -1   0 2261.90   67.34
  -2   1   0 2035.02   61.31
  -2  -1   0 2062.37   52.67
  -2  -1   0 2047.87   52.97
  -1   1   0    2.59    1.47
  -1   1   0    1.54    0.96
  -1   1   0    2.28    1.48
  -1  -1   0    1.14    0.66
  -1  -1   0    1.85    0.61
  -1  -1   0    0.34    1.36
   0   1   0 1811.05   47.30
   0   1   0 1899.12   56.10
   0  -1   0 1864.62   48.95
   0   1   0 1855.23   49.13
   0  -1   0 2030.37   56.75
   0  -1   0 1835.12   45.84
   1  -1   0    2.60    1.32
   1   1   0    1.76    2.07
   1  -1   0    2.34    1.49
   1   1   0    1.76    0.67
   1  -1   0    2.12    1.01
   1  -1   0    2.05    1.28
   2  -1   0 2135.81   54.72
   2   1   0 2242.28   55.83
   2  -1   0 2708.19   73.67
   2  -1   0 2101.00   55.32
   2  -1   0 2493.60   63.97
   2  -1   0 2379.61   63.91
   2   1   0 2140.89   54.65
   2   1   0 2266.61   57.23
   2  -1   0 2275.04   58.37
   2   1   0 2101.69   54.51
   3   1   0  135.42    7.81
   3  -1   0  120.07   10.95
   3  -1   0  118.34    7.16
   3   1   0  116.76    6.67
   3   1   0  115.42    6.62
   3  -1   0  117.84    6.71
   3   1   0  135.76    8.40
   4   1   0 2008.12   53.38
   4  -1   0 1954.91   63.29
   4   1   0 1754.52   50.06
   4  -1   0 1719.64   50.07
   4   1   0 1856.34   53.65
   4   1   0 1648.68   58.68
   4  -1   0 1723.74   79.49
   4   1   0 1725.17   49.89
   4  -1   0 1865.94   53.56
   5  -1   0    2.63    5.19
   5  -1   0    1.75    2.05
   5   1   0    3.89    2.65
   5  -1   0    4.67    4.44
   5   1   0    1.96    2.11
   5   1   0   -0.79    3.84
   5   1   0    3.45    2.11
   5  -1   0    4.16    6.55
   5  -1   0    2.74    2.43
   5   1   0    2.89    2.72
   6   1   0 1231.52   43.77
   6  -1   0  810.18   62.81
   6   1   0 1443.57   44.79
   6   1   0 1201.85   40.03
   6   1   0  760.17   43.27
   6  -1   0 1631.71   60.88
   6  -1   0 1361.85   43.70
   6  -1   0 1383.83   53.96
   6   1   0 1219.90   39.78
   7   1   0    9.76    4.00
   7  -1   0    9.86    4.21
   7  -1   0    8.52    3.72
   7   1   0   14.46    4.98
   7  -1   0   14.05    6.50
   7   1   0    0.51    4.47
   7   1   0   11.91    4.12
   7  -1   0    8.18    9.51
   7   1   0    5.20   11.33
   7   1   0   14.90    5.04
   8   1   0  529.87   23.71
   8   1   0  525.27   24.34
   8   1   0  595.88   26.52
   8  -1   0  468.89   23.79
   8  -1   0  509.14   22.93
   8   1   0  528.93   26.92
   8   1   0  215.17   38.17
   8  -1   0  598.08   26.05
   8   1   0  183.89   21.03
   8  -1   0  197.38   32.54
   9  -1   0   -2.80    4.69
   9   1   0   -0.34    4.16
   9   1   0   -3.89    8.97
   9  -1   0   -1.62    7.48
   9  -1   0   -1.09    4.43
   9   1   0    0.84    4.84
  10   1   0  161.49   34.90
  10   1   0  349.13   22.36
  10   1   0  328.16   27.13
  10  -1   0  137.45   30.20
  10  -1   0  374.49   23.26
  10   1   0  361.08   24.43
  10  -1   0  306.91   21.09
  11  -1   0    2.05    5.58
  11   1   0    2.46    5.22
  11   1   0    3.75    5.72
  11   1   0    2.01   11.61
  11  -1   0   -0.41    5.06
  12  -1   0  145.32   15.58
  12   1   0  165.30   17.73
 -11   2   0   27.63   11.56
 -11  -2   0   25.36    6.68
 -11   2   0   22.20    9.50
 -11  -2   0   20.34    6.66
 -10   2   0  210.23   26.25
 -10  -2   0  216.50   16.16
 -10  -2   0  223.23   17.50
  -9  -2   0   11.21    9.78
  -9   2   0    7.80    7.71
  -9  -2   0   13.56    5.33
  -8   2   0  547.25   40.46
  -8   2   0  617.65   60.97
  -8  -2   0  597.91   28.07
  -7   2   0   18.54    8.07
  -7   2   0    6.16   12.01
  -7  -2   0   23.88    5.09
  -7  -2   0   18.30    9.63
  -7   2   0   15.02    6.81
  -6   2   0 1076.97   53.67
  -6  -2   0 1365.63   40.00
  -6   2   0 1096.17   51.00
  -6   2   0 1452.35   83.41
  -5   2   0  108.23   14.35
  -5  -2   0  125.42   18.21
  -5  -2   0  133.92    8.62
  -5   2   0   60.36   10.87
  -5  -2   0  139.01    9.23
  -5  -2   0  150.65   10.03
  -5   2   0  109.31   13.75
  -5   2   0   79.38   10.94
  -5  -2   0  159.60   10.75
  -4   2   0 1084.97   48.00
  -4   2   0 1091.98   46.13
  -4  -2   0 1660.70   63.08
  -4  -2   0 1298.01   36.38
  -4   2   0 1656.08   74.79
  -4  -2   0 1402.78   38.78
  -4   2   0  728.38   41.94
  -4   2   0 1098.35   42.18
  -4  -2   0 1291.19   35.56
  -3   2   0  245.79   13.88
  -3   2   0  236.98   17.14
  -3   2   0  234.12   22.59
  -3  -2   0  250.73   10.57
  -3  -2   0  261.39   11.05
  -3   2   0  232.09   16.25
  -3  -2   0  217.84   21.01
  -2   2   0 1639.49   53.24
  -2  -2   0 1682.34   44.59
  -2  -2   0 1976.61   68.05
  -2   2   0 2027.76   59.42
  -2  -2   0 1746.60   44.89
  -2   2   0 1562.09   50.36
  -2   2   0 1626.72   63.51
  -2   2   0 1851.07   48.79
  -1   2   0   51.04    6.04
  -1   2   0   39.68    3.78
  -1   2   0   44.76    4.74
  -1  -2   0   50.40    3.56
  -1  -2   0   57.86    3.58
  -1  -2   0   47.29    5.42
   0   2   0 3969.57   99.57
   0  -2   0 4072.88   99.34
   0  -2   0 4222.15  105.68
   0   2   0 4025.94  120.68
   0   2   0 3983.74  106.18
   0   2   0 3887.02  102.34
   1   2   0   53.98    3.92
   1  -2   0   48.17    4.36
   1  -2   0   49.02    5.43
   1  -2   0   60.58    4.43
   1   2   0   56.21    3.55
   2  -2   0 1974.53   53.26
   2  -2   0 1878.09   49.91
   2   2   0 1718.90   46.85
   2  -2   0 2181.94   53.43
   2   2   0 2059.56   53.36
   2  -2   0 1795.81   55.08
   2   2   0 1782.84   64.45
   2   2   0 1714.96   46.17
   2  -2   0 1837.49   55.10
   3   2   0  180.18   26.08
   3   2   0  172.85   17.33
   3  -2   0  313.60   14.89
   3  -2   0  253.21   16.81
   3   2   0  272.29   11.36
   3  -2   0  270.27   11.81
   3  -2   0  233.29   17.49
   3  -2   0  275.89   11.17
   3  -2   0  306.67   18.56
   3   2   0  157.40    9.72
   4  -2   0 1342.80   40.83
   4  -2   0 1541.18   54.46
   4  -2   0 1474.17   46.78
   4  -2   0 1316.17   39.55
   4   2   0 1481.18   42.45
   4   2   0 1406.84   40.75
   4  -2   0 1547.16   54.17
   5  -2   0  160.01   16.12
   5  -2   0  170.99   12.15
   5   2   0  161.00   10.07
   5  -2   0  152.23   10.37
   5   2   0   72.94   21.84
   5   2   0   79.47    8.81
   5  -2   0  155.99   12.94
   5  -2   0  153.00    9.58
   5   2   0  158.94   10.29
   6   2   0 1341.48   56.93
   6  -2   0 1751.62   53.51
   6   2   0 1755.94   53.74
   6  -2   0 1404.22   53.74
   6  -2   0 1473.71   47.05
   6  -2   0 2344.18   83.29
   6   2   0  890.74   80.19
   6   2   0 1620.03   48.64
   6  -2   0 1852.32   67.39
   6   2   0 1611.60   49.49
   7   2   0    7.51   11.82
   7  -2   0   21.56    4.71
   7   2   0   10.73    5.55
   7   2   0   24.82    5.10
   7  -2   0   21.40    8.18
   7  -2   0   23.92    6.23
   7  -2   0   31.80   12.41
   7   2   0   30.21    6.82
   7   2   0    5.62    5.29
   7   2   0   31.12    5.77
   8  -2   0  842.13   43.00
   8  -2   0  933.50   50.95
   8   2   0  771.08   33.70
   8   2   0  743.80   33.36
   8   2   0  329.42   47.97
   8   2   0  747.01   29.19
   9   2   0   20.97    6.26
   9   2   0    6.05    6.13
   9  -2   0   16.12    9.18
   9  -2   0    3.10    4.42
  10   2   0  270.86   22.74
  10   2   0  268.28   19.49
  10  -2   0  243.55   18.23
  11   2   0   31.74    8.63
  11  -2   0   20.45    7.01
  12  -2   0  148.56   15.05
 -11   3   0    7.07    9.64
 -10   3   0   88.70   13.58
 -10  -3   0  140.63   13.59
 -10   3   0  132.30   21.75
  -9  -3   0   32.60   13.85
  -9   3   0   13.69    9.82
  -9   3   0    9.94    5.33
  -9   3   0   12.80    8.60
  -9  -3   0   16.72    5.67
  -8  -3   0  252.84   16.10
  -8   3   0  283.68   40.59
  -8  -3   0  295.73   17.53
  -8   3   0  233.90   26.13
  -7  -3   0  122.35   10.46
  -7   3   0   49.42   11.32
  -7   3   0   64.15   10.06
  -7   3   0  102.35   24.39
  -7   3   0   88.81   15.34
  -7  -3   0  120.48   10.08
  -7  -3   0  117.29   21.60
  -6  -3   0  626.84   25.13
  -6  -3   0  670.11   26.41
  -6   3   0  304.49   26.56
  -6   3   0  488.02   34.71
  -6   3   0  475.37   32.23
  -6  -3   0  596.12   23.67
  -6  -3   0  615.39   22.59
  -6   3   0  690.47   54.42
  -6   3   0  436.14   25.86
  -6  -3   0  945.53   54.20
  -5  -3   0   71.31    6.52
  -5   3   0   64.00   11.61
  -5   3   0   67.67   14.44
  -5  -3   0   76.81    7.13
  -5  -3   0   79.89   16.35
  -5   3   0   31.33    7.63
  -5   3   0   67.93    8.62
  -5   3   0   61.17   10.39
  -5  -3   0   81.94    8.04
  -4   3   0  667.46   43.65
  -4  -3   0  659.29   22.62
  -4  -3   0  660.15   23.41
  -4   3   0  538.47   31.70
  -4   3   0  799.80   48.44
  -4   3   0  669.49   27.45
  -4  -3   0  875.14   49.52
  -4  -3   0  746.26   26.20
  -4   3   0  433.52   26.96
  -3   3   0   13.40    4.15
  -3  -3   0   25.77    9.36
  -3  -3   0    9.80    2.53
  -3  -3   0   23.54    3.51
  -3   3   0   15.68    6.81
  -3  -3   0   23.49    4.10
  -3   3   0   18.50    8.27
  -3  -3   0   24.34    3.48
  -3   3   0   23.38    4.52
  -3   3   0   24.73    6.19
  -2   3   0  804.18   31.38
  -2  -3   0  886.28   34.19
  -2  -3   0  901.31   26.72
  -2   3   0  851.86   29.04
  -2   3   0  860.97   36.10
  -2   3   0  818.29   47.31
  -2  -3   0  854.68   26.98
  -1   3   0  308.15   15.97
  -1  -3   0  374.39   13.36
  -1   3   0  373.11   14.05
  -1  -3   0  385.12   12.82
  -1  -3   0  334.65   15.46
  -1  -3   0  327.81   17.90
  -1   3   0  288.42   12.00
  -1   3   0  329.99   19.18
   0   3   0 1347.43   61.54
   0   3   0 1198.09   40.28
   0  -3   0 1324.88   43.63
   0  -3   0 1578.33   63.26
   0  -3   0 1383.28   41.22
   0   3   0 1219.27   36.69
   0  -3   0 1369.20   37.97
   0  -3   0 1346.39   36.76
   0  -3   0 1296.86   40.63
   0   3   0 1233.88   44.57
   0  -3   0 1733.86   41.81
   1  -3   0  426.22   14.09
   1  -3   0  306.02   15.41
   1  -3   0  329.09   17.20
   1   3   0  387.14   12.52
   1   3   0  253.51   24.14
   1   3   0  175.61   10.74
   1  -3   0  336.46   14.20
   2  -3   0  880.25   35.31
   2  -3   0  989.38   30.76
   2   3   0  965.88   31.73
   2  -3   0  917.88   35.60
   2   3   0  908.78   27.21
   2  -3   0 1094.42   37.48
   2  -3   0 1001.95   31.98
   2   3   0  906.80   28.66
   2   3   0  857.17   46.51
   3   3   0   23.02    8.21
   3  -3   0   27.41    4.73
   3   3   0   29.77    4.06
   3  -3   0   26.74    6.38
   3  -3   0   23.67    4.93
   3  -3   0   20.79    5.51
   3  -3   0   26.72    5.47
   3   3   0   26.24    3.50
   3   3   0    8.04    3.75
   4   3   0  588.22   37.95
   4  -3   0  767.80   29.28
   4   3   0  713.17   24.67
   4  -3   0  728.83   34.28
   4  -3   0  648.48   24.48
   4  -3   0  639.59   23.06
   4  -3   0  776.95   36.01
   4  -3   0  743.34   35.33
   4   3   0  687.65   29.89
   4   3   0  732.98   24.34
   5   3   0   53.63   20.10
   5   3   0   85.57    7.78
   5   3   0   26.25    6.93
   5  -3   0   75.61    7.21
   5  -3   0   83.43   12.34
   5  -3   0   76.52   11.85
   5   3   0   56.43    6.58
   5  -3   0   88.70    7.13
   5  -3   0   96.40   10.05
   5  -3   0   65.25   11.82
   6   3   0  774.20   28.84
   6  -3   0  616.46   41.14
   6  -3   0  706.00   32.36
   6  -3   0  764.73   40.32
   6   3   0  719.28   27.75
   6  -3   0  669.22   26.80
   6  -3   0  768.10   40.57
   6  -3   0  617.42   24.48
   6   3   0  626.73   33.02
   7   3   0   61.76   22.75
   7  -3   0  129.38   10.05
   7  -3   0  162.74   23.86
   7   3   0   89.41   10.10
   7  -3   0  137.66   17.69
   7  -3   0  153.00   13.13
   7   3   0  136.20   11.44
   7  -3   0   94.86   17.98
   8  -3   0  402.95   30.47
   8   3   0  225.78   39.83
   8   3   0  392.19   21.54
   8  -3   0  217.19   27.58
   8  -3   0  445.67   39.46
   8   3   0  397.59   20.82
   9  -3   0    2.29    4.00
   9   3   0   13.72    6.42
   9  -3   0   12.37   10.57
   9   3   0   -2.10   12.16
   9  -3   0   33.99   11.00
   9   3   0   25.74    6.79
   9  -3   0   30.32   14.36
  10   3   0   87.70   27.29
  10  -3   0   53.77   17.00
  11  -3   0    2.59    8.45
 -10   4   0  218.98   29.55
  -9   4   0   27.84   13.75
  -9   4   0   22.31    6.83
  -9   4   0   28.28   11.17
  -9  -4   0   54.50    8.29
  -8   4   0  296.49   39.12
  -8  -4   0  302.67   17.66
  -8  -4   0  565.92   48.58
  -8   4   0  468.95   40.89
  -8   4   0  156.05   15.89
  -8   4   0  203.71   24.52
  -8  -4   0  293.82   17.91
  -7  -4   0   89.17    9.10
  -7  -4   0   91.11    9.57
  -7   4   0   56.04   18.28
  -7   4   0   58.82    9.18
  -7   4   0   83.28   19.26
  -7   4   0   69.43   14.17
  -7  -4   0   88.23   20.80
  -6  -4   0 1238.69   68.49
  -6   4   0  987.84   59.46
  -6   4   0  616.58   30.36
  -6  -4   0  758.91   29.51
  -6   4   0  582.98   38.58
  -6   4   0  734.87   54.67
  -6   4   0  388.32   29.42
  -6  -4   0  751.89   27.74
  -5  -4   0  234.61   13.49
  -5   4   0  214.59   27.60
  -5  -4   0  225.01   12.53
  -5  -4   0  226.53   30.26
  -5   4   0  188.29   20.18
  -5  -4   0  315.77   18.43
  -5   4   0  213.04   15.81
  -5   4   0  128.64   14.50
  -4  -4   0 1218.69   40.26
  -4  -4   0 1181.70   38.72
  -4  -4   0 1190.03   36.29
  -4  -4   0 1183.25   37.39
  -4   4   0 1191.23   42.63
  -4   4   0 1139.59   65.55
  -4   4   0 1094.17   51.17
  -4   4   0 1255.74   61.10
  -3  -4   0  338.07   21.61
  -3  -4   0  186.12   11.47
  -3  -4   0  363.79   14.82
  -3   4   0  263.12   30.01
  -3   4   0  296.58   22.54
  -3  -4   0  337.56   34.03
  -3  -4   0  369.76   17.66
  -3   4   0  243.57   17.23
  -3   4   0  299.24   23.56
  -3   4   0  331.69   16.97
  -2   4   0 1462.08   50.68
  -2   4   0 1508.88   47.28
  -2   4   0 1459.80   52.00
  -2  -4   0 1507.36   46.16
  -2  -4   0 1611.24   44.91
  -2   4   0 1678.62   51.66
  -2  -4   0 1742.57   56.88
  -2   4   0 1448.52   74.83
  -2   4   0 1557.90   58.79
  -2  -4   0 1674.65   50.62
  -1  -4   0  397.13   15.66
  -1   4   0  360.72   15.89
  -1  -4   0  351.80   20.78
  -1  -4   0  407.15   14.91
  -1   4   0  337.49   22.65
  -1   4   0  303.69   18.21
  -1  -4   0  343.05   17.92
  -1  -4   0  315.87   17.75
  -1   4   0  278.64   12.83
   0  -4   0 2664.92   96.37
   0  -4   0 2222.22   59.58
   0  -4   0 2148.64   57.96
   0  -4   0 2719.88   66.79
   0  -4   0 2121.27   62.23
   0   4   0 1964.13   69.07
   0  -4   0 2184.31   67.66
   0   4   0 1918.40   89.01
   0   4   0 2000.24   58.35
   0  -4   0 2264.95   64.56
   1  -4   0  312.24   18.03
   1   4   0  254.07   28.17
   1  -4   0  360.33   16.87
   1  -4   0  459.78   16.40
   1   4   0  213.74   22.97
   1  -4   0  340.60   19.79
   1   4   0  390.67   14.82
   2  -4   0 1887.38   45.96
   2  -4   0 1630.60   57.70
   2   4   0 1618.97   47.17
   2   4   0 1763.38   51.25
   2  -4   0 1605.98   56.82
   2   4   0 1401.27   73.43
   2  -4   0 1708.39   52.01
   2  -4   0 1793.24   50.45
   2  -4   0 1902.61   58.58
   3   4   0  234.03   27.32
   3   4   0  394.11   15.32
   3  -4   0  298.97   21.15
   3   4   0  246.32   32.44
   3  -4   0  369.44   19.74
   3   4   0  378.90   16.78
   3  -4   0  429.70   19.03
   3  -4   0  329.83   21.85
   3   4   0  156.28   14.01
   3  -4   0  336.29   23.64
   4  -4   0 1053.32   35.35
   4  -4   0 1119.48   38.18
   4  -4   0 1263.34   50.46
   4  -4   0 1356.03   43.63
   4   4   0  854.91   69.90
   4   4   0 1090.65   60.17
   4   4   0 1239.53   43.88
   4   4   0 1279.21   39.74
   4   4   0 1299.17   37.50
   4  -4   0 1268.18   43.65
   4  -4   0 1197.23   49.89
   5  -4   0  219.27   20.14
   5   4   0  114.33   27.39
   5  -4   0  225.15   18.72
   5   4   0  260.60   14.82
   5   4   0   89.59   11.74
   5  -4   0  278.04   17.62
   5   4   0  297.53   14.38
   5  -4   0  222.78   12.04
   5  -4   0  226.91   13.46
   5  -4   0  238.32   21.32
   6  -4   0  777.78   41.91
   6   4   0  745.73   35.98
   6  -4   0  826.15   43.40
   6  -4   0  750.28   29.52
   6  -4   0  705.57   27.28
   6   4   0  863.38   31.99
   7  -4   0   90.78    9.24
   7   4   0  108.55   10.63
   7  -4   0   52.91   12.89
   7  -4   0  108.13   16.09
   7  -4   0  129.53   23.93
   7   4   0   39.36   18.92
   7   4   0  120.24   10.45
   7  -4   0   84.58    8.02
   8  -4   0  380.89   31.12
   8   4   0  439.22   22.07
   8  -4   0  263.24   28.40
   8  -4   0  461.29   43.64
   8   4   0  350.14   20.67
   8   4   0  177.55   37.27
   9  -4   0   57.05   13.67
   9  -4   0   29.74   12.15
   9  -4   0   79.47   21.15
   9   4   0   36.14   19.32
   9   4   0   77.40   10.15
   9   4   0   74.81   10.22
  10  -4   0   74.90   17.81
  10   4   0  129.28   32.52
  11  -4   0   11.31    9.07
  11   4   0   63.97   11.02
 -10   5   0   89.36   21.79
  -9   5   0   13.50   12.30
  -8   5   0  123.61   13.98
  -8  -5   0  177.16   14.41
  -8  -5   0  175.78   13.79
  -8   5   0  136.52   21.08
  -7   5   0   62.71   19.74
  -7   5   0   52.40    9.47
  -7   5   0   58.26   14.50
  -7  -5   0   61.49    8.18
  -7  -5   0   74.34    9.38
  -6   5   0  252.05   26.46
  -6   5   0  441.09   43.16
  -6  -5   0  368.49   20.87
  -6   5   0  261.21   30.85
  -6  -5   0  333.67   18.21
  -5   5   0   62.14   14.47
  -5  -5   0   74.94   21.08
  -5   5   0   52.50   16.11
  -5  -5   0   78.91    8.33
  -5   5   0   59.83   12.63
  -5  -5   0   77.97    9.29
  -4   5   0  284.32   22.53
  -4  -5   0  334.29   14.89
  -4  -5   0  360.74   17.74
  -4   5   0  258.04   19.99
  -4   5   0  331.65   37.57
  -4  -5   0  382.85   21.88
  -4   5   0  294.63   26.06
  -4   5   0  321.19   27.01
  -3  -5   0   48.50    9.41
  -3   5   0   34.78    8.56
  -3  -5   0   43.95    5.58
  -3   5   0   38.90    9.46
  -3   5   0   42.82   15.56
  -3   5   0   41.64    6.57
  -3  -5   0   36.36   15.12
  -3   5   0   31.56    6.92
  -3   5   0   29.53    7.38
  -3  -5   0   46.22    6.93
  -3  -5   0   23.09    4.31
  -3  -5   0   34.68    6.90
  -2   5   0  540.68   47.40
  -2   5   0  524.59   28.43
  -2  -5   0  592.89   22.54
  -2   5   0  569.85   34.38
  -2  -5   0  628.77   27.69
  -2   5   0  616.41   26.01
  -2  -5   0  547.39   23.82
  -2  -5   0  624.68   31.89
  -2   5   0  537.22   24.11
  -1   5   0  152.53   10.68
  -1  -5   0  142.82   12.70
  -1   5   0  131.84   12.93
  -1  -5   0  164.94   10.50
  -1  -5   0  148.82   14.43
  -1  -5   0  170.42    9.99
  -1  -5   0  130.81   12.39
  -1   5   0  126.45   15.00
   0  -5   0  947.79   36.21
   0   5   0  840.40   29.72
   0  -5   0  902.65   33.53
   0   5   0  790.36   56.64
   0  -5   0  940.54   31.00
   0   5   0  803.05   25.78
   0  -5   0  941.62   29.52
   0  -5   0  894.57   38.28
   1  -5   0  186.67   11.22
   1  -5   0  174.58   11.69
   1   5   0  163.26   10.32
   1  -5   0  142.58   13.88
   1  -5   0  131.96   13.07
   1  -5   0  155.75   12.30
   1   5   0  129.61   23.14
   1   5   0   92.27   16.60
   2  -5   0  661.19   23.64
   2  -5   0  594.08   30.91
   2   5   0  594.38   22.99
   2  -5   0  588.36   31.74
   2  -5   0  696.61   32.49
   2  -5   0  678.64   25.84
   2   5   0  495.38   43.94
   2  -5   0  645.93   27.46
   2   5   0  495.84   42.06
   3   5   0   43.44    5.46
   3  -5   0   56.01    7.10
   3  -5   0   53.50    7.94
   3  -5   0   33.00    8.45
   3   5   0   23.85    5.96
   3  -5   0   40.06    9.55
   3   5   0   35.81   13.52
   3  -5   0   39.78    8.71
   3   5   0   26.34   12.59
   3  -5   0   14.10    3.05
   4  -5   0  373.46   26.28
   4   5   0  388.55   19.91
   4   5   0  298.52   33.00
   4   5   0  290.12   38.58
   4   5   0  382.62   21.71
   4  -5   0  467.58   26.32
   4  -5   0  346.20   12.15
   4   5   0  387.57   17.43
   4  -5   0  414.03   21.48
   5  -5   0   68.70    6.81
   5   5   0   87.30    9.29
   5  -5   0   68.78   12.71
   5   5   0   39.87    8.65
   5   5   0   55.97   20.37
   5   5   0   98.73    8.61
   5  -5   0   70.42    7.95
   6   5   0  209.90   36.92
   6   5   0  382.31   20.22
   6  -5   0  303.00   16.83
   6  -5   0  365.77   28.52
   6   5   0  403.20   18.14
   7  -5   0   64.99    7.99
   7  -5   0   57.12   11.16
   7   5   0   98.60    9.78
   7   5   0   69.71    9.60
   7  -5   0   69.91   14.30
   7   5   0   36.22   19.46
   8  -5   0  175.52   13.79
   8   5   0  229.15   17.19
   8   5   0  251.58   16.33
   8   5   0  129.98   32.30
   8  -5   0  159.71   19.76
   8  -5   0  223.98   24.35
   9   5   0    2.05   13.87
   9   5   0   17.74    6.43
  10   5   0   93.06   11.60
  -9   6   0   31.01   16.69
  -8   6   0   87.32   22.93
  -7   6   0   58.52   14.95
  -7  -6   0   79.71    9.53
  -7  -6   0   84.86   10.39
  -7   6   0   59.34   20.94
  -6  -6   0  144.96   12.31
  -6   6   0  145.15   28.73
  -6  -6   0  142.76   13.86
  -6   6   0  110.80   18.96
  -5  -6   0  103.27   10.31
  -5   6   0   80.83   22.42
  -5  -6   0  118.45   11.69
  -5   6   0   75.58   12.98
  -5   6   0   86.94   16.62
  -4   6   0  180.60   18.39
  -4  -6   0  212.98   11.61
  -4   6   0  206.81   32.87
  -4   6   0  191.01   22.94
  -4  -6   0  231.51   14.85
  -3   6   0   99.90   12.96
  -3  -6   0   69.03    7.53
  -3   6   0  112.84   16.93
  -3   6   0   79.64   21.77
  -3   6   0  121.14   11.37
  -2   6   0  183.58   30.53
  -2   6   0  223.85   22.70
  -2   6   0  238.91   19.25
  -2  -6   0  285.61   19.87
  -2   6   0  229.93   15.43
  -2  -6   0  235.47   15.25
  -1  -6   0  171.86   15.43
  -1   6   0  179.28   12.97
  -1  -6   0  217.55   12.45
   0  -6   0  257.28   18.54
   0   6   0  230.00   13.44
   0   6   0  213.89   13.51
   0  -6   0  258.04   13.88
   0  -6   0  241.37   16.41
   0   6   0  225.26   32.57
   0   6   0  205.69    8.79
   1   6   0  138.88   16.73
   1   6   0  146.84   27.11
   1  -6   0  209.29   12.83
   1  -6   0  173.51   13.95
   1  -6   0  168.24   16.14
   1   6   0  195.81   12.54
   2  -6   0  297.88   22.04
   2  -6   0  259.92   21.63
   2  -6   0  266.16   17.74
   2   6   0  248.68   26.93
   2  -6   0  267.76   15.62
   2   6   0  250.75   14.44
   2   6   0  198.76   29.98
   3   6   0  100.41   21.36
   3  -6   0  135.53   17.23
   3  -6   0  140.90   13.76
   3   6   0  152.22   10.99
   3  -6   0  132.20   16.20
   4   6   0  212.72   31.16
   4  -6   0  286.96   21.43
   4   6   0  203.28   30.02
   4   6   0  253.51   14.69
   4  -6   0  236.89   22.17
   4   6   0  243.76   17.39
   5  -6   0   85.64   14.55
   5   6   0  112.82   10.03
   5  -6   0  101.19    9.97
   5   6   0   58.64   16.89
   5   6   0   63.79   20.19
   6  -6   0  134.63   18.45
   6   6   0  172.23   14.85
   6   6   0  155.57   11.98
   6  -6   0  121.05   11.02
   6   6   0   92.52   25.05
   7  -6   0   62.00   13.98
   7   6   0   78.70   10.77
   7   6   0   97.98   10.03
   7  -6   0   57.15    7.99
   8   6   0   82.83    9.87
   8   6   0   46.06   20.12
   8  -6   0   51.77    7.88
   9   6   0   30.51   17.33
   9   6   0   55.73    8.90
  -6   7   0   49.93   11.90
  -6   7   0   80.27   24.24
  -5   7   0   59.39   15.50
  -5  -7   0   92.04   11.52
  -5  -7   0   75.21    9.73
  -5   7   0   44.38   10.78
  -5   7   0   60.37   22.37
  -4   7   0   46.86   10.51
  -4  -7   0   66.83    8.79
  -4  -7   0   72.56   12.05
  -4   7   0   49.45   13.67
  -4   7   0   49.87   19.72
  -3   7   0   61.31   11.48
  -3   7   0   84.29   16.30
  -3  -7   0   67.77   11.56
  -2  -7   0   76.63    9.35
  -2   7   0   66.91   21.13
  -2   7   0   98.18   16.59
  -2   7   0   82.90    9.86
  -2  -7   0   98.68   13.08
  -1   7   0  102.05   10.55
  -1  -7   0   92.32   12.42
   0   7   0  119.01   11.03
   0   7   0  109.83   26.37
   0  -7   0  159.98   16.29
   1   7   0  112.76   10.51
   1  -7   0  103.68   14.04
   2   7   0   63.77   20.05
   2  -7   0   95.95   14.70
   2   7   0   94.63    9.61
   2  -7   0  107.28   15.35
   2   7   0   80.17   12.05
   3  -7   0   73.60   14.90
   3   7   0   76.69    8.68
   3   7   0   64.96   14.88
   3  -7   0   67.97   13.13
   3   7   0   57.95   19.97
   4   7   0   44.85   17.19
   4   7   0   81.41    9.03
   4   7   0   53.08   14.85
   4  -7   0   63.52   12.93
   5   7   0   64.18   18.28
   5  -7   0   66.87    8.59
   5  -7   0   65.92   14.12
   5   7   0   91.66    9.60
   5   7   0   41.10   17.31
   6   7   0   69.62    8.82
   6  -7   0   57.60    8.25
   6   7   0   53.05   18.42
   7  -7   0   40.43    7.26
   7   7   0   59.72    8.78
   7   7   0   25.04   16.29
  -3  -8   0   69.36   13.03
  -2   8   0   54.93    9.24
  -2  -8   0   71.06   12.45
  -1   8   0  116.56   12.16
  -1  -8   0  105.22   14.99
   0   8   0   66.68    9.32
   0  -8   0   67.42   12.99
   1   8   0  115.78   11.46
   1  -8   0   96.84   15.60
   2   8   0   65.09    8.84
   2  -8   0   70.25   14.79
   3   8   0   84.20    9.92
   3  -8   0   70.69   16.17
   4   8   0   54.32    8.46
   5   8   0   77.46    9.83
 -11   0   1  236.71   28.14
 -11   0  -1  276.32   18.60
 -11   0   1  256.76   19.15
 -10   0   1    2.55    7.86
 -10   0  -1    0.31    3.98
 -10   0  -1    3.78    7.30
 -10   0   1   -0.72    3.92
  -9   0   1  449.85   24.08
  -9   0  -1  433.90   21.29
  -9   0  -1  415.41   21.87
  -9   0   1  372.21   32.37
  -8   0   1    0.86    3.31
  -8   0   1   -1.41    5.21
  -8   0  -1    1.52    3.26
  -8   0   1    0.58    4.71
  -8   0   1   -0.30    3.33
  -8   0  -1    0.24    2.80
  -7   0   1  933.30   34.61
  -7   0  -1  950.46   32.36
  -7   0   1  836.07   35.36
  -7   0  -1  884.57   32.54
  -6   0   1   -0.47    2.40
  -6   0   1    0.45    3.72
  -6   0  -1    0.20    2.19
  -6   0   1   -1.36    2.93
  -5   0  -1 2096.38   56.18
  -5   0   1 1930.87   58.64
  -5   0   1 2089.76   58.50
  -4   0   1   -0.31    2.63
  -4   0   1   -0.16    1.45
  -4   0  -1    0.13    1.28
  -4   0  -1   -0.39    3.71
  -4   0   1   -0.36    1.64
  -3   0   1 2992.68   73.79
  -3   0   1 2737.27   79.09
  -3   0   1 2899.21   74.00
  -2   0   1    0.62    0.91
  -2   0   1   -0.38    3.68
  -2   0   1   -0.15    1.40
  -2   0   1    0.54    0.87
  -2   0  -1   -0.33    3.39
  -1   0   1 2765.66   63.42
  -1   0   1 2304.85   57.33
  -1   0   1 2144.81   56.00
  -1   0   1 2429.00   56.56
  -1   0   1 2486.20   56.15
  -1   0   1 2220.85   57.98
  -1   0  -1 2042.68   67.28
   1   0   1 2371.92   64.87
   1   0  -1 2649.05   68.55
   2   0   1    0.51    0.78
   2   0   1    1.40    1.02
   2   0  -1   -0.10    1.17
   2   0  -1   -0.17    1.10
   2   0   1    0.08    0.88
   3   0  -1 3778.62  114.20
   3   0   1 3545.54   85.77
   3   0   1 3194.86   85.67
   3   0  -1 3935.79   91.10
   3   0   1 3233.20   85.03
   4   0  -1    2.46    5.90
   4   0  -1   -0.25    2.56
   4   0   1    0.60    1.56
   4   0   1    1.71    1.53
   4   0   1   -1.19    7.46
   4   0   1   -0.47    1.68
   5   0  -1 2196.67   99.94
   5   0  -1 2220.16   69.70
   5   0   1 2173.55   62.41
   5   0   1 2424.32   63.68
   5   0   1 2278.27   63.19
   5   0  -1 2244.66   62.69
   6   0   1    1.64    9.03
   6   0  -1    2.28    3.23
   6   0  -1   -0.23    2.70
   6   0   1   -0.24    2.52
   6   0   1    1.88    2.99
   6   0   1   -0.23    2.61
   6   0  -1    0.38    3.61
   6   0  -1    1.24    7.15
   7   0  -1  978.24   38.70
   7   0   1  485.74   57.11
   7   0   1  961.33   36.89
   7   0  -1  682.22   37.67
   7   0   1  950.78   36.06
   7   0  -1  608.85   56.46
   7   0   1  982.07   35.70
   7   0  -1 1073.35   36.97
   7   0   1 1215.14   40.47
   8   0   1   -0.82    5.14
   8   0  -1    0.48    3.84
   8   0   1   -0.33    3.32
   8   0  -1   -1.56    8.14
   8   0   1    0.87    3.56
   8   0   1   -1.84    9.06
   8   0   1    0.31    3.68
   8   0  -1   -1.20    3.77
   8   0  -1    3.30    4.25
   9   0   1  519.24   26.19
   9   0   1  514.27   26.95
   9   0   1  198.70   37.24
   9   0  -1  239.04   37.99
   9   0  -1  475.52   26.97
  10   0   1   -0.38    4.63
  10   0  -1    2.22    4.83
  10   0   1   -0.40    4.26
  10   0   1    1.95   10.22
  11   0  -1  297.46   22.64
  11   0   1  317.46   22.06
  11   0   1  307.99   22.06
  12   0  -1    1.49    6.24
  12   0   1    1.37    5.61
 -11  -1   1  192.96   16.34
 -11   1   1  201.87   26.47
 -11   1  -1  214.33   16.77
 -11   1   1  205.96   17.64
 -11  -1   1  166.05   22.89
 -11  -1  -1  184.32   14.99
 -10  -1  -1    4.77    7.61
 -10   1   1    4.60    7.36
 -10   1  -1    5.27    4.67
 -10  -1   1    6.85    4.89
 -10  -1   1   12.85   11.57
 -10  -1   1    5.27    5.10
 -10   1   1    5.68    5.20
 -10  -1  -1    4.51    4.03
  -9   1  -1  492.86   23.36
  -9  -1  -1  748.07   41.92
  -9   1   1  405.27   35.43
  -9   1  -1  458.54   23.91
  -9  -1   1  459.27   26.02
  -9   1   1  509.69   26.67
  -9  -1  -1  445.85   23.06
  -9  -1   1  706.28   47.71
  -8   1   1    5.17    5.97
  -8   1   1    5.72    4.08
  -8   1   1    1.54    5.86
  -8   1  -1    7.78    3.78
  -8   1   1    5.03    4.00
  -8  -1   1    7.46    3.92
  -8  -1   1    4.14    4.61
  -8   1  -1    7.30    3.85
  -8  -1  -1    6.08    3.75
  -8  -1   1   -2.09   13.66
  -8  -1  -1    3.84    6.61
  -7   1  -1 1415.94   46.48
  -7   1   1 1426.47   91.91
  -7  -1   1 1496.17  101.41
  -7   1   1 1442.76   48.91
  -7   1   1 1187.58   60.97
  -7  -1   1 1372.40   48.11
  -7  -1   1 1253.41   53.43
  -7   1   1 1524.38   48.92
  -7  -1  -1 1379.88   45.42
  -7   1  -1 1529.73   46.18
  -7   1   1 1255.69   58.47
  -6  -1   1   10.27   11.96
  -6   1   1   26.02    7.40
  -6   1  -1   26.70    4.92
  -6   1   1   22.23    4.89
  -6  -1  -1   22.12    7.26
  -6   1   1   16.93    7.10
  -6   1   1   27.34    5.36
  -6  -1   1   27.63    5.15
  -6  -1   1   20.95    5.76
  -6  -1   1   31.94    5.36
  -6   1   1   29.71   14.61
  -6   1  -1   30.25    4.76
  -6  -1  -1   14.65    5.35
  -5   1   1 1824.53   54.80
  -5   1  -1 1874.03   51.92
  -5  -1  -1 1428.87   57.05
  -5   1   1 1570.59   66.05
  -5   1   1 1595.75   63.73
  -5   1  -1 1895.27   52.72
  -5  -1   1 1911.05   53.82
  -5   1   1 2290.44  101.45
  -5  -1  -1 1751.03   51.32
  -5  -1   1 2237.08  111.70
  -5  -1  -1 2564.62   72.70
  -5  -1   1 1974.77   54.53
  -4   1  -1  152.40    8.95
  -4  -1   1  148.43    8.93
  -4   1  -1  146.30    8.49
  -4  -1  -1  114.68   12.52
  -4   1   1  116.28   12.55
  -4   1   1  110.46   18.45
  -4   1   1  147.51    9.90
  -4  -1  -1  154.89    9.00
  -4   1   1  117.20   13.14
  -3   1  -1 1666.19   45.36
  -3  -1   1 1803.03   45.35
  -3   1   1 1659.17   55.51
  -3  -1   1 1449.89   52.97
  -3  -1   1 2352.52   93.22
  -3  -1  -1 1966.12   57.43
  -3  -1  -1 1679.69   45.84
  -3   1   1 1698.97   57.33
  -3   1   1 2178.10   71.63
  -3  -1   1 1823.10   45.92
  -3   1  -1 1578.71   44.71
  -2  -1   1  148.26   19.39
  -2   1  -1  115.21    9.86
  -2   1  -1  118.73   10.27
  -2  -1  -1  138.84   11.38
  -2   1  -1  158.33   11.83
  -2   1  -1  209.05    7.46
  -2  -1   1   77.38    7.05
  -2  -1   1  173.35   14.67
  -2   1   1  186.23    8.84
  -2   1   1  178.90   11.81
  -2  -1   1  184.74    7.12
  -2  -1   1   62.44    6.86
  -2   1   1  159.30   10.83
  -2  -1   1  203.23    8.50
  -2  -1   1  210.72    9.49
  -2   1   1  201.17    8.41
  -2  -1   1  191.13    7.39
  -1  -1   1 5299.17  129.90
  -1   1   1 5388.31  132.44
  -1  -1   1 5400.72  131.35
  -1   1  -1 5316.21  131.98
  -1  -1   1 6763.97  132.42
  -1  -1   1 5013.64  127.46
  -1  -1   1 5529.46  144.11
  -1   1   1 5150.35  131.29
  -1  -1   1 6329.24  130.56
  -1  -1   1 6885.19  149.60
  -1   1  -1 5668.38  133.44
  -1   1   1 5216.44  129.09
   0  -1   1   96.86    3.38
   0   1   1   73.18    3.61
   0   1  -1   78.87    4.94
   0  -1   1   73.27    4.62
   0  -1   1   46.26    6.86
   0   1   1   74.52    4.95
   0   1  -1   73.88    4.72
   0   1   1   94.61    4.23
   0  -1  -1   96.87    4.20
   0  -1   1   77.76    4.96
   0   1  -1   91.36    3.57
   0  -1   1  130.32   14.38
   0  -1   1   75.03    4.90
   0  -1   1   77.93    4.76
   1   1  -1 4791.77  120.58
   1  -1   1 5758.99  127.73
   1   1   1 5543.38  133.05
   1  -1   1 5962.14  133.93
   1  -1   1 6166.74  128.40
   1  -1  -1 5312.29  123.71
   1   1   1 4873.75  121.94
   1  -1  -1 5891.63  128.69
   1  -1  -1 5551.58  121.51
   1  -1   1 5517.62  127.76
   2   1   1  108.14    9.30
   2  -1  -1  196.49    8.75
   2   1  -1   91.98    7.28
   2  -1   1  197.09    7.02
   2  -1   1  194.79   11.75
   2   1  -1  199.93    9.33
   2  -1  -1  205.96    8.04
   2  -1  -1  161.15   11.75
   2   1   1  190.81    7.27
   2  -1   1  198.47   12.19
   2   1   1  193.74    7.32
   2  -1   1  275.58   22.95
   2  -1   1  202.95    6.94
   3   1  -1 1720.28   53.21
   3  -1  -1 1633.48   49.10
   3  -1   1 1335.54   73.34
   3  -1  -1 1984.96   52.76
   3   1   1 2003.11   49.88
   3  -1  -1 1895.20   65.56
   3  -1   1 1987.39   49.55
   3  -1   1 2198.88   61.79
   3  -1  -1 1734.07   50.98
   3   1  -1 1777.63   52.58
   3   1   1 1975.13   49.75
   3   1  -1 1930.35   54.48
   4  -1   1  164.80   14.43
   4  -1   1   78.67   17.40
   4   1   1  156.33    8.79
   4   1  -1   59.69    7.79
   4   1  -1  168.44   11.05
   4   1  -1   46.10    7.26
   4   1   1  153.26    8.69
   4  -1   1  199.12   22.78
   4   1   1  175.47   10.39
   4  -1   1  157.47   10.26
   4  -1  -1  153.85    8.87
   5   1   1 2069.76   58.64
   5   1   1 2154.01   59.23
   5   1   1 1209.42   91.25
   5  -1   1 2303.82   63.06
   5  -1  -1 2045.29   58.81
   5   1  -1 2116.09   67.23
   5   1  -1 2084.68   63.39
   5   1   1 2191.01   61.87
   5   1  -1 2430.57   63.48
   5  -1   1 1096.95   81.70
   5  -1  -1 1933.72   63.30
   5  -1   1 2428.96   74.89
   5   1  -1 2044.07   65.84
   5  -1  -1 1879.89   63.71
   5  -1   1 2967.07   96.50
   6  -1  -1   20.11    5.42
   6   1  -1   36.14    6.63
   6   1   1   29.69    4.92
   6   1  -1    8.86    5.65
   6   1   1   27.56    4.93
   6   1  -1   43.65    6.86
   6  -1   1   31.39   10.69
   6   1  -1   10.85    5.26
   6  -1   1   25.48    4.78
   6   1   1   27.18    5.58
   6  -1   1   30.96    5.78
   6   1   1   30.51    5.46
   6   1   1   23.27   14.32
   6  -1   1   35.87    8.39
   6  -1   1    9.77    9.76
   6  -1  -1   42.41    8.21
   6  -1  -1    5.36    4.36
   7   1   1 1577.57   49.31
   7   1  -1 1173.70   53.60
   7  -1   1 1750.61   52.97
   7  -1   1  659.49   66.76
   7   1  -1 2495.29   66.27
   7  -1   1 1469.41   49.53
   7  -1   1 1597.35   49.21
   7  -1  -1 1953.70   56.87
   7   1  -1 1473.81   58.14
   7   1   1 1716.56   51.87
   7   1   1  802.02   78.39
   7  -1   1 1953.97   70.75
   7   1   1 1592.91   53.54
   7   1  -1 1648.27   55.46
   7   1   1 1558.02   50.13
   7  -1  -1 1306.83   52.67
   7  -1  -1  996.30   50.50
   8   1   1    6.16    4.56
   8  -1  -1    1.84    4.17
   8   1  -1    6.22    6.14
   8   1   1    8.18    4.03
   8  -1  -1    2.89    4.32
   8   1  -1    1.96    4.09
   8  -1   1    7.65    4.07
   8   1   1    2.04    9.41
   8   1   1    3.94    4.10
   8   1   1    1.23    4.92
   8  -1   1    9.89   11.14
   8   1  -1   12.75    6.14
   8  -1  -1    5.63    3.83
   8  -1   1    8.42    4.05
   8   1  -1    6.38    4.92
   8  -1   1    3.75    3.89
   9   1   1  559.42   26.62
   9  -1   1  291.06   41.46
   9   1  -1  445.81   30.83
   9   1  -1  245.27   39.23
   9  -1  -1  492.42   26.20
   9   1   1  240.38   42.30
   9   1  -1  533.68   29.09
   9  -1   1  527.38   25.69
   9   1   1  558.56   28.48
  10  -1   1   -1.75    9.68
  10   1  -1    7.55   11.41
  10   1   1    8.81    5.98
  10  -1   1    9.70    6.17
  10   1   1   -2.12   10.45
  10  -1   1    8.92    5.27
  10  -1  -1   10.73    5.94
  10   1  -1    6.17    5.80
  10   1   1   10.96    6.54
  11  -1   1  105.18   27.44
  11   1   1  264.02   19.95
  11  -1   1  218.25   17.83
  11   1  -1  243.16   20.91
  11  -1  -1   74.89   22.65
  11  -1  -1  233.65   19.20
  11   1   1  110.74   29.86
  11  -1   1  277.80   20.21
  12  -1   1    4.57    5.02
  12  -1  -1    4.15    5.68
 -11   2  -1  180.36   23.21
 -11   2   1  147.86   23.90
 -11  -2  -1  194.69   15.10
 -11  -2   1  185.30   16.85
 -11  -2  -1  177.18   16.28
 -10  -2  -1    1.55    8.24
 -10   2   1    4.48    5.69
 -10   2   1    4.72    7.72
 -10   2  -1    4.00    6.78
 -10  -2   1    2.30    4.23
 -10  -2  -1    2.14    3.85
 -10  -2   1    1.09    9.54
  -9  -2   1  623.31   47.49
  -9   2  -1  349.58   20.60
  -9  -2   1  364.24   21.86
  -9  -2  -1  600.27   39.88
  -9  -2  -1  321.08   19.21
  -9   2   1  286.42   30.16
  -8   2  -1   43.52    6.99
  -8  -2   1   44.30    7.12
  -8  -2  -1   35.49   11.52
  -8   2   1   34.66    7.01
  -8   2   1   29.76   10.45
  -8   2   1   33.49   17.06
  -8  -2   1   34.50   14.30
  -8  -2   1   41.35    7.15
  -7   2  -1  730.12   28.69
  -7   2   1  512.40   35.24
  -7  -2   1  672.44   28.07
  -7   2  -1  642.15   40.08
  -7  -2   1  677.07   28.39
  -7  -2  -1 1237.87   55.39
  -7  -2   1 1088.40   59.53
  -7  -2  -1  568.16   28.80
  -7   2   1  480.61   36.89
  -6  -2   1   63.32   14.80
  -6  -2   1   45.10    7.31
  -6  -2  -1   68.20   13.20
  -6  -2   1   73.88    7.41
  -6   2   1   54.53   17.44
  -6   2   1   49.95   10.32
  -6   2   1   50.67   11.01
  -6  -2   1   58.34   21.60
  -6   2   1   40.86    8.14
  -6  -2  -1   82.25    7.86
  -6   2  -1   28.61    8.43
  -6   2  -1   34.30    9.18
  -5  -2  -1 1407.72   38.47
  -5  -2   1 1257.32   38.02
  -5  -2   1  814.70   42.04
  -5  -2   1 1380.62   87.68
  -5   2   1  899.24   39.32
  -5   2   1 1440.06   72.85
  -5  -2  -1 1902.69   64.96
  -5   2   1  938.23   45.65
  -5   2  -1  662.70   42.20
  -5  -2   1 1216.17   36.32
  -5   2  -1 1755.82   61.57
  -5  -2   1 1635.28   68.77
  -5  -2   1 1211.72   35.27
  -5   2  -1  749.63   42.68
  -5   2   1 1000.78   48.89
  -5   2  -1 1524.48   79.57
  -4  -2  -1    1.59    1.72
  -4  -2   1    6.65    8.69
  -4   2   1    6.59    3.89
  -4   2   1    5.66    2.66
  -4   2   1    3.65    3.46
  -4  -2   1    4.79    5.60
  -4  -2   1    4.51    2.01
  -4  -2  -1    2.70    4.99
  -4   2   1    5.70    4.33
  -4  -2   1    9.43    2.82
  -4  -2   1    5.86    2.16
  -4   2  -1    1.55    4.43
  -4  -2   1    6.73    2.79
  -4   2  -1    3.71    3.72
  -4   2   1    7.54    6.44
  -4   2  -1   -0.39    3.00
  -4   2  -1    2.76    6.01
  -3   2   1 1582.47   47.54
  -3  -2   1 1857.33   70.68
  -3   2   1 1108.23   49.91
  -3   2  -1 1879.03   65.42
  -3  -2   1 1975.41   56.95
  -3  -2   1 1635.57   44.40
  -3   2   1 1544.63   55.19
  -3   2   1 1747.48   46.01
  -3   2  -1 1263.13   50.52
  -3  -2   1 1767.61   48.12
  -3   2  -1 1643.51   70.08
  -3   2  -1 1638.24   52.85
  -3  -2  -1 2179.50   69.13
  -3  -2   1 1864.39   47.76
  -3   2   1 1836.24   62.57
  -3  -2   1 1611.72   47.39
  -3  -2   1 1462.50   79.84
  -3  -2   1 1637.76   43.97
  -3   2   1 1586.43   54.27
  -2  -2   1   28.20    4.07
  -2  -2   1   40.28   11.32
  -2  -2   1   65.21    4.96
  -2   2   1   51.41    6.70
  -2  -2  -1   50.44    9.29
  -2   2   1   49.92    6.30
  -2  -2   1   22.51    4.58
  -2   2  -1   59.65    6.40
  -2   2   1   46.89    5.63
  -2  -2   1   69.39    5.72
  -2  -2   1   62.34    4.35
  -2   2  -1   54.21    9.55
  -2   2  -1   44.40    5.82
  -1  -2   1 2210.82   57.88
  -1   2   1 2307.75   66.83
  -1  -2   1 2251.41   59.39
  -1   2   1 2330.74   63.29
  -1   2   1 2348.35   62.35
  -1  -2  -1 2509.42   60.31
  -1  -2   1 2325.45   65.54
  -1  -2   1 2508.87   82.11
  -1   2  -1 2655.31   66.51
  -1   2  -1 2582.26   65.44
  -1  -2   1 2758.14   64.66
  -1   2  -1 2816.14   66.38
  -1   2  -1 2624.35   62.25
   0  -2   1  265.86   13.33
   0  -2  -1  475.89   15.36
   0  -2  -1  597.31   15.19
   0   2   1  397.65   25.52
   0   2  -1  501.76   17.39
   0   2   1  466.03   18.52
   0   2  -1  546.05   14.12
   0  -2   1  459.27   17.97
   0   2   1  452.16   15.16
   0  -2   1  409.20   25.69
   0  -2  -1  514.92   15.86
   0  -2   1  601.99   13.70
   0  -2   1  558.03   14.93
   1   2   1 2407.39   81.81
   1  -2  -1 2579.00   65.35
   1   2  -1 2621.15   63.31
   1  -2  -1 2850.73   66.81
   1  -2   1 2669.80   82.96
   1  -2  -1 3196.42   70.45
   1   2   1 2830.37   70.33
   1   2  -1 2772.80   87.95
   1  -2   1 2252.25   69.47
   1   2  -1 3378.72   84.13
   1   2   1 2433.96   65.02
   1  -2   1 2484.21   65.70
   2   2   1   62.32    4.53
   2  -2  -1   67.30    5.66
   2  -2  -1   62.93    5.05
   2  -2   1   56.37    7.35
   2  -2   1   58.75    6.89
   2  -2  -1   54.34    6.41
   2   2  -1   42.46   10.42
   2  -2   1   72.84    7.93
   2  -2   1   69.81    6.01
   2  -2   1   58.00    7.05
   2   2  -1   65.02    3.82
   2   2   1   37.52    7.66
   2   2  -1   38.37    8.46
   3  -2   1 1609.99   46.23
   3  -2   1 1766.53   67.18
   3   2   1 1160.37   73.09
   3  -2   1 1707.62   52.05
   3   2  -1 1854.83   51.30
   3   2   1 1569.87   59.82
   3  -2  -1 1715.62   47.39
   3  -2   1 1557.89   45.54
   3  -2  -1 2085.86   61.93
   3  -2   1 1816.35   58.60
   3  -2  -1 2001.18   47.75
   3  -2  -1 1768.28   49.25
   3   2   1 1726.34   47.17
   3   2   1 1829.00   44.01
   3  -2   1 1804.31   58.17
   3  -2  -1 1938.87   51.73
   3   2  -1 1921.68   83.18
   4   2   1    7.64    2.41
   4   2   1    2.46    1.85
   4  -2   1    6.64    3.31
   4   2  -1    2.82    2.78
   4  -2   1    8.51    4.62
   4  -2   1    6.80    6.18
   4   2  -1    1.39    2.18
   4  -2   1    5.64    1.99
   4  -2  -1    2.68    1.96
   4  -2  -1    2.60    2.10
   4  -2  -1   -0.18    2.24
   4   2   1    3.90    7.53
   4  -2   1    6.26    4.37
   4  -2  -1    2.95    4.20
   4  -2   1    7.00    2.25
   4  -2   1   11.55    8.40
   4   2  -1   -1.10    6.37
   5  -2   1 1472.36   46.25
   5   2   1 1377.35   42.54
   5  -2   1 1490.01   56.95
   5  -2  -1 1486.83   65.07
   5  -2  -1 1283.07   45.36
   5   2   1 1355.62   41.89
   5   2  -1 1384.54   48.97
   5   2  -1 1516.20   48.36
   5  -2   1 1293.48   40.74
   5   2  -1 1615.79   49.64
   5  -2  -1 1357.67   41.61
   5  -2   1 1048.38   64.86
   5   2  -1 1222.61   78.22
   5  -2  -1 1406.69   44.25
   5   2   1 1430.42   43.22
   6  -2   1   92.11   13.46
   6   2   1   99.85    8.91
   6  -2  -1   10.08    5.05
   6  -2  -1   69.07   14.55
   6  -2   1   86.67    7.61
   6   2   1   47.23    7.23
   6  -2  -1   84.73    7.72
   6   2  -1   25.27    7.03
   6   2  -1   50.96    8.41
   6  -2   1   31.62   12.37
   6   2  -1   44.51   17.02
   6   2  -1   93.14   10.56
   6  -2   1  106.73   20.68
   6  -2   1   93.31    9.60
   6   2   1   90.73    8.21
   7  -2   1 1106.61   63.61
   7  -2  -1  805.26   29.46
   7  -2  -1 1201.32   51.70
   7   2  -1  913.94   37.65
   7   2  -1  905.20   37.58
   7  -2   1  849.77   33.70
   7  -2   1  379.49   42.79
   7   2   1  811.83   30.27
   7  -2  -1  518.28   30.34
   7   2  -1  433.11   51.48
   7  -2   1  872.32   44.25
   7   2   1  416.32   32.85
   7  -2  -1  748.19   35.12
   7   2   1  852.86   34.04
   7   2   1  780.73   30.84
   7  -2  -1  665.02   49.16
   7   2  -1  665.64   34.45
   8  -2   1   44.76   11.50
   8  -2   1   38.83    6.39
   8  -2  -1    6.21    4.55
   8  -2  -1   38.97   11.71
   8   2   1   53.15    7.94
   8  -2   1   15.30   11.65
   8   2  -1   52.89    9.54
   8   2  -1   19.09    7.33
   8  -2   1   61.07   16.31
   8   2   1   20.03    6.59
   8   2  -1   15.83   13.03
   8  -2  -1   15.68   10.72
   9  -2   1  355.48   20.40
   9  -2  -1  192.20   29.62
   9  -2   1  150.70   28.69
   9   2  -1  451.78   28.19
   9   2   1  436.60   25.91
   9   2  -1  196.87   36.76
   9  -2  -1  132.96   15.86
   9   2   1  395.84   22.38
   9  -2   1  501.49   36.42
   9   2  -1  437.64   26.99
   9  -2  -1  505.82   29.78
  10   2   1    1.95    5.88
  10  -2   1    7.92    4.84
  10  -2  -1    1.35    8.48
  10   2   1    5.78    5.34
  10   2  -1    5.01    6.87
  10   2  -1    5.10    5.77
  10   2  -1    3.90   11.78
  11   2  -1  119.04   30.58
  11   2   1  239.26   19.11
  11  -2  -1   85.94   21.92
  11  -2   1  203.43   16.38
  11  -2  -1  217.10   17.98
 -11   3  -1  100.48   15.86
 -10   3   1    8.83    5.21
 -10  -3   1   33.49    7.40
 -10   3  -1   22.65    8.51
 -10   3  -1   25.70   11.48
 -10   3   1   19.84   10.54
 -10  -3   1   23.37    6.59
 -10  -3  -1   31.11    6.80
  -9  -3   1  473.58   44.27
  -9  -3  -1  461.71   38.45
  -9  -3   1  268.51   17.81
  -9   3   1  115.74   13.92
  -9   3  -1  148.73   17.94
  -9  -3   1  278.59   17.89
  -9   3  -1  346.18   31.22
  -9   3   1  209.87   26.22
  -8  -3   1   26.63    5.80
  -8   3   1    8.25    4.66
  -8   3   1   17.76    8.36
  -8   3  -1   11.56    5.85
  -8  -3   1   32.11   14.57
  -8   3   1   17.20   14.44
  -8   3  -1   27.91   11.10
  -8  -3  -1   32.42   13.03
  -7   3   1  323.65   28.92
  -7   3  -1  317.14   25.85
  -7   3   1  428.95   24.92
  -7   3   1  483.28   36.65
  -7  -3   1  646.76   25.62
  -7  -3  -1  679.85   26.37
  -7  -3  -1 1136.54   58.48
  -7  -3   1 1008.60   60.78
  -7   3   1  650.72   56.18
  -7  -3   1  504.89   30.42
  -7   3  -1  931.25   50.55
  -6   3  -1   29.28    8.15
  -6   3   1   20.03    7.03
  -6  -3   1   61.15    6.41
  -6   3   1   47.09   10.30
  -6  -3  -1   94.27   18.12
  -6   3  -1   67.09   14.36
  -6   3  -1   38.09    8.11
  -6  -3   1   64.54    6.95
  -6  -3   1   49.55   15.22
  -6   3   1   47.16   15.97
  -6  -3   1   26.42    9.48
  -6   3   1   50.37    7.27
  -6  -3   1   72.37    7.89
  -6   3   1   53.49   12.08
  -6  -3  -1   72.26    7.77
  -5  -3  -1 1505.31   43.70
  -5  -3   1 1110.72   34.56
  -5   3   1  565.50   36.77
  -5   3   1 1233.19   64.60
  -5   3  -1 1365.31   62.21
  -5   3  -1  852.04   39.42
  -5   3   1  934.73   45.06
  -5  -3   1 1143.46   33.53
  -5   3   1 1081.35   36.77
  -5  -3   1 1488.35   70.74
  -5   3  -1  552.01   36.53
  -5  -3  -1 1152.39   36.45
  -5  -3   1 1120.05   36.40
  -5  -3  -1 1648.66   69.22
  -5   3   1  917.34   46.84
  -4  -3   1  190.56   10.66
  -4   3  -1  159.04   21.43
  -4  -3   1  216.68   13.11
  -4   3  -1  108.42   12.37
  -4  -3  -1  194.23   11.77
  -4  -3   1  181.77    9.98
  -4   3   1  180.32   11.57
  -4   3   1  110.06   11.96
  -4   3   1  151.82   15.86
  -4  -3   1  178.16   23.79
  -4  -3  -1  182.22   11.01
  -4  -3   1  229.82   13.43
  -4   3  -1  157.63   13.69
  -4   3  -1  136.29   18.62
  -4  -3  -1  196.14   22.71
  -4   3   1  159.50   18.89
  -3   3   1 1413.87   51.91
  -3  -3   1 1318.47   37.53
  -3  -3   1 1409.63   42.10
  -3   3  -1 1287.10   61.77
  -3   3  -1 1016.61   42.83
  -3  -3  -1 1700.81   68.57
  -3  -3   1 1594.45   69.14
  -3   3  -1 1174.43   54.26
  -3   3   1 1091.14   42.85
  -3  -3   1 1657.03   52.58
  -3  -3   1 1334.75   38.15
  -3  -3   1 1297.60   40.19
  -3  -3   1 1337.59   39.86
  -3   3  -1 1285.02   44.30
  -3   3   1 1275.92   49.99
  -2   3  -1  152.39   11.14
  -2  -3   1  156.98    7.95
  -2   3  -1  111.53   16.92
  -2  -3   1   58.02    8.20
  -2   3   1  126.57   12.07
  -2   3  -1  156.10    9.68
  -2  -3   1   77.72    7.44
  -2  -3  -1  141.98   18.53
  -2   3   1  120.22    9.54
  -2   3   1  120.39    9.86
  -2  -3   1  137.20   11.38
  -2   3  -1  107.07    9.79
  -2  -3   1  168.39   10.10
  -2  -3  -1   82.68    4.92
  -1   3  -1 2158.56   63.98
  -1   3   1 2163.64   60.30
  -1  -3  -1 2172.81   57.59
  -1  -3  -1 2714.77   90.26
  -1  -3   1 2575.44   63.63
  -1   3   1 2118.84   61.52
  -1   3   1 2163.79   67.80
  -1   3  -1 2228.00   59.10
  -1  -3   1 2249.51   57.87
  -1  -3  -1 2375.31   61.32
  -1  -3   1 2271.93   66.26
  -1   3   1 1945.83   84.14
  -1  -3   1 2138.50   55.73
  -1  -3   1 2584.84   89.45
   0  -3   1  100.38    5.61
   0   3   1   34.02    3.64
   0   3   1   93.71    6.31
   0  -3   1   77.75    8.07
   0  -3  -1  114.31    6.66
   0  -3   1   97.23    6.39
   0   3   1   67.37   12.79
   0  -3   1   38.34    5.07
   0   3  -1   88.56    7.98
   0   3   1   78.97    8.64
   0  -3   1   73.08   12.50
   0   3  -1  104.92    6.08
   0  -3  -1   89.46    7.20
   1   3  -1 2238.72   58.07
   1  -3   1 2415.87   60.54
   1   3  -1 2247.89   87.33
   1   3   1 2368.64   61.12
   1  -3  -1 2390.54   61.37
   1  -3   1 2602.60   86.79
   1  -3  -1 2223.65   60.90
   1   3   1 2128.33   84.08
   1   3  -1 2559.23   77.68
   1  -3  -1 2639.45   66.19
   1  -3   1 2302.86   64.21
   1  -3   1 2146.80   66.48
   1   3   1 2165.60   59.67
   2  -3   1  122.96   11.15
   2   3   1  164.01    8.54
   2   3   1  161.17    8.76
   2  -3  -1  137.91   12.02
   2  -3  -1  178.39   10.17
   2  -3   1  182.39   10.07
   2   3   1   46.96    6.93
   2   3  -1  127.70   17.71
   2   3  -1   78.40    7.84
   2   3   1  102.78   14.91
   2  -3   1  157.26   11.33
   2   3  -1   90.84   15.63
   2  -3  -1  143.11    8.75
   2   3  -1  162.01    7.27
   2  -3   1  128.81   11.43
   3   3  -1 1195.25   67.59
   3   3   1  949.98   66.88
   3  -3   1 1403.95   43.90
   3  -3  -1 1375.90   47.37
   3   3  -1 1301.24   37.58
   3  -3   1 1353.80   49.81
   3   3   1 1524.53   49.26
   3  -3   1 1351.01   49.94
   3   3   1 1403.13   40.46
   3   3   1 1392.98   40.79
   3  -3  -1 1621.60   46.09
   3   3   1 1283.90   58.45
   3  -3  -1 1411.76   43.54
   3   3  -1 1412.21   45.43
   3  -3   1 1472.81   45.98
   3   3  -1 1191.24   60.11
   3  -3   1 1783.74   53.72
   4  -3  -1  182.38   16.37
   4  -3  -1  183.00   11.16
   4   3   1  206.35   10.94
   4   3   1  108.26   23.35
   4  -3   1  202.56   13.56
   4  -3  -1  188.20   10.20
   4   3   1  115.90   15.61
   4   3  -1  132.30   23.36
   4  -3  -1  224.04   13.74
   4  -3   1  181.63   16.37
   4   3  -1   71.34    9.73
   4   3   1   62.33   10.03
   4  -3   1  195.34   16.88
   4  -3   1  148.83   15.03
   4  -3   1  184.49    9.95
   4   3  -1  217.35    9.87
   4  -3   1  182.74    9.23
   4   3   1  216.44   11.35
   5  -3   1 1227.77   51.23
   5   3   1 1217.62   38.13
   5  -3  -1 1117.62   37.02
   5   3  -1 1188.79   44.19
   5   3   1  649.33   65.93
   5   3   1 1175.65   48.44
   5   3  -1  945.50   69.77
   5   3  -1 1304.28   42.26
   5  -3   1 1066.39   34.68
   5  -3  -1 1272.58   54.74
   5  -3  -1 1099.43   35.90
   5  -3  -1 1338.26   43.89
   5  -3   1 1296.80   52.20
   5  -3  -1 1086.82   37.95
   5  -3   1 1092.06   35.89
   5  -3   1 1884.96   83.93
   5  -3   1 1173.65   43.38
   6  -3   1   79.33   10.21
   6   3   1   48.45    5.81
   6   3   1   29.69   17.31
   6  -3  -1   50.66   12.03
   6  -3  -1   76.55    8.26
   6  -3   1   77.24   12.60
   6  -3   1   74.68    7.37
   6   3   1   73.34    7.93
   6  -3  -1   87.85   10.32
   6   3  -1   47.79   18.28
   6  -3   1   74.63    6.90
   6  -3   1  101.71   21.42
   6  -3  -1   14.63    4.87
   6  -3  -1   73.03    7.04
   6   3   1   19.52    7.71
   6   3  -1   49.72    8.03
   7   3  -1  481.98   54.14
   7  -3   1  785.22   43.29
   7   3   1  359.11   53.26
   7  -3   1  669.15   26.25
   7  -3   1  856.54   33.36
   7  -3  -1  628.33   44.34
   7   3   1  827.09   29.05
   7  -3   1 1053.67   65.70
   7  -3  -1  649.28   26.35
   7   3   1  776.98   30.30
   7   3  -1  794.34   33.56
   7  -3  -1  453.69   26.33
   8  -3   1   36.20   16.15
   8  -3   1   45.10   11.50
   8  -3  -1    5.39    3.92
   8   3   1   30.01    6.77
   8   3   1   18.65    5.63
   8   3  -1   10.91   11.45
   8   3   1   15.88   16.32
   8  -3  -1   29.50   11.79
   8  -3  -1   21.63   10.85
   8   3  -1   18.52    6.85
   9  -3   1  405.01   39.96
   9  -3  -1  368.41   33.72
   9  -3   1  326.69   28.41
   9   3  -1  325.24   22.67
   9   3  -1  139.11   31.45
   9  -3  -1  156.76   25.22
   9   3   1  326.94   20.23
   9   3   1  353.75   20.57
   9  -3  -1  115.03   13.27
   9   3   1  117.58   32.10
  10  -3   1   13.36   10.61
  10  -3  -1   10.85    9.65
  10   3  -1   29.59   16.87
  10   3   1   20.85   16.68
  10   3   1   40.90    8.40
  11  -3   1   84.38   20.38
  11  -3  -1   70.87   19.52
 -11   4   1   92.03   20.85
 -10   4  -1    3.83    5.31
 -10   4   1   17.08   12.72
 -10   4  -1    2.86    8.64
  -9  -4   1  193.86   14.80
  -9   4   1  253.55   31.98
  -9   4   1   92.01   18.04
  -9   4  -1   72.82   12.42
  -9   4   1   96.07   11.51
  -9   4  -1  233.12   28.40
  -9  -4  -1  347.96   36.53
  -8   4  -1   20.28    7.11
  -8  -4  -1   63.58   18.16
  -8   4   1   32.03    6.72
  -8   4  -1   49.78   15.46
  -8  -4   1   47.76    7.28
  -8   4   1   57.55   17.41
  -8   4   1   37.98   11.72
  -7   4  -1  581.09   43.85
  -7  -4   1  371.35   19.33
  -7  -4   1  617.12   51.13
  -7   4   1  308.73   19.65
  -7  -4   1  249.40   27.59
  -7  -4   1  376.29   20.38
  -7  -4  -1  704.05   51.02
  -7   4   1  378.17   41.71
  -7   4  -1  257.24   20.97
  -7  -4  -1  421.48   21.04
  -7   4   1  270.39   27.27
  -7   4   1  462.58   42.28
  -6   4   1  104.53   21.19
  -6   4  -1  122.55   21.69
  -6  -4   1  107.54   23.25
  -6   4   1  104.91   10.48
  -6  -4   1  112.67    9.73
  -6   4  -1   71.62   10.53
  -6  -4  -1  139.83   12.08
  -6   4   1   52.35   10.30
  -6  -4  -1  119.15   23.03
  -6   4   1  101.62   21.48
  -6   4   1   77.74   14.11
  -6  -4   1  124.75   10.98
  -5   4  -1  503.89   27.77
  -5   4   1  637.08   44.96
  -5  -4  -1  913.53   55.73
  -5   4  -1  716.81   49.30
  -5   4  -1  353.58   25.83
  -5   4   1  602.31   47.43
  -5  -4   1  601.49   25.57
  -5  -4   1  576.61   23.28
  -5  -4  -1  601.38   25.19
  -5  -4  -1  586.90   24.93
  -5  -4   1  575.67   25.66
  -5  -4   1  605.20   22.39
  -5   4   1  476.52   33.49
  -5   4   1  375.88   26.00
  -5  -4   1  764.90   53.92
  -4  -4  -1   65.39   16.82
  -4   4   1   39.01    7.46
  -4   4  -1   50.00    7.85
  -4   4  -1   30.32    6.87
  -4  -4   1   66.33    7.76
  -4  -4   1   69.47    6.93
  -4   4   1   57.40   12.05
  -4  -4   1   46.86   14.91
  -4  -4   1   73.70    8.07
  -4   4   1   40.72   13.68
  -4  -4   1   28.09    5.18
  -4   4   1   49.58   10.12
  -4  -4   1   68.64    6.49
  -4   4  -1   53.40   14.42
  -3  -4  -1 1009.79   57.03
  -3   4   1  662.99   30.05
  -3   4   1  757.10   34.95
  -3   4  -1  609.29   30.38
  -3  -4   1  944.75   56.91
  -3  -4   1  716.33   27.31
  -3   4  -1  703.05   49.36
  -3  -4   1  822.17   35.34
  -3  -4   1  745.30   25.15
  -3   4   1  762.05   37.96
  -3  -4   1  769.04   30.72
  -3  -4  -1  698.56   20.58
  -3  -4   1  774.96   29.37
  -3   4   1  593.68   46.77
  -3   4   1  673.23   27.53
  -2  -4   1  119.43   12.21
  -2   4  -1   80.71    9.76
  -2   4   1   98.15    9.51
  -2   4  -1   96.65   18.30
  -2  -4   1   73.62    7.98
  -2  -4   1  110.15   10.10
  -2   4   1   98.24   12.41
  -2   4  -1  111.55    8.89
  -2  -4   1  118.67    7.74
  -2   4  -1   81.30    9.40
  -2  -4  -1  105.61    9.35
  -2  -4   1   37.21    8.01
  -2   4   1  116.81    9.04
  -2   4   1   92.44    8.76
  -2   4   1  101.79   10.11
  -2  -4  -1  115.94   19.49
  -2  -4  -1   65.94    5.66
  -1   4   1 1166.86   38.27
  -1  -4   1 1241.95   35.36
  -1  -4  -1 1313.14   41.76
  -1  -4   1 1307.95   46.53
  -1   4   1 1144.99   41.56
  -1   4   1 1166.74   38.36
  -1   4  -1 1181.47   43.81
  -1   4   1 1177.04   48.23
  -1  -4   1 1284.60   42.45
  -1  -4  -1 1601.47   72.14
  -1  -4  -1 1254.96   37.05
  -1  -4   1 1243.99   42.75
  -1  -4   1 1312.21   37.64
  -1  -4   1 1597.02   47.14
  -1  -4   1 1460.36   68.62
  -1  -4  -1 1360.16   41.78
  -1   4   1 1075.03   63.59
  -1   4  -1 1215.31   38.20
   0   4  -1  334.50   13.78
   0   4   1  301.87   13.92
   0  -4   1  280.06   28.33
   0  -4   1  350.36   13.21
   0  -4   1  345.48   14.52
   0  -4   1  126.17   11.37
   0  -4   1  289.12   16.18
   0  -4   1  256.14   16.20
   0   4   1  207.34   26.89
   0  -4   1  276.71   17.88
   0  -4  -1  273.81   15.63
   0  -4  -1  341.93   14.04
   1  -4   1 1476.72   66.43
   1   4   1 1041.81   61.16
   1  -4   1 1484.51   40.97
   1   4  -1 1177.80   65.79
   1   4  -1 1365.91   49.97
   1  -4   1 1279.49   44.52
   1  -4   1 1309.30   42.86
   1  -4   1 1174.42   45.04
   1  -4   1 1349.37   38.53
   1  -4  -1 1370.51   39.75
   1  -4  -1 1450.50   45.44
   1  -4  -1 1231.91   39.78
   1   4   1 1288.13   38.49
   1   4  -1 1242.09   36.91
   1   4   1 1196.50   38.06
   2   4   1   78.17   15.41
   2  -4   1  106.17   11.30
   2   4  -1  118.87    7.24
   2   4  -1   82.75   16.84
   2  -4   1  104.33   11.34
   2  -4   1  114.43   10.46
   2  -4  -1  114.48    8.81
   2   4   1  125.90    8.38
   2   4   1   45.83    6.39
   2  -4   1   97.62   11.00
   2  -4  -1  100.28   11.16
   2   4  -1  109.57   15.80
   2  -4  -1  129.06    9.32
   2  -4   1  137.46    9.44
   3   4  -1  757.33   24.85
   3   4   1  534.13   49.52
   3   4   1  789.98   28.45
   3  -4   1  758.72   35.55
   3  -4  -1  848.29   30.69
   3   4   1  661.15   44.76
   3   4   1  778.81   27.10
   3  -4   1  884.60   40.02
   3   4  -1  740.68   49.58
   3  -4   1  837.30   30.12
   3  -4  -1  864.15   30.90
   3   4   1  738.76   30.24
   3  -4   1  941.23   36.92
   3   4  -1  781.34   31.02
   3  -4   1  754.78   35.91
   3   4  -1  706.90   49.35
   4   4   1   73.36    6.92
   4  -4  -1   49.98    5.48
   4  -4   1   55.96    9.94
   4  -4   1   57.96    7.56
   4   4   1   22.84    6.34
   4   4   1   43.56   11.74
   4  -4  -1   50.87    6.58
   4   4  -1   63.44    5.69
   4  -4   1   60.70    6.25
   4   4   1   38.18   16.25
   4  -4  -1   67.06    8.19
   4  -4   1   71.42    8.50
   4   4  -1   23.14    6.53
   4   4   1   67.54    7.22
   4  -4   1   63.47   10.20
   4  -4   1   59.67    5.57
   4   4  -1   49.30   15.28
   5   4   1  651.66   25.80
   5   4   1  575.26   30.01
   5  -4   1  653.25   35.44
   5  -4  -1  579.28   17.43
   5  -4   1  610.71   34.97
   5  -4   1  541.68   22.53
   5   4  -1  515.75   49.51
   5   4  -1  663.64   22.81
   5   4   1  334.22   46.72
   5  -4  -1  575.23   24.67
   5   4   1  488.92   36.51
   5  -4   1  586.89   30.90
   5  -4   1  518.69   20.91
   5   4  -1  624.35   30.01
   5  -4   1  598.16   27.89
   5  -4  -1  594.60   32.45
   5  -4  -1  532.52   21.99
   5   4   1  667.71   25.17
   5  -4  -1  674.46   29.14
   6   4   1  125.02   10.66
   6  -4   1  110.95    8.33
   6  -4   1  111.92    9.10
   6   4  -1  145.25    9.99
   6  -4   1  113.75   15.60
   6  -4  -1  103.03   14.86
   6   4  -1   50.27   10.20
   6   4   1   34.10    9.50
   6  -4   1  169.57   28.05
   6  -4   1   84.80   13.38
   6  -4   1  120.90   12.28
   6   4   1  140.95   10.97
   6  -4  -1  128.58   10.66
   6   4  -1   78.90   22.34
   6  -4  -1   33.83    4.80
   6   4   1   58.07   22.96
   6  -4  -1  122.65    9.24
   7   4  -1  277.84   41.16
   7   4  -1  511.32   21.28
   7  -4   1  373.81   17.71
   7   4   1  530.31   23.58
   7  -4  -1  298.38   15.98
   7  -4   1  579.86   50.96
   7  -4  -1  400.73   20.92
   7  -4   1  306.49   28.24
   7  -4   1  370.05   18.98
   7   4   1  418.56   21.41
   7   4   1  249.26   44.81
   7  -4   1  444.07   32.06
   7  -4  -1  414.93   32.76
   8   4  -1   21.45   14.68
   8  -4   1   49.72   12.69
   8  -4   1   81.63   22.30
   8   4   1   71.17    9.48
   8   4   1   65.21    8.82
   8  -4  -1   78.02   18.44
   8   4   1   11.43   13.87
   8  -4   1   27.53   10.86
   8  -4  -1   30.41   11.31
   8   4  -1   77.39    8.94
   9   4   1  117.70   32.99
   9  -4   1  208.00   23.82
   9   4   1  274.48   18.60
   9  -4   1  243.86   35.69
   9   4  -1   88.39   25.98
   9  -4  -1  125.33   22.13
   9   4   1  213.55   16.64
   9   4  -1  251.92   16.44
   9  -4   1   88.82   18.27
  10   4  -1    1.97   11.38
  10   4   1   17.54    7.07
  10  -4   1   -1.03    6.51
  10   4  -1   14.22    6.42
  10   4   1   11.79   16.96
  10  -4  -1   -1.09    7.34
  11  -4  -1   43.07   14.92
  11   4  -1  125.53   13.38
 -10   5   1   33.09   15.24
  -9   5  -1  123.27   24.27
  -9   5   1  145.31   27.53
  -8  -5  -1   54.53    8.19
  -8   5  -1   50.77   18.18
  -8  -5   1   67.48    8.59
  -8   5  -1   26.16    7.78
  -8  -5   1   61.93    8.86
  -8   5   1   44.49   17.16
  -8   5   1   50.32   17.93
  -8   5   1   35.08   12.21
  -7   5   1  149.34   21.49
  -7   5   1  217.42   31.71
  -7   5  -1  126.16   14.87
  -7   5   1  157.06   27.08
  -7  -5  -1  197.98   14.83
  -7  -5   1  184.86   14.45
  -7  -5   1  184.87   13.66
  -6   5   1   85.44   21.65
  -6   5   1   79.51   15.63
  -6  -5  -1  144.19   27.25
  -6   5  -1   98.95   21.71
  -6  -5  -1  175.01   15.63
  -6  -5   1  110.37   10.19
  -6  -5   1  115.64   11.15
  -6   5   1   78.99   18.59
  -6   5  -1   79.05   11.49
  -5   5   1  281.76   22.03
  -5   5   1  425.74   36.29
  -5  -5   1  398.48   19.66
  -5   5   1  356.95   30.00
  -5  -5   1  494.93   24.94
  -5  -5  -1  380.52   20.27
  -5   5  -1  402.58   41.44
  -5  -5  -1  586.17   50.02
  -5   5   1  412.79   42.62
  -4   5   1  142.61   25.52
  -4  -5   1  230.66   31.64
  -4   5  -1  124.99   15.16
  -4   5   1  157.23   16.12
  -4   5   1  175.98   13.68
  -4  -5  -1  201.55   15.48
  -4   5  -1  140.15   25.63
  -4  -5   1  193.98   15.84
  -4   5   1  132.54   13.93
  -4  -5   1  102.83    9.72
  -4   5   1  151.08   18.60
  -4   5   1  161.27   19.35
  -4   5  -1  141.48   14.85
  -4  -5  -1  208.55   30.29
  -4  -5   1  207.40   12.91
  -4  -5   1  220.82   14.31
  -3  -5  -1  595.29   26.77
  -3   5   1  577.89   30.65
  -3  -5   1  736.09   54.04
  -3   5   1  510.15   27.99
  -3   5  -1  476.56   44.77
  -3   5   1  482.77   26.09
  -3  -5   1  594.96   27.80
  -3   5   1  436.96   43.72
  -3  -5  -1  483.30   17.17
  -3  -5  -1  753.54   54.23
  -3  -5   1  561.97   25.48
  -3   5   1  513.91   33.80
  -3  -5   1  587.87   22.17
  -3   5   1  489.13   23.72
  -3  -5   1  626.12   32.60
  -3   5  -1  450.45   27.93
  -3  -5   1  546.83   24.01
  -2  -5   1  243.15   16.48
  -2   5  -1  196.66   16.90
  -2   5   1  236.96   21.57
  -2  -5  -1  255.13   32.15
  -2  -5  -1  233.31   15.66
  -2   5  -1  247.24   14.58
  -2   5  -1  183.00   27.69
  -2  -5  -1  150.02   10.36
  -2   5   1  237.18   14.33
  -2   5   1  207.96   16.26
  -2  -5   1  237.65   19.01
  -2  -5   1  278.76   13.49
  -2  -5   1  165.02   13.30
  -1  -5   1  669.47   29.07
  -1   5   1  557.70   27.32
  -1   5  -1  537.80   28.61
  -1  -5   1  635.79   31.26
  -1   5  -1  549.02   23.47
  -1   5   1  594.78   34.00
  -1  -5   1  637.87   29.09
  -1   5   1  556.89   23.71
  -1   5   1  531.23   46.83
  -1  -5  -1  597.68   22.76
  -1   5   1  561.38   23.14
  -1  -5   1  630.66   23.47
  -1  -5   1  631.48   21.75
  -1  -5  -1  627.75   27.66
  -1  -5   1  605.94   27.54
  -1  -5   1  756.35   33.51
  -1  -5  -1  673.46   28.08
   0  -5   1  296.06   13.25
   0  -5  -1  297.96   14.31
   0  -5   1  257.77   16.62
   0  -5   1  252.83   18.67
   0  -5   1  276.65   31.03
   0  -5  -1  263.18   15.65
   0  -5  -1  235.77   16.07
   0  -5   1  319.51   15.25
   0   5   1  228.80   30.10
   0  -5   1  215.79   16.35
   0   5  -1  286.58   13.98
   0   5   1  254.48   14.09
   1  -5   1  674.57   25.80
   1  -5  -1  678.00   30.14
   1   5   1  580.59   23.73
   1   5   1  498.91   43.84
   1   5  -1  571.82   48.02
   1  -5   1  691.24   26.50
   1  -5   1  741.19   49.45
   1  -5   1  616.32   27.46
   1   5  -1  576.76   22.47
   1   5  -1  612.93   25.99
   1  -5   1  691.05   31.16
   1  -5  -1  622.76   24.32
   1  -5  -1  591.96   25.19
   1  -5   1  576.40   29.74
   1  -5   1  687.02   24.01
   2   5   1  178.03   26.66
   2   5   1  169.69   25.52
   2  -5   1  308.32   14.97
   2   5  -1  189.68   19.46
   2  -5   1  215.43   17.49
   2   5  -1  276.39   12.82
   2  -5   1  214.36   18.09
   2  -5   1  113.89    9.90
   2  -5  -1  292.74   15.32
   2   5  -1  202.69   28.60
   2  -5  -1  248.91   14.67
   2  -5  -1  227.29   17.92
   2  -5   1  259.03   17.00
   2   5   1  277.56   13.92
   2  -5   1  240.33   18.66
   2   5   1  132.47   11.18
   3  -5   1  647.05   30.55
   3   5   1  600.54   23.81
   3   5  -1  506.05   45.11
   3  -5   1  551.22   31.14
   3   5   1  469.21   41.37
   3   5  -1  555.99   21.36
   3  -5   1  689.54   35.84
   3  -5  -1  601.58   25.71
   3  -5   1  624.39   25.75
   3  -5   1  638.23   23.06
   3   5   1  575.31   25.91
   3  -5  -1  673.50   35.66
   3   5  -1  534.15   39.73
   3  -5  -1  599.00   26.31
   3  -5   1  537.12   31.39
   4  -5   1  238.16   15.50
   4   5   1  142.12   22.75
   4   5   1  114.18   26.42
   4   5  -1  233.04   12.02
   4  -5  -1  238.57   15.77
   4   5   1   96.39   11.52
   4   5  -1  158.51   24.75
   4   5  -1  125.18   12.91
   4  -5   1  172.38   17.79
   4  -5   1  179.36   10.40
   4   5   1  250.20   13.90
   4  -5  -1  240.19   17.40
   4   5   1  237.57   14.95
   4   5  -1  125.72   22.32
   5  -5  -1  374.44   19.87
   5   5  -1  458.25   18.54
   5   5   1  441.50   21.75
   5  -5   1  364.65   18.20
   5  -5   1  419.25   29.49
   5   5   1  348.58   34.14
   5  -5  -1  347.29   17.32
   5   5   1  278.54   42.88
   5  -5   1  356.96   16.48
   5   5  -1  329.15   38.27
   5   5   1  400.95   23.51
   5   5   1  481.27   20.84
   6  -5   1   96.93   15.27
   6  -5   1   98.98    9.02
   6   5  -1   57.59   19.78
   6  -5   1  106.26    8.44
   6   5  -1  137.56    9.99
   6   5   1  138.63   12.38
   6   5   1  140.99   11.43
   6  -5  -1  109.58   10.53
   6  -5   1   90.91   11.50
   6   5   1   63.38   24.02
   7  -5  -1  179.72   13.90
   7   5   1  126.42   33.82
   7   5  -1  236.09   14.15
   7   5  -1  133.27   28.38
   7  -5   1  150.39   16.84
   7   5   1  265.66   16.55
   7  -5   1  181.64   12.94
   7  -5   1  210.52   22.56
   7   5   1  240.50   17.09
   8  -5   1   54.46   13.48
   8   5  -1   24.00   16.44
   8  -5  -1   63.86    8.78
   8   5  -1   84.62    9.25
   8  -5  -1   37.97   11.57
   8   5   1   84.78   10.36
   8  -5   1   39.71   11.04
   8   5   1   67.60   10.12
   8   5   1   36.44   20.69
   9   5  -1  117.91   11.48
   9   5  -1   52.63   20.67
   9   5   1  139.02   13.32
   9   5   1   79.61   28.72
   9  -5  -1   90.39   16.46
  10   5  -1   54.25    9.14
  10   5   1   64.18   10.46
  -9   6  -1   87.22   22.17
  -8   6   1   19.48   15.48
  -8   6  -1   40.56   18.27
  -7   6   1  132.06   28.33
  -7   6   1  115.76   20.09
  -7  -6   1  146.99   12.81
  -7   6  -1  171.09   30.26
  -7  -6  -1  157.08   14.11
  -7  -6   1  121.53   12.45
  -6  -6  -1  122.27   13.53
  -6   6  -1   47.88   11.60
  -6   6   1   60.27   14.80
  -6  -6   1   98.20   11.14
  -6   6   1   67.19   21.38
  -6  -6   1   99.71   10.37
  -6   6  -1   84.77   22.59
  -6   6   1   38.86   10.35
  -5  -6  -1  177.56   14.03
  -5  -6   1  254.13   19.68
  -5   6   1  149.79   21.51
  -5   6   1  120.83   15.73
  -5   6  -1  108.32   15.52
  -5   6  -1  203.29   32.41
  -5   6   1  150.14   21.07
  -5  -6   1  180.94   13.36
  -5   6   1  145.76   28.27
  -4   6   1   72.12   13.98
  -4   6   1   59.95   20.17
  -4   6  -1   82.44   12.87
  -4   6   1   74.95   11.65
  -4  -6   1  123.91   11.39
  -4   6   1   88.04   10.38
  -4  -6   1   53.11    7.61
  -4   6   1  106.35   17.16
  -4   6  -1   58.66   19.74
  -4  -6   1  118.47   10.48
  -3  -6   1  198.88   14.14
  -3   6   1  204.41   17.99
  -3   6  -1  182.24   17.89
  -3   6   1  177.57   14.08
  -3   6   1  178.37   16.89
  -3   6  -1  183.18   30.72
  -3  -6  -1  208.25    9.86
  -3   6   1  140.25   27.40
  -3   6   1  195.91   22.21
  -2  -6   1   81.51   10.14
  -2   6   1  111.06   16.07
  -2  -6   1  111.29   12.69
  -2   6  -1  130.94   11.32
  -2   6   1  114.62   12.89
  -2  -6  -1  140.97   13.38
  -2   6   1   91.82    9.97
  -2  -6  -1   75.18    7.83
  -2  -6  -1  132.56   13.34
  -2   6   1  137.78   11.69
  -2   6  -1   96.56   23.57
  -2   6  -1  110.64   13.38
  -1  -6   1  337.06   15.69
  -1   6  -1  334.36   18.00
  -1   6  -1  303.55   38.90
  -1   6   1  281.01   36.93
  -1  -6  -1  406.37   22.89
  -1  -6  -1  381.47   17.67
  -1   6   1  297.92   15.48
  -1  -6   1  366.34   22.75
  -1   6   1  302.32   17.48
   0  -6   1  210.14   11.94
   0  -6  -1  189.53   14.34
   0   6   1  129.68   25.90
   0  -6   1   76.59   12.31
   0  -6  -1  187.66   15.75
   0   6   1  143.40   10.33
   0   6   1  190.18   13.09
   0   6  -1  195.01   12.53
   0  -6  -1  232.95   13.43
   0  -6   1  167.38   15.65
   1  -6  -1  357.90   19.60
   1  -6  -1  384.82   18.56
   1   6  -1  339.56   39.87
   1  -6   1  334.04   20.59
   1   6   1  279.27   35.78
   1  -6  -1  420.77   24.83
   1   6  -1  364.14   17.45
   1  -6   1  370.45   24.09
   1  -6   1  384.61   22.00
   1   6   1  325.82   17.65
   1   6   1  220.40   27.36
   1  -6   1  360.31   17.32
   2   6  -1  102.23   23.07
   2   6   1   89.48   21.19
   2   6  -1  142.81   10.08
   2   6   1  141.07   10.95
   2   6  -1  108.75   12.14
   2   6   1   58.13   17.39
   2  -6   1  161.09   11.37
   2  -6   1  119.39   14.35
   2  -6   1  136.24   13.42
   2  -6  -1  123.09   14.76
   2  -6   1  114.20   14.46
   2  -6   1   46.48    7.98
   2  -6  -1  124.02   11.47
   3   6   1  134.09   26.54
   3   6   1  216.45   13.88
   3   6  -1  168.45   28.24
   3   6  -1  229.27   13.13
   3  -6  -1  232.54   16.41
   3   6   1  187.10   28.20
   3  -6  -1  278.75   23.79
   3  -6   1  264.70   23.16
   3   6   1  228.02   15.10
   3  -6   1  186.39   19.11
   3   6  -1  224.72   22.14
   3  -6   1  216.59   12.88
   3  -6   1  229.50   18.34
   4   6   1  122.68   10.42
   4   6   1   67.31   18.46
   4   6  -1   64.85   18.75
   4  -6   1   81.97   13.28
   4   6   1   55.90    9.25
   4  -6   1  111.99   14.68
   4  -6   1   30.42    4.89
   4   6   1   78.25   23.82
   4   6  -1  111.74    8.82
   4   6  -1   89.72   17.81
   4  -6  -1  114.48   13.23
   5  -6   1  171.62   19.68
   5   6  -1  167.93   25.53
   5   6  -1  202.08   12.44
   5   6   1  105.95   27.61
   5   6   1  148.78   24.80
   5   6   1  198.90   13.82
   5  -6  -1  166.44   13.36
   5  -6   1  154.86   11.86
   6  -6   1   82.27   15.21
   6   6  -1   84.68   21.38
   6   6  -1  110.45    9.71
   6  -6   1   83.14    8.87
   6   6   1  104.08   11.89
   6   6   1  121.40   11.36
   6  -6  -1   94.24   10.17
   7   6  -1  188.04   12.86
   7  -6   1  155.61   20.35
   7  -6  -1  139.24   12.34
   7   6   1  152.36   14.70
   7  -6   1  127.17   11.02
   7   6   1  170.30   13.83
   7   6  -1  125.81   26.09
   7   6   1  106.14   30.13
   8   6  -1   53.33    7.82
   8  -6  -1   36.77    7.63
   8   6  -1   20.32   13.67
   8   6   1   62.79    9.22
   8   6   1   27.70   18.98
   8  -6   1   34.10    6.38
   9   6   1   79.61   10.78
   9   6  -1   52.19   20.21
  -7   7  -1   60.73   22.17
  -6   7   1   30.34    9.66
  -6   7  -1   54.16   21.63
  -6   7   1   47.20   19.30
  -5   7  -1   98.09   25.36
  -5  -7   1  124.68   15.15
  -5   7  -1   64.17   13.10
  -5  -7  -1   88.82   10.80
  -5  -7   1   99.22   10.82
  -5   7   1   61.08   12.28
  -5   7   1   70.69   16.40
  -5   7   1  128.19   29.45
  -4   7   1   52.03   11.12
  -4   7  -1   60.61   21.24
  -4  -7   1   86.31    9.99
  -4  -7  -1   69.03   11.86
  -4  -7   1   74.66   12.47
  -4   7   1   47.38   20.14
  -4   7  -1   54.01   11.59
  -4  -7   1   82.58   10.15
  -4   7   1   63.49   15.31
  -3   7   1   97.17   13.59
  -3   7  -1  109.62   15.17
  -3  -7   1  133.82   15.53
  -3   7   1  115.49   12.20
  -3   7   1   69.50   21.80
  -3   7  -1   80.29   23.80
  -3   7   1  134.21   19.87
  -3  -7  -1  152.34   15.73
  -2   7  -1   93.32   10.33
  -2   7  -1   78.66   23.56
  -2   7   1  102.83   10.89
  -2  -7   1   84.21   12.80
  -2  -7   1   57.14    9.43
  -2  -7  -1   86.43   12.21
  -1   7  -1  129.64   11.82
  -1  -7   1  139.61   15.31
  -1   7  -1  124.69   27.74
  -1   7   1  129.79   11.91
  -1  -7  -1  151.90   15.53
  -1   7   1   94.83   25.37
   0  -7  -1  135.95   15.45
   0   7   1  136.76   11.77
   0   7   1   92.30   23.93
   0   7   1   90.05    7.41
   0   7   1   88.85   13.22
   0  -7   1  113.50   14.49
   0   7  -1  129.41   11.25
   1   7   1   97.67   17.69
   1   7  -1  116.08   26.64
   1   7   1  154.15   12.46
   1   7   1  135.25    9.89
   1  -7   1  163.53   17.15
   1   7  -1  134.59   11.01
   1  -7  -1  182.15   17.79
   1   7   1   94.49   24.47
   2  -7   1   86.64   14.05
   2   7   1  107.83   10.39
   2   7   1   76.95   21.65
   2   7  -1   56.62   21.04
   2   7  -1  105.91    9.70
   2   7   1   81.10   18.67
   2  -7  -1   94.41   15.02
   2  -7   1   78.10   13.69
   3   7   1  118.79   24.16
   3   7   1  138.51   12.10
   3   7  -1  110.77   25.74
   3   7   1   95.24   23.51
   3   7  -1  147.95   11.30
   3  -7  -1  165.22   20.25
   3  -7   1  182.27   20.88
   3  -7   1  148.04   18.14
   4   7   1   69.26   21.72
   4   7  -1   47.46   18.91
   4  -7   1   57.93   12.72
   4   7   1   92.71    9.98
   4   7   1   44.19   17.49
   4   7  -1   84.05    8.77
   5  -7  -1   78.74    9.94
   5  -7   1   83.86    9.27
   5   7   1  105.31   10.73
   5   7  -1  108.14    9.76
   5   7   1   63.08   21.23
   5  -7   1   90.03   15.96
   5   7  -1   81.41   16.52
   5   7   1   77.86   20.44
   6   7  -1   78.16    8.79
   6   7   1   82.24    9.86
   6  -7   1   48.30    7.56
   6   7   1   44.22   19.05
   6   7  -1   49.32   16.10
   6  -7  -1   59.81    8.74
   7   7   1   43.39   20.73
   7   7   1   69.37    9.93
   8   7   1    9.44   15.10
  -3   8   1   32.63    7.75
  -3  -8  -1   38.78   10.30
  -2  -8   1   46.48   11.04
  -2  -8  -1   57.51   11.66
  -2   8   1   42.11    8.65
  -1   8   1   51.04    8.79
  -1   8  -1   50.89    8.45
  -1  -8   1   58.99   12.27
  -1  -8  -1   65.50   12.46
   0   8   1   50.80    8.48
   0   8  -1   57.94    8.58
   0  -8  -1   57.25   12.70
   0  -8   1   46.93   11.73
   1  -8   1   69.70   13.62
   1   8   1   49.30    8.30
   1  -8  -1   66.29   13.30
   1   8  -1   69.07    8.89
   2   8  -1   55.67    7.95
   2  -8  -1   52.67   14.00
   2   8   1   63.29    9.17
   2  -8   1   46.27   13.12
   3   8   1   43.29    7.99
   3   8  -1   40.59    7.01
   4   8   1   47.58    8.26
   5   8   1   40.32    7.92
   5  -8   1   34.64    6.88
 -11   0  -2    2.64    8.40
 -11   0   2   -1.24    5.04
 -11   0  -2   -1.57    3.92
 -11   0   2    3.75    8.02
 -10   0  -2  255.98   27.33
 -10   0  -2  281.39   18.06
 -10   0   2  270.10   28.81
  -9   0  -2   -0.74    5.95
  -9   0   2   -0.80    6.22
  -9   0  -2   -1.59    5.36
  -9   0  -2   -0.23    2.89
  -9   0  -2   -1.57    3.46
  -8   0   2  672.62   43.11
  -8   0  -2  786.18   28.97
  -8   0   2  624.28   38.67
  -8   0  -2  685.66   42.31
  -8   0   2  807.66   33.30
  -8   0  -2  671.69   38.82
  -8   0  -2  704.55   29.01
  -7   0   2    0.29    3.07
  -7   0  -2    0.21    2.37
  -7   0  -2   -0.33    3.75
  -7   0   2    2.11    4.61
  -7   0  -2    3.95    5.17
  -6   0   2 1221.43   54.19
  -6   0   2 1338.16   48.49
  -6   0  -2 1518.78   44.83
  -6   0  -2 1169.78   56.41
  -6   0  -2 1408.82   55.54
  -6   0  -2 1476.80   48.54
  -6   0   2 1410.15   47.81
  -6   0   2 1487.05   48.79
  -5   0  -2    0.44    2.01
  -5   0   2   -0.22    2.16
  -5   0  -2   -0.37    2.97
  -5   0   2    1.19    3.31
  -5   0  -2   -0.45    1.68
  -5   0  -2   -0.55    1.98
  -5   0   2   -2.28    8.91
  -5   0  -2    1.87    5.10
  -4   0   2 1817.18   49.36
  -4   0   2 2205.46   84.43
  -4   0  -2 1604.36   47.60
  -4   0  -2 1505.99   53.30
  -4   0   2 1600.30   55.13
  -4   0   2 1662.79   48.78
  -4   0  -2 1188.98   62.32
  -3   0   2    0.29    1.50
  -3   0  -2    0.13    1.29
  -3   0   2    2.57    4.48
  -3   0  -2    0.58    4.32
  -3   0   2    0.16    1.65
  -3   0  -2   -0.08    0.95
  -3   0   2    0.33    1.77
  -3   0   2    1.21    2.07
  -3   0  -2   -0.23    2.11
  -3   0   2    1.27    1.52
  -2   0  -2 2813.29   65.56
  -2   0  -2 2569.47   68.21
  -2   0  -2 2050.86   85.71
  -2   0   2 2819.55   71.17
  -2   0   2 2589.02   72.66
  -2   0  -2 3059.43   67.02
  -2   0   2 2913.02   69.75
  -2   0   2 3073.33   81.28
  -2   0  -2 2524.19   71.96
  -2   0   2 2556.30   68.53
  -1   0   2    0.47    0.79
  -1   0  -2   -0.21    1.35
  -1   0   2   -0.76    1.01
  -1   0   2    0.17    0.84
  -1   0  -2   -1.88    3.93
  -1   0   2    0.19    0.63
  -1   0  -2    0.16    1.05
  -1   0  -2    0.04    0.55
  -1   0   2    0.85    0.77
  -1   0   2    0.14    1.67
  -1   0   2    1.96    0.70
  -1   0   2    0.67    1.75
   0   0  -2 4725.11  103.16
   0   0  -2 4809.10  108.46
   0   0  -2 4465.58  104.03
   0   0   2 4626.68  103.18
   1   0  -2    0.11    0.52
   1   0  -2    0.18    0.55
   1   0   2    0.11    0.47
   1   0  -2    0.11    0.46
   1   0  -2   -0.14    1.64
   2   0   2 2821.79   69.72
   2   0  -2 2921.75   69.65
   2   0  -2 3027.54   82.40
   2   0  -2 2702.85   69.33
   3   0   2    0.44    1.00
   3   0  -2    1.74    3.39
   3   0   2    0.12    1.19
   3   0   2    0.10    1.10
   3   0  -2    0.27    1.48
   3   0  -2    0.57    1.39
   3   0  -2    0.15    1.62
   4   0  -2 1808.83   72.70
   4   0   2 1953.00   50.71
   4   0  -2 1642.71   57.29
   4   0   2 1815.63   51.67
   4   0  -2 1699.82   50.73
   4   0  -2 1878.30   54.18
   5   0   2    0.79    2.39
   5   0   2    1.26    1.90
   5   0  -2   -0.25    2.46
   5   0  -2    0.18    2.07
   5   0   2    2.78    6.85
   5   0   2    0.57    1.91
   6   0   2 1564.30   49.65
   6   0   2 1556.65   49.60
   6   0  -2 1543.65   53.52
   6   0  -2 1705.87   50.17
   7   0   2    0.54    2.76
   7   0   2    5.74   11.07
   7   0  -2   -0.50    2.93
   7   0   2   -0.52    2.97
   7   0  -2    0.35    2.90
   7   0  -2    1.31    2.83
   7   0  -2    0.26    3.10
   7   0  -2    2.54    4.15
   7   0   2    1.91    3.15
   7   0   2   -1.61    3.63
   8   0   2  773.00   33.28
   8   0  -2  905.79   34.00
   8   0   2  459.10   57.95
   8   0   2  861.58   33.92
   8   0   2  937.43   35.32
   8   0  -2  850.71   34.06
   8   0  -2  877.82   34.55
   8   0   2  852.19   34.73
   8   0  -2  550.72   32.81
   8   0  -2  814.08   37.11
   9   0  -2   -0.84    4.23
   9   0   2   -2.05   11.31
   9   0  -2   -0.34    4.49
   9   0   2    4.52    4.89
   9   0   2   -1.03    3.85
  10   0   2  361.03   22.77
  10   0  -2  120.31   26.28
  10   0   2  139.05   33.05
  10   0   2  323.78   21.36
  10   0  -2  360.84   22.31
  10   0  -2  304.81   22.55
  11   0   2   -0.41    5.15
  11   0   2    2.06   11.90
  11   0   2   -0.41    5.42
  11   0  -2   -0.81    5.16
  11   0  -2    0.49    5.06
  11   0  -2   -6.39   11.82
 -11   1  -2    0.93    7.96
 -11  -1   2    2.67    7.46
 -11  -1  -2    0.92    3.66
 -11   1   2    0.43    5.20
 -11  -1  -2    2.51    6.99
 -11   1   2    2.98    8.49
 -11   1  -2    2.64    4.53
 -10   1  -2  377.76   34.26
 -10   1   2  373.29   35.15
 -10  -1   2  347.98   23.69
 -10  -1  -2  344.75   22.70
 -10   1  -2  375.93   19.73
 -10   1  -2  381.91   21.36
 -10  -1  -2  335.84   19.95
 -10   1   2  393.32   24.73
  -9   1  -2    2.20    3.46
  -9  -1  -2    3.68    3.64
  -9   1  -2    3.99    5.17
  -9   1   2    5.23    7.29
  -9  -1   2    5.49    4.97
  -9   1  -2    1.90    3.26
  -9   1   2    6.05    4.53
  -9   1  -2    4.09    6.99
  -9  -1  -2    4.23    4.44
  -9  -1   2    3.41    4.13
  -9  -1  -2    2.23    5.40
  -8  -1  -2  621.04   26.76
  -8   1   2  726.94   31.53
  -8   1  -2  638.97   39.05
  -8   1   2  644.34   63.42
  -8  -1   2  592.23   35.33
  -8   1   2  592.97   38.91
  -8  -1   2  655.68   30.82
  -8  -1   2  713.93   30.90
  -8   1  -2  723.81   27.15
  -8  -1  -2  574.59   34.19
  -8   1  -2  604.47   41.08
  -8   1   2  583.83   41.42
  -8   1  -2  665.12   27.78
  -8  -1  -2  659.22   29.98
  -7   1  -2   11.72    3.69
  -7  -1  -2    9.54    5.19
  -7   1   2   13.72    4.57
  -7  -1   2    6.43    4.68
  -7  -1   2   12.88    4.35
  -7  -1  -2    5.12    5.36
  -7  -1  -2   10.84    5.43
  -7   1   2    8.96    6.08
  -7   1   2    9.83    7.36
  -7   1  -2   13.15    3.91
  -7   1  -2    9.91    6.72
  -7  -1   2    9.54    3.95
  -7  -1  -2   11.30    4.18
  -7   1  -2    7.86    5.88
  -7   1   2   10.94   10.90
  -6   1   2 1107.08   56.38
  -6  -1   2 1202.18   49.55
  -6   1   2 1132.00   54.07
  -6  -1  -2 1255.35   49.44
  -6   1   2 1349.49   46.53
  -6   1  -2 1270.37   58.02
  -6   1  -2 1460.07   43.29
  -6  -1  -2 2143.05   58.36
  -6   1   2 1578.88   85.55
  -6  -1  -2 1336.17   44.34
  -6   1  -2 1462.95   42.01
  -6  -1  -2  998.25   52.11
  -6   1  -2 1233.77   54.54
  -6  -1   2 1642.07   98.38
  -6  -1   2 1336.07   45.11
  -6   1  -2 2007.16   55.62
  -6  -1   2 1440.12   46.35
  -5  -1  -2    3.66    4.56
  -5   1  -2    3.02    3.84
  -5  -1   2    5.69   10.23
  -5  -1  -2    2.72    3.37
  -5   1   2    2.86    2.70
  -5   1  -2    3.47    3.27
  -5   1  -2    4.37    2.20
  -5   1   2    0.92    6.64
  -5   1   2    5.92    4.50
  -5  -1  -2    3.08    2.19
  -5   1   2    3.65    3.86
  -5   1  -2    3.37    1.91
  -5  -1  -2    6.72    3.53
  -5  -1   2    5.82    2.94
  -5  -1   2    3.31    2.26
  -5  -1  -2    5.76    2.41
  -5  -1  -2    5.49    2.27
  -5   1  -2    5.93    4.31
  -4  -1   2 2765.66   72.09
  -4   1   2 2781.26   74.57
  -4  -1   2 3609.37  128.16
  -4   1   2 2319.78   83.95
  -4   1  -2 2330.63   83.23
  -4  -1  -2 2693.62   70.60
  -4   1   2 3046.04  100.83
  -4  -1  -2 3638.87   81.73
  -4  -1   2 2887.23   74.36
  -4   1  -2 2333.37   81.33
  -4  -1  -2 2608.27   70.95
  -4   1  -2 2637.13   70.01
  -4   1  -2 2725.10   68.94
  -4   1   2 2391.05   82.45
  -4   1  -2 3415.86   80.88
  -4  -1  -2 2679.95   70.17
  -3  -1  -2    1.82    1.30
  -3   1   2    6.06    3.43
  -3   1  -2    2.47    2.95
  -3  -1  -2    1.29    2.46
  -3   1  -2    0.47    2.03
  -3   1  -2    0.72    4.86
  -3  -1  -2    1.52    1.19
  -3  -1   2    3.28    4.35
  -3   1  -2    1.48    1.00
  -3  -1   2    7.33    7.01
  -3   1  -2    1.03    0.97
  -3  -1   2    6.71    2.07
  -3  -1  -2    1.09    1.19
  -3  -1   2    6.97    1.82
  -3  -1  -2    1.67    1.26
  -3  -1   2    6.11    1.78
  -3   1  -2    1.38    2.76
  -3   1   2    1.51    1.74
  -3   1   2    2.57    2.72
  -2  -1   2 4626.40  116.29
  -2  -1   2 3931.68   96.02
  -2  -1   2 3703.16   88.90
  -2   1   2 3579.74   90.70
  -2  -1  -2 3478.89   88.04
  -2   1  -2 4156.66  100.79
  -2  -1  -2 3482.34   88.33
  -2   1   2 3556.17   97.01
  -2   1  -2 2913.33  116.70
  -2  -1   2 2864.19  109.89
  -2   1  -2 3829.53   87.49
  -2   1  -2 3165.27  100.70
  -2  -1   2 4248.38   94.59
  -2   1   2 4233.56   89.03
  -2  -1   2 3718.63   88.57
  -2   1  -2 3365.57   95.70
  -2   1   2 3589.85   96.41
  -2   1  -2 3364.96   96.42
  -1  -1   2   21.97    9.08
  -1   1  -2    8.17    3.62
  -1   1   2   22.13    3.06
  -1   1  -2   17.03    8.33
  -1   1   2   23.45    2.44
  -1   1   2   16.51    2.52
  -1   1  -2   23.79    3.94
  -1  -1   2   22.91    1.91
  -1  -1   2   14.12    3.18
  -1  -1  -2   21.61    1.82
  -1  -1   2   15.27    3.80
  -1   1  -2   20.30    2.97
  -1  -1   2   19.98    2.94
   0  -1   2 3781.55   90.02
   0  -1   2 4051.94  128.53
   0  -1   2 3596.57   89.37
   0  -1  -2 3990.46   89.19
   0  -1   2 3615.85  100.92
   0  -1   2 4061.41   92.52
   0   1  -2 3780.41   86.60
   0   1   2 3355.43   88.44
   0  -1   2 3593.08   85.95
   0  -1  -2 3660.37   90.04
   0   1   2 3539.94   87.30
   0  -1   2 3666.86   87.18
   0  -1  -2 3677.87   85.89
   0  -1   2 3499.13   88.52
   0  -1   2 3633.33   89.39
   0  -1   2 3588.77   85.13
   0   1  -2 3900.97   89.36
   1   1   2   24.52    1.97
   1  -1  -2   21.62    3.31
   1   1  -2   23.14    2.79
   1   1  -2   35.13    3.04
   1   1   2   12.72    1.93
   1  -1   2   19.52    3.10
   1   1  -2   16.23    3.25
   1  -1   2   26.34    4.89
   1   1   2   23.86    2.53
   1   1  -2   22.22    1.85
   1  -1   2   11.11    3.56
   1  -1   2   18.07    3.02
   1  -1   2   20.37    3.03
   1  -1  -2   21.52    3.17
   2   1  -2 4240.51  109.75
   2  -1   2 4144.50  103.97
   2  -1  -2 4155.67  103.57
   2   1  -2 3562.11   93.22
   2  -1  -2 3742.37   97.22
   2   1   2 3854.74   93.71
   2   1  -2 3883.93   95.61
   2  -1  -2 4248.15  103.08
   2  -1   2 4098.92  101.56
   2  -1   2 3736.81   91.46
   2  -1  -2 4179.44  106.68
   2  -1   2 4164.96  103.41
   2   1  -2 4684.78  101.08
   2   1   2 3901.32  101.23
   3   1  -2    1.07    1.20
   3  -1   2    5.46    8.10
   3   1  -2    1.68    1.23
   3  -1  -2    1.69    2.41
   3   1  -2    1.30    2.22
   3   1  -2    2.58    1.76
   3   1   2    3.41    2.17
   3   1  -2    2.47    2.57
   3  -1  -2    0.98    1.37
   3  -1  -2    1.25    1.49
   3  -1  -2    1.74    1.70
   3  -1   2    4.94    3.13
   3   1   2    6.25    1.81
   3  -1  -2    2.26    1.91
   3  -1  -2    2.73    1.77
   3  -1  -2    2.35    3.42
   3   1   2    5.86    1.80
   3  -1   2    0.76    4.97
   3  -1   2    7.49    2.49
   4   1  -2 2939.30   77.75
   4  -1   2 3051.31   77.76
   4   1  -2 3212.79   84.75
   4   1  -2 2868.80   77.52
   4  -1  -2 3219.52  101.91
   4   1   2 2970.47   78.14
   4  -1  -2 2782.72   78.34
   4   1  -2 2859.02   85.90
   4  -1   2 3232.57   82.36
   4  -1  -2 3158.67   81.78
   4   1  -2 2865.23   82.83
   4  -1  -2 3249.53   91.73
   4  -1   2 3421.61   93.79
   4  -1  -2 3117.48   82.79
   4  -1  -2 3147.21   79.98
   4   1   2 3042.97   78.44
   5  -1   2    2.72    7.58
   5   1  -2    5.18    2.47
   5  -1  -2    2.48    3.81
   5  -1  -2    7.02    2.76
   5  -1   2    5.13    4.72
   5  -1  -2    5.19    3.14
   5   1   2    3.84    2.32
   5   1  -2    5.69    2.48
   5   1   2    4.70    2.34
   5   1  -2    7.41    3.61
   5   1   2    4.30    8.67
   5  -1  -2    1.44    6.01
   5  -1  -2    5.12    2.99
   5  -1   2    8.27    2.73
   5  -1  -2    2.18    2.74
   5  -1   2    1.37    6.74
   5   1  -2    1.03    3.60
   5   1  -2    5.02    3.47
   5  -1   2    5.25    3.16
   6  -1   2 1630.59   51.44
   6  -1   2 1942.13   81.90
   6  -1  -2 1877.92   64.01
   6  -1   2 1729.35   62.99
   6  -1  -2 1802.46   52.38
   6  -1   2 1544.06   47.89
   6  -1  -2 1435.92   50.49
   6  -1   2  831.77   74.36
   6   1   2  771.54   74.60
   6   1  -2 1522.84   57.68
   6   1   2 1515.62   47.98
   6   1  -2 1593.16   48.46
   6  -1  -2 1544.04   48.30
   6  -1  -2 1477.38   73.80
   6  -1  -2 1585.27   53.52
   6   1  -2 1613.81   48.23
   6   1  -2 1641.63   54.40
   6   1  -2 1478.58   53.38
   6  -1   2 1612.04   48.22
   6   1   2 1504.79   48.34
   7   1   2   17.94    4.90
   7  -1   2   12.11    4.10
   7   1  -2   13.96    5.25
   7   1   2    8.02   11.06
   7  -1  -2    7.32    7.95
   7  -1   2   13.28    4.62
   7  -1  -2    5.07    4.47
   7  -1   2    8.44   10.62
   7  -1   2   14.14    4.41
   7   1  -2    7.73    4.96
   7   1  -2   14.06    4.29
   7  -1  -2    4.58    3.97
   7   1  -2   14.41    4.57
   7   1  -2    4.33    5.24
   7   1   2   13.42    4.12
   7  -1  -2   16.21    5.26
   7  -1  -2   16.35    5.09
   8   1   2  388.18   54.61
   8  -1  -2  699.04   34.31
   8  -1   2  393.93   50.02
   8   1   2  773.61   30.98
   8   1   2  737.11   31.45
   8  -1   2  820.21   32.81
   8  -1  -2  820.84   32.53
   8   1  -2  777.85   30.65
   8  -1  -2  498.54   46.75
   8   1  -2  703.10   38.94
   8   1  -2  747.26   31.14
   8   1  -2  732.06   35.07
   8  -1   2  852.99   32.36
   8   1  -2  514.51   31.50
   8  -1  -2  492.49   29.34
   8  -1   2  717.65   30.21
   9  -1   2    5.49   11.94
   9  -1   2    3.49    3.75
   9   1  -2    3.65    4.57
   9  -1  -2    1.25    3.64
   9   1   2   -2.22   10.93
   9   1  -2   -1.22    6.72
   9   1  -2    5.67    4.77
   9   1   2    3.81    4.52
   9  -1  -2    3.96   10.30
  10  -1   2  443.02   24.28
  10   1  -2  448.20   25.26
  10   1   2  467.14   26.28
  10  -1  -2  431.27   26.48
  10  -1   2  188.77   36.03
  10  -1  -2  170.89   31.27
  10   1   2  247.40   44.79
  10  -1  -2  470.21   26.13
  10   1  -2  457.35   28.98
  10  -1   2  466.08   26.34
  11  -1  -2    8.19    6.30
  11   1  -2   -0.52    5.63
  11  -1   2    2.21    4.72
  11  -1   2    1.86   11.25
  11  -1  -2    3.24    5.48
  11  -1  -2   -3.06    9.23
  11   1   2   -0.84    5.49
  11   1   2   -2.23   14.04
  11   1  -2    5.31    5.92
  11  -1   2    0.41    5.96
 -12   2  -2  114.00   19.44
 -11   2  -2   10.54    9.60
 -11   2  -2    6.99    8.62
 -11  -2  -2    8.54    5.45
 -11  -2  -2    6.52    4.37
 -11   2   2    9.16   10.35
 -10   2   2  185.02   25.34
 -10  -2   2  230.56   17.41
 -10  -2  -2  197.81   14.73
 -10  -2   2  212.23   17.32
 -10   2   2  153.21   17.48
 -10   2  -2  200.52   15.09
 -10  -2  -2  185.70   15.98
 -10   2  -2  191.47   24.89
  -9   2  -2    8.42    7.64
  -9   2   2    2.67    7.44
  -9  -2   2   10.13    4.83
  -9   2  -2   13.41    5.13
  -9   2   2    7.58    5.65
  -9  -2   2   14.17   12.86
  -9  -2  -2    7.29    4.59
  -9  -2   2   14.16    5.60
  -9  -2  -2    9.64    4.10
  -9  -2  -2   11.81    8.37
  -9   2  -2    8.14    6.83
  -8   2  -2  391.30   32.97
  -8   2   2  452.62   51.01
  -8   2   2  220.34   20.66
  -8  -2  -2  473.47   23.38
  -8  -2  -2  863.16   41.87
  -8   2  -2  717.73   37.07
  -8   2  -2  516.60   23.09
  -8   2   2  311.90   30.51
  -8  -2   2  499.27   24.53
  -8  -2   2  446.81   23.51
  -8  -2  -2  379.58   25.85
  -8  -2   2  695.56   51.12
  -7  -2   2   11.84    4.27
  -7   2   2    9.89    6.29
  -7  -2   2   10.17   14.63
  -7   2  -2    9.70    6.59
  -7   2  -2   10.57    6.49
  -7  -2  -2   21.21    4.39
  -7   2   2   18.54   12.93
  -7  -2   2   16.38    5.08
  -7  -2   2    8.20    9.30
  -7   2  -2   16.52    4.32
  -7   2   2    8.03    6.24
  -7  -2  -2   15.28    4.50
  -7  -2  -2   12.61    6.23
  -7   2  -2   11.79    6.96
  -7   2   2    6.13    4.24
  -7  -2  -2   19.07    7.88
  -6  -2  -2  924.90   31.13
  -6   2  -2  773.41   43.32
  -6   2   2  981.35   61.97
  -6   2   2  555.04   29.97
  -6  -2   2  663.86   29.53
  -6  -2   2  899.05   31.47
  -6   2  -2  462.89   36.18
  -6  -2  -2  914.65   30.72
  -6  -2  -2 1588.19   56.09
  -6   2   2  651.94   41.25
  -6   2  -2  997.45   31.33
  -6   2  -2 1397.83   51.64
  -6  -2   2  856.67   32.50
  -6  -2   2 1073.30   60.07
  -6   2  -2  781.99   41.11
  -6   2   2  666.35   39.39
  -6  -2  -2  990.21   31.21
  -5   2   2   43.00    5.66
  -5   2   2   43.05   12.08
  -5   2  -2   29.89    8.46
  -5   2  -2   52.59    9.34
  -5  -2   2   40.66   12.68
  -5  -2   2   56.65    6.04
  -5  -2  -2   60.96   11.22
  -5   2   2   41.36    8.72
  -5  -2  -2   70.49    6.56
  -5  -2  -2   77.48    7.44
  -5  -2  -2   57.63    5.87
  -5   2  -2   47.55   10.00
  -5  -2   2   32.88    8.96
  -5   2  -2   57.75   10.56
  -5   2   2   52.36   10.28
  -4  -2  -2 1063.37   32.48
  -4  -2   2  714.91   45.91
  -4   2   2 1124.70   50.56
  -4   2   2 1093.02   30.72
  -4  -2   2 1202.08   76.01
  -4   2  -2 1299.72   50.74
  -4  -2  -2 1548.65   53.42
  -4  -2   2 1001.52   31.70
  -4   2   2  908.49   41.09
  -4   2  -2  695.75   39.18
  -4   2  -2  957.15   43.42
  -4  -2  -2 1032.10   31.48
  -4  -2   2 1039.74   31.13
  -4   2  -2  955.11   41.60
  -4  -2   2 1179.00   58.58
  -4  -2  -2 1012.80   30.63
  -4  -2   2 1262.31   43.55
  -4   2   2  915.75   43.14
  -3  -2   2   89.60   18.51
  -3  -2   2   97.44    6.08
  -3  -2  -2   87.76    5.72
  -3  -2  -2   85.48   11.85
  -3  -2   2  110.65    7.59
  -3   2   2   81.65    9.35
  -3   2  -2   85.46    9.87
  -3   2   2   52.52    7.99
  -3  -2   2   39.89    5.92
  -3  -2   2   38.19    6.51
  -3   2  -2   80.43    9.68
  -3  -2   2   95.38    6.28
  -3  -2  -2   91.75    6.03
  -3   2  -2   90.46    9.86
  -3   2  -2   75.29   11.27
  -3  -2   2   82.35   15.10
  -3   2   2   91.22    7.35
  -3   2   2   79.80    9.57
  -3  -2   2  107.07    8.30
  -2   2   2 1338.86   39.40
  -2  -2   2 1496.05   39.80
  -2   2  -2 1545.61   47.18
  -2  -2   2 1693.18   71.34
  -2   2   2 1304.14   45.14
  -2  -2   2 1425.32   41.17
  -2  -2   2 1354.96   37.09
  -2   2  -2 1583.08   58.19
  -2   2   2 1237.57   40.92
  -2  -2   2 1302.21   42.89
  -2  -2  -2 1458.37   37.23
  -2  -2   2 1496.94   43.24
  -2   2  -2 1431.26   46.09
  -2   2   2 1326.61   45.02
  -2  -2   2 1347.87   37.33
  -2  -2   2 1620.47   71.41
  -1  -2   2   27.55    4.17
  -1  -2   2   25.07    3.76
  -1  -2   2   32.04    1.94
  -1   2  -2   34.92    8.49
  -1  -2   2   29.24    7.63
  -1  -2  -2   51.66    4.11
  -1   2  -2   47.54    5.84
  -1  -2  -2   44.03    5.34
  -1   2   2   33.23    4.77
  -1  -2   2   19.55    6.97
  -1  -2   2   36.78    4.00
  -1  -2  -2   17.93    2.16
  -1  -2   2   29.59    2.78
  -1   2   2   23.59    3.02
  -1  -2   2   13.61    3.57
  -1   2  -2   43.63    5.55
  -1  -2   2   16.97    3.35
  -1  -2   2   25.96    4.08
  -1  -2  -2   42.77    3.20
  -1  -2   2   31.95    3.19
  -1   2   2   29.96    4.46
  -1   2   2   29.20    3.34
  -1  -2   2   33.81   11.26
   0  -2   2 2140.01   64.98
   0  -2  -2 2673.11   62.45
   0   2  -2 2811.36   61.17
   0  -2  -2 2782.80   61.81
   0   2   2 2152.08   61.66
   0   2  -2 2748.55   68.45
   0  -2  -2 2809.30   62.36
   0  -2   2 2275.24   64.95
   0  -2   2 3291.96  111.60
   0   2   2 2019.93   65.25
   0  -2   2 2237.32   79.62
   0  -2   2 2341.83   65.99
   0  -2   2 2701.33   66.00
   0  -2   2 2279.88   64.89
   0  -2  -2 2829.00   67.80
   0  -2   2 2282.49   61.04
   0  -2   2 2299.31   59.04
   1   2   2   17.58    5.91
   1   2  -2   46.91    2.49
   1  -2   2   48.92   13.88
   1  -2   2   28.57    7.02
   1  -2   2   34.90    3.51
   1  -2  -2   39.38    4.76
   1   2   2   32.06    3.18
   1  -2   2   23.86    4.09
   1  -2  -2   51.81    4.44
   1  -2   2   25.93    4.25
   1  -2  -2   42.78    5.27
   1   2  -2   50.35    3.81
   1   2  -2   36.37    4.68
   2  -2   2 1599.69   48.11
   2   2  -2 1455.40   34.87
   2   2   2 1330.33   51.83
   2  -2   2 1263.79   35.66
   2  -2  -2 1628.56   47.58
   2  -2   2 1358.47   41.28
   2  -2   2 1496.48   52.68
   2  -2   2 1362.01   45.13
   2   2  -2 1518.45   38.23
   2  -2  -2 1640.94   37.20
   2   2   2 1331.87   37.80
   2  -2   2 1367.42   45.33
   2  -2  -2 1640.21   47.68
   3  -2   2   93.07   10.34
   3  -2  -2  102.65   10.73
   3  -2   2   96.18   10.37
   3  -2   2   47.21   11.51
   3  -2  -2   96.11   10.34
   3  -2  -2  106.41    7.09
   3  -2  -2  104.57    7.96
   3  -2   2   95.44    5.53
   3   2   2  103.51    6.60
   3   2  -2   55.11    7.10
   3   2  -2   95.89    6.31
   3   2   2   57.65    9.12
   3  -2  -2   96.97   11.19
   3   2  -2   82.15   13.80
   3  -2   2  167.16   25.08
   3  -2   2  102.70    5.75
   4  -2   2  610.36   50.66
   4  -2   2 1198.29   46.50
   4  -2  -2 1315.90   34.17
   4   2  -2 1257.28   63.38
   4   2  -2 1126.99   34.23
   4   2   2  969.69   41.77
   4   2  -2 1262.59   41.53
   4  -2  -2 1273.28   47.40
   4  -2  -2 1135.10   37.10
   4  -2  -2 1228.40   51.45
   4  -2  -2 1071.03   34.35
   4  -2   2 1047.89   32.59
   4  -2   2 1049.20   32.34
   4  -2   2 1752.99   84.71
   4  -2   2 1192.75   46.77
   4  -2  -2 1336.90   48.43
   4   2  -2 1125.90   40.49
   4   2   2 1105.53   34.38
   5  -2  -2   66.61    6.58
   5  -2  -2   69.75    8.24
   5  -2  -2   65.38   10.93
   5   2  -2   82.31    9.15
   5   2  -2   64.37    6.48
   5   2  -2   59.66   15.65
   5  -2   2   53.66    9.95
   5  -2   2   59.50    5.85
   5   2  -2   81.65    8.10
   5  -2   2   66.63    7.82
   5  -2  -2   62.53    7.31
   5   2   2   63.81    6.56
   5   2  -2   33.74    7.43
   5  -2  -2   53.88   11.53
   5  -2  -2   77.41    8.34
   5  -2   2   32.69   12.94
   5  -2   2  108.64   22.83
   5   2  -2   28.56    6.53
   5  -2  -2   23.44    4.55
   6   2  -2 1121.18   42.76
   6   2  -2  938.43   66.59
   6  -2  -2 1063.60   36.95
   6  -2   2 1025.91   38.80
   6  -2   2 1079.02   49.90
   6  -2  -2 1260.42   52.57
   6   2  -2 1200.14   39.84
   6  -2   2 1412.96   79.01
   6   2  -2 1098.88   43.77
   6   2   2  985.56   36.07
   6  -2  -2 1012.61   35.30
   6  -2  -2 1013.90   56.27
   6  -2  -2 1120.60   41.69
   6  -2  -2 1242.35   41.22
   6   2   2  969.20   35.09
   6   2  -2 1072.79   43.03
   6   2  -2 1099.74   35.91
   6   2  -2 1095.08   36.68
   7   2  -2   16.41    5.67
   7  -2  -2   15.21    9.39
   7   2  -2   10.07   10.35
   7  -2   2   13.36    3.88
   7   2  -2   24.04    5.40
   7  -2   2    1.42    8.58
   7  -2  -2   18.86    6.06
   7  -2  -2   16.47    5.14
   7   2   2   18.50    5.17
   7  -2  -2   21.17    8.28
   7   2  -2   12.50    5.50
   7   2  -2   14.57    6.49
   7  -2   2   14.31    7.72
   7  -2   2   20.99   13.19
   7  -2   2   19.04    5.55
   7   2  -2   21.66    5.01
   7   2   2   15.08    4.19
   7  -2  -2   20.78    4.73
   7  -2  -2    8.14    4.06
   8   2  -2  583.20   31.01
   8  -2   2  241.73   36.47
   8   2  -2  385.95   46.80
   8  -2   2  670.16   49.66
   8  -2   2  511.13   23.18
   8   2  -2  581.07   26.17
   8  -2  -2  682.36   35.83
   8  -2  -2  444.82   41.85
   8  -2   2  581.29   36.57
   8  -2  -2  362.45   22.69
   8  -2  -2  608.80   37.13
   8   2  -2  544.78   31.69
   8   2   2  496.28   25.17
   8  -2   2  473.47   22.98
   9  -2   2   16.67    5.03
   9   2  -2   12.65    6.41
   9  -2  -2    3.68    8.56
   9  -2   2   12.47   11.54
   9   2  -2    6.98    9.64
   9   2  -2   17.01    6.11
   9   2   2    8.96    6.20
   9   2   2   20.15    6.24
   9   2  -2    4.91    6.31
   9  -2  -2   15.73    7.87
   9  -2  -2    2.96    3.88
  10  -2   2   99.11   25.21
  10   2   2  264.60   19.23
  10   2   2  271.10   21.43
  10  -2  -2   95.98   23.33
  10   2  -2  255.18   18.75
  10  -2   2  229.50   16.29
  10   2  -2  244.51   21.57
  11   2   2   15.59    6.82
  11  -2  -2   14.19    6.68
  11  -2   2    1.68   10.13
  11   2  -2   12.36    7.91
  11  -2   2   16.30    5.90
  11   2  -2   13.86    6.64
  11  -2  -2    9.87   11.01
 -11   3  -2    0.71    6.29
 -10  -3  -2  182.04   15.44
 -10  -3   2  200.50   16.66
 -10  -3   2  224.42   17.16
 -10   3  -2  181.01   24.62
 -10   3  -2  135.73   18.69
 -10   3   2  131.88   21.91
  -9   3  -2   23.91   10.83
  -9  -3   2   33.84    7.17
  -9  -3  -2   37.65   12.54
  -9   3  -2   30.24   11.11
  -9  -3   2   29.71    6.97
  -9  -3  -2   32.07    6.80
  -9   3  -2   12.10    6.76
  -9   3   2   14.61    5.01
  -9   3   2   19.54   10.53
  -8   3   2  243.88   17.28
  -8  -3  -2  771.77   44.86
  -8  -3  -2  366.09   19.18
  -8  -3   2  410.26   21.52
  -8   3  -2  591.90   38.41
  -8   3   2  381.62   45.62
  -8  -3   2  417.64   22.28
  -8  -3   2  627.79   51.67
  -8   3  -2  196.75   21.66
  -8   3  -2  287.52   29.02
  -8   3   2  290.56   29.82
  -8  -3  -2  383.99   20.35
  -7   3   2   76.59   14.49
  -7   3   2   88.84   22.26
  -7  -3   2   98.68    9.55
  -7   3  -2  112.16   17.48
  -7   3  -2   42.47    9.65
  -7   3   2   63.35    7.72
  -7  -3   2   84.87   20.57
  -7  -3  -2   99.81    9.21
  -7  -3  -2  110.86   18.48
  -7   3  -2   70.03   13.83
  -7   3   2   41.69   10.84
  -7  -3   2   68.47   11.80
  -7  -3  -2  104.58    9.43
  -7  -3  -2  110.76    9.68
  -6  -3  -2 1281.88   57.27
  -6  -3   2  538.48   38.89
  -6  -3   2  989.03   60.95
  -6   3   2  613.57   36.75
  -6  -3   2  763.68   70.86
  -6   3  -2 1197.44   55.16
  -6  -3  -2  745.04   25.56
  -6  -3  -2  742.27   26.78
  -6   3   2  858.32   55.70
  -6   3  -2  601.84   38.43
  -6  -3   2  762.21   26.14
  -6   3  -2  376.09   29.31
  -6   3  -2  637.30   37.24
  -6   3   2  375.24   30.45
  -6   3  -2  387.71   29.46
  -6   3   2  709.31   26.13
  -6  -3   2  756.47   27.43
  -6   3   2  610.51   39.03
  -6  -3  -2  782.04   27.91
  -5  -3  -2  132.14    9.88
  -5   3   2  122.47    8.73
  -5   3   2  117.54   15.00
  -5   3  -2  102.54   16.78
  -5   3   2  125.75   18.49
  -5  -3  -2  140.94   19.46
  -5  -3   2  152.27   11.02
  -5  -3   2   81.57   23.56
  -5   3  -2   59.75   10.07
  -5  -3   2  114.94   21.04
  -5  -3   2   65.52   15.57
  -5  -3   2  131.20    9.49
  -5   3  -2   92.57   13.42
  -5   3  -2   81.02   11.48
  -5  -3  -2  126.46    9.03
  -5   3   2   60.74   10.29
  -5  -3   2  131.20    8.83
  -5  -3  -2  116.04    8.21
  -5  -3   2  151.14   11.81
  -4  -3   2 1231.95   36.05
  -4  -3  -2 1178.41   37.82
  -4  -3   2 1182.73   78.28
  -4  -3   2 1218.76   41.60
  -4   3  -2 1023.75   44.36
  -4  -3   2 1518.19   71.71
  -4  -3  -2 1813.72   69.46
  -4  -3  -2 1211.01   35.41
  -4   3  -2  836.64   41.81
  -4  -3   2 1283.82   39.26
  -4   3   2 1159.98   39.66
  -4   3  -2 1528.50   65.06
  -4  -3  -2 1211.90   36.38
  -4  -3   2  951.51   59.88
  -4  -3   2 1348.40   41.81
  -4   3   2  842.07   40.60
  -4   3   2 1379.53   55.68
  -4   3  -2 1035.99   47.14
  -4   3   2 1084.46   48.05
  -4  -3   2 1512.53   51.97
  -4  -3   2 1236.34   37.09
  -3   3  -2  136.81   12.35
  -3  -3  -2  164.99   20.01
  -3  -3  -2  128.07    7.91
  -3   3  -2  118.24   17.70
  -3  -3   2  130.53   22.80
  -3   3   2  105.78   10.13
  -3   3   2  162.88   10.79
  -3  -3   2  209.84   12.16
  -3  -3   2  187.02   25.63
  -3  -3   2  185.29   11.80
  -3  -3   2   87.78    9.12
  -3   3  -2   97.23   10.52
  -3  -3   2  174.38    9.42
  -3  -3  -2  141.86    8.47
  -3  -3   2   75.26   10.11
  -3   3   2  121.82   12.22
  -3   3   2  138.69   13.71
  -3   3  -2  125.45   13.23
  -3  -3   2  162.25    8.74
  -2   3  -2 1780.77   74.97
  -2  -3   2 1316.67   70.01
  -2   3  -2 1721.85   58.13
  -2  -3   2 1725.78   52.41
  -2  -3   2 1794.24   48.59
  -2  -3   2 1764.16   46.67
  -2  -3  -2 1700.60   46.21
  -2   3  -2 1781.54   55.97
  -2  -3   2 1681.18   53.22
  -2  -3   2 1722.94   54.80
  -2   3   2 1639.15   50.47
  -2   3   2 1670.55   54.08
  -2  -3  -2 1933.38   56.97
  -2   3  -2 1589.89   53.48
  -2   3   2 1644.14   57.13
  -2  -3   2 1796.26   51.11
  -2  -3   2 2093.52   55.57
  -2   3  -2 1642.85   55.29
  -1   3   2  271.19   27.15
  -1  -3   2  425.46   16.98
  -1  -3   2  409.29   12.21
  -1  -3  -2  430.57   15.30
  -1   3   2  336.31   15.46
  -1  -3  -2  377.38   15.49
  -1  -3   2  194.56   14.21
  -1   3  -2  351.06   20.31
  -1   3  -2  301.21   27.92
  -1   3  -2  332.10   18.38
  -1  -3  -2  363.97   19.47
  -1  -3   2  318.62   28.20
  -1  -3   2  348.38   17.31
  -1   3   2  328.49   16.76
  -1  -3  -2  406.73   14.26
  -1  -3   2  359.71   17.83
  -1  -3   2  353.01   18.92
  -1   3   2  341.10   19.71
  -1  -3   2  393.47   14.27
   0   3  -2 2106.22   64.61
   0  -3   2 2271.46   82.54
   0  -3  -2 2085.98   56.52
   0   3   2 1775.58   78.83
   0   3  -2 2200.01   55.45
   0  -3  -2 2176.41   56.27
   0  -3   2 2084.56   53.68
   0  -3   2 2017.54   60.88
   0  -3   2 2112.76   56.27
   0   3   2 1809.56   62.45
   0  -3  -2 2294.16   58.47
   0  -3   2 2084.14   61.30
   0  -3   2 2469.47   61.94
   0  -3  -2 2247.37   63.63
   0  -3   2 1923.39   61.41
   0   3  -2 2022.03   61.92
   0   3   2 2433.57   56.12
   1  -3  -2  364.59   18.38
   1  -3   2  445.38   14.41
   1  -3   2  343.17   26.47
   1   3   2  281.12   25.50
   1  -3  -2  454.51   15.95
   1  -3   2  311.92   17.00
   1  -3  -2  351.91   16.40
   1   3  -2  408.44   12.28
   1   3  -2  321.54   14.64
   1  -3   2  323.21   17.44
   2   3  -2 1744.19   45.87
   2  -3   2 1865.73   51.43
   2   3   2 1756.90   50.11
   2  -3   2 2130.77   60.40
   2   3  -2 1810.17   77.96
   2  -3  -2 1795.99   48.49
   2   3  -2 1727.71   49.43
   2  -3  -2 1884.04   52.13
   2   3   2 1647.45   69.86
   2   3   2 1790.95   50.04
   2  -3   2 1878.01   46.60
   2  -3  -2 1864.20   58.90
   2  -3   2 1967.37   58.94
   2  -3  -2 2270.40   62.15
   2  -3   2 1756.12   57.65
   2  -3   2 1994.28   71.66
   2  -3   2 1750.70   57.52
   2  -3  -2 1863.19   58.67
   3  -3   2  157.06   13.86
   3  -3  -2  145.19   13.59
   3   3   2  187.11   10.54
   3   3   2  191.32   10.28
   3  -3   2  186.30   11.90
   3  -3   2  165.54    8.04
   3   3  -2  126.66   16.75
   3   3  -2  147.07    9.06
   3  -3   2  148.40   13.63
   3  -3   2  163.17   15.55
   3   3   2  110.53   15.19
   3   3  -2  152.50    7.13
   3  -3  -2  174.56   11.32
   3  -3   2  150.10   13.56
   3  -3  -2  173.29   10.61
   3   3  -2   76.66    8.97
   3  -3  -2  129.36   12.90
   3  -3  -2  143.55   10.30
   4  -3   2 1384.92   52.33
   4  -3  -2 1421.78   53.02
   4  -3   2 1391.79   52.61
   4  -3  -2 1328.61   43.54
   4   3  -2 1246.53   38.80
   4   3  -2 1405.87   68.35
   4  -3  -2 1238.37   41.43
   4   3   2 1148.53   53.79
   4  -3   2 1179.30   36.76
   4  -3   2 1188.45   55.26
   4  -3   2 1261.60   44.30
   4  -3  -2 1221.94   38.95
   4  -3   2 1208.52   36.36
   4   3   2 1435.60   41.64
   4  -3  -2 1413.97   53.62
   4  -3  -2 1431.45   53.60
   4   3   2 1326.21   39.53
   4   3  -2 1424.92   46.87
   4   3  -2 1320.45   36.01
   5  -3  -2  142.48   15.67
   5  -3  -2  133.94    9.38
   5   3   2  182.98   11.98
   5  -3   2  131.40   15.17
   5  -3   2  226.93   32.46
   5  -3   2  131.93   12.11
   5  -3   2  131.47   15.25
   5   3  -2  135.31    9.56
   5   3   2   70.35   21.12
   5   3  -2  110.87   20.77
   5   3  -2   90.10   10.65
   5  -3   2   76.94   14.93
   5   3   2   76.72   11.91
   5  -3  -2  137.66   10.82
   5  -3   2  133.36    8.41
   5   3   2  142.26   10.02
   5  -3  -2  137.74   16.52
   5  -3   2  135.11    8.65
   5  -3  -2  149.86   16.10
   5  -3  -2   62.77    5.80
   5   3   2   28.12    8.97
   6  -3   2  670.53   33.93
   6  -3  -2  788.11   29.36
   6   3  -2  846.18   61.74
   6   3   2  459.44   57.14
   6  -3   2  908.08   44.76
   6  -3   2  777.76   28.07
   6  -3  -2  809.83   32.41
   6   3  -2  874.03   31.31
   6   3   2  920.77   25.10
   6   3  -2  919.58   37.61
   6  -3   2 1219.88   77.30
   6   3   2  876.15   31.84
   6  -3   2  497.81   43.23
   6  -3  -2  858.96   48.50
   6  -3  -2  897.81   29.13
   6  -3  -2  990.59   46.71
   6   3   2  589.30   37.72
   7  -3   2   45.20   14.38
   7  -3   2  135.03   17.61
   7  -3  -2  110.69    9.39
   7   3   2   82.07    7.21
   7   3  -2  113.16   10.43
   7   3   2  116.83   10.75
   7  -3   2  155.41   30.14
   7   3   2   63.55   24.25
   7   3  -2   73.32   10.92
   7   3  -2   87.40   22.23
   7  -3  -2  104.95   18.25
   7  -3  -2  130.24   17.72
   7  -3  -2   36.18    6.31
   8   3  -2  506.31   24.57
   8  -3   2  532.69   35.87
   8  -3   2  204.69   30.98
   8  -3   2  626.87   54.84
   8   3   2  495.03   24.72
   8  -3  -2  356.83   35.79
   8   3   2  238.53   46.27
   8   3  -2  320.30   42.52
   8   3   2  584.07   22.78
   8   3  -2  508.29   29.23
   8  -3  -2  354.07   20.54
   8  -3  -2  560.33   36.76
   9  -3  -2   36.60   11.43
   9  -3   2   37.62   16.53
   9   3  -2   26.44    8.65
   9  -3  -2   42.16   12.55
   9   3  -2    8.80   11.51
   9  -3  -2   25.87   11.80
   9   3  -2   43.46    8.05
   9   3   2   42.81    8.09
   9   3   2   22.24   18.30
   9   3   2   28.36    6.62
   9  -3   2   39.44   11.28
  10  -3   2  221.92   15.60
  10   3   2  126.99   35.08
  10   3  -2  244.55   18.25
  10  -3  -2  128.16   25.07
  10   3   2  226.42   17.97
  11  -3  -2    1.32    8.32
 -11   4   2   20.47   14.56
 -10   4  -2   58.78   12.20
  -9   4  -2   42.07   13.64
  -9   4  -2   20.34    9.78
  -9  -4  -2   32.57    6.49
  -9  -4   2   34.74    7.19
  -9  -4  -2   31.88    6.77
  -9   4  -2    8.89    5.97
  -9  -4   2   33.69    7.37
  -9   4   2   25.84   11.17
  -8   4   2  176.67   13.11
  -8  -4  -2  224.81   15.03
  -8   4  -2  362.28   34.22
  -8  -4   2  228.41   15.60
  -8  -4  -2  404.00   37.09
  -8   4   2  164.62   22.21
  -8   4  -2  102.90   14.84
  -8   4  -2  149.72   21.02
  -7  -4  -2   54.34    7.24
  -7  -4   2   49.53    7.18
  -7   4   2   43.87   11.55
  -7  -4  -2   69.86   17.95
  -7   4  -2   59.92   16.12
  -7   4  -2   28.01    8.06
  -7   4  -2   41.83   11.43
  -7  -4   2   33.11   12.72
  -7   4   2   44.84   15.68
  -6   4   2  482.67   41.02
  -6  -4  -2  872.73   53.29
  -6   4  -2  316.89   23.95
  -6  -4  -2  463.13   20.41
  -6   4  -2  697.79   47.52
  -6  -4   2  478.13   21.14
  -6  -4   2  453.63   22.14
  -6  -4   2  325.62   34.84
  -6   4   2  235.78   21.59
  -6   4  -2  368.10   29.98
  -6   4   2  341.99   29.27
  -6  -4   2  627.19   51.60
  -5  -4  -2  133.39   10.61
  -5   4  -2   96.29   12.21
  -5  -4   2   62.86   17.91
  -5  -4  -2  123.31    8.86
  -5   4  -2  106.54   19.53
  -5  -4   2  128.91    9.99
  -5  -4   2  103.18   21.96
  -5  -4  -2  151.86   23.04
  -5   4   2  104.18   17.43
  -5   4  -2   57.16   10.15
  -5  -4   2  131.52   10.91
  -5  -4   2  140.43   11.94
  -5   4   2   69.74   10.50
  -5  -4  -2  121.55    9.49
  -5   4   2   83.58   14.00
  -5   4  -2   97.06   14.65
  -5  -4   2  128.81    9.18
  -4  -4   2 1009.86   43.85
  -4   4   2  662.62   31.92
  -4  -4  -2  758.63   29.25
  -4  -4  -2 1141.46   61.19
  -4  -4   2  871.47   31.64
  -4   4   2  828.73   41.63
  -4  -4  -2  781.69   26.77
  -4   4   2  732.60   39.83
  -4  -4   2  828.40   28.82
  -4   4   2  570.68   48.66
  -4  -4  -2  758.87   27.57
  -4   4  -2  884.28   55.22
  -4  -4   2  822.99   31.84
  -4  -4   2  784.72   31.38
  -4  -4   2 1026.87   61.90
  -4   4  -2  527.59   31.37
  -4  -4   2  835.75   27.62
  -4   4  -2  689.34   34.59
  -4   4  -2  686.34   38.99
  -3  -4   2  218.51   13.86
  -3  -4   2  111.50   10.92
  -3  -4   2  210.64   12.75
  -3   4  -2  166.29   24.02
  -3  -4  -2  205.87   10.85
  -3  -4   2  202.34   10.79
  -3  -4   2  182.36   25.95
  -3   4  -2  181.74   15.30
  -3  -4  -2  190.23   25.66
  -3   4  -2  155.40   16.21
  -3  -4   2  175.49   15.25
  -3   4   2  151.39   12.51
  -3   4  -2  150.04   13.88
  -3   4   2  163.58   16.52
  -3  -4  -2  190.59   16.23
  -3  -4   2   74.24   12.03
  -3   4  -2  148.99   14.71
  -2  -4   2 1027.62   35.54
  -2  -4  -2 1017.47   34.57
  -2  -4   2  967.57   37.21
  -2  -4  -2  957.78   30.50
  -2   4   2  913.92   35.54
  -2  -4   2 1015.71   31.29
  -2  -4  -2 1057.31   41.60
  -2  -4   2 1067.04   41.10
  -2   4  -2  867.82   38.46
  -2   4   2  988.04   43.57
  -2   4  -2  910.04   42.48
  -2   4   2  932.72   36.24
  -2   4  -2 1005.74   59.96
  -1  -4  -2  209.37   11.01
  -1   4  -2  167.10   23.66
  -1   4   2  179.06   11.22
  -1   4  -2  171.43   15.85
  -1  -4  -2  184.11   11.91
  -1   4   2  152.75   11.27
  -1  -4   2  194.37    8.65
  -1   4  -2  153.64   13.34
  -1  -4   2  140.68   21.39
  -1   4   2  117.87   20.05
  -1  -4   2  169.31   13.97
  -1  -4  -2  167.61   11.57
  -1   4   2  154.22   14.79
  -1  -4  -2  186.20   14.81
  -1   4  -2  208.16   11.42
  -1  -4   2   80.94    9.70
  -1   4   2  156.71   11.58
  -1  -4   2  191.48   10.23
  -1  -4  -2  202.25   10.32
   0  -4   2 1060.44   38.91
   0   4   2 1060.36   35.30
   0  -4  -2 1108.82   34.77
   0  -4   2 1261.51   39.86
   0   4   2  890.62   56.62
   0  -4   2 1138.85   34.77
   0  -4   2 1270.05   61.85
   0  -4  -2 1157.17   34.64
   0  -4   2 1142.84   32.10
   0  -4   2 1035.86   40.47
   0  -4  -2 1191.45   37.94
   0   4   2 1118.14   31.15
   0  -4  -2 1136.32   42.11
   0   4  -2 1081.33   33.57
   1  -4  -2  179.86   12.61
   1   4  -2  210.01    9.48
   1  -4  -2  219.46   11.69
   1   4   2  137.55   20.39
   1  -4   2  196.05    9.88
   1  -4   2  174.81   13.23
   1   4   2  178.15   10.52
   1  -4  -2  188.53   14.37
   1   4  -2  156.24    8.48
   1  -4   2  146.33   20.35
   1  -4   2  107.09    9.79
   1   4   2   67.54    7.05
   1  -4   2  152.43   12.95
   1  -4  -2  174.57   10.45
   2  -4   2 1202.16   57.21
   2  -4   2 1107.75   34.09
   2  -4  -2  949.99   32.04
   2  -4  -2 1067.44   35.13
   2  -4  -2 1026.48   40.97
   2   4   2  875.78   53.02
   2  -4   2 1001.44   40.24
   2  -4   2  959.41   40.41
   2  -4   2 1186.77   41.77
   2   4  -2  874.15   57.22
   2   4  -2  987.59   29.79
   2  -4  -2 1217.23   43.42
   2  -4  -2 1031.84   41.89
   2   4   2 1108.11   37.08
   2   4   2 1031.37   33.50
   3  -4   2  236.28   18.53
   3  -4   2  236.42   13.79
   3  -4   2  343.58   41.14
   3   4  -2  220.72    9.67
   3   4  -2  119.71   20.85
   3   4  -2  193.13   20.07
   3   4   2  142.87   20.23
   3   4   2  205.20   12.35
   3   4   2  215.78   12.28
   3   4  -2  203.05   12.07
   3   4   2   71.97   10.13
   3  -4  -2  235.38   13.82
   3  -4   2  172.74   16.02
   3  -4  -2  179.58   16.29
   3  -4  -2  206.29   12.28
   3  -4   2  178.65   15.72
   3  -4  -2  182.31   16.20
   4   4  -2  792.56   29.19
   4  -4   2  855.55   39.37
   4  -4  -2  866.42   39.91
   4  -4  -2  825.86   39.76
   4  -4   2  851.02   39.81
   4   4  -2  801.30   49.67
   4  -4   2  714.01   26.40
   4   4   2  552.91   55.45
   4   4   2  876.58   30.31
   4  -4   2  845.31   32.43
   4   4   2  725.11   45.07
   4  -4  -2  753.54   30.53
   4  -4   2 1241.93   77.57
   4  -4   2  710.91   25.06
   4   4   2  851.66   30.18
   4   4  -2  809.34   25.12
   4  -4   2  811.69   31.11
   4   4  -2  892.17   35.43
   4   4   2  883.23   37.89
   4  -4  -2  927.03   33.86
   5  -4   2  202.42   32.67
   5   4   2  146.60   11.14
   5  -4   2  126.48   15.32
   5  -4  -2  129.12   15.92
   5  -4   2  119.32   11.68
   5   4   2   70.52   13.99
   5  -4   2  112.93    7.98
   5  -4  -2  128.41    9.57
   5  -4   2  116.66    8.60
   5   4   2   64.03   22.32
   5   4   2   47.69   10.44
   5  -4  -2  135.18   11.25
   5   4  -2  138.12   10.69
   5  -4   2  117.72   15.34
   5  -4  -2  139.02   16.52
   5  -4   2  102.25   12.51
   5   4  -2   90.28   19.01
   5   4  -2  153.82    8.75
   5   4   2  167.92   11.86
   5   4  -2   57.03   10.08
   5  -4  -2  158.66   13.23
   6   4   2  586.62   25.25
   6   4  -2  463.54   45.04
   6  -4   2  421.61   25.04
   6  -4   2  534.53   33.91
   6  -4  -2  534.33   34.12
   6  -4   2  438.21   19.03
   6  -4  -2  488.63   23.61
   6  -4  -2  474.88   20.99
   6  -4   2  356.55   28.32
   6  -4   2  732.71   61.64
   6  -4   2  462.53   20.06
   6  -4  -2  503.51   33.48
   6   4   2  476.96   30.78
   6   4  -2  523.46   23.45
   6   4   2  532.97   24.03
   6   4  -2  576.40   20.76
   7   4   2   43.87   22.10
   7   4   2   69.25    8.83
   7  -4   2   78.40   23.57
   7   4  -2   42.83   16.76
   7   4  -2   59.22    8.09
   7  -4  -2   51.14   13.06
   7   4  -2   74.96    7.56
   7  -4  -2   64.88   12.88
   7   4   2   80.59    9.72
   7  -4   2   50.90   11.52
   7  -4  -2   63.42    8.70
   7  -4   2   51.77    6.24
   7  -4   2   23.66    9.62
   8   4   2  165.15   39.95
   8   4  -2  305.14   16.36
   8  -4   2  373.36   47.20
   8   4  -2  204.41   34.15
   8  -4  -2  291.75   27.25
   8  -4  -2  216.07   26.20
   8   4  -2  251.01   17.09
   8  -4   2  109.40   19.34
   8   4   2  257.02   17.53
   8  -4   2  277.83   26.73
   8   4   2  338.06   20.36
   9   4  -2   34.81    7.53
   9   4   2   20.45   18.94
   9   4   2   51.71    9.65
   9  -4   2   42.18   12.36
   9  -4  -2   26.02   11.48
   9   4   2   53.11    9.12
   9  -4  -2   51.07   13.46
   9  -4   2   64.09   22.76
   9  -4   2    9.48    8.32
   9   4  -2   59.18    8.17
   9   4  -2   15.59   13.54
  10   4  -2  184.56   14.25
  10   4   2  202.07   17.40
  10  -4  -2   69.61   17.60
  10  -4   2   56.82   15.47
  11   4  -2   35.10    8.13
 -10   5   2   80.49   22.40
  -9   5  -2   23.02   13.79
  -9   5   2   32.01   16.65
  -9   5  -2    9.64    5.78
  -8  -5  -2  179.61   13.63
  -8  -5   2  176.54   13.89
  -8   5  -2  270.39   32.96
  -8   5   2  235.62   35.01
  -8   5  -2   78.40   12.97
  -8   5   2  121.78   20.43
  -8   5  -2  103.87   18.70
  -7   5  -2   50.72   13.77
  -7  -5   2   71.95    8.87
  -7   5  -2   34.92    8.99
  -7  -5   2   71.35    9.34
  -7   5   2   64.32   20.47
  -7  -5  -2   90.50   10.45
  -7  -5  -2   81.03    8.93
  -7   5   2   50.21   13.77
  -7   5  -2   86.54   21.15
  -7   5   2   72.04   19.56
  -7  -5  -2   93.68   22.13
  -6  -5  -2  324.29   19.32
  -6  -5   2  316.88   18.93
  -6   5   2  298.01   33.70
  -6   5  -2  393.47   40.07
  -6   5   2  393.56   42.74
  -6  -5  -2  536.30   46.53
  -6   5  -2  232.79   20.57
  -6  -5   2  310.45   17.68
  -6  -5  -2  307.46   17.20
  -6   5  -2  227.98   25.19
  -6   5   2  255.82   26.76
  -6  -5   2  166.21   29.34
  -5   5   2   96.13   15.67
  -5  -5   2  123.55   10.35
  -5   5  -2   94.59   21.98
  -5   5  -2   91.42   12.56
  -5  -5  -2  115.09    9.83
  -5   5   2   83.65   16.09
  -5   5   2   50.12   17.33
  -5   5  -2   89.01   15.44
  -5  -5  -2  102.88   22.97
  -5  -5   2   78.99   22.38
  -5  -5   2  121.98   11.05
  -5   5   2   72.44   10.90
  -5  -5   2   55.30    8.42
  -4  -5   2  438.74   20.13
  -4   5   2  436.32   29.60
  -4   5   2  390.56   21.48
  -4  -5  -2  621.76   49.58
  -4   5   2  360.71   22.91
  -4  -5  -2  497.16   24.24
  -4  -5   2  404.72   21.50
  -4   5  -2  306.60   24.76
  -4   5   2  369.63   24.49
  -4   5  -2  424.17   41.49
  -4   5   2  292.64   37.11
  -4  -5   2  570.12   27.57
  -4   5  -2  368.18   29.17
  -4  -5  -2  414.33   19.40
  -4   5   2  364.19   29.00
  -3  -5   2  150.91   12.26
  -3  -5   2  142.29   11.03
  -3   5   2  124.45   11.01
  -3   5   2  112.08   11.98
  -3  -5   2  156.87   10.25
  -3  -5  -2  130.20    9.27
  -3  -5   2  132.59   12.73
  -3   5  -2   97.38   20.93
  -3  -5   2  152.60   26.56
  -3  -5   2   75.30    9.56
  -3   5  -2   92.86   12.38
  -3  -5  -2  124.93   14.70
  -3  -5  -2  120.61   11.45
  -3  -5   2  135.86   14.91
  -3   5   2  115.69   15.61
  -3   5  -2  105.77   15.33
  -3  -5   2   56.65   11.61
  -2  -5  -2  684.51   27.95
  -2  -5   2  611.05   27.28
  -2   5   2  581.79   28.10
  -2  -5   2  582.61   28.77
  -2  -5   2  793.72   36.28
  -2   5   2  567.68   25.15
  -2   5  -2  555.14   30.74
  -2   5  -2  550.72   48.79
  -2  -5   2  651.24   23.84
  -2  -5   2  640.77   29.22
  -2  -5  -2  688.62   28.58
  -2   5  -2  585.27   35.42
  -2  -5  -2  685.33   33.89
  -2  -5   2  644.22   32.50
  -2   5   2  575.05   27.02
  -2   5   2  573.05   34.85
  -2  -5  -2  601.98   23.04
  -1   5   2  193.92   12.74
  -1  -5  -2  222.34   12.43
  -1   5  -2  183.05   16.12
  -1   5  -2  167.80   26.56
  -1  -5   2  184.73   14.86
  -1  -5  -2  211.61   11.73
  -1  -5   2  217.15   10.28
  -1  -5   2  165.56   25.42
  -1  -5  -2  173.50   13.39
  -1   5  -2  167.82   17.64
  -1  -5   2   94.79   12.28
  -1  -5  -2  221.06   17.71
  -1  -5   2  182.44   15.96
  -1   5   2  149.96   16.50
  -1  -5   2  214.53   11.94
  -1   5  -2  204.09   12.56
  -1   5   2  133.92   24.19
  -1   5   2  152.58   12.23
  -1  -5   2  203.88   15.26
   0  -5   2  771.88   33.01
   0   5  -2  762.70   27.57
   0  -5  -2  802.17   28.68
   0   5   2  725.32   28.61
   0  -5   2  948.84   57.29
   0   5   2  615.75   50.93
   0  -5   2  823.39   28.86
   0  -5  -2  833.73   36.91
   0  -5   2  835.40   33.00
   0  -5  -2  876.12   33.15
   0  -5   2  788.83   25.75
   0  -5  -2  846.91   28.88
   0  -5   2  747.38   34.99
   1  -5   2  190.73   15.06
   1   5  -2  221.46   11.12
   1   5   2  218.93   12.92
   1  -5  -2  195.72   12.41
   1  -5  -2  237.06   13.31
   1  -5   2  233.92   11.69
   1  -5  -2  201.23   16.46
   1  -5  -2  182.48   14.69
   1  -5   2  237.06   13.45
   1  -5  -2  234.53   13.42
   1   5   2  104.22    8.71
   1  -5   2   99.21   10.66
   1  -5   2  176.83   24.79
   1  -5   2  158.72   14.51
   1   5   2  123.20   22.05
   2   5   2  631.23   24.97
   2  -5  -2  591.50   24.47
   2  -5   2  688.61   31.50
   2   5  -2  558.88   48.66
   2   5   2  490.02   42.66
   2   5   2  641.18   25.29
   2  -5  -2  819.73   35.99
   2  -5  -2  623.43   33.05
   2   5  -2  610.59   25.97
   2   5  -2  616.28   22.03
   2  -5   2  600.46   32.11
   2  -5   2  718.60   27.42
   2  -5   2  678.96   24.94
   2  -5   2  585.54   30.90
   2  -5  -2  659.05   32.75
   2  -5  -2  677.00   26.63
   3  -5   2  172.49   16.24
   3   5  -2  132.79    8.32
   3  -5   2  166.57   11.89
   3  -5  -2  123.79   14.30
   3   5   2   86.19   18.06
   3  -5  -2  134.66   10.71
   3   5  -2   71.20   18.25
   3   5   2  177.01   11.71
   3   5   2   59.15    8.45
   3  -5   2  106.16   13.49
   3  -5  -2  108.53   13.94
   3  -5  -2  147.37   11.78
   3  -5   2  124.33   13.98
   4  -5  -2  450.00   29.33
   4   5  -2  453.30   21.67
   4  -5   2  457.57   22.56
   4   5  -2  481.99   35.61
   4   5   2  293.53   41.80
   4  -5  -2  417.90   21.74
   4  -5   2  379.14   16.59
   4   5   2  365.01   34.70
   4   5   2  417.65   23.01
   4   5   2  482.54   21.53
   4   5  -2  458.71   17.53
   4  -5   2  676.52   60.91
   4  -5   2  500.46   32.75
   4   5   2  472.30   22.37
   4  -5   2  395.12   27.41
   5  -5   2  102.38   14.88
   5   5  -2   92.55   19.04
   5   5   2  142.77   11.44
   5  -5   2  105.20    8.59
   5   5   2  135.19   11.77
   5   5  -2  132.38    8.69
   5   5   2   72.70   16.08
   5  -5   2  106.75    7.95
   5  -5  -2  102.62   10.41
   5   5  -2  135.75   11.55
   5  -5  -2  104.62   15.52
   5   5   2   45.36    9.39
   5   5   2   99.95   27.76
   6   5   2  392.89   20.47
   6   5  -2  375.67   20.43
   6   5  -2  340.07   37.32
   6   5   2  204.64   40.86
   6   5  -2  377.73   16.31
   6  -5   2  308.64   26.56
   6  -5   2  284.66   15.44
   6   5   2  369.12   20.56
   6  -5  -2  313.31   19.00
   6  -5   2  276.35   14.33
   6  -5   2  279.96   19.06
   6  -5  -2  380.69   29.42
   7  -5   2   72.50   13.85
   7   5  -2   99.39    8.47
   7  -5   2   71.77    7.30
   7   5   2   41.07   23.53
   7  -5  -2   74.23   14.48
   7   5   2  104.74   11.19
   7   5  -2   99.42   11.03
   7   5   2   90.16   10.80
   7  -5   2   67.51    7.62
   7   5  -2   48.53   17.69
   7  -5   2   44.26    9.80
   7  -5  -2   80.66    9.62
   8   5   2  212.86   17.05
   8  -5   2  186.81   22.40
   8   5  -2  223.39   16.98
   8  -5  -2  172.64   14.63
   8  -5  -2  221.15   24.38
   8   5   2  138.43   37.30
   8   5  -2  131.77   27.61
   8   5  -2  233.28   13.96
   8   5   2  242.26   17.49
   9   5   2   47.18    9.38
   9   5  -2   44.21    7.02
   9   5   2   37.82   21.11
   9  -5  -2   16.52    9.38
  -8   6  -2   72.17   20.15
  -8   6   2   66.82   21.91
  -7   6   2   24.40   11.14
  -7  -6  -2   47.18    7.79
  -7   6  -2   12.75    7.90
  -7  -6  -2   66.94   10.04
  -7  -6   2   42.21    7.43
  -7   6  -2   45.19   17.58
  -7   6   2   17.25   15.01
  -7  -6   2   47.82    8.43
  -7   6  -2   38.63   13.16
  -6  -6   2  129.50   11.67
  -6   6   2  114.31   26.45
  -6   6   2   79.94   13.55
  -6   6  -2  161.15   29.44
  -6  -6  -2  120.81   11.14
  -6  -6  -2  127.52   12.61
  -6  -6   2  116.38   11.86
  -6   6  -2   61.81   13.60
  -6   6   2   78.93   16.30
  -6   6  -2   85.69   17.19
  -5   6  -2   47.59   11.06
  -5   6  -2   45.39   12.88
  -5  -6   2   82.24   10.14
  -5   6   2   60.36   14.51
  -5   6   2   50.41   13.52
  -5   6   2   59.70   11.16
  -5   6   2   43.52   17.83
  -5  -6   2   77.78    9.06
  -5  -6  -2   81.56    9.00
  -5  -6   2   37.06    7.59
  -5   6  -2   75.87   21.81
  -4  -6   2  255.26   18.25
  -4   6   2  178.00   14.66
  -4   6   2  186.22   20.14
  -4  -6   2  212.10   14.41
  -4   6  -2  168.97   18.49
  -4   6   2  115.05   25.33
  -4   6  -2  197.80   32.31
  -4  -6   2  190.37   14.70
  -4   6   2  165.97   16.64
  -4  -6  -2  189.42   13.49
  -4   6   2  170.83   21.60
  -4   6  -2  193.80   22.81
  -3   6   2   88.04   12.27
  -3   6   2   82.28   11.46
  -3  -6  -2  100.91   11.39
  -3   6   2   88.24   15.38
  -3  -6   2  112.47   10.54
  -3   6  -2   91.63   23.43
  -3   6   2   87.65   10.01
  -3   6  -2   69.31   11.80
  -3  -6   2   57.52    9.20
  -3  -6  -2   94.83   11.45
  -3   6  -2   90.16   15.61
  -2   6  -2  200.35   18.64
  -2  -6   2  260.91   19.67
  -2  -6  -2  212.56   10.79
  -2   6   2  217.91   15.08
  -2   6   2  195.05   16.46
  -2  -6  -2  294.75   18.65
  -2  -6   2  212.14   17.12
  -2   6  -2  204.69   32.28
  -2   6   2  183.61   14.43
  -2  -6  -2  285.67   18.52
  -2   6   2  212.39   21.98
  -2   6  -2  195.94   21.44
  -2  -6   2  274.61   23.13
  -1   6   2   88.66   21.73
  -1   6   2  111.04   10.24
  -1  -6   2  108.53   12.89
  -1   6  -2  102.11   24.13
  -1  -6   2  128.93    8.48
  -1   6   2   86.36    9.33
  -1  -6  -2  131.38   12.66
  -1   6  -2  121.51   10.32
   0   6  -2  262.48   14.71
   0  -6  -2  242.41   15.87
   0   6   2  209.58   14.45
   0  -6   2  277.88   19.70
   0   6   2  204.37   14.08
   0  -6   2  246.72   19.00
   0  -6  -2  285.47   19.17
   0  -6   2  235.80   12.51
   1  -6  -2  113.74   10.47
   1   6  -2  130.29    9.54
   1  -6   2  138.77    9.59
   1  -6  -2  118.05   13.20
   1   6   2   58.33   17.98
   1  -6   2  111.35   13.61
   1   6   2  127.44   10.81
   1  -6   2   54.26    9.05
   2   6  -2  245.27   13.22
   2   6   2  240.36   15.29
   2   6   2  186.77   28.98
   2  -6   2  252.05   14.38
   2   6  -2  234.89   34.58
   2   6  -2  223.48   10.76
   2  -6   2  257.98   21.01
   2  -6  -2  301.73   22.85
   2  -6   2  222.09   19.85
   2  -6  -2  258.48   21.85
   2   6   2  245.37   14.11
   2  -6   2  240.12   15.66
   2  -6  -2  252.07   15.68
   3  -6  -2  110.04   10.88
   3   6   2   50.39   16.32
   3  -6   2  116.76   10.30
   3  -6   2   87.66   13.39
   3   6   2  112.69   10.31
   3   6   2   62.83   20.62
   3   6  -2   73.01    9.77
   3   6  -2   60.36   18.79
   3  -6   2   94.55   14.94
   3   6  -2  110.46    8.35
   3   6   2   56.99    8.17
   3  -6   2   51.14    7.64
   3  -6  -2  108.42   14.85
   4  -6  -2  273.84   18.56
   4  -6   2  242.59   23.95
   4   6   2  160.63   25.88
   4  -6   2  163.45   10.31
   4  -6  -2  207.63   20.98
   4   6   2  220.16   14.91
   4   6   2  112.01   27.95
   4  -6   2  209.52   13.48
   4   6   2  191.86   15.14
   4   6  -2  228.05   12.33
   4  -6   2  200.72   20.24
   5  -6  -2   63.75   13.53
   5  -6   2   68.56   13.41
   5   6   2   47.26   15.30
   5  -6   2   59.39    7.40
   5   6   2   79.42    9.38
   5   6  -2   93.60    7.84
   5  -6   2   65.65    6.49
   5  -6  -2   73.40    9.49
   5   6   2   60.65   24.49
   6   6  -2  139.43   13.22
   6   6   2  131.21   13.29
   6   6   2   87.94   29.58
   6   6  -2  144.95   10.24
   6   6   2   85.94   18.57
   6  -6  -2  124.99   11.96
   6  -6   2  111.54   17.00
   6  -6   2  115.59    9.84
   6  -6  -2  137.46   19.14
   6   6   2  163.94   13.38
   7   6  -2   60.61    7.21
   7  -6   2   37.68   11.63
   7   6   2   67.05    9.61
   7   6   2   52.79   24.79
   7  -6   2   39.81    6.27
   7  -6  -2   55.68   13.58
   7  -6  -2   45.07    7.92
   7   6  -2   54.96    9.32
   7   6   2   64.00   10.14
   8   6   2   97.55   11.75
   8   6   2   53.54   26.58
   8  -6  -2   73.09    9.94
  -7   7  -2   57.00   21.44
  -6   7  -2   75.44   23.79
  -6   7   2   38.28   10.60
  -5   7   2   53.82   21.96
  -5  -7   2   81.93    9.91
  -5   7  -2   63.68   15.49
  -5   7   2   54.67   14.69
  -5   7  -2   41.91   11.16
  -5  -7   2   82.65   10.70
  -5  -7  -2   79.58    9.66
  -5   7  -2   53.86   21.63
  -5   7   2   57.51   11.81
  -4   7   2   68.74   11.83
  -4   7  -2   58.72   12.33
  -4   7  -2   67.25   15.34
  -4  -7   2   85.45    9.92
  -4  -7   2  104.87   12.68
  -4   7   2   53.68   20.78
  -4   7  -2   87.10   24.45
  -4   7   2   67.25    9.91
  -4  -7  -2  102.85   13.40
  -4  -7  -2   91.11   10.02
  -4  -7   2   79.92   12.74
  -4   7   2   79.53   16.59
  -3   7   2   99.50   11.18
  -3   7   2   75.29   11.87
  -3   7  -2   80.63   24.39
  -3   7  -2   72.92   13.15
  -3  -7   2  123.43   11.72
  -3   7   2   59.85   20.91
  -3  -7   2   42.01    8.83
  -3  -7   2   92.45   13.54
  -3   7   2   80.74   16.10
  -3   7  -2   75.40   15.92
  -3  -7  -2  112.38   13.62
  -2  -7   2  119.01   14.59
  -2   7  -2   78.90   24.05
  -2  -7   2   91.47   12.25
  -2  -7  -2  126.51   14.07
  -2   7   2   91.22   10.63
  -1   7  -2   82.17   24.18
  -1   7   2  110.11   11.09
  -1   7   2   71.94   22.14
  -1  -7   2   72.22   12.26
  -1  -7   2   99.39   13.25
  -1  -7  -2  115.47   13.79
   0   7  -2  138.11   11.47
   0  -7   2  154.08   17.16
   0  -7  -2  176.50   16.65
   0  -7   2  135.89   10.01
   0   7   2  117.02   10.79
   0  -7   2  137.92   15.77
   0   7   2  127.28   11.95
   1   7   2  117.17   11.21
   1   7   2   59.89   17.11
   1   7   2   77.79   22.65
   1   7   2   96.72    9.86
   1  -7   2  119.74   15.11
   1  -7  -2  121.92   15.30
   1   7  -2  112.32    9.98
   1  -7   2   45.15   10.39
   2   7   2  107.57   10.77
   2   7  -2  114.05    9.66
   2   7   2   92.84   23.36
   2  -7  -2  106.41   15.50
   2   7  -2  117.46   26.73
   2  -7   2  113.46   15.38
   2  -7  -2  150.71   18.20
   2  -7   2  104.04   15.02
   3  -7  -2  102.15   11.82
   3   7   2   59.77   19.68
   3  -7   2   82.67   14.29
   3   7  -2   82.42   23.41
   3   7  -2  113.87    9.25
   3   7   2   58.98   21.10
   3  -7   2   97.34   16.36
   3  -7  -2   94.14   15.21
   3   7   2  129.16   12.00
   4   7  -2   99.58    8.78
   4   7   2   88.09   10.40
   4   7   2   46.33   20.48
   4   7   2   79.20   21.13
   4  -7   2   81.30   15.65
   4  -7   2   81.43   14.30
   4  -7  -2   77.95   14.30
   5  -7   2   77.72   14.85
   5   7  -2   81.63    8.25
   5   7   2   91.63   10.63
   5  -7  -2   71.53   10.13
   5   7   2   42.67   17.26
   5  -7  -2   58.71   13.57
   5  -7   2   73.27    8.40
   5   7   2   48.12   22.73
   6   7   2   77.37   10.42
   6  -7  -2   66.93    9.55
   6   7   2   45.24   16.42
   6   7   2   58.90   24.39
   7   7   2   10.81   15.10
  -4  -8  -2   57.34   11.68
  -3  -8   2   69.84   10.31
  -3  -8  -2   52.38   11.33
  -2   8   2   48.16    8.82
  -2  -8  -2   71.35   12.48
  -1  -8  -2   80.16   13.58
  -1   8   2   66.24    9.76
   0   8  -2   51.36    8.05
   0   8   2   56.63    8.98
   0  -8  -2   72.94   13.10
   1   8   2   82.60   10.50
   1   8  -2   85.95    9.67
   1  -8  -2   66.94   13.88
   2   8   2   56.59    9.20
   2   8  -2   55.04    7.72
   2  -8  -2   74.08   15.53
   3   8   2   70.86   10.06
   4   8   2   41.26    8.60
 -11   0  -3  205.22   25.37
 -11   0   3  211.82   27.00
 -11   0  -3  223.67   15.74
 -10   0  -3   -4.03    7.31
 -10   0  -3    0.91    2.96
 -10   0  -3   -0.27    3.31
 -10   0   3   -1.78    6.59
  -9   0  -3  450.54   35.02
  -9   0  -3  484.36   23.06
  -9   0  -3  535.52   22.44
  -9   0   3  497.74   38.08
  -8   0  -3    1.32    2.67
  -8   0  -3   -3.85    5.43
  -8   0   3    2.10    4.01
  -8   0   3    0.74    5.47
  -8   0  -3   -0.19    2.48
  -8   0   3    0.61    5.20
  -8   0  -3   -0.67    5.72
  -7   0  -3  670.48   43.00
  -7   0  -3  758.06   39.32
  -7   0   3  768.31   41.04
  -7   0   3  774.17   44.21
  -7   0  -3  816.55   29.14
  -7   0  -3  794.93   43.23
  -7   0   3  855.44   34.94
  -6   0  -3    1.63    5.50
  -6   0  -3   -0.17    1.78
  -6   0   3   -1.28    9.74
  -6   0   3    0.48    3.64
  -6   0  -3    1.74    3.93
  -6   0   3    0.28    2.84
  -6   0  -3   -0.26    2.81
  -6   0   3   -0.86    3.06
  -5   0  -3 1474.06   54.72
  -5   0  -3 1550.92   48.39
  -5   0   3 1398.16   55.44
  -5   0   3 1528.78   49.60
  -5   0   3 1596.25   49.77
  -5   0  -3 1214.46   67.82
  -5   0   3 1592.53   50.81
  -5   0   3 1788.70   54.25
  -5   0   3 1761.10   82.01
  -4   0   3   -1.00    3.04
  -4   0   3    0.67    4.69
  -4   0  -3   -1.66    6.48
  -4   0   3   -0.22    1.84
  -4   0  -3    0.92    2.78
  -4   0   3   -0.40    1.96
  -4   0  -3    0.18    1.63
  -4   0   3   -0.59    2.09
  -4   0   3   -0.87    2.33
  -3   0  -3 2584.20   75.93
  -3   0   3 2607.62   77.17
  -3   0  -3 2602.92   70.29
  -3   0   3 2626.06   71.22
  -3   0   3 2842.34   74.46
  -3   0  -3 2606.96   67.07
  -3   0   3 2965.92   73.09
  -3   0  -3 1933.50   93.10
  -3   0   3 3337.54   73.16
  -3   0  -3 2721.33   65.92
  -2   0  -3    0.21    0.63
  -2   0   3    1.97    1.45
  -2   0   3   -0.15    1.33
  -2   0   3   -0.29    2.50
  -2   0   3   -0.08    0.98
  -2   0   3    1.84    2.76
  -2   0  -3   -0.49    1.57
  -2   0   3   -0.17    1.69
  -2   0  -3    0.09    0.89
  -2   0   3    0.81    1.06
  -2   0   3   -0.30    1.10
  -2   0  -3   -0.73    5.68
  -2   0  -3    0.40    2.11
  -2   0   3   -0.63    1.47
  -1   0  -3 2849.18   72.49
  -1   0  -3 2764.05   71.84
  -1   0  -3 3125.32   72.97
  -1   0   3 3042.40   80.88
  -1   0   3 2856.07   72.79
  -1   0   3 2830.00   72.21
  -1   0   3 2929.15   70.19
  -1   0   3 2890.45   73.75
   0   0  -3    0.14    0.82
   0   0  -3    0.69    1.78
   0   0   3    0.05    0.58
   0   0   3    0.21    0.65
   0   0  -3    0.81    1.87
   1   0  -3 2937.11   71.41
   1   0  -3 2879.89   71.54
   1   0  -3 2899.35   73.64
   1   0  -3 2871.34   68.46
   1   0   3 2999.88   68.63
   1   0  -3 2962.17   68.44
   1   0   3 3101.91   68.61
   1   0  -3 2948.03   78.59
   2   0   3    0.14    0.75
   2   0  -3    0.10    1.11
   2   0  -3    0.13    0.76
   2   0  -3    0.23    2.31
   2   0  -3    0.14    0.81
   3   0  -3 2763.62   71.17
   3   0   3 2899.45   72.01
   3   0  -3 2849.42   73.28
   3   0  -3 2925.61   71.66
   4   0  -3    1.70    4.74
   4   0  -3    1.16    2.07
   4   0   3   -0.45    1.56
   4   0  -3   -0.14    1.60
   4   0  -3    1.62    4.33
   4   0  -3   -0.43    2.14
   5   0  -3 1718.50   74.99
   5   0  -3 1809.13   65.48
   5   0  -3 1729.62   49.96
   5   0  -3 1778.46   52.92
   5   0   3 1744.15   50.80
   5   0  -3 1566.54   60.50
   5   0  -3 1842.76   55.53
   6   0   3    0.20    2.06
   6   0   3   -1.59    8.75
   6   0  -3   -0.81    3.64
   6   0  -3   -1.10    2.69
   6   0  -3    0.28    3.07
   6   0  -3    1.49    4.58
   6   0   3    2.10    2.91
   6   0  -3    0.91    6.35
   6   0  -3    1.70    2.72
   6   0   3   -0.23    2.49
   6   0  -3    0.31    3.12
   7   0   3  883.37   33.32
   7   0  -3  923.60   37.45
   7   0  -3  973.60   34.60
   7   0   3  947.47   34.90
   7   0  -3  782.42   43.44
   7   0  -3  831.01   57.53
   7   0  -3  972.48   35.26
   7   0   3  944.96   35.53
   7   0  -3  878.35   38.15
   8   0  -3    2.03    3.82
   8   0   3   -0.56    3.28
   8   0  -3   -1.65    3.29
   8   0  -3    4.90    9.07
   8   0  -3   -1.18    3.71
   8   0  -3    0.74    4.10
   8   0  -3   -0.42    3.97
   8   0   3   -0.29    3.47
   8   0  -3   -1.27    6.38
   8   0   3    0.93    3.75
   8   0   3   -2.10   11.00
   9   0   3  285.10   46.83
   9   0  -3  364.88   42.75
   9   0  -3  636.68   29.34
   9   0   3  638.71   30.00
   9   0  -3  594.04   31.94
  10   0  -3    0.48    5.57
  10   0   3    2.15   11.84
  10   0   3    0.76    4.89
  10   0  -3   -1.49   11.01
  10   0  -3    1.10    4.96
  11   0   3  119.87   32.58
  11   0  -3  106.01   26.45
  11   0  -3  284.05   20.42
  11   0   3  288.68   20.82
  11   0  -3  270.30   22.19
 -12   1  -3    1.31    4.46
 -11   1  -3  164.54   23.72
 -11   1   3  155.77   24.17
 -11  -1   3  178.75   24.25
 -11  -1  -3  158.21   22.23
 -11   1   3  179.09   17.05
 -11   1  -3  191.85   14.66
 -11  -1  -3  170.87   13.61
 -10   1  -3    5.75    3.81
 -10   1  -3    2.83    3.85
 -10  -1   3    1.60    4.56
 -10  -1  -3    2.43    3.71
 -10   1  -3    5.18    8.91
 -10   1   3    6.65    7.94
  -9  -1  -3  398.71   23.34
  -9   1  -3  366.40   32.54
  -9   1   3  396.67   34.89
  -9  -1   3  423.39   24.40
  -9  -1  -3  345.23   19.17
  -9  -1   3  415.38   24.74
  -9   1  -3  424.46   19.16
  -9   1  -3  420.36   20.76
  -8   1  -3    9.62    3.90
  -8   1   3    3.23    5.98
  -8  -1  -3    3.12    5.56
  -8   1  -3    2.94    5.88
  -8   1  -3    6.45    3.26
  -8  -1  -3    5.60    5.82
  -8  -1  -3    7.83    3.72
  -8  -1  -3    4.36    3.76
  -8  -1   3    3.12    3.87
  -8  -1   3    3.40    3.99
  -7   1  -3  824.05   26.99
  -7   1  -3  678.21   41.84
  -7   1   3  554.98   39.54
  -7   1   3  592.55   38.13
  -7  -1   3  667.13   36.26
  -7   1   3  775.09   62.05
  -7  -1   3  737.12   68.57
  -7  -1  -3  704.61   30.03
  -7  -1   3  694.21   30.87
  -7  -1  -3  659.59   35.01
  -7  -1  -3  590.86   41.44
  -7   1   3  709.16   32.11
  -7   1   3  647.49   31.63
  -7   1  -3  774.10   28.14
  -7   1  -3  720.47   39.96
  -7  -1   3  717.88   31.55
  -6   1  -3   13.33    6.48
  -6  -1  -3    7.38    6.44
  -6   1   3    9.70   10.47
  -6  -1   3    6.24   11.22
  -6  -1  -3   13.86    3.27
  -6   1  -3   15.53    3.22
  -6  -1   3    7.43    3.47
  -6   1  -3   10.48    5.84
  -6  -1  -3   11.04    4.73
  -6   1   3    6.46    4.80
  -6   1   3   10.73    4.08
  -6   1  -3   12.26    3.25
  -6  -1   3   10.76    3.82
  -6   1   3    5.63    5.46
  -6  -1   3    9.31    4.69
  -6  -1  -3    7.59    3.46
  -6   1  -3    9.93    3.31
  -5   1   3 1009.71   48.54
  -5   1  -3 1140.39   51.73
  -5   1   3 1047.84   51.26
  -5  -1  -3 1329.45   37.65
  -5   1  -3 1065.85   62.04
  -5  -1  -3  947.02   54.63
  -5  -1  -3 1292.70   40.14
  -5  -1   3 1167.93   45.40
  -5   1  -3 1366.07   36.29
  -5   1   3 1248.56   42.63
  -5   1  -3 1850.95   42.76
  -5   1  -3 1360.04   38.05
  -5  -1   3 1245.86   42.09
  -5  -1   3 1605.87   84.08
  -5  -1   3 1408.85   48.85
  -5  -1  -3 1259.65   37.89
  -5  -1  -3 1238.28   44.99
  -5   1  -3  817.88   46.61
  -5  -1   3 1262.34   40.94
  -5   1  -3 1234.49   50.48
  -4   1  -3    8.74    4.50
  -4  -1  -3   21.09    3.90
  -4   1  -3    8.40    3.28
  -4   1   3   11.90    4.81
  -4   1  -3   15.91    2.65
  -4  -1  -3   12.69    2.45
  -4   1   3   13.82    3.80
  -4  -1   3   10.98    2.80
  -4  -1  -3   14.86    3.04
  -4  -1   3   14.27    3.37
  -4   1  -3   14.15    2.03
  -4   1  -3   11.99    8.82
  -4   1  -3   14.05    4.91
  -4  -1   3   12.44    8.64
  -4   1  -3    9.40    4.52
  -4   1   3   11.27    4.87
  -4   1   3    2.83    2.75
  -3   1  -3 2080.37   64.45
  -3   1   3 2040.64   65.12
  -3   1  -3 2063.23   65.87
  -3   1   3 2093.28   66.84
  -3  -1  -3 2016.87   54.57
  -3   1  -3 1917.85   64.49
  -3  -1   3 2737.70   86.83
  -3   1   3 2253.24   61.88
  -3  -1   3 2295.70   65.56
  -3   1   3 2160.50   58.30
  -3   1  -3 1748.70   87.64
  -3  -1   3 2161.87   59.00
  -3  -1   3 1900.58   75.83
  -3   1  -3 2204.10   53.72
  -3  -1   3 2258.85   56.48
  -3   1   3 2365.93   56.81
  -3  -1  -3 2073.54   55.32
  -2   1  -3   10.45    4.58
  -2   1  -3    0.96    7.53
  -2  -1   3    8.87    7.05
  -2   1  -3    7.96    2.83
  -2   1   3    7.65    2.67
  -2   1  -3    6.73    2.71
  -2   1   3    7.18    2.75
  -2  -1  -3   10.57    1.73
  -2   1  -3   13.28    1.29
  -2  -1   3    9.16    2.19
  -2  -1   3    6.40    3.09
  -2   1   3    9.77    2.02
  -2   1  -3   11.17    3.12
  -2  -1   3    8.70    1.63
  -2  -1  -3   11.00    1.72
  -2  -1   3    9.01    1.74
  -2   1   3    4.12    1.56
  -2  -1   3    7.88    2.46
  -1   1   3 2191.51   57.10
  -1  -1   3 1912.68   87.58
  -1  -1   3 2262.23   54.76
  -1  -1   3 2251.25   64.78
  -1  -1   3 2208.39   54.84
  -1   1  -3 2028.47   94.10
  -1  -1  -3 2298.83   54.69
  -1  -1   3 2375.02   66.20
  -1  -1   3 2495.79   61.70
  -1  -1   3 2173.47   56.43
  -1   1  -3 2456.49   60.88
  -1   1  -3 2508.51   59.80
  -1  -1   3 2086.37   58.30
  -1  -1  -3 2383.56   54.65
  -1   1   3 2159.28   58.42
   0   1  -3   30.35    2.57
   0  -1   3   11.66    2.40
   0  -1   3   17.40    1.57
   0  -1  -3   26.73    1.82
   0  -1   3   12.65    9.34
   0   1  -3   26.58    3.35
   0  -1   3   14.76    2.63
   0  -1   3    8.12    3.49
   0  -1   3   13.22    2.06
   0  -1  -3   27.53    2.86
   0   1  -3   42.12    2.28
   0   1   3   20.00    2.42
   0  -1   3   18.77    1.43
   0  -1  -3   14.79    3.06
   0  -1   3   18.64    3.95
   0   1   3    9.00    2.68
   1  -1   3 2248.86   62.57
   1  -1  -3 2630.70   63.90
   1   1   3 2257.95   57.38
   1   1  -3 2344.86   57.38
   1  -1  -3 2413.57   59.74
   1   1  -3 2577.98   59.03
   1   1  -3 2292.98   96.20
   1  -1   3 2297.60   70.93
   1   1   3 2423.96   62.88
   1  -1  -3 2565.96   67.19
   1  -1   3 2387.85   63.91
   1   1   3 2190.97   60.00
   1   1  -3 2562.87   61.90
   1  -1   3 2309.09   62.31
   1  -1  -3 2699.24   63.53
   2  -1  -3   11.45    2.21
   2  -1  -3   12.26    3.54
   2  -1  -3   11.43    3.25
   2   1   3    8.34    1.59
   2   1  -3   14.32    4.42
   2   1  -3   11.02    1.25
   2  -1   3    3.11    2.38
   2  -1   3   10.74    3.45
   2   1  -3   13.26    2.34
   2  -1   3    7.50    2.85
   2   1   3    3.84    2.05
   2  -1  -3    4.87    3.23
   2   1  -3    9.51    7.32
   2   1  -3   12.16    1.76
   2  -1   3    6.37    3.56
   2   1  -3   12.57    2.81
   3  -1   3 2351.21   58.43
   3   1   3 2445.57   62.43
   3  -1  -3 2566.74   66.16
   3  -1   3 2988.38  115.94
   3  -1   3 2351.57   65.81
   3  -1  -3 2437.62   64.74
   3   1   3 2213.95   64.89
   3  -1  -3 2721.68   74.45
   3  -1   3 2510.95   66.03
   3  -1   3 2596.02   74.80
   3  -1  -3 2562.62   80.24
   3   1  -3 2291.26   61.69
   3  -1   3 3438.09   65.80
   3   1  -3 2300.02   71.88
   3   1  -3 2457.99   62.09
   3   1  -3 2329.40   64.53
   3   1   3 2395.52   62.30
   3   1  -3 2555.39   81.38
   3   1  -3 2897.57   97.96
   3   1  -3 2332.31   61.88
   4  -1   3   19.70    3.43
   4   1  -3   14.01    2.88
   4   1   3   14.07    3.08
   4  -1   3    6.89    7.09
   4  -1  -3   18.80    3.90
   4  -1  -3   19.39    3.83
   4   1  -3   16.35    3.51
   4   1  -3   15.73    2.93
   4   1  -3   26.14    7.96
   4   1   3   13.85    3.00
   4  -1   3    9.81   10.60
   4  -1   3   18.54    5.58
   4  -1  -3   13.75    4.62
   4   1  -3    9.37    4.42
   4  -1  -3   13.73    6.29
   4   1  -3   14.42    7.27
   4  -1   3   14.12    3.46
   4   1  -3    5.40    3.30
   4  -1   3   14.49    2.31
   5   1  -3 1502.26   44.69
   5   1   3 1345.70   44.42
   5   1  -3 1602.55   52.01
   5  -1  -3 1626.57   48.22
   5   1  -3 1527.43   44.58
   5  -1  -3 1659.68   48.55
   5  -1   3 1675.74   46.88
   5  -1   3 1487.73   56.82
   5  -1  -3 1678.97   57.95
   5  -1   3 1464.45   47.74
   5   1   3 1361.90   44.23
   5   1  -3 1428.63   54.19
   5  -1  -3 1506.40   67.54
   5  -1   3 1371.37   42.08
   5  -1   3 1898.10   88.00
   5  -1  -3 1574.44   48.51
   5   1  -3 1575.57   47.73
   6   1  -3    9.45    4.38
   6  -1   3    8.81    2.96
   6   1   3   14.06    3.94
   6  -1   3   -1.56    7.69
   6  -1  -3    9.30    7.67
   6   1   3    8.21   10.33
   6  -1  -3   15.96    4.67
   6   1  -3   19.85    4.93
   6  -1   3   14.80    4.46
   6  -1  -3   15.86    4.22
   6   1  -3    8.85    5.41
   6  -1   3   14.02    4.58
   6   1  -3   18.02    4.08
   6   1   3   11.54    3.77
   6   1  -3   17.19    4.21
   6  -1  -3   13.28    4.71
   6  -1  -3    5.45    3.96
   6   1  -3    4.15    3.97
   7  -1   3  766.23   30.14
   7  -1  -3  890.65   36.82
   7  -1   3 1071.14   37.25
   7  -1   3  871.70   34.35
   7  -1  -3  985.60   35.42
   7   1  -3  890.40   32.29
   7   1   3  769.33   31.54
   7   1  -3  807.92   41.36
   7  -1  -3  845.68   32.73
   7   1  -3  889.19   34.96
   7  -1  -3  763.32   53.46
   7  -1  -3  782.03   34.67
   7  -1   3  476.57   56.46
   7   1  -3  843.30   38.21
   7   1  -3  852.87   32.70
   7   1  -3  932.81   39.03
   7   1   3  764.40   32.16
   8   1  -3    5.97    5.31
   8  -1   3    6.09    3.51
   8  -1   3    1.90    9.96
   8  -1  -3    4.26    4.48
   8  -1   3    5.49    4.19
   8  -1   3    6.76    4.52
   8   1   3   -2.17   12.58
   8   1  -3    2.30    5.93
   8  -1  -3   -4.63    9.03
   8   1   3    5.13    3.89
   8  -1  -3    5.06    4.22
   8   1  -3    8.61    4.23
   8   1  -3    3.15    5.39
   8   1  -3   12.98    4.96
   8   1   3    7.04    4.34
   8  -1  -3    1.50    3.82
   9   1  -3  483.73   28.91
   9  -1   3  437.57   22.24
   9   1  -3  467.64   24.62
   9   1   3  462.70   24.90
   9  -1   3  238.46   40.40
   9   1   3  268.23   47.53
   9   1  -3  403.24   24.69
   9  -1   3  533.18   25.00
   9  -1  -3  312.90   38.26
   9  -1  -3  309.65   22.94
  10  -1  -3    4.95    5.77
  10   1  -3    2.55    5.69
  10  -1   3    4.12    4.14
  10   1   3    5.80    5.43
  10  -1  -3    6.75    5.59
  10   1   3   -2.37   14.33
  10   1  -3    3.30    4.91
  10  -1   3   -7.78   13.58
  10  -1  -3    2.82    9.53
  10  -1   3    2.31    4.65
  11  -1  -3  238.36   18.84
  11   1  -3  211.81   20.50
  11   1  -3  227.29   18.36
  11  -1   3  109.15   28.61
  11   1   3  230.58   18.91
  11   1   3  108.21   31.19
  11  -1  -3   85.28   23.36
  11  -1   3  226.57   18.57
  11  -1  -3  218.16   19.35
 -11   2  -3  181.12   24.55
 -11  -2  -3  170.02   13.80
 -10   2  -3   17.39    5.48
 -10   2   3   10.68    9.44
 -10   2  -3    9.97    8.81
 -10   2  -3    9.79    8.51
 -10  -2   3   11.99    5.61
 -10  -2  -3   13.59    4.90
 -10  -2  -3   10.65    5.40
 -10  -2   3   12.18    6.02
  -9   2  -3  378.38   33.39
  -9  -2  -3  388.26   22.22
  -9  -2   3  403.54   23.60
  -9   2  -3  369.76   33.43
  -9   2   3  314.25   31.84
  -9  -2   3  448.28   24.57
  -9  -2  -3  340.17   25.87
  -9   2  -3  417.66   20.85
  -8   2  -3    8.26    6.78
  -8   2   3   21.41    9.32
  -8  -2  -3   14.20    8.01
  -8  -2   3   25.92    6.34
  -8   2   3   11.88    4.59
  -8  -2   3   28.18    6.39
  -8  -2  -3   27.25    7.64
  -8  -2  -3   21.73    5.60
  -8  -2   3   20.09   12.88
  -8   2  -3   18.24    9.10
  -8   2  -3   28.44    5.43
  -8   2  -3   24.91    7.78
  -7   2  -3  569.02   38.51
  -7   2   3  487.31   36.98
  -7  -2   3  701.33   28.76
  -7   2   3  397.72   22.92
  -7   2  -3  411.70   35.13
  -7   2   3  684.33   55.19
  -7  -2  -3  685.20   27.44
  -7  -2  -3  629.54   25.13
  -7  -2   3  862.97   57.20
  -7   2  -3 1100.11   41.88
  -7  -2  -3 1199.95   41.49
  -7   2  -3  714.26   26.29
  -7  -2   3  628.60   32.41
  -7  -2   3  702.14   29.89
  -7   2  -3  517.57   35.63
  -7  -2  -3  495.95   36.45
  -7  -2  -3  593.75   30.75
  -7   2  -3  591.78   36.27
  -7  -2  -3  683.96   25.31
  -7   2   3  520.36   35.60
  -6   2   3   39.00    4.97
  -6   2   3   31.31   12.23
  -6  -2   3   30.54   18.03
  -6  -2  -3   51.31    6.36
  -6  -2   3   44.52    6.18
  -6   2  -3   42.03    9.15
  -6   2  -3   36.71    9.21
  -6   2   3   37.44    9.22
  -6  -2  -3   64.55   10.27
  -6   2  -3   58.91    6.27
  -6  -2   3   53.97    7.40
  -6   2  -3   11.68    6.85
  -6  -2   3   31.17   13.17
  -6  -2  -3   55.19    6.31
  -6   2  -3   24.03    7.51
  -6  -2  -3   55.73    6.12
  -6   2  -3   39.23    9.72
  -6   2   3   46.87   10.41
  -5  -2  -3 1317.60   38.76
  -5  -2   3 1028.22   52.00
  -5   2  -3  677.47   46.40
  -5  -2   3 1362.29   43.35
  -5   2   3 1360.73   62.41
  -5  -2   3 1396.33   70.01
  -5  -2   3 1273.01   39.41
  -5  -2  -3 1286.42   38.71
  -5   2  -3 1881.33   59.90
  -5  -2   3 1667.69   95.48
  -5  -2  -3 1600.02   43.64
  -5   2   3 1393.50   34.21
  -5   2  -3  804.99   44.40
  -5   2  -3 1183.89   49.96
  -5   2   3 1083.65   49.45
  -5   2  -3 1092.47   51.30
  -5   2   3 1031.03   50.83
  -4  -2  -3   97.38    7.16
  -4   2   3   89.77    8.20
  -4   2  -3   63.31   10.98
  -4   2  -3   61.38    9.04
  -4  -2   3   74.29   15.09
  -4   2  -3   72.15   11.50
  -4  -2   3  106.08    7.42
  -4  -2  -3   93.79    6.86
  -4   2   3   88.97   11.61
  -4  -2   3   95.93   21.53
  -4  -2   3   72.70   14.78
  -4  -2   3   48.62    7.77
  -4  -2   3   95.55    6.77
  -4  -2  -3   84.36    6.23
  -4   2  -3   77.30   10.17
  -4   2   3   79.28   10.45
  -4  -2   3   38.81    7.24
  -4   2  -3   70.88   10.34
  -3  -2   3 2283.22   67.19
  -3  -2   3 1728.90   89.60
  -3   2   3 2174.74   61.09
  -3   2  -3 2685.43   81.75
  -3   2  -3 1804.79   69.04
  -3  -2   3 2305.03   58.58
  -3  -2  -3 2197.24   57.58
  -3   2   3 2181.29   71.45
  -3   2  -3 1972.40   66.37
  -3  -2   3 2770.20  100.93
  -3   2   3 1583.65   63.57
  -3  -2   3 2586.42   66.64
  -3   2   3 2645.33   58.17
  -3   2  -3 2147.86   68.56
  -3   2   3 2103.66   68.33
  -3  -2   3 2307.68   57.98
  -3  -2  -3 2187.14   57.05
  -2   2  -3  107.76   10.55
  -2  -2   3  125.21    6.39
  -2  -2   3   59.80    7.12
  -2   2   3  126.52    7.79
  -2  -2  -3  117.99    6.04
  -2  -2   3   78.48   13.84
  -2   2  -3   74.87   12.08
  -2  -2   3  116.73    8.98
  -2  -2   3   79.88    8.79
  -2  -2   3  129.45    6.71
  -2   2   3  105.45   10.39
  -2  -2   3  131.79    7.70
  -2   2  -3   94.04    8.78
  -2   2   3   89.65    7.03
  -2  -2   3  113.16   15.04
  -2  -2  -3  120.26    6.23
  -2   2   3   47.71    3.69
  -2   2   3  111.17    9.55
  -2   2  -3  107.14    9.63
  -2  -2   3  104.49   20.56
  -2  -2   3  141.25    9.37
  -1   2  -3 2516.88   70.08
  -1  -2   3 2613.01   67.77
  -1   2   3 2253.47   60.32
  -1  -2  -3 2708.38   67.75
  -1   2   3 2348.92   62.69
  -1  -2   3 2442.81   86.09
  -1  -2   3 2782.30  115.97
  -1  -2  -3 2611.68   60.23
  -1   2  -3 2716.99   87.84
  -1  -2   3 2374.83   65.36
  -1  -2  -3 2453.43   61.18
  -1  -2   3 2353.27   70.84
  -1  -2   3 2406.10   61.07
  -1  -2  -3 2420.54   59.64
  -1  -2   3 2312.83   65.52
  -1   2   3 2333.03   60.11
  -1   2   3 2256.19   66.35
  -1   2  -3 2685.36   68.80
  -1  -2   3 2339.31   59.76
  -1  -2   3 2427.97   64.20
   0  -2   3  117.70    6.91
   0   2   3  115.39    6.90
   0  -2   3  151.24   25.99
   0  -2   3   81.10   12.01
   0  -2   3   85.32    7.14
   0  -2   3  117.25    4.61
   0  -2   3   96.20    7.88
   0  -2   3  109.59    5.74
   0  -2  -3  120.83    5.86
   0  -2  -3   49.46    5.91
   0   2   3   87.32    7.35
   0   2  -3  102.55    8.10
   0  -2   3   80.46    7.28
   0  -2  -3  104.64    5.46
   0  -2  -3  107.62    8.04
   0  -2   3   88.29    7.30
   0  -2   3  100.90    8.84
   0  -2   3  146.99    6.32
   1  -2   3 2398.11   61.63
   1  -2   3 2937.74   75.89
   1  -2   3 2402.85   63.35
   1   2   3 2300.01   63.53
   1   2  -3 2684.87   67.96
   1  -2   3 3234.39  128.94
   1  -2   3 2438.25   80.21
   1  -2   3 2579.53   69.07
   1  -2   3 2367.43   67.58
   1  -2  -3 2802.79   69.80
   1  -2   3 2292.01   67.02
   1  -2  -3 2679.28   68.95
   2  -2   3  115.76   10.10
   2  -2  -3  120.03   10.45
   2   2  -3  145.64    9.30
   2   2   3  127.27    7.99
   2   2  -3  127.40    6.73
   2   2  -3  107.09   10.52
   2  -2   3   90.10   11.24
   2   2   3   86.03   11.33
   2  -2   3  131.16    5.19
   2   2   3  128.10    6.94
   2  -2   3  106.67   10.34
   2  -2  -3  124.02    4.63
   2  -2   3  104.85    9.66
   2  -2  -3  113.99   10.08
   3   2  -3 2679.66   68.64
   3  -2   3 2594.32   75.26
   3  -2  -3 2742.93   76.14
   3  -2  -3 2687.72   75.71
   3  -2   3 3552.60  139.17
   3  -2   3 2383.88   74.07
   3  -2  -3 2528.79   65.50
   3  -2   3 2463.47   74.19
   3  -2   3 1331.49   76.79
   3   2  -3 2562.83   63.83
   3  -2  -3 2401.56   66.57
   3  -2   3 2211.53   57.92
   3   2   3 2160.20   73.11
   3   2  -3 2588.55   81.03
   3   2  -3 2340.45   71.35
   3  -2   3 2423.86   59.43
   3  -2  -3 2557.71   77.91
   3   2  -3 2241.86   60.79
   3   2   3 2347.23   61.38
   4   2   3   66.25    8.98
   4  -2  -3  118.52   13.10
   4  -2   3  150.66   28.84
   4  -2  -3   98.49    8.82
   4  -2  -3  103.06   12.04
   4  -2  -3   97.93   13.50
   4   2  -3   96.29    7.07
   4   2  -3   57.93    8.78
   4   2   3  110.09    7.65
   4  -2  -3   96.08    7.73
   4  -2  -3  114.53    9.29
   4  -2   3  105.45   12.23
   4   2  -3   69.79   13.63
   4   2  -3  125.39    9.14
   4   2  -3   54.82    7.90
   4  -2   3  114.33   12.87
   5  -2  -3 1490.04   49.16
   5   2  -3 1496.21   44.94
   5   2  -3 1777.18   50.09
   5  -2  -3 1669.19   50.63
   5  -2   3 1519.52   59.61
   5  -2   3 1521.22   48.99
   5   2   3 1438.64   45.25
   5  -2  -3 1711.53   50.58
   5  -2   3 1390.61   43.10
   5   2  -3 1499.87   54.44
   5  -2   3  772.68   65.53
   5   2  -3 1617.15   53.65
   5  -2   3 2158.01  105.67
   5  -2  -3 1570.85   67.53
   5   2  -3 1474.45   70.47
   5  -2  -3 1416.85   45.32
   5  -2  -3 1771.37   62.49
   6   2  -3   27.84    8.05
   6  -2  -3   60.72    8.26
   6   2   3   57.39    6.99
   6   2  -3   62.72    7.06
   6  -2   3   61.02   11.39
   6  -2  -3   25.09    5.41
   6   2  -3   72.73    8.55
   6   2  -3   59.03    6.59
   6  -2  -3   60.27    6.84
   6  -2   3   55.73    6.11
   6  -2  -3   64.54   11.57
   6  -2  -3   57.23   13.97
   6  -2   3   71.88   21.06
   6   2   3   57.25    6.72
   6  -2   3   64.48    8.23
   6  -2   3   27.68   13.74
   6   2  -3   23.57    6.88
   6  -2  -3   69.00    8.53
   7   2  -3  817.28   37.74
   7   2  -3  823.04   30.68
   7   2   3  758.46   31.42
   7  -2   3 1044.06   69.71
   7  -2   3  841.27   34.32
   7  -2  -3  960.58   35.70
   7  -2   3  823.01   29.99
   7  -2  -3  842.22   35.79
   7   2  -3  967.82   36.21
   7   2   3  743.82   30.34
   7  -2  -3  964.77   46.14
   7   2  -3  806.25   40.02
   7  -2  -3  771.86   30.60
   7  -2   3  834.67   44.06
   7   2  -3  833.20   31.77
   7  -2  -3  751.79   51.52
   7  -2  -3  795.24   32.24
   7   2  -3  776.27   37.88
   7  -2   3  745.86   28.72
   8   2  -3   34.07    8.14
   8  -2   3   22.75   13.61
   8  -2   3   34.06    6.02
   8   2   3   36.41    7.06
   8   2  -3    9.62    7.31
   8  -2  -3   26.19   12.49
   8  -2   3   30.69    9.55
   8  -2   3   36.28   15.94
   8  -2  -3    8.09    4.76
   8   2  -3   33.93    6.58
   8  -2   3   30.60    5.56
   9   2  -3  487.07   29.91
   9  -2  -3  526.44   27.71
   9   2  -3  486.13   24.99
   9   2  -3  255.83   36.70
   9  -2   3  228.39   37.67
   9  -2   3  550.76   25.13
   9  -2  -3  315.65   37.26
   9  -2  -3  337.39   22.59
   9   2   3  496.24   25.82
   9  -2   3  454.52   21.91
  10  -2   3   10.91    4.79
  10   2  -3   17.91    8.42
  10  -2   3    6.80   10.28
  10   2   3    5.00   15.12
  10  -2  -3   10.70   10.70
  10   2  -3   15.32    6.50
  10   2   3   11.94    6.20
  10   2  -3    4.63   10.77
  11  -2   3   81.36   24.29
  11  -2  -3   95.88   23.11
 -11   3  -3   95.18   16.73
 -10   3  -3   12.07    9.99
 -10   3  -3   14.15    7.91
 -10  -3   3   15.11    6.09
 -10   3   3    5.01    7.63
 -10  -3  -3   11.87    5.76
 -10  -3   3   17.38    6.69
  -9   3  -3  166.39   21.04
  -9  -3  -3  235.88   16.77
  -9  -3   3  252.91   17.93
  -9   3   3  171.57   24.13
  -9  -3   3  282.18   19.26
  -9   3  -3  205.62   25.41
  -8   3   3   21.19    9.37
  -8  -3   3   34.56    6.75
  -8   3  -3   23.04    9.52
  -8   3  -3   12.92    7.43
  -8   3   3   22.06    4.34
  -8  -3  -3   24.77    5.34
  -8   3  -3   28.02   10.12
  -8  -3   3   40.32    7.38
  -8  -3  -3   25.87   10.21
  -8  -3  -3   25.63    5.72
  -7   3   3  399.80   16.38
  -7   3  -3  203.36   22.34
  -7   3   3  427.55   41.55
  -7  -3   3  442.12   21.48
  -7  -3  -3  463.50   21.09
  -7  -3   3  592.88   50.22
  -7   3  -3  706.52   40.45
  -7  -3  -3  823.79   42.44
  -7  -3  -3  438.17   20.60
  -7   3   3  228.08   24.03
  -7  -3   3  344.84   24.77
  -7  -3   3  453.28   23.39
  -7  -3   3  385.73   54.31
  -7   3  -3  371.02   30.73
  -7   3   3  298.96   28.54
  -7  -3  -3  457.06   20.34
  -6  -3  -3   51.24    6.38
  -6  -3   3   36.03   14.37
  -6  -3  -3   45.10    5.56
  -6   3  -3   23.27    7.59
  -6   3  -3   35.22    9.68
  -6  -3   3   24.32   11.24
  -6   3   3   31.53    9.05
  -6  -3  -3   69.02    8.35
  -6   3   3   45.95   13.54
  -6  -3   3   25.18   17.58
  -6   3   3   29.04    8.98
  -6   3  -3   37.73    8.97
  -6  -3   3   51.48    6.59
  -6   3  -3   41.94   11.79
  -6  -3  -3   56.00   13.29
  -6  -3   3   43.95    5.78
  -6   3   3   13.97    6.49
  -6  -3  -3   42.77    5.76
  -5  -3  -3  841.91   28.97
  -5   3   3  813.82   45.48
  -5  -3   3  782.07   67.99
  -5   3  -3  709.83   38.92
  -5  -3  -3  801.92   28.72
  -5  -3   3 1020.38   61.97
  -5   3  -3 1246.39   55.67
  -5   3  -3  500.51   33.31
  -5  -3  -3  816.66   27.95
  -5   3   3  461.45   30.90
  -5  -3   3  835.48   27.56
  -5  -3  -3  834.73   26.91
  -5  -3   3  832.35   28.65
  -5  -3   3  971.01   41.92
  -5   3   3  723.38   39.37
  -5  -3   3  561.81   47.09
  -4   3  -3   74.35   10.64
  -4  -3   3   75.87   19.55
  -4  -3   3   76.47   17.35
  -4   3   3  100.01    9.15
  -4  -3   3  110.43    9.06
  -4  -3   3  109.25    8.04
  -4  -3  -3  112.07    7.87
  -4  -3   3   53.33    8.28
  -4   3   3   70.79    9.14
  -4   3  -3   88.58   15.44
  -4  -3   3   94.21   23.27
  -4   3  -3   96.60   12.48
  -4   3   3   84.21   11.57
  -4  -3   3   47.12    9.01
  -4  -3   3  118.33   10.45
  -4  -3   3  100.46    7.35
  -4  -3  -3  100.83    7.11
  -3  -3   3 1365.58   41.67
  -3  -3  -3 1317.56   38.09
  -3   3   3 1292.78   49.47
  -3  -3   3 1516.07   81.52
  -3  -3   3 1193.06   75.10
  -3  -3   3 1373.28   47.22
  -3   3  -3 1549.34   67.89
  -3   3  -3 1213.10   48.52
  -3  -3   3 1402.53   38.93
  -3  -3   3 1390.15   39.66
  -3  -3  -3 1308.33   38.73
  -3   3   3 1285.54   41.93
  -3   3   3 1232.74   43.17
  -3   3   3 1288.03   50.26
  -3   3  -3 1293.04   50.63
  -3  -3   3 1553.26   48.41
  -3  -3   3 1432.97   44.66
  -2   3   3  110.45   11.03
  -2  -3   3  130.78    7.50
  -2  -3  -3  123.24    7.17
  -2  -3   3  148.62   26.39
  -2  -3   3  122.85   10.49
  -2   3   3  126.01    8.90
  -2  -3   3  115.26   19.20
  -2  -3   3  103.73   17.43
  -2   3  -3  126.42   11.93
  -2  -3   3   77.49    9.41
  -2  -3   3  149.28    9.20
  -2  -3  -3  127.44   11.24
  -2  -3   3  107.04   10.18
  -2   3   3  102.28    7.99
  -2   3   3  108.31   11.12
  -2   3  -3  101.61   11.08
  -2  -3   3  119.03    9.99
  -2  -3   3   61.76    8.19
  -2   3  -3  105.93   17.34
  -2  -3   3  150.40   10.42
  -1  -3   3 1456.24   44.30
  -1  -3   3 1365.98   36.42
  -1  -3   3 1495.11   47.69
  -1  -3   3 1503.98   41.37
  -1  -3   3 1945.34   97.40
  -1   3   3 1366.35   42.55
  -1  -3   3 1557.17   63.40
  -1   3  -3 1709.43   73.34
  -1  -3   3 1552.90   68.35
  -1  -3  -3 1529.49   42.41
  -1  -3   3 1394.10   45.89
  -1  -3  -3 1592.88   40.95
  -1  -3   3 1431.92   51.11
  -1   3  -3 1600.10   50.77
  -1   3   3 1353.03   49.00
  -1   3  -3 1655.66   52.37
  -1  -3  -3 1770.09   51.14
  -1  -3   3 1370.16   47.13
  -1  -3   3 1420.85   40.22
  -1  -3  -3 1513.43   40.29
  -1  -3   3 1693.64   48.78
  -1  -3  -3 1718.82   42.50
  -1   3   3 1381.95   41.56
   0  -3   3  120.74    8.19
   0  -3   3  166.98   28.73
   0   3   3  108.14    7.74
   0   3  -3  107.38   17.63
   0  -3   3   96.61   10.13
   0  -3   3   76.04   14.18
   0  -3   3  117.08    7.24
   0   3   3   53.23   12.63
   0  -3  -3  139.36    7.68
   0  -3   3  122.28    5.64
   0  -3   3  112.79   10.07
   0  -3   3   90.18    8.88
   0  -3  -3  114.72    7.55
   0  -3  -3  124.75   10.35
   0  -3   3   85.13    8.62
   0  -3  -3  141.62    8.41
   1  -3   3 2373.52  110.28
   1   3  -3 1563.01   44.90
   1   3  -3 1689.65   41.09
   1  -3   3 1571.75   65.14
   1   3   3 1234.81   62.67
   1  -3  -3 1635.81   45.94
   1  -3   3 1428.08   49.51
   1  -3  -3 2163.65   52.21
   1  -3   3 1532.81   42.91
   1  -3   3 1319.35   48.04
   1  -3  -3 1640.60   50.95
   2  -3   3   99.04   14.10
   2   3  -3  138.67    5.42
   2  -3   3   69.62    9.95
   2   3   3  104.28   15.01
   2  -3  -3  130.28   11.88
   2  -3  -3  116.11    6.43
   2   3  -3  115.28   10.72
   2  -3   3  148.18    9.27
   2  -3   3  103.22   10.76
   2   3  -3  146.77    8.49
   2  -3   3  100.31   10.37
   2  -3  -3  109.93   11.10
   2   3   3  141.99    8.61
   2  -3   3  108.36   10.73
   3  -3   3 1394.04   50.43
   3  -3  -3 1493.40   51.78
   3  -3   3 1383.83   50.05
   3  -3  -3 1528.95   52.10
   3   3   3 1437.75   40.76
   3   3   3 1252.11   56.07
   3   3  -3 1464.54   54.76
   3  -3   3 1343.29   43.74
   3  -3   3  805.56   49.87
   3   3  -3 1397.96   34.64
   3  -3   3 2197.93  108.74
   3  -3  -3 1404.43   44.35
   3  -3   3 1245.19   35.95
   3  -3   3 1405.22   56.89
   3   3  -3 1373.40   39.93
   3  -3   3 1610.97   55.53
   4  -3   3  109.66   13.05
   4  -3  -3  129.85   14.12
   4  -3  -3  105.79   13.02
   4  -3   3  102.28   10.13
   4  -3   3  150.31   30.14
   4  -3   3   48.09   12.69
   4  -3   3  109.68   13.08
   4  -3  -3  105.25    8.35
   4  -3  -3  124.14   10.36
   4  -3   3  104.95    6.67
   4   3  -3  116.31    6.00
   4   3   3   65.68   11.26
   4  -3   3  117.21    6.93
   4   3  -3   94.98   14.49
   4   3  -3  107.20    8.05
   4   3   3  114.56    8.55
   5   3   3 1034.61   34.68
   5   3  -3 1010.67   40.55
   5  -3  -3 1044.05   45.75
   5  -3  -3 1009.32   36.03
   5  -3   3  682.51   33.39
   5  -3  -3 1077.75   46.11
   5  -3   3  425.62   41.31
   5   3   3  762.14   39.20
   5   3   3  865.31   30.61
   5  -3  -3  856.81   30.25
   5  -3   3  843.30   27.79
   5  -3   3  969.64   44.14
   5   3  -3  903.92   30.36
   5  -3  -3  988.67   47.55
   5  -3   3 1359.91   88.61
   5  -3   3  903.45   42.96
   5  -3  -3  893.75   33.83
   5  -3   3  787.48   26.86
   6   3   3   59.68    8.13
   6  -3  -3   69.22    8.65
   6   3   3   49.43    6.74
   6  -3   3   47.37   20.90
   6  -3   3   56.31    7.90
   6  -3   3   20.97   11.12
   6   3  -3   30.97    7.94
   6   3   3   18.61   14.56
   6  -3   3   33.36    7.18
   6  -3  -3   53.92    7.87
   6  -3  -3   60.95    8.77
   6  -3  -3   55.75    6.64
   6   3  -3   53.31    6.67
   6  -3   3   46.86   10.52
   6  -3  -3   56.52   13.05
   6  -3  -3   67.96   12.32
   7   3  -3  517.51   23.74
   7  -3  -3  445.50   37.97
   7   3   3  266.34   45.86
   7  -3   3  551.60   35.70
   7  -3  -3  571.15   36.19
   7  -3   3  212.74   31.34
   7   3   3  487.91   23.66
   7   3  -3  566.56   31.17
   7   3   3  526.29   16.20
   7  -3   3  678.31   61.91
   8   3  -3   28.28    8.04
   8   3  -3   20.71    8.60
   8  -3   3   30.14    5.45
   8  -3   3   18.10   14.66
   8  -3   3   14.42   10.74
   8   3   3   14.28   16.09
   8   3  -3   28.30    6.38
   8   3   3   29.52    6.64
   8   3   3   21.32    4.47
   8  -3  -3   40.15   10.76
   8  -3  -3   21.36   11.51
   8  -3  -3    8.73    4.23
   8  -3   3   37.43   10.43
   9  -3  -3  204.98   29.06
   9  -3   3  327.07   40.37
   9  -3   3  138.21   27.19
   9  -3   3  302.18   27.46
   9   3  -3  304.43   19.33
   9   3   3  304.11   19.95
   9   3   3  207.99   44.17
   9  -3  -3  320.94   28.43
   9  -3   3  266.18   15.91
  10   3  -3   17.63    6.82
  10  -3   3   15.79   11.49
  10   3   3   21.15   17.86
  10   3   3   19.83    6.80
  10  -3  -3   17.57   12.00
  10   3  -3    9.21   13.12
 -10   4  -3   12.73    7.76
  -9  -4  -3  166.38   13.18
  -9   4  -3  250.35   26.85
  -9  -4  -3  166.32   13.96
  -9  -4   3  198.32   15.60
  -9   4  -3  140.92   21.09
  -9   4   3  100.11   18.68
  -9   4  -3   80.76   14.32
  -9  -4   3  204.85   16.54
  -8  -4   3   55.57    8.13
  -8   4  -3   13.63    7.23
  -8  -4  -3   44.83    7.22
  -8  -4  -3   50.87    7.52
  -8   4  -3   43.86   14.26
  -8  -4   3   60.97    8.96
  -8   4  -3   25.44   10.14
  -8   4   3   20.10    9.28
  -7   4  -3  146.59   17.89
  -7  -4   3  207.78   26.98
  -7  -4   3  317.82   17.81
  -7  -4  -3  302.56   16.81
  -7  -4  -3  321.41   18.32
  -7   4   3  311.96   35.75
  -7   4  -3  219.54   24.01
  -7   4   3  262.79   26.61
  -6  -4   3   59.72   18.01
  -6  -4  -3  101.27    9.88
  -6   4   3   65.34   15.87
  -6   4  -3   83.83   17.66
  -6  -4   3   96.17    9.07
  -6  -4  -3   89.74    8.55
  -6   4  -3   54.38   10.65
  -6   4   3   48.83    9.56
  -6   4  -3   89.84   14.88
  -6   4   3   66.51   13.11
  -5  -4  -3  518.61   22.65
  -5   4   3  541.45   36.21
  -5  -4   3  625.35   51.15
  -5  -4   3  547.72   22.40
  -5   4   3  447.51   23.60
  -5  -4   3  536.53   24.00
  -5  -4   3  337.31   40.12
  -5   4  -3  691.63   47.48
  -5  -4  -3  495.08   21.02
  -5  -4   3  495.80   26.06
  -5   4  -3  386.86   26.98
  -5   4  -3  306.78   24.20
  -5   4   3  402.74   25.20
  -5  -4   3  563.94   26.42
  -5   4   3  497.82   33.52
  -5   4  -3  425.93   30.97
  -5  -4   3  625.92   35.49
  -5  -4   3  533.36   20.99
  -5  -4  -3  498.09   19.94
  -4   4  -3  133.13   14.37
  -4  -4  -3  154.64    9.70
  -4  -4  -3  147.65   10.11
  -4  -4   3   95.38   22.86
  -4   4   3  160.88   12.45
  -4  -4   3  181.10   12.39
  -4   4  -3  143.20   22.48
  -4  -4   3  174.70   26.80
  -4  -4   3  184.37   10.68
  -4  -4   3   92.38   10.97
  -4  -4   3  174.64   11.12
  -4   4  -3  113.16   12.98
  -4   4   3  116.22   11.62
  -4   4   3  146.00   16.48
  -4   4  -3  140.28   16.35
  -4  -4   3   74.17   12.35
  -4  -4   3  189.12   13.82
  -3  -4   3 1007.64   71.64
  -3  -4   3  868.61   27.97
  -3  -4  -3  778.53   26.72
  -3  -4   3  894.62   30.94
  -3   4   3  765.84   30.42
  -3  -4  -3  875.81   30.97
  -3  -4   3  844.22   33.94
  -3   4  -3  648.46   35.13
  -3   4  -3  865.20   55.46
  -3  -4  -3  751.65   27.24
  -3  -4   3  850.14   35.49
  -3   4  -3  734.57   35.96
  -3  -4   3  853.26   28.61
  -3   4   3  792.27   36.32
  -3   4  -3  679.28   33.82
  -3  -4  -3  950.73   38.89
  -3   4   3  790.32   31.40
  -3  -4   3  863.16   36.68
  -3   4   3  774.55   38.95
  -3   4  -3  734.73   38.39
  -3  -4   3  995.30   39.75
  -3  -4   3  876.89   32.92
  -2  -4   3  241.84   14.46
  -2   4   3  188.71   12.56
  -2  -4   3  224.22   15.56
  -2  -4   3  269.85   38.11
  -2   4  -3  166.09   15.09
  -2  -4  -3  191.54   11.96
  -2  -4   3  220.49   11.11
  -2  -4   3  196.98   14.38
  -2  -4   3  242.35   13.26
  -2  -4   3  173.35   24.42
  -2  -4   3  116.07   12.58
  -2   4   3  106.76   20.64
  -2  -4   3  183.93   15.23
  -2   4   3  178.15   14.66
  -2  -4  -3  215.40   16.73
  -2   4   3  187.01   16.84
  -2   4  -3  207.05   18.09
  -2   4  -3  187.18   15.77
  -2  -4  -3  199.10   10.41
  -2  -4   3  103.98   11.82
  -2   4  -3  168.80   24.38
  -1  -4   3  924.24   32.83
  -1  -4   3  948.76   36.07
  -1  -4   3  886.78   25.37
  -1  -4  -3  872.55   29.95
  -1  -4  -3 1022.76   32.29
  -1  -4   3 1342.83   84.17
  -1   4   3  860.31   31.00
  -1   4  -3  804.25   36.26
  -1  -4   3  961.21   35.77
  -1  -4   3 1053.76   58.14
  -1   4   3  602.17   48.90
  -1   4   3  875.22   34.79
  -1  -4   3  946.30   36.14
  -1  -4  -3  984.28   32.05
  -1   4   3  829.00   38.13
  -1   4  -3  880.81   39.59
  -1   4  -3  942.96   59.15
  -1  -4  -3  958.04   37.97
  -1  -4   3  900.68   36.45
  -1  -4   3  923.60   28.96
  -1  -4  -3  882.92   28.48
  -1  -4   3 1070.23   37.47
   0  -4   3  254.58    9.41
   0  -4  -3  238.09   12.19
   0  -4   3  371.81   43.65
   0  -4   3  231.61   11.44
   0   4  -3  164.40   24.64
   0  -4   3  212.03   24.53
   0   4   3  149.23   22.02
   0  -4  -3  234.87   11.36
   0  -4   3  181.31   13.97
   0  -4  -3  188.69   11.99
   0  -4   3  120.61   11.15
   0  -4  -3  206.21   15.33
   0  -4   3  197.16   14.67
   1  -4   3  966.51   29.38
   1  -4   3  992.86   31.94
   1   4  -3  917.14   28.35
   1   4   3  768.91   51.29
   1  -4   3 1056.42   54.38
   1  -4  -3  939.92   31.27
   1  -4  -3  931.15   32.06
   1  -4   3  982.15   37.89
   1  -4  -3 1121.11   36.93
   1  -4   3  864.56   36.27
   1  -4  -3  967.11   38.18
   1   4   3 1073.43   34.37
   2  -4  -3  190.89   10.20
   2   4   3  232.31   12.92
   2   4  -3  220.61    8.96
   2   4   3  153.59   21.02
   2  -4   3  201.14   22.34
   2   4  -3  170.94   12.46
   2  -4   3  240.90   17.78
   2  -4   3  185.72   15.77
   2  -4   3  179.33   15.23
   2  -4  -3  178.64   15.54
   2  -4   3  247.73   12.31
   2   4   3   77.88   10.13
   2  -4  -3  233.72   13.26
   2  -4   3  189.29   15.32
   2  -4  -3  206.57   16.35
   3   4   3  882.20   30.84
   3  -4   3 1080.09   44.68
   3   4  -3  818.24   24.34
   3  -4   3  928.25   31.91
   3  -4  -3  899.83   32.33
   3   4   3  715.62   45.65
   3  -4   3  871.82   47.32
   3  -4   3  730.04   24.77
   3   4  -3  865.58   38.47
   3  -4   3 1019.06   43.34
   3  -4  -3  907.70   28.79
   3   4   3  891.84   38.15
   3   4   3  927.95   31.51
   3  -4   3  869.90   38.82
   3  -4  -3  876.57   39.61
   3   4  -3  811.72   29.60
   3  -4   3  840.91   37.74
   3  -4  -3  861.71   38.64
   4  -4   3  167.09   16.37
   4  -4  -3  166.40   16.80
   4  -4   3  146.77   15.75
   4  -4  -3  164.46   16.81
   4  -4  -3  193.77   13.56
   4  -4   3  185.83   13.23
   4  -4  -3  154.86   12.40
   4   4  -3  162.42   11.08
   4   4   3  193.70   12.24
   4  -4   3  155.15    8.55
   4  -4   3  118.79   11.35
   4   4  -3  119.74   15.92
   4   4  -3  176.89    8.02
   4   4   3  196.64   12.67
   4  -4   3  168.46    9.43
   4   4   3  101.94   16.32
   4   4   3   53.96   10.78
   4  -4   3  280.21   41.94
   5  -4   3  593.97   33.98
   5  -4  -3  638.96   35.38
   5  -4  -3  601.95   35.25
   5   4   3  644.16   25.63
   5  -4   3  843.09   71.58
   5   4  -3  576.67   18.77
   5  -4   3  508.10   19.80
   5   4   3  382.58   49.39
   5  -4   3  522.18   26.28
   5  -4  -3  532.89   25.46
   5   4  -3  551.39   23.61
   5  -4  -3  502.53   22.10
   5  -4   3  489.45   19.26
   5   4   3  647.39   26.43
   5  -4   3  574.72   33.94
   5   4   3  478.26   34.41
   5   4   3  530.64   32.27
   6   4   3  118.71   11.32
   6  -4   3   95.99   14.55
   6  -4  -3  110.46   16.02
   6  -4   3   86.07   10.78
   6  -4   3  139.08   32.10
   6   4   3   44.34   21.21
   6   4   3   60.85   12.32
   6  -4  -3   94.40   10.21
   6  -4   3   86.14    7.45
   6  -4   3   95.83    7.59
   6   4  -3  119.37    7.82
   6   4  -3  103.08    9.79
   6   4   3  109.11   10.32
   7   4  -3  389.68   16.75
   7   4   3  450.84   23.71
   7  -4   3  352.75   28.98
   7  -4  -3  413.83   31.48
   7  -4  -3  358.45   31.37
   7  -4  -3  308.25   19.99
   7  -4   3  522.01   58.32
   7   4  -3  348.07   19.68
   7   4   3  361.40   20.55
   8  -4  -3   80.30   15.50
   8   4  -3   69.43    7.38
   8   4   3   17.57   18.63
   8  -4   3   52.36   13.02
   8   4   3   82.07   10.90
   8  -4  -3   38.27   12.50
   8   4  -3   61.01    8.66
   8   4   3   53.95    8.43
   9   4  -3  256.80   15.17
   9   4   3  133.75   37.65
   9  -4   3  212.16   24.08
   9  -4  -3  227.79   25.06
   9   4   3  284.46   20.35
   9  -4  -3  146.58   24.22
   9   4  -3  128.18   26.25
   9   4  -3  200.06   15.85
   9   4   3  210.65   16.75
  10  -4  -3   18.82   10.42
  10   4  -3   -1.50   13.32
  -9   5   3  113.72   26.05
  -9   5  -3   39.58   10.35
  -8   5   3   26.77   11.06
  -8   5  -3   24.76   10.82
  -8  -5  -3   39.24    6.98
  -8  -5  -3   43.58    7.57
  -8  -5   3   38.56    7.03
  -8   5  -3   44.49   15.74
  -8   5   3   23.76   14.90
  -8   5  -3   13.78    6.73
  -7   5   3  173.16   27.35
  -7   5  -3  221.08   30.00
  -7  -5   3  159.12   12.72
  -7  -5  -3  159.68   12.36
  -7   5   3  162.58   29.80
  -7   5  -3   86.18   13.74
  -7   5   3  122.71   19.62
  -7   5  -3  147.74   20.89
  -6   5   3   46.11   12.41
  -6  -5   3    5.86   12.04
  -6   5   3   63.38   15.90
  -6  -5   3   61.00    8.53
  -6   5  -3   40.28    9.50
  -6   5  -3   64.82   18.99
  -6  -5   3   60.50    7.90
  -6  -5  -3   56.05    7.38
  -6   5   3   29.14   15.08
  -6   5  -3   51.10   12.76
  -5   5  -3  185.72   20.15
  -5   5   3  226.28   33.47
  -5   5   3  271.55   26.28
  -5  -5   3  290.89   17.56
  -5   5  -3  380.93   39.48
  -5  -5   3  312.77   16.91
  -5  -5  -3  304.74   16.33
  -5  -5   3  290.12   19.41
  -5   5  -3  207.57   19.96
  -5   5   3  216.07   17.83
  -5  -5   3  167.62   32.02
  -5   5   3  261.00   25.28
  -5   5  -3  261.01   25.15
  -4  -5   3   46.27    8.65
  -4  -5  -3  106.00   10.88
  -4  -5   3  115.13   10.38
  -4   5   3   80.44   10.70
  -4   5  -3  100.93   13.28
  -4  -5   3   77.85   23.90
  -4   5  -3   73.91   19.67
  -4   5   3   42.79   15.90
  -4   5  -3   62.39   11.43
  -4  -5   3  110.32    9.58
  -4  -5  -3  109.46    9.44
  -4   5   3   74.35   12.48
  -4   5   3   70.71    9.72
  -4   5   3   88.81   14.34
  -4   5  -3   86.28   14.51
  -4  -5   3   44.86   10.92
  -3  -5   3  452.49   23.42
  -3   5   3  411.25   23.18
  -3   5  -3  338.58   25.27
  -3  -5   3  589.79   27.17
  -3   5  -3  478.24   44.70
  -3  -5   3  479.97   19.88
  -3  -5   3  412.59   24.54
  -3  -5   3  483.50   54.14
  -3   5   3  399.87   24.68
  -3  -5  -3  486.38   23.01
  -3  -5  -3  542.22   30.54
  -3  -5   3  457.76   27.70
  -3   5   3  414.13   30.08
  -3   5  -3  390.24   29.44
  -3  -5  -3  441.09   19.04
  -3  -5   3  581.01   32.33
  -2  -5   3  142.59   11.94
  -2  -5   3  130.03   12.83
  -2  -5   3  128.40   13.87
  -2  -5  -3  133.55   11.13
  -2   5  -3  102.15   12.84
  -2  -5   3  181.45   34.48
  -2  -5   3  132.71   10.13
  -2   5   3  114.66   10.80
  -2  -5   3  118.84   23.38
  -2  -5   3   73.31   10.77
  -2  -5   3  133.65    9.38
  -2   5   3   72.40   18.73
  -2  -5  -3  140.05    9.44
  -2   5   3  106.12   11.60
  -2   5   3  112.62   14.68
  -2   5  -3  108.33   14.93
  -2  -5  -3  145.81   15.08
  -2   5  -3   94.67   21.57
  -2  -5   3   58.71   10.34
  -2  -5  -3  127.92   11.08
  -1  -5   3  439.11   21.97
  -1  -5   3  457.81   16.23
  -1   5  -3  418.34   25.77
  -1  -5  -3  479.58   20.46
  -1   5  -3  482.64   45.65
  -1  -5   3  500.85   42.10
  -1   5   3  301.67   36.08
  -1  -5   3  676.44   63.76
  -1   5   3  416.59   22.94
  -1   5   3  439.93   28.22
  -1   5  -3  421.50   28.16
  -1  -5  -3  519.83   22.96
  -1  -5   3  487.20   19.65
  -1  -5  -3  448.18   18.77
  -1  -5  -3  518.78   27.89
  -1  -5   3  466.07   25.87
  -1  -5   3  466.60   24.89
  -1   5   3  421.45   20.78
   0  -5   3  139.87    9.86
   0  -5   3  116.97   12.10
   0  -5   3  196.89   35.51
   0   5   3  137.95   10.70
   0  -5  -3  154.23   10.18
   0   5  -3   81.52   19.92
   0   5   3   78.89   18.99
   0  -5   3  113.55   20.68
   0  -5  -3  148.00   10.49
   0   5  -3  154.93    9.81
   0  -5  -3  135.52   11.61
   0  -5   3  140.45    7.83
   0   5   3   67.56    5.52
   0  -5  -3  139.20   13.87
   0  -5   3  105.04   11.85
   0  -5   3   63.41    9.52
   1  -5   3  628.47   62.11
   1  -5   3  492.35   18.63
   1  -5  -3  455.34   20.19
   1   5  -3  485.77   18.70
   1  -5   3  485.20   26.29
   1  -5   3  548.35   41.69
   1   5   3  369.02   37.60
   1  -5  -3  502.06   21.21
   1   5   3  430.61   20.86
   1  -5  -3  568.39   26.45
   1  -5   3  500.95   21.30
   1  -5   3  518.92   24.71
   1   5   3  447.13   18.24
   1  -5   3  442.06   25.20
   1  -5  -3  467.07   26.37
   1  -5  -3  489.69   21.43
   2  -5  -3  161.45   11.64
   2  -5   3  135.29   14.20
   2   5  -3  143.20    8.13
   2   5  -3   70.14   18.54
   2   5   3   81.79   17.50
   2  -5   3  112.06   19.36
   2   5  -3  120.29    8.58
   2  -5  -3  126.22    9.23
   2  -5  -3  157.59   15.70
   2  -5   3  109.97   13.11
   2  -5  -3  126.33   14.33
   2  -5   3  154.93    9.95
   2   5   3   57.65    7.27
   2  -5   3  116.42   13.13
   2  -5  -3  110.89   13.09
   2   5   3  145.62   11.02
   3   5  -3  413.13   23.40
   3  -5   3  484.70   21.44
   3   5   3  456.80   21.68
   3   5   3  373.14   35.46
   3  -5  -3  471.12   20.39
   3   5  -3  446.23   16.58
   3   5   3  491.58   24.13
   3  -5   3  426.78   27.47
   3  -5  -3  460.90   29.08
   3  -5   3  451.02   27.53
   3  -5  -3  456.46   28.11
   4  -5   3   96.77   13.33
   4  -5  -3  102.54   14.32
   4   5  -3   88.02   13.29
   4  -5   3  119.34   10.89
   4  -5  -3  109.78   10.98
   4   5   3  113.69   10.39
   4  -5   3   96.96    6.90
   4   5  -3  114.49    7.11
   4   5   3   56.70   14.64
   4   5   3   39.83    9.55
   5  -5   3  302.29   24.84
   5  -5  -3  343.42   27.16
   5   5   3  188.51   36.43
   5   5  -3  336.29   13.48
   5  -5  -3  282.79   18.05
   5  -5   3  242.60   13.29
   5   5   3  269.17   28.14
   5   5   3  326.84   18.51
   5  -5   3  257.12   12.72
   5   5  -3  277.88   26.01
   5   5  -3  321.61   18.14
   5   5   3  286.83   21.89
   5   5   3  327.81   18.87
   6   5  -3   82.44    6.62
   6  -5  -3   64.32   13.23
   6  -5  -3   70.35    9.09
   6  -5   3   51.26    5.93
   6   5  -3   71.71    9.00
   6  -5   3   45.73   11.11
   6   5   3   76.45    9.53
   6  -5   3   48.70    5.58
   6   5   3   65.92    9.01
   6  -5   3   41.93    7.52
   6   5  -3   47.13   13.92
   6   5   3   21.93    9.84
   7   5   3  234.59   16.94
   7  -5  -3  176.30   21.44
   7   5  -3  211.19   15.76
   7   5   3  201.60   15.85
   7  -5  -3  167.31   14.37
   7   5  -3  209.56   11.47
   7   5  -3  134.63   22.80
   7  -5   3  170.36   20.62
   8   5  -3   50.72    8.75
   8  -5  -3   40.18    7.85
   8  -5   3   46.02   12.79
   8   5  -3   48.70    6.18
   8   5   3   21.07   20.57
   8   5  -3   18.74   12.30
   8   5   3   53.40    9.47
   8  -5  -3   51.35   13.54
   8   5   3   38.16    8.06
   9   5   3   71.23   29.17
   9   5  -3   50.92   18.24
  -8   6  -3   24.32    8.73
  -8   6  -3   52.52   18.44
  -7   6   3   80.55   17.41
  -7   6  -3  127.35   26.50
  -7  -6   3   91.22   10.40
  -7  -6  -3   94.54   10.30
  -7   6   3  101.05   25.93
  -7   6  -3   70.11   16.02
  -6  -6  -3   78.89    9.16
  -6   6   3   38.50   12.21
  -6   6  -3   48.11   13.49
  -6  -6   3   72.03    9.67
  -6   6  -3   38.90   11.00
  -6  -6  -3   95.30   10.55
  -6   6  -3   74.58   21.45
  -6   6   3   50.46   11.08
  -6   6   3   44.50   19.56
  -6  -6   3   79.13    9.53
  -5   6   3  128.59   27.72
  -5   6   3  126.81   13.04
  -5   6  -3  115.91   16.48
  -5   6   3  123.39   14.92
  -5  -6   3  149.18   12.39
  -5  -6  -3  152.97   12.27
  -5  -6   3  170.38   15.08
  -5  -6   3  162.37   13.68
  -5   6   3  121.01   19.14
  -5   6   3  118.18   18.71
  -5   6  -3  132.52   19.60
  -4   6  -3  108.79   25.12
  -4   6   3  102.14   12.85
  -4  -6   3  129.73   12.06
  -4   6   3   66.74   21.61
  -4  -6   3   68.16   10.60
  -4  -6   3  151.74   12.07
  -4  -6  -3  134.33   11.23
  -4   6   3  115.12   11.89
  -4   6   3   99.23   16.76
  -4   6  -3  101.11   17.01
  -4   6  -3   94.29   14.52
  -4   6   3   87.66   14.38
  -3   6   3  204.63   15.61
  -3   6   3  198.29   16.82
  -3   6  -3  198.49   19.71
  -3  -6  -3  269.04   17.82
  -3  -6   3  241.82   17.50
  -3   6  -3  235.69   35.36
  -3  -6   3  211.48   17.76
  -3  -6  -3  283.23   18.73
  -3   6   3  206.69   22.60
  -3   6  -3  193.03   22.05
  -3  -6   3  277.91   24.49
  -2   6  -3  106.49   25.38
  -2   6   3  125.15   12.80
  -2   6   3  140.53   12.24
  -2   6  -3  122.93   15.07
  -2  -6   3  147.76   11.66
  -2  -6   3   98.55   13.07
  -2   6   3   77.88   21.40
  -2   6  -3  126.27   17.35
  -2  -6  -3  148.60   13.37
  -2   6   3  114.49   16.27
  -2  -6   3   67.16   13.17
  -1  -6   3  262.25   12.32
  -1   6   3  265.74   16.83
  -1   6  -3  241.68   36.05
  -1   6   3  206.05   31.98
  -1  -6   3  241.67   21.19
  -1   6   3  232.49   17.06
  -1  -6  -3  313.95   19.14
  -1  -6   3  298.40   21.95
   0   6  -3  112.74   25.79
   0   6   3  149.88   12.17
   0   6   3   91.72   22.14
   0   6   3  125.67   12.12
   0  -6  -3  157.32   14.13
   0  -6   3  156.19    9.25
   0  -6   3   68.56   10.39
   1   6   3  258.76   16.52
   1   6   3  182.64   29.70
   1   6  -3  285.16   14.64
   1  -6  -3  286.01   16.27
   1  -6   3  270.90   13.70
   1  -6  -3  360.03   22.87
   1  -6   3  273.78   18.27
   2  -6  -3  152.41   11.51
   2   6  -3  169.03   10.12
   2   6   3  167.35   12.93
   2   6  -3   84.29   22.73
   2  -6   3  175.76   11.27
   2  -6  -3  173.16   17.93
   2   6   3   74.79   19.95
   2  -6   3  126.94   15.20
   2  -6  -3  154.87   17.26
   2   6   3   83.30    8.85
   2  -6   3   88.54   10.97
   3   6   3  237.81   15.70
   3   6  -3  239.01   12.25
   3   6   3  172.89   27.25
   3  -6  -3  293.07   16.43
   3  -6   3  248.80   14.80
   3   6  -3  221.78   13.89
   3  -6   3  228.93   16.11
   3   6   3  241.08   15.49
   3  -6   3  234.02   20.94
   3  -6  -3  243.44   21.99
   4  -6  -3  126.41   16.86
   4  -6   3  116.97    8.03
   4   6   3   81.01   19.16
   4  -6  -3  152.59   13.50
   4   6  -3  145.91    8.95
   4   6  -3  108.39   12.76
   4   6   3  160.46   13.06
   4   6   3   62.39   10.02
   4   6   3  115.82   29.34
   4  -6   3  116.30   15.73
   5  -6   3  136.88   17.79
   5  -6  -3  201.56   21.64
   5  -6  -3  163.00   14.14
   5   6   3  119.24   21.87
   5   6   3  189.09   14.61
   5   6  -3  151.16   18.00
   5   6  -3  194.33   10.61
   5  -6   3  140.37   10.19
   6  -6  -3   82.94   10.43
   6   6  -3   88.79   10.76
   6  -6   3   79.63   15.09
   6   6  -3   98.07    7.60
   6   6   3  100.10   11.35
   6   6   3   69.31   27.98
   6  -6   3   69.10    7.32
   6   6   3   50.43   14.96
   6   6   3   97.76   11.48
   6  -6  -3   78.37   14.93
   6   6  -3   51.56   13.68
   7  -6  -3  107.36   17.93
   7   6   3   75.76   29.33
   7  -6   3   97.09   16.91
   7  -6  -3   99.67   11.40
   7   6   3  130.83   13.15
   7   6  -3   91.64   18.36
   7   6  -3  122.31   13.06
   7   6   3  117.52   13.13
   8   6   3   37.39   24.66
   8   6  -3   29.53   14.27
   9   6  -3   42.70   16.32
  -7   7  -3   71.92   23.02
  -6   7   3   27.95    9.11
  -6   7  -3   40.08   19.99
  -5   7   3   70.77   12.21
  -5   7  -3   94.23   26.32
  -5  -7   3   67.35    9.86
  -4   7   3   56.31    9.29
  -4  -7   3   61.26   12.12
  -4  -7   3   67.41    9.66
  -4   7   3   55.60   10.67
  -4   7   3   39.86   12.63
  -4  -7  -3   78.32    9.36
  -4   7   3   43.51   18.50
  -4   7  -3   40.38   11.05
  -4  -7   3   83.80    9.84
  -4   7  -3   59.76   14.95
  -4  -7  -3   62.23   10.91
  -4   7  -3   50.93   21.20
  -3   7  -3   85.63   14.34
  -3  -7   3  126.51   13.35
  -3   7   3  100.49   11.54
  -3  -7   3   97.20   13.20
  -3   7  -3  103.72   26.92
  -3   7   3   94.99   17.29
  -3   7  -3   98.93   17.25
  -3  -7   3  124.58   15.20
  -3  -7  -3  133.16   14.29
  -2   7   3   79.96   10.02
  -2  -7   3   79.90    9.34
  -2   7  -3   85.88   24.88
  -2   7   3   42.06   17.89
  -2  -7   3   47.40   10.30
  -2  -7   3   69.26   11.88
  -2  -7  -3   72.43   11.26
  -2  -7   3   34.58   12.74
  -1   7   3  113.85   11.62
  -1  -7   3  149.66   16.23
  -1  -7   3   98.84   14.72
  -1   7  -3  121.79   28.86
  -1   7   3   54.30   20.06
  -1  -7  -3  172.01   15.96
  -1  -7   3  146.49   18.32
   0   7   3   87.48   10.35
   0   7  -3   72.22   23.26
   0   7   3   42.30   17.80
   0  -7   3   86.09   12.94
   0  -7  -3   99.14   12.79
   0  -7   3   40.56   10.84
   1   7   3  118.44   11.94
   1  -7   3  144.99   16.72
   1   7   3  103.81   24.31
   1  -7  -3  179.64   18.30
   1  -7   3  146.72   15.24
   1   7  -3  133.93   10.71
   2  -7  -3   78.51    9.67
   2   7   3   80.92    9.94
   2   7  -3   90.27    8.33
   2   7  -3   62.16   20.99
   2   7   3   54.89   18.55
   2  -7   3   63.77   12.85
   2  -7  -3   85.73   14.95
   2  -7   3   73.14   13.14
   2  -7  -3   68.92   13.50
   2  -7   3   30.48    7.69
   3   7  -3  129.49    9.62
   3   7   3   88.21   22.02
   3  -7   3  129.78   18.27
   3   7   3  125.88   12.36
   3  -7   3  117.04   16.49
   3  -7  -3  141.35   18.32
   4   7   3   44.98   16.55
   4  -7  -3   73.40   10.42
   4  -7   3   53.74   12.57
   4  -7  -3   56.16   13.33
   4   7   3   59.92   23.17
   4   7   3   78.07   10.04
   4  -7   3   42.68   13.15
   4   7  -3   78.04    7.23
   5  -7  -3   83.09   15.97
   5   7   3   92.15   11.00
   5  -7  -3   93.97   11.41
   5   7   3   59.37   18.54
   6   7   3   26.32   12.98
   6   7   3   62.59   10.23
   6   7   3   40.03   23.62
   7   7   3   64.16   28.27
  -4  -8  -3   43.26   10.65
  -3  -8   3   59.47   11.33
  -3  -8  -3   60.15   11.20
  -2  -8   3   65.45    9.52
  -2  -8  -3   66.34   12.48
  -1  -8  -3   58.42   12.14
   0  -8  -3   73.96   13.78
   1  -8  -3   59.85   14.25
 -11   0   4   -0.98    7.49
 -11   0  -4    6.93    8.94
 -11   0  -4    0.28    3.77
 -10   0  -4  263.96   27.62
 -10   0   4  269.37   29.32
 -10   0  -4  253.12   15.98
 -10   0  -4  293.57   15.35
 -10   0   4  302.48   22.09
  -9   0   4    1.66    4.47
  -9   0  -4   -0.74    7.04
  -9   0   4    0.84    6.21
  -9   0  -4   -0.19    2.51
  -9   0  -4    0.93    3.15
  -8   0   4  393.94   32.36
  -8   0   4  391.62   29.72
  -8   0  -4  384.48   30.47
  -8   0  -4  387.70   28.21
  -8   0  -4  439.44   18.20
  -8   0   4  441.62   25.22
  -8   0  -4  393.25   18.82
  -8   0  -4  392.25   33.52
  -7   0   4    2.70    5.00
  -7   0  -4    0.73    2.21
  -7   0  -4   -1.88    7.32
  -7   0  -4    0.59    4.74
  -7   0   4   -7.25   12.13
  -7   0  -4   -0.49    4.48
  -7   0   4   -1.13    5.38
  -7   0   4   -0.69    3.59
  -6   0   4  566.04   33.13
  -6   0  -4  621.69   35.12
  -6   0   4  601.91   36.34
  -6   0  -4  624.89   32.65
  -6   0   4  627.88   29.00
  -6   0   4  663.08   29.23
  -6   0  -4  602.70   22.25
  -6   0   4  673.99   51.78
  -6   0  -4  510.98   43.95
  -5   0  -4    1.07    6.98
  -5   0  -4    2.18    3.88
  -5   0   4    0.86    5.99
  -5   0   4   -0.85    2.80
  -5   0  -4    1.49    3.73
  -5   0   4   -1.26    3.67
  -5   0   4   -0.26    2.33
  -5   0   4    1.40    3.28
  -4   0  -4 1240.17   73.64
  -4   0  -4 1590.15   54.39
  -4   0   4 1896.47   72.99
  -4   0  -4 1594.56   43.65
  -4   0   4 1665.12   52.46
  -4   0   4 1443.98   54.64
  -4   0   4 1797.79   51.46
  -4   0   4 1789.39   50.01
  -3   0  -4    0.10    0.72
  -3   0   4   -0.11    1.51
  -3   0  -4    0.52    1.05
  -3   0   4    0.63    1.96
  -3   0  -4    0.98    7.06
  -3   0   4   -2.35    2.54
  -3   0   4    1.19    1.83
  -3   0   4    1.29    4.17
  -3   0  -4   -1.47    3.13
  -3   0  -4    0.47    1.92
  -3   0   4    0.34    1.81
  -2   0  -4 1716.34   52.14
  -2   0   4 1840.41   47.26
  -2   0   4 2342.39   52.98
  -2   0  -4 1346.28   76.90
  -2   0  -4 1678.71   50.90
  -2   0   4 1698.46   52.83
  -2   0   4 1871.07   52.82
  -2   0   4 1978.82   62.37
  -2   0   4 1669.78   51.61
  -2   0  -4 1942.12   52.51
  -1   0   4    0.07    0.87
  -1   0  -4   -0.91    5.50
  -1   0   4    0.22    0.87
  -1   0   4    0.70    0.90
  -1   0   4    0.13    1.25
  -1   0  -4    0.33    0.75
  -1   0  -4    0.32    0.89
  -1   0   4   -0.27    2.55
  -1   0  -4    0.07    0.96
  -1   0   4   -0.19    0.87
  -1   0  -4    0.26    1.04
   0   0  -4  553.52   23.64
   0   0   4  632.85   17.73
   0   0  -4  525.60   18.69
   0   0   4  662.35   26.15
   0   0   4  640.90   18.34
   1   0  -4    0.11    0.76
   1   0  -4   -0.55    1.11
   1   0  -4    0.11    0.39
   1   0   4    0.09    0.96
   1   0   4    0.47    0.42
   1   0  -4    0.13    1.31
   1   0  -4    0.35    0.98
   1   0   4    0.24    2.10
   1   0  -4    0.38    0.41
   1   0   4    0.41    0.43
   1   0  -4   -0.86    6.36
   1   0  -4    1.40    2.57
   2   0  -4 1835.14   46.66
   2   0   4 1966.79   47.24
   2   0  -4 1844.16   58.90
   2   0  -4 1890.62   50.11
   2   0  -4 1771.12   47.10
   2   0  -4 1849.61   46.58
   2   0   4 2002.08   47.22
   3   0  -4   -0.82    5.53
   3   0  -4    0.49    1.22
   3   0   4   -0.32    1.27
   3   0  -4    0.10    1.27
   3   0   4   -0.08    1.07
   3   0  -4   -0.44    1.71
   3   0  -4   -0.65    3.11
   3   0  -4    0.39    1.26
   3   0   4    0.11    1.32
   4   0  -4 1916.38   50.78
   4   0   4 1769.54   50.44
   4   0  -4 1848.76   52.74
   4   0  -4 1824.27   50.01
   4   0  -4 1785.64   49.89
   4   0   4 1824.20   50.59
   5   0  -4    0.38    1.98
   5   0  -4    0.74    6.06
   5   0  -4   -0.17    2.17
   5   0  -4   -0.21    2.49
   5   0  -4    0.68    2.21
   5   0   4    0.56    2.10
   5   0   4    0.76    2.06
   6   0  -4  799.55   43.68
   6   0  -4  757.27   29.61
   6   0  -4  764.28   27.79
   6   0   4  714.52   27.95
   6   0  -4  656.35   37.23
   6   0  -4  642.38   45.86
   6   0  -4  756.59   28.25
   6   0   4  720.59   28.45
   7   0  -4    1.48    3.43
   7   0   4   -1.78    9.32
   7   0  -4   -0.50    2.90
   7   0   4    0.54    3.36
   7   0  -4   -2.38    5.39
   7   0  -4    3.08    7.16
   7   0  -4   -0.24    3.05
   7   0   4    0.77    3.31
   7   0  -4    0.27    3.57
   7   0  -4   -0.75    3.69
   8   0  -4  472.35   25.49
   8   0   4  504.57   24.47
   8   0  -4  477.51   27.98
   8   0  -4  520.62   23.96
   8   0  -4  511.61   24.58
   8   0   4  482.46   24.90
   8   0  -4  484.72   28.24
   9   0  -4    0.94    4.83
   9   0   4    6.74   14.13
   9   0  -4   -0.65    4.46
   9   0   4    0.35    4.28
   9   0  -4    1.32    9.18
  10   0   4  174.48   38.81
  10   0  -4  201.96   32.85
  10   0  -4  358.87   22.25
  10   0   4  352.16   22.31
  10   0  -4  350.31   25.01
  11   0   4   -2.21   15.45
  11   0  -4   -0.40    5.52
  11   0   4   -0.41    5.05
 -12   1  -4  125.08   12.14
 -11   1   4    4.04    9.16
 -11   1  -4    3.57    8.39
 -11  -1  -4    6.55    8.69
 -11  -1   4    4.65    8.12
 -11   1  -4    4.01    4.49
 -11  -1  -4    6.01    4.37
 -10   1  -4  276.97   28.68
 -10   1   4  258.84   29.65
 -10  -1   4  306.63   30.41
 -10   1  -4  311.58   17.66
 -10  -1  -4  266.39   26.97
 -10  -1   4  317.10   22.15
 -10  -1  -4  266.91   16.53
  -9  -1  -4    6.22    6.60
  -9   1  -4    6.31    7.78
  -9   1   4    7.13    7.46
  -9  -1   4    8.02    5.00
  -9   1  -4    6.27    3.30
  -9   1  -4    6.45    3.80
  -9  -1   4    8.41    5.59
  -9  -1  -4    6.37    3.68
  -9  -1  -4   10.10    5.08
  -8   1  -4  578.74   39.48
  -8   1   4  508.34   39.08
  -8  -1  -4  621.94   28.82
  -8  -1   4  610.22   30.39
  -8  -1  -4  495.97   40.14
  -8   1  -4  683.15   23.54
  -8  -1   4  629.07   30.78
  -8   1  -4  644.30   25.31
  -7   1  -4    7.78    6.09
  -7   1   4    7.27    6.59
  -7   1   4    7.49    9.98
  -7  -1   4    1.74   10.05
  -7  -1  -4    0.94    6.15
  -7   1  -4    6.24    2.50
  -7  -1   4    8.35    4.46
  -7   1  -4    6.06    5.00
  -7   1   4    4.33    5.71
  -7  -1   4    7.63    4.33
  -7   1  -4    5.93    2.93
  -7  -1  -4    6.27    5.01
  -7  -1   4    9.18    5.48
  -7  -1  -4    8.72    4.01
  -7  -1   4    5.97    3.88
  -7   1  -4    2.57    5.26
  -6   1  -4  892.80   45.29
  -6   1   4  693.84   42.61
  -6   1  -4  882.30   42.47
  -6   1   4  669.96   39.96
  -6  -1  -4  701.17   50.03
  -6  -1   4 1026.89   70.34
  -6  -1   4  798.76   39.05
  -6   1  -4  784.76   54.94
  -6  -1  -4  889.28   38.73
  -6   1  -4 1000.19   27.78
  -6  -1   4  978.92   37.90
  -6  -1  -4  920.40   33.39
  -6  -1   4  888.38   35.65
  -6   1  -4 1006.43   30.23
  -6  -1   4  870.76   34.35
  -6  -1  -4  854.34   29.59
  -6   1  -4  859.25   45.19
  -6  -1   4 1037.88   42.15
  -5  -1  -4   20.77    9.86
  -5  -1  -4   27.34    5.97
  -5  -1   4   21.37   10.56
  -5  -1  -4   31.75    4.88
  -5  -1   4   32.75    5.40
  -5   1  -4   26.22   11.13
  -5   1  -4   22.93    6.80
  -5  -1  -4   30.32    4.14
  -5  -1   4   27.84    6.28
  -5   1  -4   35.13    3.22
  -5   1   4   30.63    5.89
  -5   1  -4   23.35    6.58
  -5   1   4   21.53    6.76
  -5  -1   4   28.69    5.48
  -5   1  -4   32.37    3.93
  -5   1   4   25.20    7.41
  -5   1  -4   21.92    7.03
  -5  -1   4   16.89    5.78
  -5   1   4    6.61    3.75
  -5  -1  -4   31.98    3.84
  -4  -1  -4 1649.61   44.95
  -4   1  -4 1548.13   56.20
  -4   1  -4 1579.41   58.52
  -4   1   4 1452.18   57.98
  -4   1   4 1453.42   56.48
  -4  -1   4 1678.18   49.01
  -4  -1  -4 1732.58   47.89
  -4   1   4 1618.86   53.15
  -4  -1  -4 1583.55   52.21
  -4   1  -4 1299.38   79.76
  -4  -1   4 1662.41   51.03
  -4   1  -4 1756.16   44.56
  -4  -1  -4 1790.20   47.12
  -4  -1   4 1987.49   79.98
  -4   1  -4 1634.06   58.40
  -4  -1   4 1825.14   53.24
  -4   1   4 1892.41   50.52
  -3   1   4   80.94    7.98
  -3   1   4   80.98    6.54
  -3  -1  -4   89.41    5.90
  -3   1  -4   61.54   16.60
  -3  -1   4   85.53    7.27
  -3   1  -4   85.60    4.45
  -3  -1   4   41.94    7.47
  -3   1  -4   72.59    8.45
  -3  -1   4   81.56    6.06
  -3   1   4   37.05    4.67
  -3  -1   4   81.40    7.20
  -3   1  -4   70.04    8.12
  -3   1   4   68.38    8.15
  -3   1  -4   79.38    8.93
  -3   1   4   76.01    8.84
  -2   1  -4 1721.01   96.24
  -2  -1   4 2018.19   89.35
  -2  -1   4 2543.38   62.72
  -2  -1   4 2329.92   72.78
  -2   1   4 2101.42   57.54
  -2  -1   4 2166.79   58.34
  -2  -1   4 2230.94   55.78
  -2  -1  -4 2186.90   55.10
  -2  -1   4 2286.85   68.10
  -2  -1   4 2235.26   55.43
  -2  -1  -4 2211.17   54.84
  -2   1  -4 2327.02   62.66
  -2   1  -4 2249.55   61.44
  -2   1   4 2152.85   60.87
  -2   1  -4 2246.20   61.98
  -2   1   4 2156.20   61.26
  -1  -1  -4   34.97    2.36
  -1   1  -4   40.90    2.19
  -1  -1   4   39.09    5.57
  -1   1   4   36.17    3.59
  -1  -1   4   36.41    2.00
  -1  -1   4   28.75   11.49
  -1  -1   4   25.02    3.62
  -1   1  -4   33.66    4.46
  -1  -1   4   24.84    5.31
  -1  -1   4   34.71    6.02
  -1  -1   4   36.54    3.24
  -1  -1   4   35.33    2.58
  -1  -1  -4   38.74    2.52
  -1  -1  -4   34.50    3.56
  -1  -1   4   24.51    3.04
  -1   1  -4   34.59    4.40
  -1  -1  -4   35.16    2.68
  -1   1   4   25.12    3.09
  -1   1  -4   35.39    3.73
  -1   1  -4   28.94   12.82
  -1  -1   4   34.47    2.49
   0  -1   4 2112.85   57.67
   0  -1  -4 2283.69   60.87
   0   1  -4 2555.39   57.74
   0   1   4 2268.28   61.12
   0   1  -4 2588.67   63.88
   0  -1   4 2678.54   57.71
   0  -1   4 2308.02   60.88
   0  -1   4 3138.05   77.59
   0  -1  -4 2478.56   67.35
   0  -1   4 2192.35  103.07
   0   1   4 2552.96   69.04
   0   1  -4 2615.53   68.16
   0  -1   4 2311.97   63.03
   0  -1  -4 2421.95   57.29
   0  -1   4 2136.69   59.73
   0  -1  -4 2693.24   60.87
   0   1  -4 2552.08   60.85
   1  -1   4   35.79    4.42
   1  -1  -4   43.86    4.76
   1  -1   4   34.40    4.23
   1   1   4   33.55    3.67
   1  -1  -4   37.91    4.28
   1   1  -4   16.00   10.19
   1  -1   4   27.59   12.86
   1  -1  -4   37.76    3.57
   1  -1   4   33.57    2.12
   1  -1  -4   43.63    4.87
   1   1   4   21.42    4.31
   1  -1  -4   38.49    4.46
   1  -1  -4   21.53    4.74
   1   1  -4   37.56    2.48
   1   1   4   34.34    2.46
   1  -1   4   28.32    4.33
   1   1  -4   36.82    4.58
   1  -1   4   20.15    5.67
   1   1  -4   42.77    4.38
   2   1  -4 2269.02   54.87
   2   1  -4 2230.74  102.84
   2  -1   4 2344.33   66.64
   2  -1  -4 2723.59   67.54
   2  -1   4 2268.97   60.46
   2  -1  -4 2587.65   61.12
   2  -1   4 2140.58   67.67
   2  -1  -4 2404.11   64.39
   2   1   4 2511.73   65.39
   2  -1  -4 2356.03   61.36
   2   1  -4 2204.12   56.83
   2   1   4 2294.32   57.15
   2  -1  -4 2347.46   70.61
   2  -1  -4 2376.00   60.27
   2   1  -4 2433.13   72.03
   2  -1   4 2441.92   70.53
   2   1   4 2335.81   61.67
   2   1  -4 2314.17   63.99
   3  -1   4   94.47    9.91
   3  -1  -4   85.26   11.41
   3  -1  -4   98.24    6.96
   3   1  -4   95.65    4.89
   3   1   4   86.08    5.66
   3  -1   4   88.57    7.11
   3  -1  -4  105.08    7.48
   3  -1  -4   86.19    9.14
   3  -1   4   53.04    6.49
   3   1   4   46.27    6.22
   3  -1   4   88.96   21.39
   3  -1  -4   34.49    7.48
   3   1  -4   82.25   11.25
   3   1  -4   88.38    5.50
   3   1   4   86.38    5.66
   3   1  -4   76.85   17.38
   3   1  -4  103.74    7.45
   3  -1  -4   92.77    7.14
   3   1  -4   87.89    5.52
   3   1  -4   97.79    8.67
   4   1  -4 1894.76   51.35
   4   1   4 1883.63   51.87
   4   1  -4 2317.19   89.97
   4  -1  -4 1991.59   54.29
   4  -1  -4 2153.59   55.66
   4   1  -4 1851.18   63.90
   4   1  -4 1967.11   54.71
   4   1  -4 2001.85   50.93
   4  -1   4 1975.62   64.04
   4  -1  -4 2106.45   63.68
   4   1   4 1622.71   48.23
   4  -1  -4 1818.58   53.57
   4   1  -4 1954.49   51.33
   4   1   4 1801.49   51.54
   4  -1  -4 1619.34   64.19
   4  -1  -4 2039.95   74.23
   4   1  -4 2018.95   74.68
   4  -1   4 2404.16  107.98
   4  -1   4 1908.50   55.16
   4   1  -4 1848.23   58.61
   5   1  -4   33.22    4.66
   5  -1  -4   39.90    6.15
   5   1   4   35.73    5.03
   5   1  -4   39.79    5.20
   5  -1   4   13.32    9.71
   5  -1  -4   32.30    5.30
   5   1  -4   36.03    5.65
   5  -1   4   41.75    8.11
   5   1  -4   38.78    4.84
   5   1   4   30.94    4.50
   5   1  -4   24.63    9.65
   5  -1   4   36.95    5.84
   5   1  -4   16.17    6.21
   5  -1  -4   31.03    9.87
   5  -1  -4   13.07    6.66
   5   1  -4   49.25   11.58
   6  -1  -4 1255.19   39.92
   6   1  -4 1126.23   36.91
   6   1   4  967.30   36.30
   6   1  -4 1022.29   47.32
   6  -1   4 1063.02   38.72
   6  -1  -4 1125.33   61.44
   6  -1  -4 1189.75   40.21
   6   1  -4 1154.58   38.47
   6   1  -4 1146.91   39.58
   6   1  -4 1150.28   36.55
   6   1   4 1000.02   36.09
   6   1  -4 1057.20   60.59
   6   1  -4 1175.47   44.75
   7   1  -4    9.26    3.92
   7   1   4    8.20    4.13
   7   1  -4   10.40    5.23
   7  -1   4    7.89    2.84
   7  -1   4    5.22   12.15
   7  -1  -4    9.57    4.38
   7   1  -4   11.51    4.85
   7   1  -4    6.56    6.55
   7  -1  -4    9.06    9.13
   7   1  -4    8.46    9.58
   7  -1  -4    3.27    5.94
   7  -1  -4    7.19    4.21
   7  -1   4    8.70    4.41
   7   1  -4    9.85    3.88
   7   1   4    7.95    3.93
   7   1  -4   12.01    4.80
   7   1  -4    5.75    4.97
   7   1   4   11.09   12.90
   8   1  -4  761.78   30.80
   8   1   4  670.38   30.27
   8  -1  -4  791.27   35.59
   8   1   4  342.54   51.09
   8  -1   4  370.52   51.31
   8  -1  -4  753.80   33.16
   8   1  -4  720.66   31.57
   8  -1  -4  601.57   50.23
   8  -1  -4  669.20   32.91
   8   1  -4  730.25   36.06
   9   1  -4   10.17    6.50
   9   1   4   12.81    5.23
   9   1  -4   12.91    5.34
   9  -1  -4    8.86    5.55
   9  -1   4    6.04    5.15
   9  -1   4    6.19   13.46
   9   1   4    2.33   11.49
   9   1  -4    8.05    5.64
   9  -1  -4   15.43   11.44
   9  -1  -4    3.42    5.12
  10   1  -4  351.10   25.90
  10   1  -4  390.10   22.89
  10   1   4  343.50   22.43
  10  -1   4  189.06   37.92
  10   1   4  179.06   41.10
  10  -1  -4  215.31   33.91
  10  -1  -4  404.23   23.61
  10  -1   4  343.85   22.57
  10  -1  -4  358.67   24.75
  11  -1  -4    7.58    6.41
  11   1  -4    6.40    5.67
  11  -1   4    6.00   12.09
  11  -1   4    7.80    6.56
  11   1   4    0.42    5.47
 -11   2  -4   -0.97    8.65
 -11  -2  -4    4.52    4.33
 -10   2  -4  236.37   28.41
 -10  -2  -4  227.58   17.58
 -10  -2   4  271.96   20.20
 -10  -2  -4  198.24   14.32
 -10  -2   4  273.27   20.15
 -10   2  -4  212.36   25.74
 -10   2   4  189.18   25.96
  -9   2  -4   13.98    9.06
  -9   2  -4    5.67    7.74
  -9  -2  -4   15.41    9.28
  -9   2  -4   11.54    4.37
  -9  -2   4   20.91    6.66
  -9  -2  -4    6.28    4.21
  -9  -2   4   13.25    5.80
  -9   2   4   19.84    9.95
  -8  -2   4  423.95   23.09
  -8   2  -4  305.06   30.83
  -8  -2  -4  391.01   20.95
  -8  -2  -4  282.10   29.48
  -8   2  -4  450.96   19.43
  -8  -2   4  457.03   24.32
  -8   2   4  272.83   13.87
  -8   2  -4  366.82   30.96
  -8   2   4  267.21   27.94
  -7  -2  -4   27.90    4.91
  -7   2  -4   14.72    8.45
  -7   2  -4   17.89    8.59
  -7   2   4   19.59    8.78
  -7  -2  -4   21.18    9.99
  -7   2   4   26.34   12.80
  -7  -2   4   23.76   18.61
  -7   2  -4   18.22    7.52
  -7   2   4   13.72    6.98
  -7   2  -4   21.53    5.90
  -7   2   4   19.50    2.66
  -7   2  -4   23.94    4.39
  -7  -2   4   26.11    6.10
  -7  -2  -4   21.58    6.55
  -7  -2   4   18.99    6.33
  -7  -2  -4   24.65    5.34
  -7  -2   4   25.31    6.02
  -7  -2  -4   28.74    4.69
  -6   2  -4  302.13   31.12
  -6   2   4  726.05   48.28
  -6  -2   4  957.88   74.92
  -6  -2   4  758.15   28.62
  -6  -2  -4  680.64   26.47
  -6  -2  -4  690.16   25.67
  -6   2  -4 1141.55   39.44
  -6   2  -4  730.56   24.22
  -6  -2   4  699.27   29.80
  -6   2  -4  468.22   31.55
  -6   2  -4  586.79   34.43
  -6   2   4  539.39   34.29
  -6   2  -4  593.77   36.69
  -6   2   4  545.03   36.49
  -6  -2  -4  698.63   24.47
  -5  -2  -4   25.74    3.92
  -5   2  -4   20.46    6.93
  -5   2  -4    9.85    6.19
  -5   2   4   19.53    7.03
  -5   2   4   23.03    9.21
  -5  -2   4   16.66   13.05
  -5   2  -4   26.86    7.34
  -5  -2   4   24.87    4.57
  -5   2  -4   19.17    6.38
  -5   2   4   20.28    6.75
  -5  -2  -4   23.38    4.04
  -5  -2   4   25.03    5.18
  -5  -2  -4   30.30    4.71
  -5   2  -4   15.88    6.11
  -4   2  -4 2230.11   68.49
  -4  -2   4 1631.45   56.23
  -4  -2   4 1307.67   70.79
  -4   2  -4  990.24   55.22
  -4  -2   4 2024.83   89.89
  -4  -2   4 1677.40   46.04
  -4  -2  -4 1477.55   44.33
  -4  -2   4 1629.43   49.58
  -4   2   4 1538.67   48.20
  -4   2   4 1594.71   61.53
  -4  -2   4 1663.12   45.10
  -4   2  -4 1455.93   54.55
  -4  -2  -4 1550.65   43.61
  -4   2  -4 1578.10   55.58
  -4   2   4 1575.05   56.31
  -4   2   4 1850.70   47.05
  -4   2  -4 1481.81   56.46
  -4   2   4 1508.12   57.04
  -3  -2   4   38.21   14.37
  -3   2  -4   48.87   15.94
  -3  -2   4   47.62   12.14
  -3   2   4   54.03    5.82
  -3   2  -4   34.81    7.47
  -3   2  -4   20.66    7.37
  -3  -2   4   35.64   11.26
  -3  -2   4   57.03    4.95
  -3  -2  -4   39.91    4.05
  -3  -2   4   28.97    6.65
  -3  -2   4   51.11    5.82
  -3   2   4   43.55    8.30
  -3  -2   4   50.27    6.63
  -3   2  -4   31.38    5.95
  -3   2   4   32.29    5.91
  -3   2   4   18.94    2.94
  -3  -2   4   50.46    4.57
  -3  -2  -4   40.69    3.90
  -3   2  -4   45.50    7.15
  -3   2   4   43.73    6.95
  -3  -2   4   20.38    5.06
  -2  -2   4 2393.89   72.62
  -2  -2   4 2501.18   67.55
  -2  -2   4 2385.11   59.20
  -2  -2  -4 2254.99   58.27
  -2  -2   4 1909.10  101.63
  -2   2  -4 2094.62   71.56
  -2  -2   4 2873.58   86.44
  -2  -2   4 2177.81   64.36
  -2  -2   4 2356.38   89.99
  -2  -2   4 2209.25   61.40
  -2  -2   4 2400.15   59.65
  -2  -2  -4 2291.00   58.69
  -2   2   4 2260.16   72.51
  -2   2  -4 2402.47   67.74
  -2   2   4 2314.94   61.12
  -2   2  -4 1908.48  101.98
  -2   2   4 2237.73   62.08
  -2  -2   4 2745.46   69.55
  -2   2   4 2341.13   67.27
  -2   2  -4 2468.58   68.55
  -1  -2   4  104.94    6.16
  -1  -2   4   69.97    9.22
  -1  -2   4  104.69    9.50
  -1  -2  -4   92.53    5.01
  -1   2  -4   93.36   20.43
  -1  -2   4   95.20   22.47
  -1  -2  -4  103.28    4.69
  -1   2   4   79.81    4.16
  -1  -2   4   80.48    7.43
  -1   2  -4   93.50    8.47
  -1  -2   4   72.92   13.42
  -1  -2   4   92.17    5.20
  -1   2   4  102.80    7.11
  -1  -2  -4   56.45    5.67
  -1  -2   4   82.44    9.74
  -1  -2  -4   95.12    7.92
  -1  -2   4   77.63    7.04
  -1   2   4   71.25    7.05
  -1   2  -4   97.65    8.46
   0   2   4 1815.88   50.50
   0  -2   4 2214.33  111.18
   0  -2   4 1833.92   47.31
   0  -2  -4 1882.35   47.06
   0  -2   4 1876.46   45.41
   0   2  -4 1847.95   54.09
   0  -2   4 1900.74   71.18
   0  -2  -4 1872.15   54.06
   0  -2   4 1825.98   45.74
   0  -2   4 1929.62   56.16
   0  -2   4 1757.96   53.13
   0  -2   4 2222.57   61.39
   0  -2  -4 2124.62   54.02
   0  -2   4 1679.10   51.46
   1   2  -4  112.44    7.22
   1  -2  -4  110.31    7.05
   1   2   4  104.03    7.07
   1   2  -4  121.42   22.26
   1  -2   4  180.33   31.54
   1  -2   4  125.40   12.85
   1  -2   4   73.76   11.58
   1  -2  -4   46.15    7.00
   1  -2   4   86.23    8.30
   1  -2   4   77.61    7.35
   1  -2  -4   93.20    8.06
   1  -2   4   84.05    7.76
   1  -2  -4  100.27    8.42
   1  -2   4   91.93    5.50
   2   2  -4 2506.78   66.56
   2  -2   4 2414.82   70.37
   2  -2   4 2445.81   70.87
   2  -2  -4 2704.77   72.44
   2  -2  -4 2699.22   72.33
   2  -2  -4 2472.63   64.37
   2   2   4 2387.77   61.37
   2   2  -4 2336.84   60.68
   2   2   4 2381.75   64.76
   2  -2   4 2374.72   77.36
   2   2   4 2121.47   77.67
   2   2   4 2648.49   64.32
   2  -2  -4 2356.07   73.93
   2   2  -4 2583.61   73.72
   2  -2   4 2721.15   74.34
   2  -2   4 2254.46   57.70
   3   2  -4   56.15    6.72
   3   2  -4   46.03    2.18
   3  -2   4   57.05    8.63
   3  -2  -4   49.68    7.80
   3   2   4   67.12    6.61
   3  -2  -4   57.33    5.85
   3  -2  -4   50.95    7.96
   3   2  -4   47.11    2.42
   3   2  -4   60.06    5.76
   3  -2   4   57.13    3.50
   3   2   4   32.17    6.94
   3  -2   4   38.84    7.56
   3   2   4   32.83    3.99
   3  -2   4   59.66   20.70
   3   2  -4   35.75    7.97
   3   2  -4   41.81    4.00
   3   2   4   57.27    4.76
   3  -2   4   47.32    7.65
   3   2  -4   28.87    6.74
   4   2  -4 1893.48   58.31
   4   2   4 1987.45   56.00
   4   2  -4 1985.65   48.51
   4  -2   4 1874.47   64.76
   4  -2  -4 2010.53   65.67
   4  -2   4 1007.62   68.97
   4  -2   4 1870.65   48.49
   4   2   4 1521.41   56.82
   4  -2  -4 1758.76   56.12
   4   2   4 2070.19   50.63
   4   2  -4 1723.30   49.92
   4   2  -4 1778.95   62.61
   4  -2   4 2570.47  123.06
   4   2   4 1792.59   50.89
   4  -2  -4 1854.44   70.30
   4   2  -4 2239.13   57.29
   4  -2  -4 1921.65   54.93
   4   2  -4 1871.65   71.86
   4  -2   4 1722.02   44.92
   5   2  -4   33.98    6.63
   5   2  -4   30.39    4.62
   5  -2   4   13.28    9.91
   5  -2   4   41.19   18.96
   5  -2   4   33.32    5.84
   5  -2  -4   35.37    5.91
   5   2  -4   29.53    4.28
   5  -2   4   34.93    4.48
   5   2  -4   45.98    7.28
   5   2   4   29.61    4.81
   5  -2  -4   35.89    6.56
   5   2   4   16.71    4.63
   5  -2   4   29.10    7.83
   5  -2  -4   25.37    7.55
   5   2  -4   20.00    6.86
   5  -2  -4   34.23    6.02
   5  -2  -4   33.22   10.06
   5   2  -4   20.34    8.72
   5  -2   4   39.28    3.75
   6   2  -4  787.33   29.66
   6  -2   4 1188.62   79.43
   6  -2  -4  889.08   34.58
   6  -2   4  828.24   33.39
   6  -2  -4  991.05   35.25
   6  -2  -4  990.89   45.08
   6  -2   4  937.27   31.33
   6   2  -4 1052.80   37.49
   6  -2   4  868.63   43.44
   6   2  -4  771.75   39.27
   6  -2  -4  826.53   50.62
   6   2  -4  765.10   51.04
   6   2   4  765.46   30.26
   6  -2   4  404.47   48.03
   6  -2   4  748.21   25.62
   7  -2   4   34.70    4.69
   7  -2   4    6.70   11.71
   7   2   4   30.96    6.08
   7  -2   4   46.74    7.45
   7   2  -4   34.05    7.33
   7  -2  -4   32.11    7.33
   7  -2   4   42.44   18.77
   7   2  -4   16.28    7.53
   7  -2  -4   29.83   11.65
   7   2  -4   22.45   11.96
   7  -2   4   26.46    8.67
   7  -2  -4   32.77    9.53
   7  -2   4   30.73    6.73
   7  -2  -4   32.18    6.72
   7   2  -4   30.39    5.67
   8  -2   4  461.50   20.05
   8   2  -4  480.67   29.26
   8   2  -4  507.46   24.05
   8   2   4  473.17   24.36
   8  -2   4  237.39   39.28
   8   2  -4  461.24   23.95
   8  -2   4  607.34   25.53
   8   2  -4  460.90   31.98
   8  -2  -4  422.61   40.61
   8   2  -4  346.20   39.20
   9   2  -4   10.78    6.65
   9  -2   4   15.47    4.40
   9  -2   4   -1.75   11.82
   9   2  -4   14.38    5.86
   9   2   4    2.43   14.06
   9  -2   4   18.74    5.57
   9  -2  -4   13.63   10.82
   9   2  -4    8.24   11.49
   9   2  -4   20.09    6.18
   9   2   4   17.89    6.07
  10   2  -4  314.04   24.60
  10   2  -4  294.71   19.72
  10   2   4  298.96   20.37
  10  -2   4  127.69   30.03
  10   2   4  121.48   35.36
  10  -2  -4  206.22   32.23
  10   2  -4  134.73   28.06
  11  -2   4    1.74   10.09
 -10   3  -4  144.25   20.79
 -10  -3  -4  164.99   14.86
 -10  -3   4  185.23   16.49
 -10  -3   4  206.14   17.37
 -10   3  -4  166.15   23.57
 -10   3   4  118.56   21.06
  -9   3  -4   23.59   10.41
  -9   3   4   12.94    8.99
  -9   3  -4   29.44    8.37
  -9  -3   4   30.03    7.35
  -9  -3  -4   24.69    6.52
  -9  -3   4   31.23    7.19
  -9   3  -4   17.72    8.93
  -8   3  -4  166.96   21.52
  -8  -3  -4  266.19   28.85
  -8  -3  -4  328.03   18.92
  -8  -3  -4  324.34   17.63
  -8  -3   4  365.51   21.88
  -8  -3   4  366.89   20.97
  -8   3  -4  269.50   27.13
  -8   3   4  258.71   27.45
  -7   3   4   22.75    8.98
  -7   3  -4   22.62    8.89
  -7  -3  -4   36.02    5.88
  -7  -3   4   30.03    6.02
  -7  -3  -4   31.96    5.73
  -7   3  -4   24.19    9.10
  -7  -3   4   37.36    7.09
  -7   3   4    9.91    6.69
  -7   3  -4   10.18    6.52
  -7  -3  -4   39.07    5.90
  -6  -3  -4  571.58   22.31
  -6  -3   4  398.07   34.71
  -6   3   4  567.52   41.40
  -6  -3   4  624.63   64.56
  -6  -3  -4  688.37   26.86
  -6  -3   4  657.94   53.22
  -6   3  -4  900.80   45.07
  -6  -3   4  556.30   23.08
  -6  -3  -4  546.88   21.96
  -6  -3   4  550.48   25.78
  -6   3  -4  245.08   24.92
  -6   3  -4  341.06   26.32
  -6   3   4  275.23   24.42
  -6  -3   4  631.77   34.78
  -6   3  -4  429.18   31.10
  -6   3   4  432.63   31.58
  -5  -3  -4   98.00    8.22
  -5   3  -4   47.63   10.20
  -5  -3   4   49.63   15.95
  -5   3   4   65.14   13.34
  -5  -3   4   90.50   26.53
  -5   3   4   76.44    8.66
  -5  -3  -4   85.73    7.48
  -5   3  -4   85.92   15.39
  -5  -3   4   96.84    8.31
  -5  -3   4   66.47   17.74
  -5  -3   4   99.61    9.65
  -5  -3   4   44.95    8.84
  -5   3  -4   46.28    9.23
  -5   3   4   47.15    8.92
  -5  -3   4   88.98    7.55
  -5  -3  -4   88.15    7.18
  -5  -3   4   39.17    9.15
  -5   3  -4   91.02   12.56
  -5   3   4   70.89   11.41
  -4   3  -4  809.16   42.63
  -4  -3   4  747.63   61.22
  -4  -3   4 1381.16   82.88
  -4   3  -4 1554.62   65.12
  -4  -3   4 1112.65   33.97
  -4  -3  -4 1062.86   32.65
  -4  -3   4 1057.62   42.48
  -4   3   4  993.46   45.76
  -4   3  -4  910.48   40.69
  -4   3   4  828.00   36.44
  -4   3  -4 1008.97   44.48
  -4   3   4  959.04   43.78
  -4  -3   4 1264.51   44.82
  -4  -3   4 1090.78   32.77
  -4  -3  -4 1081.80   31.81
  -4   3   4  952.71   35.84
  -3  -3   4  194.91   10.06
  -3  -3   4  171.36   24.37
  -3  -3   4  176.09   30.64
  -3  -3   4  197.70   14.31
  -3  -3   4  203.58   28.30
  -3   3   4  188.69   11.93
  -3  -3   4  161.88   12.62
  -3   3  -4  183.61   22.58
  -3  -3   4  107.86   12.28
  -3  -3   4  212.79   10.87
  -3  -3  -4  195.14   10.05
  -3  -3  -4  191.73    9.61
  -3   3   4  173.02   15.94
  -3   3  -4  152.20   13.65
  -3   3   4  144.69   10.78
  -3   3   4  169.41   14.90
  -3   3  -4  163.83   15.00
  -3  -3   4   89.33   10.66
  -3   3  -4  166.30   15.59
  -2   3  -4 1394.71   52.24
  -2   3   4 1390.16   44.24
  -2  -3   4 1677.63   72.03
  -2  -3   4 1470.48   93.88
  -2  -3  -4 1650.21   42.45
  -2  -3   4 1452.31   41.09
  -2  -3   4 1417.60   47.36
  -2  -3   4 1363.78   42.49
  -2  -3  -4 1431.03   40.38
  -2   3   4 1401.99   42.83
  -2   3  -4 1651.46   74.03
  -2  -3   4 1593.39   73.53
  -2  -3   4 1590.82   50.38
  -2  -3   4 1466.80   53.26
  -2   3   4 1396.98   52.42
  -2   3  -4 1497.37   50.11
  -2   3   4 1381.55   42.00
  -2  -3  -4 1698.30   51.75
  -2  -3   4 1387.00   48.06
  -2   3   4 1638.30   53.27
  -2   3  -4 1509.14   52.53
  -2   3   4 1529.15   36.78
  -2  -3   4 1695.40   51.88
  -2   3  -4 1383.99   50.70
  -2  -3   4 1507.52   47.34
  -1  -3   4  119.32   10.75
  -1   3   4  114.95    8.38
  -1   3  -4  105.12   11.02
  -1  -3   4  141.85   29.34
  -1  -3   4  102.74   13.34
  -1   3   4   90.10    6.06
  -1   3  -4   97.52   10.03
  -1  -3   4   94.75    8.95
  -1  -3  -4  119.10    7.00
  -1  -3   4  116.97    7.17
  -1   3  -4   81.89   15.57
  -1  -3   4   91.25   15.66
  -1  -3   4   67.93   10.02
  -1  -3  -4   61.96    5.98
  -1  -3  -4  120.35    8.14
  -1  -3   4  103.86    6.52
  -1  -3  -4  108.50    6.41
  -1  -3   4   87.69    9.11
  -1  -3  -4  105.54    6.62
  -1   3   4   97.25    9.87
  -1   3  -4  106.84   10.77
  -1  -3  -4  116.39   10.47
  -1  -3   4   91.23    9.07
  -1  -3   4   69.70    8.83
  -1  -3   4  125.09    9.34
   0  -3   4 1387.05   43.09
   0   3   4 1363.41   43.08
   0  -3   4 1438.41   40.85
   0  -3  -4 1503.70   40.74
   0  -3   4 1602.94   40.73
   0  -3   4 1444.01   65.30
   0  -3   4 1909.65  109.52
   0  -3  -4 1450.75   45.87
   0  -3   4 1431.81   37.00
   0  -3   4 1612.98   51.74
   0  -3   4 1352.56   46.91
   0  -3  -4 1841.77   43.07
   0  -3  -4 1665.56   49.46
   0  -3   4 1321.88   45.94
   1  -3   4  102.97    7.16
   1   3   4   75.84   13.92
   1   3   4  119.43    8.54
   1  -3   4  159.78   32.63
   1  -3   4  123.11    6.82
   1  -3   4   69.09   13.28
   1  -3  -4   53.35    8.19
   1  -3   4  100.19    7.82
   1  -3   4   85.17    9.33
   1  -3   4  131.09   12.80
   1  -3   4   84.79    8.79
   1  -3  -4  117.00   10.37
   2  -3   4 1239.22   37.96
   2  -3  -4 1462.77   36.33
   2   3  -4 1580.76   48.54
   2  -3   4 1529.65   42.48
   2  -3   4 1522.75   60.01
   2   3   4 1287.65   59.10
   2  -3   4 1267.93   34.71
   2  -3   4 1554.19   50.76
   2   3   4 1421.48   42.76
   2  -3   4 1418.42   48.73
   2  -3  -4 1668.48   51.79
   2  -3   4 1415.42   48.48
   2  -3  -4 1677.30   51.54
   3  -3   4  170.94   15.05
   3  -3  -4  202.17   16.55
   3  -3   4  186.45   15.58
   3  -3  -4  202.80   16.54
   3  -3   4  279.43   43.99
   3  -3   4  100.69   15.84
   3  -3   4  179.94    7.75
   3  -3   4  184.43   12.48
   3  -3  -4  207.76   13.86
   3   3  -4  192.12   10.37
   3   3   4  205.86   11.01
   3   3   4  115.89   15.89
   3  -3   4  133.36   15.98
   3  -3  -4  239.65   13.32
   3  -3   4  204.57    8.03
   3   3  -4  176.68   16.01
   3  -3   4  169.76   16.67
   4   3  -4 1174.22   35.66
   4   3   4 1192.27   36.59
   4  -3   4 1200.49   48.38
   4  -3  -4 1429.26   51.80
   4   3  -4 1167.35   28.96
   4  -3   4 1176.74   48.22
   4  -3  -4 1303.05   40.66
   4  -3   4  613.97   49.53
   4  -3   4  885.56   38.14
   4  -3  -4 1338.42   51.03
   4  -3  -4 1199.89   41.26
   4   3   4  965.21   46.70
   4  -3   4 1046.65   30.64
   4  -3  -4 1135.42   36.98
   4   3  -4 1255.22   53.51
   4  -3   4 1654.76  105.71
   5   3  -4  121.58   12.11
   5  -3   4  119.42   14.72
   5  -3  -4  126.71   15.38
   5  -3   4  104.11   13.78
   5  -3   4  132.87   32.69
   5  -3  -4  104.97   14.15
   5  -3   4   36.21   13.43
   5  -3   4   74.09    9.59
   5   3  -4  111.96    5.99
   5   3   4   57.34   10.26
   5  -3  -4  112.79   10.80
   5   3  -4   69.25   11.73
   5  -3  -4  112.53   10.70
   5  -3  -4  103.57    8.89
   5   3  -4   85.20   15.63
   5   3  -4   98.94    8.11
   5   3   4  101.05    8.55
   6   3  -4  679.75   32.93
   6  -3   4  893.19   75.62
   6  -3  -4  702.02   30.54
   6  -3   4  647.39   37.90
   6  -3  -4  749.10   40.46
   6  -3   4  668.08   29.08
   6  -3  -4  787.56   31.04
   6  -3   4  603.35   22.74
   6  -3  -4  620.76   29.15
   6   3  -4  657.66   35.12
   6  -3  -4  672.07   42.81
   6   3  -4  618.72   25.23
   6   3   4  610.85   25.97
   6   3  -4  619.13   44.75
   7   3   4   53.92    8.81
   7  -3   4   36.65   21.11
   7  -3   4   22.77   12.39
   7   3   4    4.16   12.07
   7  -3   4   35.51    5.32
   7  -3  -4   38.61   10.73
   7   3  -4   13.84    7.19
   7  -3   4   33.23    9.81
   7  -3  -4   34.34   12.41
   7   3  -4   25.21   12.18
   7   3   4   35.85    6.47
   7   3  -4   37.67    6.46
   7  -3   4   34.98    4.69
   8  -3   4  228.81   34.32
   8   3   4  277.16   48.02
   8  -3   4  410.87   18.88
   8  -3   4  548.31   56.13
   8   3  -4  412.25   21.36
   8   3   4  396.15   21.74
   8   3   4  296.71   10.84
   8  -3   4  427.92   31.98
   8  -3  -4  354.69   35.44
   8   3  -4  342.14   38.18
   8  -3  -4  476.27   33.35
   8  -3   4  370.84   16.73
   9   3  -4   35.49    9.82
   9  -3   4   16.12   12.54
   9   3   4   17.86   20.41
   9   3  -4   43.11    7.69
   9   3   4   36.63    7.59
   9  -3  -4   26.30   12.95
   9   3  -4    5.41   12.06
   9  -3   4   26.94   10.22
   9  -3  -4   45.87   12.70
   9  -3   4   61.58   22.40
  10  -3   4  109.21   24.76
  10   3  -4  247.91   17.99
  10   3   4  219.93   17.57
  10  -3  -4  146.92   26.83
  10   3  -4  141.95   28.48
  11  -3   4   17.75   13.41
 -10   4  -4   63.45   13.62
  -9   4  -4   10.92    8.55
  -9   4   4   13.59    8.95
  -9  -4  -4   19.93    5.38
  -9  -4   4   29.58    7.61
  -9  -4  -4   19.18    5.94
  -9  -4   4   24.02    6.58
  -9   4  -4   11.23    7.36
  -8   4  -4   72.92   13.88
  -8  -4  -4  175.42   13.11
  -8  -4   4  197.05   14.87
  -8  -4  -4  174.27   13.59
  -8   4  -4  283.03   28.36
  -8  -4   4  212.86   16.71
  -8   4  -4  133.88   19.31
  -8   4   4  129.64   19.94
  -7  -4  -4   50.03    7.91
  -7   4  -4   36.78   10.18
  -7  -4   4   44.98    6.81
  -7  -4  -4   47.48    6.80
  -7   4  -4   48.11   14.48
  -7   4   4   36.44   10.55
  -7  -4   4   49.29    8.23
  -7   4  -4   15.75    7.27
  -6  -4  -4  276.60   16.06
  -6   4  -4  120.19   16.25
  -6  -4   4  184.86   29.36
  -6   4   4  262.56   27.85
  -6  -4   4  230.86   41.13
  -6   4  -4  429.39   36.03
  -6  -4   4  278.59   15.86
  -6  -4  -4  257.30   14.66
  -6   4   4  170.60   16.69
  -6   4   4  229.49   23.35
  -6   4  -4  228.27   23.17
  -6  -4   4  308.72   25.84
  -5  -4  -4   60.86    7.29
  -5   4  -4   35.92    8.81
  -5   4   4   43.91   10.38
  -5  -4   4   45.80   18.29
  -5   4   4   55.55   12.22
  -5  -4   4   31.56   16.79
  -5   4   4   60.14    8.38
  -5   4  -4   50.80   14.72
  -5  -4   4   57.83    6.93
  -5  -4  -4   54.22    6.40
  -5  -4   4   32.20    8.09
  -5   4   4   37.88    7.40
  -5   4  -4   60.53   12.02
  -5  -4   4   61.96    6.61
  -5  -4  -4   53.39    6.00
  -5  -4   4   17.69    7.91
  -4  -4   4  552.31   21.07
  -4  -4  -4  491.79   19.59
  -4  -4   4  535.50   27.43
  -4   4  -4  383.74   27.16
  -4  -4   4  371.14   47.00
  -4  -4   4  497.54   50.85
  -4   4   4  477.96   23.65
  -4  -4   4  533.70   26.84
  -4  -4   4  483.00   22.53
  -4   4  -4  704.73   48.66
  -4  -4   4  540.21   21.82
  -4  -4  -4  463.63   20.11
  -4  -4   4  522.62   28.09
  -4   4   4  481.52   30.11
  -4  -4  -4  617.76   31.37
  -4  -4   4  550.40   28.82
  -4   4   4  459.81   23.57
  -4   4   4  479.51   30.86
  -4   4  -4  466.00   30.65
  -4  -4   4  633.46   32.72
  -4  -4   4  576.18   26.71
  -3  -4   4  108.90   11.49
  -3   4  -4   75.35   11.14
  -3  -4   4  108.20    8.01
  -3  -4  -4   97.61    7.37
  -3  -4   4   85.90   25.12
  -3   4   4   94.77    9.14
  -3  -4   4   66.73   18.45
  -3  -4  -4  105.03    8.87
  -3  -4   4   87.05   10.18
  -3  -4   4  103.83    8.88
  -3   4   4   79.74    8.68
  -3   4  -4   78.21   18.25
  -3  -4   4   78.76   18.84
  -3  -4   4   53.04    9.54
  -3  -4   4  113.50    8.59
  -3  -4  -4   95.20    7.61
  -3   4   4   83.41   11.50
  -3   4   4   83.55    8.37
  -3  -4  -4  105.22   12.38
  -3  -4   4  102.61   11.61
  -3   4   4  102.31   13.05
  -3   4  -4   92.76   12.48
  -3  -4   4   43.91    8.63
  -3  -4   4  115.69   10.84
  -2   4  -4  615.29   32.53
  -2  -4   4  719.94   31.39
  -2  -4   4  808.78   70.86
  -2   4   4  644.32   26.58
  -2  -4   4  542.08   42.67
  -2   4   4  670.04   25.61
  -2  -4  -4  715.59   25.42
  -2  -4   4  704.30   30.02
  -2  -4   4  716.43   49.95
  -2  -4   4  650.53   25.34
  -2   4  -4  746.67   52.50
  -2  -4   4  713.63   24.03
  -2  -4  -4  642.15   22.83
  -2  -4   4  640.00   32.83
  -2   4   4  674.23   32.68
  -2   4   4  622.73   32.95
  -2   4  -4  677.96   34.46
  -2  -4  -4  775.49   33.70
  -2  -4   4  655.19   30.84
  -2  -4   4  791.87   33.02
  -2  -4   4  707.12   28.64
  -1  -4   4  125.28   10.04
  -1  -4  -4  121.37    8.84
  -1  -4   4  123.61   11.84
  -1  -4   4  143.02   31.30
  -1   4   4  113.98    9.14
  -1  -4   4   59.86   12.06
  -1  -4   4  103.46   10.43
  -1  -4   4   67.49   10.81
  -1  -4   4  158.67   11.08
  -1   4  -4   76.46   17.72
  -1  -4   4  104.21   18.61
  -1   4   4   67.27   16.10
  -1  -4  -4   62.47    6.07
  -1   4   4   96.18   10.94
  -1  -4   4  120.64    7.78
  -1  -4  -4  109.92    7.20
  -1  -4   4  103.49   11.03
  -1   4   4   91.41   11.00
  -1   4  -4   95.61   11.57
  -1  -4  -4  108.20    8.20
  -1  -4  -4  116.85   11.75
  -1  -4   4  105.22   10.70
  -1  -4   4   71.28    9.53
  -1   4   4   41.86    3.70
   0  -4   4  543.00   23.39
   0  -4   4  614.06   18.14
   0  -4   4  674.60   30.30
   0  -4   4  613.48   22.15
   0  -4  -4  600.61   21.63
   0  -4  -4  570.25   22.98
   0   4  -4  636.41   48.83
   0  -4   4  652.25   43.91
   0   4   4  404.76   38.47
   0  -4  -4  554.45   24.90
   0  -4   4  554.38   27.19
   0  -4  -4  698.42   24.95
   0  -4  -4  636.10   28.90
   0  -4   4  583.08   27.30
   1  -4   4  117.65    8.87
   1  -4  -4  128.34    9.53
   1  -4   4  181.36   35.88
   1  -4   4   91.57   16.52
   1   4   4   65.13   15.28
   1  -4   4  141.44    7.77
   1  -4   4   89.67   10.76
   1  -4  -4  115.77   11.03
   1  -4   4  136.67    9.22
   1  -4  -4  123.01    8.72
   1  -4   4   98.30   10.36
   1  -4  -4  108.33   11.21
   2  -4   4  736.50   24.86
   2   4   4  562.41   41.51
   2  -4   4  768.36   43.84
   2   4  -4  624.30   25.79
   2  -4  -4  647.49   21.85
   2  -4   4  757.29   33.80
   2  -4   4  670.84   31.92
   2  -4  -4  708.56   33.36
   2  -4   4  660.07   31.57
   2  -4  -4  758.67   33.78
   3  -4   4   95.85   11.86
   3  -4  -4  105.47   12.84
   3  -4   4  143.09   33.51
   3  -4   4   84.10    7.79
   3  -4   4  116.29    9.29
   3  -4  -4   99.70   10.22
   3  -4  -4  105.87    7.09
   3   4   4   75.05   15.10
   3  -4   4   75.52   14.25
   3  -4   4   98.66    5.75
   3   4  -4   90.10   10.87
   3  -4   4   89.90   12.78
   3   4  -4  113.78    4.93
   3  -4   4   86.58   11.42
   3  -4  -4   97.81   12.36
   4  -4   4  551.16   31.05
   4  -4  -4  598.39   32.80
   4  -4   4  552.39   31.46
   4  -4  -4  644.94   34.41
   4  -4   4  378.78   25.78
   4   4   4  609.41   25.04
   4  -4   4  501.62   23.85
   4  -4   4  466.50   17.47
   4  -4  -4  525.59   25.22
   4   4   4  492.05   35.05
   4  -4  -4  449.56   20.68
   4   4  -4  521.87   21.70
   4  -4   4  481.06   17.21
   4   4   4  545.71   22.75
   4   4  -4  544.20   15.52
   4   4  -4  531.90   31.65
   5  -4   4   64.14   11.52
   5  -4  -4   78.89   13.00
   5   4   4   83.35    9.37
   5   4  -4   68.36    4.57
   5  -4   4   54.96   10.81
   5   4   4   70.94    8.02
   5  -4   4   59.99    8.55
   5  -4   4   15.07    7.48
   5  -4  -4   66.00    8.72
   5  -4   4   58.62    5.16
   5   4   4   32.41    9.88
   5  -4   4   64.32    5.56
   5  -4  -4   69.08   12.33
   5   4  -4   41.89   11.21
   5   4  -4   70.52    7.58
   5  -4   4   77.15   26.77
   6   4  -4  316.08   12.31
   6   4  -4  322.40   17.49
   6   4   4  332.05   18.47
   6   4   4  365.50   20.72
   6  -4   4  314.47   26.08
   6  -4  -4  341.86   27.19
   6  -4   4  142.72   21.00
   6   4   4  155.23   34.68
   6   4   4  233.90   21.92
   6  -4  -4  287.24   18.73
   6   4  -4  280.14   29.20
   6  -4   4  447.33   57.74
   7   4   4   64.93    9.68
   7   4  -4   59.40    5.70
   7  -4   4   17.44    9.27
   7   4   4   33.61   19.18
   7  -4  -4   46.96    8.33
   7  -4   4   50.86   11.90
   7  -4  -4   55.53   12.60
   7   4  -4   41.20   14.29
   7   4  -4   47.32    7.30
   7   4   4   55.70    8.18
   8   4   4  263.51   19.35
   8   4  -4  247.37   12.54
   8  -4   4  235.24   24.46
   8  -4  -4  253.10   25.54
   8   4  -4  183.59   28.30
   8   4  -4  214.06   15.47
   8   4   4  232.40   17.04
   9   4  -4   35.18    5.91
   9   4   4   37.47    9.16
   9   4   4   16.10   18.14
   9   4  -4   26.21    6.61
   9   4   4   27.70    7.16
   9  -4   4   28.15   11.14
   9  -4  -4   33.95   11.34
   9  -4  -4   11.26    9.30
   9   4  -4   16.95   13.08
  10  -4  -4   74.67   19.12
  -9   5  -4   10.03    6.60
  -8   5  -4   46.13   10.99
  -8   5   4   71.74   16.49
  -8  -5  -4  108.57   11.19
  -8  -5   4  122.70   11.99
  -8  -5  -4  117.52   11.12
  -8   5  -4  146.86   24.39
  -8  -5   4  123.96   13.20
  -8   5  -4   78.63   17.03
  -7   5   4   28.67   11.16
  -7   5  -4   44.53   12.84
  -7  -5  -4   78.10   11.15
  -7  -5   4   62.80    8.51
  -7   5  -4   56.86   17.93
  -7  -5  -4   50.68    7.42
  -7   5  -4   21.82    8.28
  -6  -5   4  114.44   28.04
  -6   5   4  175.26   23.77
  -6  -5  -4  194.93   14.16
  -6   5  -4  250.70   31.80
  -6   5  -4   99.05   15.05
  -6  -5   4  193.32   13.78
  -6  -5  -4  194.83   13.33
  -6   5   4  181.05   22.15
  -6   5  -4  182.39   21.95
  -5   5  -4   79.84   12.93
  -5  -5   4   54.30   21.97
  -5   5   4  101.51   16.47
  -5   5   4  103.03   11.08
  -5  -5   4  112.89   10.95
  -5   5  -4   96.41   22.15
  -5  -5   4  125.44   10.62
  -5   5   4   69.32   20.97
  -5  -5  -4  113.71    9.76
  -5  -5   4   53.70   10.29
  -5   5   4   85.44   11.05
  -5   5   4   91.80   15.63
  -5   5  -4   94.24   15.64
  -5  -5   4   41.26   12.40
  -4   5  -4  299.40   24.14
  -4  -5   4  273.98   44.01
  -4  -5   4  373.95   18.65
  -4  -5  -4  418.17   20.94
  -4   5   4  294.17   18.97
  -4   5   4  325.93   20.76
  -4  -5   4  313.73   18.22
  -4   5  -4  452.98   43.46
  -4  -5   4  350.69   23.19
  -4  -5  -4  365.55   17.87
  -4   5   4  294.55   19.07
  -4   5   4  321.53   26.87
  -4   5  -4  341.77   27.81
  -4  -5   4  407.24   28.80
  -3  -5   4  182.91   36.86
  -3   5   4  166.33   13.46
  -3  -5   4  215.52   12.34
  -3  -5  -4  198.89   11.51
  -3   5  -4  150.97   26.63
  -3   5   4   96.36   22.17
  -3  -5   4  114.65   13.84
  -3  -5   4  225.58   13.34
  -3  -5  -4  205.42   12.35
  -3   5   4  129.16   14.71
  -3   5   4  173.57   18.88
  -3   5  -4  184.36   19.99
  -3  -5  -4  208.25   19.05
  -3  -5   4  176.28   16.88
  -3  -5  -4  214.20   14.03
  -3  -5   4  201.07   13.41
  -3  -5   4   91.06   13.82
  -3  -5   4  203.31   15.47
  -2  -5   4  395.35   21.72
  -2  -5   4  445.93   56.17
  -2   5   4  383.98   19.97
  -2  -5  -4  502.04   21.87
  -2  -5   4  427.05   20.70
  -2  -5   4  414.47   18.28
  -2   5  -4  453.42   45.04
  -2  -5  -4  420.54   17.99
  -2  -5   4  399.34   26.20
  -2   5   4  373.07   24.07
  -2  -5   4  392.70   24.07
  -2  -5  -4  476.57   21.48
  -2   5   4  355.52   26.43
  -2   5  -4  397.16   28.31
  -2  -5  -4  508.28   28.17
  -2  -5   4  420.32   25.23
  -2  -5   4  460.10   26.21
  -1  -5   4  151.44   12.22
  -1  -5  -4  186.93   12.02
  -1  -5   4  195.57   39.13
  -1  -5   4   93.35   13.60
  -1   5   4  133.59   13.36
  -1  -5   4  153.74   10.45
  -1   5  -4  130.99   25.68
  -1  -5   4  136.26   23.66
  -1   5   4   76.55   19.33
  -1  -5  -4  102.68    8.14
  -1  -5   4  162.06   10.30
  -1  -5  -4  177.82   10.35
  -1  -5   4  121.12   13.03
  -1  -5  -4  157.03   11.54
  -1  -5  -4  168.42   15.67
  -1  -5   4  133.62   13.35
  -1  -5   4   72.45   10.75
   0  -5   4  308.28   17.93
   0  -5   4  387.94   17.61
   0  -5  -4  385.89   18.75
   0  -5  -4  405.83   17.63
   0  -5   4  374.75   13.75
   0   5  -4  359.67   40.23
   0  -5   4  379.42   35.98
   0   5   4  270.92   33.42
   0  -5   4  515.85   60.79
   0  -5   4  344.83   22.05
   0  -5  -4  462.84   21.68
   0  -5   4  398.42   23.11
   0   5   4  352.79   13.25
   0  -5  -4  417.76   24.57
   0  -5   4  342.07   21.88
   1  -5   4  142.75   10.96
   1  -5   4  136.04   21.79
   1  -5   4  173.62   16.16
   1  -5   4  246.90   44.52
   1  -5   4  184.55    9.45
   1   5   4  165.75   12.11
   1   5  -4  129.43   25.29
   1   5   4   91.13   20.07
   1  -5   4  180.83   11.52
   1  -5  -4  191.74   11.71
   1  -5   4  126.70   13.96
   1  -5  -4  183.56   15.43
   1  -5   4   95.99   11.51
   1   5   4   73.40    7.76
   1  -5   4  147.73   13.89
   1  -5  -4  157.16   14.85
   2  -5   4  427.20   18.14
   2  -5  -4  444.86   18.10
   2  -5   4  425.75   35.79
   2   5   4  439.31   21.47
   2   5  -4  440.53   15.88
   2  -5   4  447.12   27.01
   2  -5   4  374.95   24.89
   2  -5  -4  451.95   27.83
   2   5   4  469.95   22.74
   2  -5   4  419.76   25.59
   2  -5  -4  460.75   27.40
   3   5   4  244.24   15.29
   3  -5   4  224.49   13.34
   3   5  -4  237.96    9.48
   3   5   4  147.12   22.95
   3  -5   4  152.96   21.89
   3  -5  -4  222.32   12.08
   3  -5   4  192.32    9.26
   3   5  -4  176.21   13.79
   3  -5   4  170.29   18.61
   3   5   4   93.01   12.56
   3  -5   4  154.96   16.38
   3  -5  -4  184.09   18.30
   3  -5   4  177.85   17.04
   3  -5  -4  205.31   18.83
   4   5  -4  383.43   24.72
   4  -5   4  313.95   24.60
   4  -5  -4  392.72   27.73
   4   5   4  396.32   20.77
   4  -5   4  287.75   14.08
   4  -5   4  357.50   19.36
   4   5  -4  390.96   13.04
   4  -5  -4  387.89   21.87
   4   5   4  319.76   31.37
   4  -5   4  306.01   13.18
   4  -5   4  400.78   29.87
   4   5   4  370.76   24.22
   5  -5  -4  122.82   16.79
   5   5   4  155.79   13.04
   5   5  -4  145.74    7.19
   5  -5  -4  117.43   11.94
   5   5   4   68.47   15.18
   5  -5   4  100.20    7.50
   5  -5   4  108.54   15.41
   5  -5   4  111.07    7.28
   5  -5   4   77.64    5.49
   5   5  -4   96.72   14.99
   5   5  -4  130.07   11.34
   5   5   4  140.14   12.27
   6   5  -4  225.56   10.00
   6   5   4  128.26   32.96
   6  -5  -4  251.88   24.09
   6   5   4  169.19   21.42
   6  -5  -4  188.38   15.51
   6   5   4  226.99   16.62
   6  -5   4  171.40   10.41
   6  -5   4  189.27   20.80
   6   5  -4  223.70   15.41
   6   5   4  247.87   16.69
   6   5  -4  202.75   23.37
   7   5  -4   69.77    5.92
   7   5   4   28.91   20.21
   7  -5  -4   67.76   14.64
   7   5  -4   68.54    9.17
   7   5   4   60.79    9.11
   7  -5  -4   60.46    9.27
   7   5   4   77.79   10.65
   7  -5   4   56.05   12.93
   7   5  -4   56.08   15.45
   8   5  -4  148.40   13.75
   8   5   4  151.52   14.47
   8  -5   4  130.19   19.25
   8  -5  -4  153.57   21.26
   8  -5  -4  117.37   12.93
   8   5  -4   99.62   21.29
   8   5   4  159.83   15.43
   9   5  -4   32.62   14.31
  -7   6  -4   33.46   12.24
  -7  -6  -4   41.49    7.21
  -7   6  -4   21.08    8.39
  -7   6  -4   44.38   18.09
  -7   6   4   19.86    8.12
  -6   6  -4   66.78   13.88
  -6  -6   4  126.07   11.66
  -6  -6  -4  132.49   11.57
  -6   6   4  100.22   26.39
  -6   6   4   92.24   13.29
  -6   6   4   90.19   17.45
  -6   6  -4   92.48   17.43
  -5   6   4   54.06   12.94
  -5   6   4   33.52   12.17
  -5   6   4   50.47    9.91
  -5   6  -4   48.63   13.47
  -5   6  -4   46.73   11.32
  -5  -6   4   67.38    9.08
  -5   6  -4   66.23   20.90
  -5   6   4   23.83   15.19
  -5  -6   4   68.75    8.76
  -5  -6  -4   71.05    8.58
  -5  -6   4   36.04    9.10
  -4   6   4  165.16   15.30
  -4   6  -4  140.65   17.78
  -4  -6  -4  242.06   16.82
  -4  -6   4  174.91   13.84
  -4   6  -4  227.98   35.33
  -4  -6   4  176.94   17.17
  -4  -6   4  206.00   14.33
  -4  -6  -4  203.49   13.86
  -4   6   4  161.40   21.24
  -4   6  -4  177.85   21.91
  -4  -6   4  206.31   22.72
  -3   6  -4   73.82   13.10
  -3   6   4   87.33   10.53
  -3  -6  -4  100.13   11.06
  -3  -6   4  102.18   10.21
  -3   6  -4   74.72   22.01
  -3   6   4   41.81   17.61
  -3  -6   4   57.74   11.08
  -3   6   4   61.11   10.97
  -3  -6   4   88.30   12.80
  -3  -6  -4   98.29   11.16
  -3   6   4   74.93   14.30
  -3   6  -4   66.30   13.83
  -3  -6   4   38.43   12.49
  -2   6  -4  217.25   20.38
  -2   6  -4  283.05   38.81
  -2   6   4  120.69   26.46
  -2  -6   4  246.25   21.24
  -2   6   4  239.10   16.39
  -2   6   4  224.33   18.50
  -2   6   4  218.39   22.32
  -2   6  -4  246.75   23.61
  -2  -6   4  256.78   20.51
  -2  -6  -4  301.98   18.32
  -2  -6   4  331.68   20.25
  -2  -6   4  297.18   23.48
  -1  -6  -4   57.04    6.78
  -1   6   4  103.48   10.62
  -1  -6   4  103.46    9.18
  -1  -6   4   60.21   12.11
  -1   6   4   50.17   17.36
  -1   6  -4   87.82   23.28
  -1   6   4   85.64   11.65
  -1  -6   4   84.21   11.98
  -1  -6  -4  109.62   11.33
  -1  -6   4   48.56   10.18
   0  -6   4  220.27   15.95
   0  -6   4  275.40   12.28
   0   6   4  253.61   16.66
   0   6   4  252.70   18.65
   0   6  -4  252.41   37.24
   0  -6   4  281.78   21.23
   0  -6   4  285.22   20.18
   1  -6   4   79.86    9.09
   1  -6  -4  104.00    9.41
   1  -6   4  120.87    8.18
   1   6   4  115.26   11.09
   1   6  -4   75.16   22.16
   1   6   4   70.71   19.58
   1  -6   4   86.39   12.57
   1  -6  -4  118.38   13.98
   1   6   4   65.30    6.41
   1  -6   4   59.62   10.22
   2  -6  -4  265.99   14.67
   2  -6   4  275.35   14.30
   2  -6   4  281.78   22.71
   2  -6   4  272.05   19.08
   2   6   4  258.99   14.44
   2  -6   4  225.88   20.36
   2  -6  -4  292.42   23.72
   2   6   4  255.98   16.93
   3  -6  -4  112.50    9.57
   3  -6   4  110.23    9.59
   3   6  -4  102.65    7.12
   3   6   4   78.97   19.95
   3  -6   4   87.15   14.85
   3  -6   4   55.46    9.76
   3   6   4   53.84    8.54
   3  -6   4   67.69   12.13
   3   6   4  118.90   11.38
   3  -6  -4   91.93   14.42
   4  -6   4  169.76   19.08
   4  -6  -4  222.38   22.09
   4   6   4  224.36   16.27
   4   6  -4  204.44    9.82
   4  -6  -4  174.92   15.39
   4   6   4  145.71   24.69
   4   6  -4  197.25   15.59
   4  -6   4  217.55   23.35
   4   6   4  167.21   14.48
   5  -6  -4   81.21   14.96
   5   6  -4   80.45    5.84
   5   6   4   40.24   22.83
   5  -6  -4   68.16    9.90
   5  -6   4   61.31    6.28
   5   6   4   87.03   10.52
   5   6   4   27.35   12.59
   5  -6   4   55.99   12.25
   5   6  -4   50.02   10.69
   6  -6   4  102.63   16.82
   6  -6  -4  143.37   19.58
   6   6   4  150.39   14.12
   6   6   4   72.64   28.75
   6   6   4  101.86   18.94
   6  -6  -4  138.05   13.57
   6   6  -4  112.79   16.75
   7   6   4   48.73    9.59
   7   6   4   48.39    9.49
   7   6   4   20.44   18.41
   7  -6   4   34.23   11.71
   7   6  -4   36.71   12.02
   7  -6  -4   43.01   12.46
   8   6  -4   61.10   16.38
  -7   7  -4   31.32   18.41
  -6   7  -4   88.74   25.12
  -5   7   4   44.56    9.88
  -5  -7   4   48.95    8.53
  -5   7  -4   33.15   18.32
  -5  -7  -4   56.48   10.86
  -4   7   4   86.11   12.12
  -4  -7   4   80.93   10.09
  -4   7  -4  101.55   27.28
  -4  -7   4  113.25   11.71
  -4  -7  -4  107.86   11.03
  -4  -7  -4  121.08   13.62
  -4   7   4   82.35   16.71
  -4   7  -4   96.04   17.87
  -3   7   4   55.65   13.97
  -3   7   4   87.13   11.04
  -3   7  -4   50.75   13.36
  -3   7  -4   51.48   11.61
  -3  -7   4   83.13    9.89
  -3   7  -4   76.27   24.80
  -3   7   4   29.24   16.94
  -3  -7   4   49.85   11.31
  -3  -7   4   98.93   10.40
  -3  -7  -4   98.21   12.56
  -3  -7   4   34.12   13.19
  -2   7   4   94.83   11.06
  -2  -7   4  120.41   13.39
  -2   7  -4  118.41   28.95
  -2  -7   4   99.25   14.77
  -2  -7  -4  142.57   13.90
  -2  -7   4  144.95   19.47
  -1   7   4  110.83   11.46
  -1  -7   4   80.66    9.18
  -1   7  -4   70.21   23.36
  -1  -7   4   61.83   13.41
  -1   7   4   51.71   20.03
  -1  -7  -4  104.84   12.71
  -1  -7   4   36.81   11.93
   0   7  -4   76.21   24.47
   0   7   4   67.69   21.50
   0  -7  -4  142.45   15.19
   0   7   4  104.64   11.45
   0  -7   4  110.57   14.65
   1  -7  -4   97.88   10.08
   1   7  -4   77.36   24.22
   1   7   4   54.52   19.68
   1   7   4   92.96   10.78
   1  -7  -4  105.35   14.98
   1  -7   4   75.82   12.90
   1  -7  -4   99.04   15.39
   1  -7   4   35.76    9.49
   2   7   4  123.16   12.39
   2   7   4   66.79   21.21
   2  -7   4  118.33   13.12
   2  -7   4  120.01   16.06
   2  -7  -4  124.03   17.15
   3   7   4  108.29   11.84
   3   7   4   66.66   19.63
   3  -7   4   74.77   13.73
   3  -7  -4   81.26   14.82
   4  -7   4   72.06   14.10
   4  -7  -4   99.56   16.64
   4   7   4   59.08   25.22
   4  -7  -4   92.47   11.88
   4   7   4   65.80   19.60
   4   7   4  121.22   12.49
   5   7   4   41.22   16.13
   6   7   4   41.59   24.54
   6   7   4   55.25   16.51
  -2  -8  -4   42.29   10.32
  -1  -8  -4   42.00   10.98
   0  -8   4   21.87   10.28
   0  -8  -4   49.40   12.29
   1  -8  -4   29.66   11.82
 -11   0  -5  132.35   21.23
 -11   0   5  101.16   20.65
 -11   0  -5  142.13   11.67
 -10   0  -5   -0.80    7.27
 -10   0   5   -0.94    7.69
 -10   0   5   -1.41    5.39
 -10   0  -5   -0.24    3.42
  -9   0  -5  397.15   32.46
  -9   0   5  429.30   36.22
  -9   0  -5  384.85   35.19
  -9   0  -5  466.50   18.55
  -9   0   5  428.06   26.75
  -9   0  -5  408.49   19.53
  -8   0   5    0.78    5.43
  -8   0  -5   -1.04    2.34
  -8   0  -5   -1.02    6.91
  -8   0  -5   -0.39    2.64
  -8   0  -5    1.33    5.43
  -8   0   5   -1.64    4.54
  -7   0  -5  779.78   39.23
  -7   0  -5  814.37   42.88
  -7   0   5  665.27   41.73
  -7   0  -5  657.36   51.70
  -7   0   5  637.60   38.43
  -7   0   5  750.23   34.44
  -7   0  -5  774.37   26.76
  -6   0  -5   -1.25    7.89
  -6   0  -5    1.03    4.66
  -6   0   5   -1.19    4.66
  -6   0   5   -1.06    7.85
  -6   0   5    0.69    3.32
  -6   0  -5    1.31    4.18
  -6   0   5    3.54    4.67
  -6   0   5    1.31    3.07
  -6   0   5   -0.69    3.80
  -5   0  -5 1105.09   46.73
  -5   0   5  933.48   46.07
  -5   0  -5  919.96   65.54
  -5   0  -5 1103.36   44.42
  -5   0   5  876.10   42.87
  -5   0   5 1247.66   62.52
  -5   0   5 1048.98   41.26
  -5   0   5 1082.55   40.06
  -5   0  -5 1249.11   50.45
  -5   0   5 1242.85   35.34
  -5   0   5 1217.05   41.27
  -4   0   5    0.15    1.79
  -4   0  -5   -1.22    7.99
  -4   0  -5   -1.39    3.04
  -4   0   5   -0.80    3.27
  -4   0  -5    0.77    1.52
  -4   0   5    0.28    2.53
  -4   0  -5   -0.30    3.00
  -4   0   5   -0.35    3.21
  -4   0   5   -0.22    2.04
  -4   0  -5    0.37    3.95
  -4   0   5   -0.21    2.19
  -3   0  -5 1746.83   44.44
  -3   0  -5 1847.65   57.05
  -3   0   5 1502.27   56.07
  -3   0   5 2263.62   54.43
  -3   0   5 1704.79   49.25
  -3   0  -5 2048.15   47.84
  -3   0   5 1750.98   55.23
  -3   0  -5 1867.08   55.78
  -3   0  -5 1394.68   84.07
  -3   0   5 1758.47   66.08
  -3   0   5 1515.80   54.74
  -3   0  -5 2169.30   58.43
  -3   0   5 1920.80   54.30
  -2   0  -5   -0.16    1.64
  -2   0   5    0.52    1.87
  -2   0   5    0.09    1.11
  -2   0  -5    0.07    0.91
  -2   0   5    0.38    1.86
  -2   0  -5   -0.44    1.65
  -2   0   5    1.43    1.88
  -2   0   5   -1.17    3.61
  -2   0  -5    1.49    1.97
  -2   0  -5   -2.33    8.87
  -1   0  -5 2442.51   80.99
  -1   0  -5 2030.40  105.03
  -1   0   5 2453.30   64.55
  -1   0  -5 2840.98   66.13
  -1   0   5 2372.96   67.91
  -1   0  -5 2904.79   65.34
  -1   0   5 2503.84   64.03
  -1   0   5 2550.56   78.46
   0   0  -5    0.24    2.11
   0   0   5    1.46    1.21
   0   0  -5    0.72    1.38
   0   0   5    0.30    2.55
   0   0   5    0.19    1.29
   1   0  -5 2461.29   63.85
   1   0  -5 2726.34   69.02
   1   0  -5 2145.57  105.64
   1   0   5 2424.64   65.58
   1   0  -5 2648.43   77.03
   1   0   5 2885.58   79.32
   1   0  -5 2916.64   66.82
   2   0  -5    2.18    7.12
   2   0  -5    0.30    1.11
   2   0  -5    1.01    1.52
   2   0   5   -0.33    2.95
   2   0  -5    0.32    2.96
   2   0  -5    0.62    0.91
   2   0   5    0.06    0.82
   2   0  -5   -0.20    0.79
   2   0   5    0.22    0.77
   3   0  -5 1969.59   50.68
   3   0  -5 2005.61   50.43
   3   0   5 1863.28   50.66
   3   0  -5 1929.01   65.40
   3   0  -5 2081.61   54.89
   3   0  -5 1992.02   50.42
   3   0   5 1886.72   50.62
   4   0  -5   -0.25    1.55
   4   0   5    0.14    1.65
   4   0  -5    1.05    7.97
   4   0  -5    0.26    1.66
   4   0  -5    0.95    2.62
   4   0  -5    0.43    3.72
   4   0  -5   -0.25    1.73
   4   0   5   -0.14    1.72
   5   0  -5 1383.06   39.62
   5   0  -5 1155.74   67.40
   5   0  -5 1343.01   39.11
   5   0   5 1163.10   38.89
   5   0  -5 1299.83   41.90
   5   0  -5 1290.69   39.07
   5   0   5 1142.76   38.84
   6   0  -5    0.91    7.43
   6   0  -5    0.65    2.99
   6   0  -5    1.22    3.18
   6   0   5   -0.67    2.35
   6   0  -5   -0.56    4.64
   6   0  -5   -0.98    2.78
   6   0   5   -0.22    2.39
   7   0  -5  980.21   35.54
   7   0  -5 1110.66   52.54
   7   0  -5 1023.42   34.63
   7   0   5  884.00   34.20
   7   0  -5  942.44   34.44
   7   0   5  880.91   34.68
   8   0   5    3.94   12.39
   8   0  -5    0.91    3.46
   8   0  -5    0.56    3.80
   8   0   5    0.31    3.88
   8   0   5    0.57    3.60
   9   0  -5  570.12   26.94
   9   0   5  487.79   26.14
   9   0  -5  519.85   30.84
  10   0  -5    3.59    6.51
  10   0   5    4.67   12.88
  10   0  -5   -1.45    9.10
  10   0  -5   -0.71    5.07
  10   0   5    0.76    4.72
  11   0   5  165.01   15.92
  11   0  -5  195.18   16.80
 -11   1  -5  160.83   12.77
 -11  -1  -5  150.37   12.20
 -10   1   5    3.83    8.52
 -10  -1  -5   -1.52    7.01
 -10  -1   5   -0.89    6.78
 -10   1  -5    1.65    7.34
 -10  -1   5   -2.76    5.07
 -10   1  -5    0.24    3.29
 -10  -1  -5    0.98    3.47
  -9   1  -5  327.02   29.61
  -9   1   5  278.79   29.74
  -9  -1  -5  307.53   27.49
  -9   1  -5  354.21   15.08
  -9  -1  -5  253.46   29.19
  -9  -1   5  322.47   22.34
  -9   1  -5  325.46   17.01
  -9  -1  -5  280.34   16.01
  -8   1  -5    1.41    5.76
  -8  -1  -5    4.39    8.56
  -8   1   5    8.12    7.50
  -8   1  -5    7.67    2.66
  -8  -1   5    5.06    4.46
  -8   1  -5    7.23    3.44
  -8  -1  -5    7.91    4.45
  -8  -1   5    6.42    4.84
  -7   1  -5  334.08   27.64
  -7   1   5  286.15   27.21
  -7   1  -5  348.98   26.24
  -7   1   5  290.02   25.74
  -7   1   5  386.16   14.06
  -7   1  -5  341.47   36.65
  -7  -1  -5  264.93   33.03
  -7  -1  -5  331.74   23.97
  -7  -1  -5  362.09   19.85
  -7  -1   5  402.27   22.41
  -7  -1   5  339.07   25.95
  -7   1  -5  399.75   14.22
  -7  -1   5  361.60   22.20
  -7   1  -5  382.50   16.83
  -7   1  -5  399.52   29.93
  -7  -1   5  398.75   26.21
  -6   1   5    3.68    1.47
  -6   1  -5    2.74    4.87
  -6   1  -5    3.65    9.01
  -6  -1  -5    1.12    7.03
  -6  -1   5    6.33    9.62
  -6  -1  -5    6.44    2.59
  -6   1   5    4.64    3.89
  -6  -1   5    6.30    4.28
  -6   1  -5    7.08    5.65
  -6   1   5    1.06    4.36
  -6   1   5    6.18    5.28
  -6  -1   5    6.27    3.67
  -6   1  -5    6.53    2.54
  -6  -1  -5    7.91    4.73
  -6  -1   5    1.85    4.64
  -6  -1  -5    4.72    3.08
  -6  -1   5    2.54    3.20
  -6   1  -5    0.53    4.45
  -6  -1   5   -0.39    4.41
  -6   1   5   -0.62    3.69
  -5   1  -5  774.38   36.95
  -5   1   5  712.66   37.07
  -5   1  -5  774.14   38.61
  -5   1   5  687.52   38.32
  -5  -1   5  929.12   31.97
  -5  -1   5  973.33   58.56
  -5  -1  -5  842.53   29.81
  -5  -1   5  818.09   31.31
  -5  -1  -5  803.11   34.75
  -5  -1   5  779.18   36.04
  -5  -1  -5  813.00   27.27
  -5   1   5  822.30   34.81
  -5  -1   5  844.19   35.02
  -5  -1   5  825.16   32.81
  -5   1  -5  895.06   25.87
  -5   1  -5  723.49   57.97
  -5   1  -5  824.80   38.34
  -5  -1  -5  606.00   49.98
  -5  -1   5  903.14   35.38
  -5   1   5  941.81   33.02
  -5  -1  -5  814.86   25.53
  -4  -1  -5    0.89    1.37
  -4  -1   5    0.42    2.22
  -4   1   5    2.33    3.72
  -4   1  -5    2.90    3.03
  -4  -1  -5   -1.08    6.55
  -4  -1   5    1.51    6.04
  -4   1  -5   -1.38    8.34
  -4   1   5    0.94    2.19
  -4  -1  -5    2.55    1.71
  -4   1   5    0.29    2.59
  -4   1  -5    0.97    2.99
  -4   1   5    1.39    3.26
  -4  -1   5   -1.13    2.84
  -4  -1   5    1.80    2.51
  -4   1  -5    0.87    1.22
  -4  -1  -5    0.77    2.55
  -4  -1   5    1.19    2.59
  -4  -1  -5    0.77    1.95
  -4  -1   5    0.56    2.15
  -4   1  -5    0.67    3.09
  -4  -1   5    0.50    2.61
  -4   1   5    0.69    2.05
  -3  -1   5 2171.55   56.57
  -3   1  -5 1434.46   91.32
  -3   1   5 1674.70   50.82
  -3  -1  -5 1877.06   49.47
  -3  -1   5 1779.98   50.45
  -3  -1  -5 1769.66   53.41
  -3  -1   5 1768.14   56.25
  -3  -1   5 1809.40   53.05
  -3   1  -5 1897.26   45.11
  -3  -1   5 1866.47   63.35
  -3  -1   5 1803.02   68.53
  -3   1  -5 1914.39   57.81
  -3   1   5 1918.18   52.40
  -3  -1   5 1981.45   57.19
  -3   1  -5 1857.47   56.31
  -3   1   5 1741.93   56.25
  -3   1  -5 1833.01   57.56
  -3   1   5 1713.01   56.93
  -2  -1   5    3.51    2.89
  -2   1  -5    4.01    4.19
  -2   1  -5    6.70    2.55
  -2   1   5    1.20    1.78
  -2   1  -5    2.89    9.07
  -2   1   5    2.90    1.80
  -2  -1   5    3.20    2.31
  -2  -1   5    2.43    3.43
  -2   1   5    3.51    3.66
  -2  -1   5    5.62    4.26
  -2  -1   5    3.44    1.52
  -2  -1  -5    4.81    1.41
  -2   1  -5    3.64    2.53
  -2  -1  -5    5.07    2.41
  -2  -1   5    2.59    1.72
  -1   1   5 1016.81   30.24
  -1   1  -5  964.79   39.03
  -1  -1   5 1065.00   26.24
  -1   1  -5  790.59   64.79
  -1  -1  -5  976.27   26.05
  -1  -1  -5 1062.29   25.60
  -1   1  -5 1009.50   33.13
  -1  -1   5 1018.67   31.85
  -1  -1   5 1049.68   32.50
  -1  -1   5 1053.40   26.89
  -1   1   5 1130.67   40.82
  -1   1   5 1038.71   40.66
  -1  -1   5 1112.51   41.77
  -1   1   5  936.11   28.51
  -1   1  -5 1054.64   29.74
  -1  -1  -5 1105.17   29.43
  -1  -1   5  974.46   28.52
  -1  -1   5 1091.80   26.71
  -1  -1  -5  942.46   25.95
  -1   1  -5 1012.13   26.37
   0  -1  -5   22.79    3.09
   0  -1   5   16.65    1.88
   0   1  -5   20.48    4.45
   0  -1  -5   21.03    3.61
   0  -1   5   14.57    1.35
   0  -1  -5   22.06    1.49
   0   1   5   17.57    2.80
   0  -1   5   14.95    2.42
   0  -1  -5   10.08    3.56
   0   1   5    6.72    3.65
   0  -1   5   12.37    2.98
   0  -1   5   14.30    2.23
   0  -1  -5   20.18    2.44
   0  -1   5   15.09    2.32
   0   1  -5   27.68    3.12
   0  -1  -5   21.39    2.56
   1  -1  -5  935.70   30.28
   1   1  -5  707.15   61.04
   1  -1   5 1107.77   32.98
   1  -1  -5 1339.16   35.44
   1  -1  -5 1154.49   32.33
   1  -1   5 1151.55   33.79
   1  -1  -5 1106.54   35.10
   1   1   5 1008.28   31.78
   1  -1  -5  986.49   38.46
   1   1   5 1220.71   39.69
   1   1  -5  964.37   34.34
   1  -1   5 1147.29   36.17
   1  -1   5 1222.15   76.78
   2   1  -5    6.10    1.05
   2  -1  -5    4.45    1.24
   2   1  -5    4.05    9.41
   2   1   5    6.48    2.38
   2  -1  -5    6.80    2.86
   2  -1   5    1.31    2.96
   2  -1  -5    5.66    2.36
   2  -1  -5    7.80    2.19
   2   1  -5    8.09    4.44
   2  -1   5    0.63    1.97
   2  -1  -5    6.36    2.62
   2   1   5    2.44    2.52
   2  -1  -5    2.59    3.20
   2  -1   5    3.94    1.66
   2  -1  -5    5.82    1.91
   2   1  -5    6.32    1.37
   2  -1   5    1.51    2.94
   2   1   5    2.66    1.10
   3   1  -5 1816.82   96.96
   3   1  -5 1880.80   47.62
   3  -1  -5 2008.16   53.16
   3   1  -5 1864.49   49.60
   3  -1   5 1949.82   60.57
   3  -1  -5 2171.77   59.97
   3   1   5 1865.33   50.14
   3  -1   5 1728.43   56.77
   3  -1  -5 2042.40   59.20
   3   1   5 2179.58   61.44
   3  -1  -5 2156.07   53.87
   3  -1  -5 1954.65   54.59
   3  -1  -5 1904.65   65.71
   3   1  -5 2020.33   69.66
   3  -1   5 1913.29   53.58
   4   1  -5    1.41    2.60
   4   1  -5   -1.15    8.06
   4  -1  -5    2.16    2.22
   4   1  -5    1.50    1.45
   4   1  -5    1.67    2.51
   4   1   5    0.12    1.49
   4  -1   5    0.67    1.58
   4  -1  -5    1.66    2.38
   4   1  -5    1.31    1.65
   4   1   5    1.19    1.80
   4   1  -5   -0.42    4.32
   4  -1  -5    3.99    5.44
   4  -1  -5    0.45    4.24
   4   1  -5    0.58    5.02
   4  -1   5    2.38    3.30
   4  -1   5    0.55    2.10
   4  -1  -5    0.84    2.19
   4   1  -5    2.18    1.65
   4   1   5    1.01    1.77
   5   1  -5  991.92   31.77
   5   1   5  951.03   32.33
   5   1  -5 1221.49   64.84
   5  -1  -5 1002.50   34.02
   5   1  -5 1028.43   30.81
   5   1  -5 1034.83   35.26
   5  -1   5  972.13   34.63
   5   1  -5  915.60   43.86
   5  -1  -5  952.79   34.00
   5  -1  -5  790.59   43.32
   5   1  -5  981.64   31.38
   5   1   5  946.51   31.99
   5  -1  -5 1003.00   52.86
   5   1  -5  990.47   53.35
   5  -1  -5 1078.63   34.62
   5   1  -5  970.45   39.20
   6   1  -5    3.79    4.02
   6   1  -5    4.77    7.62
   6   1  -5    7.46    3.34
   6   1   5    7.63    3.59
   6  -1   5    2.87    8.30
   6   1  -5    5.26    3.00
   6   1  -5    7.70    4.03
   6  -1  -5    4.09    3.26
   6  -1  -5    6.87    3.56
   6   1  -5    1.06    5.09
   6  -1  -5    9.40    7.89
   6  -1  -5    3.02    5.67
   6   1  -5    4.39    7.19
   6  -1  -5    7.77    3.70
   6  -1   5    5.42    3.44
   6   1  -5    7.10    3.18
   6   1   5    7.05    3.36
   7   1  -5  451.69   21.10
   7   1   5  232.65   39.16
   7  -1  -5  454.84   23.05
   7  -1   5  215.44   36.60
   7   1  -5  460.64   21.03
   7   1  -5  456.87   23.18
   7   1   5  444.04   21.89
   7  -1  -5  465.35   21.94
   7  -1   5  464.25   22.68
   7   1  -5  374.17   29.06
   7   1  -5  450.18   20.57
   7   1   5  429.20   21.06
   7  -1  -5  400.88   37.68
   7   1  -5  404.84   38.43
   7  -1  -5  478.90   38.13
   8  -1  -5    6.95    4.92
   8  -1   5    6.75    4.89
   8   1  -5    6.04    4.20
   8  -1  -5    7.98    7.34
   8   1   5    7.61    4.78
   8  -1   5    3.83   11.57
   8  -1  -5    3.71    5.33
   8   1  -5    7.02    4.33
   8  -1  -5    4.63    9.47
   8   1  -5    5.90   10.08
   9   1   5  371.81   22.45
   9   1  -5  415.48   22.65
   9  -1   5  209.21   40.29
   9   1  -5  367.75   21.54
   9  -1  -5  327.70   38.45
   9   1  -5  267.42   36.07
   9  -1  -5  440.49   23.75
   9  -1   5  405.34   23.47
   9   1  -5  384.66   26.67
  10   1  -5    0.54    6.05
  10  -1   5    6.38   13.87
  10   1   5   -4.93   12.89
  10  -1  -5    0.36    5.24
  10   1  -5    0.35    5.17
  10   1   5    3.06    5.26
  10  -1   5    1.14    5.08
  10  -1  -5    1.42    9.58
  10   1  -5    1.45   10.14
 -10   2  -5    6.04    8.42
 -10   2   5   11.68    9.15
 -10   2  -5   15.33   10.30
 -10  -2   5   16.15    6.83
 -10  -2  -5   10.42    4.35
 -10  -2  -5   16.30    6.04
 -10  -2   5   14.02    6.54
  -9   2  -5  276.03   30.64
  -9  -2  -5  324.97   20.12
  -9  -2   5  323.15   21.79
  -9  -2   5  346.85   22.79
  -9  -2  -5  247.28   30.40
  -9   2  -5  301.61   29.17
  -9   2   5  234.21   27.64
  -8   2  -5    7.25    6.93
  -8   2  -5   -0.93    7.05
  -8   2   5    1.63    5.51
  -8  -2  -5   12.05    3.96
  -8   2  -5    8.01    3.46
  -8  -2   5    7.34    5.18
  -8  -2  -5    9.49    4.33
  -8  -2   5   12.64    5.09
  -8  -2  -5   12.54    9.29
  -7   2  -5  329.11   32.60
  -7  -2  -5  560.42   24.74
  -7  -2  -5  456.74   41.60
  -7  -2   5  594.62   27.07
  -7  -2  -5  528.79   22.08
  -7  -2  -5  508.12   28.72
  -7  -2   5  522.44   30.84
  -7  -2   5  585.29   28.43
  -7   2  -5  522.11   33.08
  -7   2   5  431.59   32.02
  -7  -2   5  626.54   34.85
  -7  -2  -5  567.73   21.48
  -7   2  -5  498.88   34.87
  -7   2   5  455.37   34.74
  -6  -2  -5   25.74    4.68
  -6   2  -5    7.08    7.02
  -6   2  -5   19.99    6.77
  -6   2   5   17.35    6.85
  -6  -2  -5   13.95    9.18
  -6   2   5   12.10    8.93
  -6  -2   5   15.88   14.93
  -6  -2   5   27.24    5.36
  -6   2  -5   19.74    7.01
  -6   2   5   17.67    6.75
  -6  -2   5   27.67    5.84
  -6  -2  -5   20.62    5.68
  -6  -2   5   19.07    6.02
  -6  -2  -5   21.31    4.61
  -6   2  -5   18.22    7.05
  -6  -2   5    7.63    6.28
  -6  -2  -5   24.36    3.98
  -5  -2  -5  926.76   29.73
  -5  -2   5 1104.94   69.47
  -5  -2   5 1036.47   37.51
  -5   2  -5  854.49   65.09
  -5  -2   5 1006.49   33.47
  -5  -2  -5  966.62   31.06
  -5  -2  -5  959.57   31.37
  -5  -2   5  899.11   34.89
  -5   2  -5  909.30   41.06
  -5   2  -5  914.42   40.75
  -5   2   5  883.88   41.19
  -5   2   5 1062.55   34.21
  -5   2  -5  881.20   42.41
  -5   2   5  850.08   42.41
  -4  -2   5  130.42   21.26
  -4   2   5  123.46    9.77
  -4  -2   5   83.16   18.58
  -4  -2   5  134.10   11.35
  -4   2  -5   86.17   21.67
  -4   2  -5   81.22   13.20
  -4  -2   5  138.95    8.94
  -4  -2  -5  127.70    8.09
  -4  -2   5  137.70   10.43
  -4  -2   5   80.02   11.51
  -4   2   5   99.74   13.89
  -4   2  -5  114.12   11.87
  -4   2   5   47.28    5.92
  -4   2  -5  123.23   12.63
  -4   2   5  117.00   12.38
  -3  -2   5 1889.72   54.14
  -3   2  -5 1180.68   56.45
  -3   2  -5 1406.08   88.57
  -3  -2   5 1386.80   81.35
  -3  -2   5 1948.08   75.72
  -3  -2   5 1649.44   45.23
  -3  -2  -5 1650.54   44.19
  -3  -2   5 1567.17   47.85
  -3  -2   5 1689.46   59.19
  -3   2   5 1570.14   60.36
  -3   2  -5 1712.27   54.47
  -3   2   5 1332.14   48.92
  -3  -2   5 1684.62   44.67
  -3   2   5 1542.11   47.58
  -3  -2  -5 1652.76   43.50
  -3   2   5 1779.54   45.49
  -3   2  -5 1718.24   54.76
  -3   2   5 1564.09   53.03
  -2  -2   5  100.09    6.00
  -2  -2  -5  108.56    5.84
  -2   2  -5   75.01   20.09
  -2  -2   5  110.82   10.33
  -2  -2   5   72.24   20.72
  -2   2   5   95.43    7.64
  -2  -2   5   77.58    7.92
  -2   2  -5  106.98   10.41
  -2  -2   5   75.00   14.54
  -2  -2   5  106.59    6.43
  -2  -2   5   57.49    9.58
  -2  -2  -5  103.22    5.92
  -2  -2   5  105.21    7.32
  -2   2   5  101.83   11.98
  -2  -2  -5  108.56    8.90
  -2  -2   5   71.84    7.17
  -2   2  -5   86.23    9.03
  -2   2   5   87.54    5.67
  -2   2   5   90.37    8.43
  -2   2  -5  105.88    9.47
  -2  -2   5   64.00    8.33
  -1  -2   5 1695.62  100.52
  -1  -2   5 2352.46   64.80
  -1   2  -5 1701.74   99.11
  -1   2  -5 2121.61   59.33
  -1   2   5 1874.23   53.35
  -1  -2   5 1968.27   49.11
  -1  -2  -5 1901.51   48.48
  -1  -2   5 1834.92   55.76
  -1  -2   5 1874.79   77.43
  -1  -2  -5 1862.15   55.57
  -1  -2   5 1982.55   66.07
  -1  -2   5 1889.54   49.80
  -1  -2   5 2075.12   65.28
  -1  -2   5 1826.51   56.10
  -1   2   5 1748.53   54.16
  -1   2  -5 2184.61   57.19
  -1  -2  -5 2273.08   56.47
  -1  -2   5 1764.60   53.40
   0  -2   5   13.28    1.39
   0  -2  -5   17.84    3.21
   0   2  -5   15.36    4.24
   0  -2   5   12.93    2.99
   0  -2  -5    8.50    3.51
   0  -2   5   20.76   15.01
   0  -2   5   10.81    6.71
   0  -2   5    6.89    4.49
   0   2   5   16.58    3.25
   0  -2   5   19.59    5.09
   0  -2   5   12.40    3.72
   0  -2   5   16.84    2.23
   0  -2  -5   19.72    3.71
   0  -2   5   17.86    5.87
   0  -2  -5   17.79    2.13
   1   2  -5 2085.97   55.70
   1  -2  -5 1949.88   54.94
   1   2  -5 1906.60  103.99
   1  -2  -5 2216.88   60.45
   1  -2   5 1920.00   72.43
   1  -2   5 2344.20  121.65
   1  -2  -5 1989.86   63.10
   1  -2   5 2068.47   61.20
   1   2   5 1958.52   56.01
   1  -2   5 1943.02   58.17
   1  -2  -5 2269.05   60.41
   1  -2   5 1878.72   57.95
   1  -2  -5 2286.27   60.45
   2   2  -5  127.30    9.19
   2  -2   5  104.21   10.12
   2  -2  -5  133.51   11.43
   2  -2   5  101.11    9.97
   2  -2  -5  127.73   11.01
   2   2   5  111.71    8.44
   2  -2  -5  125.74    8.35
   2   2  -5  127.78   24.19
   2   2  -5  132.71    7.43
   2  -2  -5  133.57   10.41
   2  -2   5   74.03   11.42
   2  -2  -5   68.10    9.63
   2   2   5   59.23    7.22
   2   2  -5  111.50    6.29
   2   2   5  110.19    6.48
   2  -2   5   85.33   10.36
   3   2  -5 1952.10   57.35
   3   2   5 1762.07   49.74
   3  -2  -5 2127.86   64.48
   3   2   5 1803.77   54.74
   3   2  -5 2346.93  104.70
   3  -2   5 2577.17  128.78
   3  -2   5 1784.25   61.21
   3  -2  -5 2101.27   63.60
   3  -2   5 1881.68   62.60
   3   2  -5 2265.54   55.39
   3  -2   5 1686.00   61.43
   3   2   5 1557.66   61.48
   3  -2  -5 1839.44   53.56
   3   2   5 2068.83   54.43
   3  -2  -5 1732.57   64.65
   3   2  -5 1851.57   66.35
   3  -2  -5 1914.95   53.69
   3   2  -5 1725.78   49.05
   4   2  -5  171.98   13.33
   4   2   5  162.02   11.86
   4  -2   5  201.51   36.50
   4  -2  -5  177.92   15.76
   4  -2   5  147.39   10.90
   4  -2  -5  178.36   11.80
   4   2  -5  162.08    5.83
   4  -2  -5  165.51   11.05
   4   2  -5  250.96   15.21
   4   2   5   91.55   10.74
   4  -2   5   83.34   10.10
   4   2  -5   77.06   11.92
   4   2   5   98.76    8.58
   4  -2  -5  152.59   10.54
   4  -2  -5   69.72   12.67
   4   2  -5  145.90    8.53
   4   2  -5  143.60   17.14
   4   2   5  145.46    8.92
   4  -2   5  164.89   15.79
   5   2  -5 1154.64   43.84
   5  -2   5 1592.16   98.45
   5  -2  -5 1217.14   40.10
   5   2  -5 1203.17   32.12
   5  -2   5  571.12   52.69
   5  -2   5 1114.31   39.52
   5  -2  -5 1307.81   40.89
   5  -2   5 1067.73   48.42
   5  -2  -5 1300.56   50.51
   5   2  -5 1746.12   49.41
   5   2   5  881.92   35.83
   5   2  -5 1088.78   34.98
   5   2   5 1033.29   35.48
   5   2   5 1257.33   38.28
   5   2  -5 1073.80   47.97
   5  -2  -5 1088.86   37.52
   5  -2  -5  926.92   49.09
   5  -2  -5 1174.35   57.07
   5   2  -5 1106.23   56.86
   6   2  -5   32.00    7.42
   6  -2  -5   32.60    6.39
   6  -2   5   20.33   16.73
   6   2  -5   32.36    4.54
   6  -2   5   14.16   11.34
   6  -2  -5   33.44    6.38
   6   2  -5   31.05    5.11
   6   2  -5   52.27    9.01
   6   2   5   26.33    5.14
   6   2  -5    9.85    6.49
   6  -2  -5   24.44   10.17
   6  -2   5   33.09    8.30
   6   2  -5   19.80   10.09
   6  -2  -5   34.57    8.32
   6  -2  -5    4.61    6.42
   6  -2   5   27.04    5.99
   7   2  -5  698.79   35.20
   7  -2  -5  746.81   31.81
   7  -2   5  346.40   46.36
   7   2   5  317.63   48.25
   7   2  -5  752.79   27.47
   7   2  -5  713.33   28.10
   7   2   5  661.09   28.41
   7  -2  -5  836.48   32.16
   7  -2   5  686.89   30.56
   7  -2   5  708.28   39.83
   7   2  -5  674.27   39.02
   7  -2  -5  617.36   46.59
   7   2  -5  643.50   48.93
   8   2  -5   14.47    5.18
   8   2   5   10.24    5.10
   8  -2   5   -1.83   10.58
   8   2  -5   10.84    4.77
   8   2   5   12.93   13.55
   8  -2  -5    7.70    9.78
   8   2  -5    2.33    8.62
   9  -2  -5  433.98   33.62
   9  -2   5  195.36   36.89
   9   2   5  228.34   45.03
   9   2  -5  384.54   21.09
   9   2  -5  380.49   21.33
   9   2   5  367.54   21.95
   9  -2  -5  320.35   37.36
   9   2  -5  301.01   37.41
  10   2   5   16.73    6.41
  10   2  -5   16.93    8.25
  10  -2   5    7.31   12.35
  10   2   5    5.14   14.19
  10  -2  -5   18.94   12.49
  10   2  -5    5.74   12.02
  10   2  -5   27.21    7.00
  11  -2   5   63.53   21.99
 -10   3  -5    9.57    9.11
 -10   3   5    6.84    8.17
 -10  -3  -5    6.09    4.93
 -10  -3   5   10.46    5.84
  -9   3  -5  136.37   20.08
  -9  -3  -5  191.62   15.15
  -9  -3   5  214.31   17.12
  -9  -3  -5  165.65   12.54
  -9  -3   5  222.59   17.98
  -9   3  -5  186.59   23.39
  -9   3   5  131.94   21.06
  -8   3  -5   17.80    8.78
  -8  -3  -5   17.89   10.74
  -8  -3   5   46.25    7.86
  -8  -3  -5   39.23    6.20
  -8  -3   5   44.01    8.44
  -8   3   5   27.48   10.10
  -8   3  -5   40.54   11.53
  -8  -3  -5   32.41    6.46
  -7   3  -5  115.30   17.85
  -7  -3  -5  265.14   15.44
  -7  -3   5  292.02   17.45
  -7  -3  -5  272.23   15.77
  -7  -3   5  287.32   19.03
  -7   3   5  136.43   17.70
  -7   3  -5  221.22   22.84
  -7   3   5  219.26   23.24
  -7  -3  -5  259.61   14.19
  -6  -3  -5   53.22    6.25
  -6  -3   5   57.58    7.31
  -6   3  -5   21.26    8.10
  -6   3   5   36.84    9.94
  -6  -3  -5   41.28    5.84
  -6  -3   5   34.60   12.33
  -6   3   5   36.72   12.22
  -6  -3   5   44.47   22.40
  -6  -3  -5   55.32    6.88
  -6  -3   5   53.15    8.02
  -6   3   5   37.46    8.99
  -6   3  -5   48.69   10.67
  -5  -3  -5  453.56   19.73
  -5  -3   5  542.56   26.75
  -5   3  -5  262.58   25.05
  -5  -3   5  408.05   40.58
  -5  -3   5  621.48   59.49
  -5   3   5  453.00   22.85
  -5   3  -5  752.21   42.07
  -5  -3   5  527.79   21.62
  -5  -3  -5  485.00   19.77
  -5  -3   5  492.56   23.60
  -5  -3   5  501.64   29.09
  -5   3  -5  420.75   26.64
  -5  -3   5  508.73   20.37
  -5  -3  -5  491.63   18.99
  -5   3   5  345.49   23.12
  -5   3  -5  429.10   28.35
  -5   3   5  434.05   28.86
  -5  -3   5  571.43   30.50
  -4  -3   5   52.26    8.18
  -4   3  -5   24.17    7.41
  -4  -3   5   50.73   17.31
  -4   3   5   59.41    7.38
  -4  -3   5   55.17    6.04
  -4  -3  -5   45.79    5.19
  -4  -3   5   61.96    7.43
  -4  -3   5   37.10    8.61
  -4   3   5   41.69    9.72
  -4   3   5   37.18    6.29
  -4   3  -5   33.15    7.59
  -4   3   5   56.64    9.61
  -4   3  -5   44.83    8.65
  -4  -3   5   54.75    5.72
  -4  -3  -5   45.35    4.87
  -4  -3   5   33.02    7.71
  -4  -3   5   36.98   16.06
  -3  -3   5  965.84   29.45
  -3  -3  -5  916.96   28.20
  -3   3  -5  757.20   39.43
  -3  -3   5 1118.72   39.47
  -3  -3   5  702.69   64.31
  -3  -3   5 1142.07   63.04
  -3   3   5  837.04   31.97
  -3  -3   5  947.24   35.87
  -3   3  -5  911.70   39.99
  -3  -3   5 1028.95   61.00
  -3  -3   5  972.55   30.34
  -3  -3   5  962.04   41.78
  -3  -3  -5  907.78   28.80
  -3  -3   5  815.87   31.41
  -3   3   5  861.05   41.28
  -3  -3  -5 1076.58   39.15
  -3  -3   5  881.75   35.29
  -3   3  -5  909.19   38.15
  -3   3   5  872.19   30.19
  -3   3   5  869.74   37.82
  -3   3  -5  975.22   39.88
  -3  -3   5 1086.53   40.12
  -3   3   5  929.00   25.82
  -2  -3   5  114.16   11.27
  -2  -3   5  138.67   29.78
  -2  -3   5  123.20    7.48
  -2  -3   5  116.90   17.08
  -2   3   5  128.12    9.52
  -2  -3  -5  112.28    6.73
  -2  -3   5  105.15   10.02
  -2   3  -5   91.96   10.80
  -2   3   5   96.88    6.39
  -2  -3   5   83.08   16.95
  -2   3  -5   88.54   11.26
  -2  -3  -5   98.51    6.42
  -2  -3   5   66.97   10.67
  -2  -3   5  108.89    8.02
  -2   3   5   93.14   11.89
  -2  -3   5  116.84    7.53
  -2  -3  -5  102.53    6.75
  -2  -3  -5  114.30   10.97
  -2  -3   5   89.31    9.32
  -2   3   5  104.44   10.92
  -2   3  -5  100.57   11.14
  -2  -3   5   70.46    9.67
  -1  -3   5 1001.44   37.76
  -1  -3   5  962.60   79.29
  -1   3   5  848.94   29.77
  -1   3  -5  818.00   34.19
  -1  -3   5  825.53   32.25
  -1  -3   5  863.94   50.68
  -1  -3   5  809.59   39.04
  -1  -3  -5  747.42   27.68
  -1  -3   5  833.66   25.63
  -1  -3  -5  814.75   24.90
  -1  -3   5  753.99   25.55
  -1  -3   5  809.11   32.56
  -1   3   5  759.04   31.93
  -1   3  -5  872.75   34.18
  -1  -3  -5  973.57   24.61
  -1  -3  -5  952.62   33.64
  -1  -3   5  783.44   30.86
   0  -3   5  180.60    8.95
   0  -3  -5  163.76    8.40
   0  -3   5  195.76   16.28
   0  -3   5  208.31   40.18
   0   3   5  178.18   11.09
   0  -3  -5  174.35   10.61
   0  -3   5  131.32   19.00
   0  -3  -5   93.08    9.63
   0  -3   5  195.33    6.04
   0  -3   5  143.15   12.58
   0  -3   5  139.07   11.95
   0  -3  -5  174.98   12.53
   0  -3   5  140.61   11.04
   1   3   5  833.28   29.80
   1  -3   5 1244.30   93.93
   1  -3   5  848.78   25.54
   1  -3   5 1171.68   45.86
   1  -3   5  887.92   46.30
   1  -3  -5  854.58   34.84
   1  -3   5  879.46   32.33
   1  -3   5  856.89   34.57
   1  -3  -5  840.45   29.12
   1  -3   5  809.51   32.53
   1  -3  -5  931.20   34.96
   1  -3   5  904.78   27.35
   1  -3  -5  877.34   26.84
   1  -3   5  819.26   32.38
   1  -3  -5  964.27   34.93
   1  -3   5  745.22   26.73
   2  -3   5  116.43   11.37
   2  -3  -5  117.02   11.72
   2   3   5  121.06    9.47
   2  -3  -5  123.16    9.18
   2  -3   5  122.64    8.64
   2  -3  -5  122.42   10.86
   2  -3   5   93.84   13.94
   2   3   5   85.72   14.21
   2  -3  -5   60.80   10.30
   2  -3   5  104.52   11.49
   2  -3   5  101.13   10.55
   2  -3  -5  106.89   11.12
   2  -3   5  107.39    6.35
   3  -3   5 1026.29   41.20
   3  -3  -5 1218.39   44.51
   3  -3   5 1006.16   41.17
   3  -3  -5 1174.04   44.00
   3  -3   5 1517.59  104.32
   3  -3   5  785.77   31.93
   3   3   5 1015.28   34.26
   3  -3   5  876.57   23.65
   3   3   5  831.76   44.19
   3  -3   5  954.32   44.04
   3   3  -5  951.78   29.67
   3  -3  -5  910.33   42.82
   3   3  -5  987.04   41.15
   3   3   5 1013.53   31.01
   3  -3  -5 1066.66   34.12
   3  -3   5 1139.48   46.40
   3  -3   5  855.41   24.51
   4   3  -5   56.17    7.97
   4  -3   5   58.67   10.23
   4  -3  -5   62.65   10.55
   4   3   5   70.97    8.25
   4  -3   5   49.36    9.44
   4  -3  -5   55.26    9.69
   4   3  -5   50.72    5.62
   4  -3  -5   59.44    7.33
   4   3   5   68.62    6.73
   4  -3   5   70.87   27.49
   4  -3   5   41.03   12.19
   4  -3   5   75.81    4.83
   4   3   5   35.65    8.87
   4  -3   5   47.76    9.30
   4   3  -5   34.45    8.82
   5   3  -5  593.67   29.10
   5   3   5  601.02   27.18
   5   3  -5  551.05   15.66
   5  -3  -5  586.05   26.10
   5  -3   5  813.86   76.01
   5  -3   5  608.89   34.46
   5  -3  -5  671.86   36.08
   5  -3  -5  675.32   27.40
   5  -3   5  278.27   34.86
   5   3  -5  593.33   16.83
   5  -3   5  643.42   20.32
   5   3   5  427.82   27.15
   5  -3  -5  568.69   27.36
   5   3  -5  561.76   37.44
   5   3  -5  536.96   21.97
   5   3   5  561.28   23.06
   6  -3   5   51.59    3.28
   6   3  -5   58.57    9.68
   6   3  -5   66.41    4.67
   6  -3   5   59.17   25.08
   6  -3   5   56.26    8.19
   6  -3  -5   77.51    9.30
   6  -3   5   74.31   12.83
   6   3  -5   61.56    5.51
   6  -3   5   32.97   14.23
   6  -3  -5   59.28   11.94
   6  -3   5   87.96    7.83
   6   3   5   34.42    7.23
   6  -3  -5   53.03    8.55
   6   3  -5   29.88    8.92
   6   3  -5   34.75   12.57
   6   3  -5   52.98    6.48
   6   3   5   60.47    7.17
   7  -3   5  286.73   11.28
   7   3  -5  358.78   24.30
   7  -3   5  180.37   31.64
   7   3   5  166.45   35.50
   7   3  -5  345.07   16.12
   7  -3   5  340.63   27.71
   7  -3  -5  406.40   29.89
   7  -3   5  389.50   17.53
   7  -3   5  476.12   56.66
   7  -3  -5  331.38   32.18
   7   3  -5  312.05   17.40
   7   3   5  318.05   18.18
   7   3  -5  310.76   32.67
   8   3  -5   50.42   10.27
   8  -3   5   18.03   13.40
   8   3  -5   48.09    6.70
   8   3   5   13.75   15.51
   8  -3  -5   68.93   13.30
   8   3  -5   46.96    7.39
   8   3   5   49.66    7.96
   8  -3  -5   22.42   11.14
   8   3  -5   30.62   14.44
   8  -3   5   52.49   12.31
   9   3   5  300.92   22.16
   9  -3   5  132.03   28.23
   9   3  -5  269.53   17.65
   9   3   5  243.32   17.65
   9  -3  -5  186.27   28.08
   9   3  -5  190.33   30.30
  10  -3   5    3.06    9.24
  10   3  -5    8.72    5.81
  10   3   5   10.70    5.89
  -9   4  -5   73.36   14.79
  -9   4   5   72.46   16.49
  -9  -4  -5  133.46   12.65
  -9  -4   5  161.28   14.76
  -9  -4  -5  124.71   11.33
  -9  -4   5  138.24   14.67
  -9   4  -5  102.02   18.16
  -8   4  -5   11.72    8.20
  -8   4   5   23.53   10.59
  -8   4  -5   13.66    7.66
  -8  -4  -5   31.31    6.19
  -8  -4   5   37.59    7.42
  -8  -4  -5   31.79    6.45
  -8   4  -5   29.18   11.35
  -8  -4   5   37.07    8.02
  -7   4  -5   89.56   15.26
  -7  -4  -5  306.07   19.69
  -7   4  -5  366.34   31.63
  -7  -4   5  256.92   16.24
  -7  -4  -5  226.11   14.46
  -7  -4   5  249.61   17.98
  -7   4   5  128.52   15.71
  -7   4  -5  190.49   22.24
  -7   4   5  184.61   22.42
  -6   4  -5   20.62    7.91
  -6   4   5   35.19   10.33
  -6  -4   5   26.31   13.85
  -6  -4  -5   50.63    7.00
  -6  -4   5   55.23    7.32
  -6  -4  -5   49.09    6.44
  -6   4  -5   44.49   14.34
  -6  -4   5   52.56    8.18
  -6   4  -5   37.22   10.48
  -6   4   5   21.01    6.20
  -6  -4   5   19.28    9.44
  -5  -4  -5  433.28   20.16
  -5   4  -5  267.76   24.49
  -5  -4   5  318.32   42.39
  -5   4   5  391.56   21.95
  -5   4  -5  680.97   46.76
  -5  -4   5  460.44   20.58
  -5  -4  -5  431.57   19.25
  -5  -4   5  408.71   21.96
  -5  -4   5  458.82   28.18
  -5   4   5  371.00   21.91
  -5   4   5  396.01   29.18
  -5   4  -5  395.65   29.04
  -5  -4   5  448.94   19.32
  -5  -4  -5  433.80   18.20
  -5  -4   5  525.58   31.82
  -4  -4   5  174.34   15.65
  -4   4  -5  127.36   15.46
  -4  -4   5   94.93   26.36
  -4   4   5  165.15   12.91
  -4  -4   5  120.47   27.90
  -4   4  -5  154.44   16.96
  -4   4  -5  158.46   24.40
  -4  -4   5  174.09   11.37
  -4  -4  -5  174.03   10.83
  -4  -4   5  103.44   13.55
  -4   4   5  125.36   15.80
  -4  -4  -5  190.63   17.24
  -4  -4   5  145.99   14.38
  -4   4   5  131.39   11.03
  -4   4   5  134.75   15.78
  -4   4  -5  164.90   17.14
  -4  -4   5   76.74   11.94
  -4  -4   5  173.27   10.65
  -4  -4  -5  160.56    9.84
  -3   4  -5  626.66   35.41
  -3  -4   5  637.30   67.39
  -3  -4   5  746.39   25.92
  -3  -4   5  712.16   57.13
  -3   4   5  649.70   28.23
  -3  -4  -5  825.85   27.38
  -3  -4   5  729.15   32.28
  -3   4  -5  686.15   35.74
  -3   4   5  712.59   27.35
  -3   4  -5  959.43   58.98
  -3  -4   5  831.85   57.25
  -3  -4  -5  711.00   24.71
  -3  -4   5  747.00   33.87
  -3  -4   5  710.02   36.42
  -3  -4   5  734.85   26.65
  -3  -4  -5  690.06   25.38
  -3   4   5  633.53   35.27
  -3   4   5  691.89   26.49
  -3  -4  -5  964.23   38.77
  -3  -4   5  710.31   33.18
  -3   4   5  683.62   35.91
  -3   4  -5  758.06   38.07
  -3  -4   5  771.25   34.95
  -2   4  -5  140.28   15.05
  -2  -4   5  198.81   16.02
  -2   4   5  170.93   12.23
  -2  -4   5  141.72   23.47
  -2   4   5  141.37    9.31
  -2   4  -5  167.28   15.70
  -2  -4   5  148.60   13.08
  -2  -4   5  178.33   10.21
  -2  -4  -5  183.30    9.89
  -2   4  -5  116.45   21.61
  -2  -4   5  142.61   23.68
  -2  -4   5   94.48   13.27
  -2  -4  -5  198.96   10.85
  -2   4   5  156.50   15.79
  -2  -4   5  181.42   38.96
  -2  -4  -5  170.04   10.14
  -2   4   5  146.51   14.77
  -2   4  -5  165.38   16.08
  -2  -4  -5  189.66   15.77
  -2  -4   5  145.87   13.34
  -2  -4   5   86.51   11.85
  -2  -4   5  182.91   13.57
  -1  -4   5  788.36   34.38
  -1  -4  -5  653.01   25.62
  -1   4   5  626.41   26.45
  -1  -4   5  733.25   43.31
  -1   4  -5  662.42   32.41
  -1  -4   5  689.69   30.46
  -1  -4   5  566.19   22.68
  -1  -4   5  837.18   81.06
  -1  -4   5  718.32   48.54
  -1  -4   5  646.18   36.01
  -1  -4  -5  666.50   24.07
  -1  -4   5  694.55   23.57
  -1  -4  -5  693.87   22.95
  -1   4   5  666.31   32.95
  -1   4   5  624.38   31.08
  -1   4  -5  716.43   33.70
  -1  -4   5  662.95   30.59
  -1  -4  -5  841.52   25.30
  -1  -4  -5  799.40   33.01
  -1  -4   5  627.30   29.01
  -1  -4   5  788.63   33.88
  -1  -4   5  622.14   27.04
   0  -4   5  101.75    7.46
   0  -4  -5  102.21    7.26
   0  -4   5  122.87   13.34
   0  -4   5  101.62    4.69
   0   4   5   97.26    8.98
   0  -4   5  148.77   37.51
   0  -4   5   71.07   10.74
   0  -4   5   86.65    6.27
   0  -4   5   76.76   16.19
   0   4   5   53.51   15.37
   0  -4  -5   58.85    7.62
   0  -4   5   68.69    9.38
   0  -4  -5   99.70    8.78
   0  -4  -5   98.42   10.77
   0  -4   5   75.58    9.32
   0  -4   5   95.81    8.52
   1  -4   5  570.27   24.38
   1  -4   5  955.20   87.78
   1  -4   5  895.73   39.66
   1   4   5  685.82   27.43
   1  -4   5  739.14   22.17
   1  -4   5  695.10   27.24
   1  -4   5  745.07   22.71
   1  -4   5  730.88   45.45
   1   4   5  495.78   42.05
   1  -4   5  716.16   25.05
   1  -4  -5  737.31   24.86
   1  -4  -5  702.18   31.99
   1  -4   5  678.98   32.12
   1  -4   5  631.03   30.43
   1  -4  -5  776.10   33.94
   1  -4   5  623.19   29.66
   1  -4  -5  805.95   33.23
   2  -4   5  148.56    9.42
   2  -4  -5  171.33    8.20
   2   4   5  184.32   12.49
   2  -4   5  204.84   10.70
   2  -4   5   75.83   10.38
   2  -4   5  152.48   20.08
   2   4   5  102.14   18.05
   2  -4   5  161.93    6.24
   2  -4  -5   91.61   12.69
   2  -4   5  150.60    8.83
   2  -4   5  147.38   14.69
   2  -4   5  148.88   14.17
   2  -4  -5  173.64   15.69
   2  -4   5  135.92   13.47
   2  -4  -5  196.39   16.24
   3  -4   5  710.32   34.54
   3  -4  -5  902.01   38.92
   3  -4   5  707.00   33.94
   3  -4  -5  917.80   38.73
   3  -4   5  492.24   20.86
   3  -4  -5  829.62   29.79
   3  -4   5 1125.93   96.04
   3  -4   5  390.48   29.67
   3  -4   5  721.08   26.52
   3   4   5  605.42   41.43
   3  -4   5  757.13   42.08
   3  -4   5  685.13   18.95
   3   4  -5  728.96   31.84
   3  -4   5  809.70   39.21
   4  -4   5  181.61   17.59
   4  -4  -5  214.89   19.39
   4  -4   5  149.94   16.35
   4  -4  -5  191.46   18.93
   4  -4   5  245.28   47.69
   4  -4   5   85.82   15.11
   4  -4   5  161.79   12.61
   4  -4  -5  196.80   15.01
   4  -4   5  156.10    7.50
   4   4   5  108.13   16.64
   4  -4   5  131.78   17.71
   4   4  -5  158.97   16.63
   4   4  -5  192.13   11.88
   4   4   5  194.22   12.72
   5  -4   5  502.38   31.21
   5  -4   5  458.59   30.39
   5  -4  -5  564.07   33.82
   5  -4   5  363.28   22.06
   5  -4   5  443.52   15.74
   5   4  -5  496.74   21.29
   5  -4  -5  473.58   24.88
   5   4   5  375.50   28.82
   5   4   5  508.46   22.52
   5  -4  -5  604.25   34.53
   5   4  -5  494.97   33.16
   6   4   5   73.78    9.83
   6   4  -5   62.89    3.82
   6   4  -5   61.94    7.89
   6   4   5   60.54    7.93
   6  -4  -5   63.05   13.00
   6  -4   5   22.21   10.54
   6   4  -5   62.70    4.80
   6  -4   5   54.01    5.34
   6  -4  -5   56.38    8.89
   6   4   5   27.09    8.54
   6  -4   5   49.72   11.56
   6   4  -5   40.45   12.58
   7   4  -5  276.75   17.11
   7   4   5  274.10   17.80
   7   4   5  333.69   21.50
   7   4  -5  277.97   10.92
   7   4  -5  278.44   13.14
   7  -4   5  115.45   21.82
   7   4   5  175.75   38.91
   7  -4   5  266.27   25.45
   7  -4  -5  329.83   28.10
   7  -4  -5  291.54   20.08
   7   4  -5  218.22   26.98
   8   4   5   54.66   10.25
   8   4  -5   40.60    4.71
   8  -4   5   17.28   10.18
   8  -4   5   29.67   10.85
   8  -4  -5   36.05   12.03
   8   4  -5   22.67   13.08
   8   4  -5   44.90    7.62
   8   4   5   39.27    7.77
   9  -4   5  161.32   21.12
   9  -4  -5  196.88   23.18
   9   4  -5  133.83   25.42
   9   4  -5  173.96   14.51
   9   4   5  177.61   15.42
  -8   5  -5   17.43    7.81
  -8   5   5   23.62   10.65
  -8   5  -5   27.35   11.57
  -8  -5  -5   33.42    6.80
  -8  -5   5   31.40    8.08
  -8  -5   5   31.65    7.10
  -7  -5  -5  183.44   14.77
  -7   5  -5  254.67   31.67
  -7  -5   5  162.33   13.29
  -7  -5  -5  146.13   12.08
  -7  -5   5  145.96   13.98
  -7   5  -5   66.29   13.29
  -7   5   5  128.07   19.93
  -7   5  -5  112.97   18.68
  -6   5   5   40.79   11.90
  -6   5  -5   46.32   12.67
  -6   5  -5   22.83    9.00
  -6  -5  -5   51.40    7.54
  -6  -5   5   60.35    8.28
  -6  -5  -5   51.38    7.10
  -6   5  -5   43.47   16.36
  -6  -5   5   50.11    8.06
  -6  -5   5   18.44   10.32
  -6   5  -5   23.92    8.27
  -5   5  -5  136.00   17.29
  -5  -5   5   89.34   27.62
  -5  -5  -5  242.29   15.97
  -5   5   5  169.37   14.64
  -5   5  -5  137.19   17.79
  -5   5   5  168.88   15.26
  -5   5  -5  296.09   35.43
  -5  -5   5  198.89   13.55
  -5  -5  -5  190.55   12.78
  -5  -5   5  192.02   18.25
  -5   5   5  172.52   14.58
  -5   5   5  158.66   20.11
  -5   5  -5  181.82   20.88
  -5  -5   5  216.61   22.12
  -4   5   5   49.35   11.48
  -4  -5   5   30.56   18.69
  -4   5   5   54.85    8.25
  -4   5  -5   40.48    9.74
  -4  -5  -5   69.45    8.26
  -4   5   5   50.98    7.81
  -4   5  -5   41.02    9.82
  -4   5  -5   54.54   18.28
  -4  -5   5   68.70    7.81
  -4  -5  -5   64.82    7.29
  -4  -5   5   24.80    8.13
  -4   5   5   47.47   10.46
  -4   5  -5   60.02   12.66
  -4  -5   5   27.28   10.00
  -3   5  -5  242.28   21.89
  -3  -5   5  219.79   43.80
  -3  -5   5  317.19   15.79
  -3  -5  -5  308.59   14.86
  -3   5   5  266.86   17.29
  -3   5   5  300.81   16.98
  -3   5  -5  245.02   21.74
  -3  -5  -5  371.98   17.88
  -3   5  -5  392.22   41.60
  -3   5   5  155.16   29.25
  -3  -5   5  294.89   23.12
  -3  -5   5  237.71   15.01
  -3  -5   5  296.85   16.05
  -3  -5  -5  297.21   15.43
  -3   5   5  245.49   21.03
  -3  -5  -5  357.19   17.92
  -3   5   5  299.55   24.72
  -3   5  -5  299.84   24.99
  -3  -5  -5  390.40   25.59
  -3  -5   5  283.79   21.18
  -3  -5   5  318.89   22.65
  -3  -5   5  293.40   19.31
  -2   5   5   80.44    9.16
  -2  -5   5   80.64    7.88
  -2  -5   5   94.56    8.02
  -2  -5  -5   82.02    7.22
  -2   5  -5   78.59   21.36
  -2  -5   5   51.48   10.81
  -2   5   5   25.20   13.70
  -2   5   5   70.35   11.33
  -2  -5   5   68.64   10.39
  -2   5   5   53.41   10.77
  -2   5  -5   78.42   12.64
  -2  -5  -5   83.58    8.28
  -2  -5  -5   83.72   11.74
  -2  -5   5   66.40   10.06
  -2  -5   5   39.79    8.89
  -2  -5   5   71.21    9.15
  -1   5   5  330.37   18.90
  -1  -5   5  322.11   16.05
  -1   5  -5  389.54   42.35
  -1   5   5  152.84   27.46
  -1  -5   5  340.18   26.49
  -1  -5  -5  374.20   15.89
  -1  -5   5  384.98   17.11
  -1  -5  -5  388.55   16.55
  -1   5   5  337.06   23.12
  -1  -5   5  356.42   22.92
  -1  -5  -5  483.72   20.48
  -1  -5  -5  465.12   26.10
  -1  -5   5  328.47   21.56
  -1  -5   5  409.42   24.93
  -1  -5   5  319.85   18.97
   0  -5   5   89.12    9.09
   0  -5   5  102.73    5.44
   0  -5   5  102.74    8.34
   0   5   5   50.21   15.95
   0  -5  -5   59.78    8.32
   0  -5   5   76.56   10.74
   0  -5  -5   95.46   10.04
   0  -5   5   57.82    9.86
   0  -5   5   81.38   10.50
   0  -5  -5  103.32   12.20
   0   5   5   41.45    5.21
   0  -5   5   97.35    8.03
   0  -5  -5  104.07    8.16
   1  -5   5  283.04   16.70
   1  -5   5  383.11   14.24
   1  -5   5  394.78   17.94
   1  -5  -5  418.89   17.91
   1  -5   5  290.60   13.82
   1  -5   5  384.06   34.66
   1   5   5  229.86   30.45
   1  -5  -5  384.38   23.14
   1  -5   5  362.09   23.90
   1  -5   5  355.96   23.12
   1  -5  -5  425.52   26.06
   1   5   5  397.79   19.34
   1  -5   5  337.24   21.81
   1  -5  -5  435.13   25.30
   2  -5   5   58.69    6.74
   2  -5  -5   81.72    6.52
   2  -5   5  100.15    7.47
   2   5   5   49.47   15.01
   2  -5   5   61.04   14.68
   2  -5   5   73.20   11.66
   2  -5   5   93.71    8.83
   2  -5   5   69.20   10.69
   2  -5  -5   83.49   12.45
   2  -5  -5  103.89    9.09
   2   5   5   23.54    7.61
   2  -5   5   67.11   10.46
   2  -5  -5   82.86   12.38
   3  -5   5  256.02   20.80
   3  -5  -5  357.88   24.86
   3  -5   5  166.47   11.88
   3  -5  -5  364.55   14.02
   3   5   5  313.51   18.40
   3  -5  -5  304.31   19.73
   3   5   5  251.25   29.27
   3  -5   5  300.20   28.68
   3  -5   5  253.17   10.31
   3  -5   5  292.66   15.27
   3  -5   5  334.78   25.60
   3   5   5  296.09   21.20
   3  -5   5  308.56   22.84
   3  -5  -5  372.39   25.64
   4  -5   5   52.40   10.99
   4  -5  -5   68.94   12.63
   4   5   5   78.13    9.60
   4  -5   5   64.68    8.02
   4  -5   5   47.54    4.71
   4  -5  -5   70.89    9.80
   4   5   5   38.99   12.53
   4  -5   5   58.29    4.53
   4   5  -5   58.88    9.77
   4  -5   5   54.18   12.79
   4   5   5   21.14    8.92
   5   5  -5  217.32   14.53
   5  -5   5  184.23   19.85
   5   5   5  260.30   17.57
   5  -5  -5  234.35   22.78
   5   5   5  162.44   21.55
   5  -5  -5  226.05   17.21
   5  -5   5  169.43    9.10
   5   5  -5  212.69   20.50
   6   5   5   71.05    9.91
   6  -5  -5   74.90   14.53
   6   5   5   26.19   18.69
   6  -5  -5   48.82    8.66
   6   5   5   30.24   10.43
   6  -5   5   49.39   11.80
   6   5  -5   40.13   11.45
   6   5  -5   58.77    8.25
   6   5   5   54.83    8.61
   7  -5   5  153.24   20.15
   7  -5  -5  199.49   22.82
   7   5   5  118.00   33.56
   7  -5  -5  139.49   14.22
   7   5  -5  183.21   14.35
   7   5   5  173.62   14.89
   7   5  -5  163.81   22.40
   7   5   5  185.07   16.34
   8   5   5   15.70   16.48
   8   5  -5   46.84    8.38
   8   5   5   46.76    8.85
   8  -5   5   26.77   10.65
   8  -5  -5   34.74   12.30
   8   5  -5   30.90   13.50
   9   5  -5   71.11   18.85
  -7   6  -5   90.72   22.13
  -7  -6   5   53.06    9.58
  -6   6   5   35.85   12.88
  -6   6  -5   34.56   11.70
  -6   6  -5   36.12   10.47
  -6   6   5   28.64    8.30
  -6   6  -5   32.78   17.04
  -6  -6   5   43.86    7.57
  -6  -6  -5   46.31    7.29
  -5   6   5  104.98   12.25
  -5   6   5  121.92   13.33
  -5   6  -5  174.74   30.78
  -5  -6   5  137.96   12.17
  -5  -6  -5  132.94   11.37
  -5  -6   5  135.46   16.26
  -5   6   5  127.25   19.53
  -5   6  -5  102.36   17.93
  -5  -6   5  133.81   20.25
  -4   6   5   81.74   10.61
  -4   6   5   82.38   10.51
  -4  -6  -5  104.91   11.30
  -4  -6   5   87.32    9.65
  -4   6  -5   90.18   24.95
  -4  -6   5   96.27   10.09
  -4  -6  -5  106.83    9.98
  -4  -6   5   40.42   10.49
  -4  -6  -5  103.82   11.32
  -4   6   5   75.81   15.30
  -4   6  -5   85.42   16.18
  -4  -6   5   44.93   13.68
  -3  -6   5  162.05   12.84
  -3   6  -5  260.73   37.39
  -3   6   5   83.99   23.53
  -3  -6   5  200.92   19.86
  -3  -6   5  226.23   14.79
  -3  -6  -5  225.98   14.28
  -3   6   5  165.90   17.88
  -3  -6   5  215.44   19.43
  -3   6   5  174.81   20.71
  -3  -6  -5  278.53   17.02
  -3   6  -5  235.17   23.69
  -3  -6   5  241.92   22.75
  -2  -6   5   90.15    9.09
  -2   6  -5  101.74   25.25
  -2   6   5   52.95   18.67
  -2  -6   5   72.12   13.23
  -2   6   5   89.15   12.90
  -2  -6   5   97.34   13.29
  -2  -6  -5  126.62   11.58
  -2  -6   5   55.43   11.27
  -1  -6   5  155.98   11.57
  -1   6  -5  166.27   31.16
  -1  -6   5  175.89   19.78
  -1   6   5   93.32   23.55
  -1   6   5  172.04   16.81
  -1  -6   5  201.60   18.23
  -1  -6  -5  247.57   16.31
  -1  -6   5  215.78   18.66
   0  -6   5   75.67    9.32
   0   6   5   94.56   10.31
   0  -6   5   96.11    9.14
   0   6   5   63.29   19.04
   0   6   5   76.49   11.59
   0  -6   5   91.87   12.82
   0  -6  -5  122.65   13.04
   0  -6   5   58.70   10.81
   1  -6   5  116.01   11.16
   1   6   5  198.68   15.05
   1  -6  -5  200.68   12.37
   1  -6   5  119.23    9.01
   1   6   5   99.32   22.94
   1  -6  -5  162.27   15.47
   1  -6   5  203.24   18.83
   1  -6   5  182.89   17.68
   1  -6  -5  232.46   20.63
   1  -6   5  203.37   17.56
   1   6   5  183.54   10.14
   2   6   5  139.55   12.65
   2   6   5   54.42   18.06
   2  -6   5  101.35   14.65
   2  -6   5   68.49   11.18
   2   6   5   53.53    8.08
   2  -6   5   82.31   12.91
   2  -6  -5  125.33   16.19
   2  -6  -5  131.38    9.36
   3   6   5  248.36   17.30
   3  -6   5  248.74   23.64
   3   6   5  218.78   15.83
   3  -6   5  194.34   19.75
   3  -6  -5  259.66   23.45
   4  -6   5   80.19   13.57
   4  -6  -5   99.46   16.10
   4   6   5  115.39   12.12
   4  -6  -5  115.00   12.77
   4   6   5   52.67   16.57
   4  -6   5   79.76   15.64
   4   6   5   52.98   11.12
   5  -6   5  132.32   17.78
   5  -6  -5  147.49   19.46
   5   6   5  158.16   14.35
   5  -6  -5  132.16   13.86
   5   6   5   99.79   19.41
   5   6  -5  134.69   14.68
   6   6   5   62.68   10.09
   6   6   5   30.87   22.71
   6   6   5   26.88   11.53
   6  -6   5   32.32   11.00
   6  -6  -5   41.21   12.65
   6   6  -5   43.45   10.98
   7   6  -5   63.94   14.00
  -6   7  -5   43.26   21.24
  -5   7  -5   65.60   23.64
  -4   7  -5   53.35   14.22
  -4  -7   5   48.41    8.16
  -4   7  -5   63.01   23.80
  -4  -7   5   68.52    9.34
  -4  -7  -5   71.32    9.22
  -4  -7   5   22.85    9.32
  -4  -7  -5   64.89   10.60
  -4   7   5   43.13   12.75
  -4  -7   5   28.33   13.52
  -3  -7   5   42.47    7.30
  -3   7  -5   71.80   23.91
  -3  -7   5   71.05   13.56
  -3  -7   5   70.79    9.25
  -3  -7  -5   79.95    9.30
  -3  -7  -5   82.57   10.87
  -3  -7   5   71.89   16.26
  -2   7   5   77.82   10.16
  -2  -7   5   49.92    7.30
  -2   7  -5   59.00   21.64
  -2   7   5   20.01   13.51
  -2  -7   5   36.02   10.63
  -2  -7   5   58.53   11.95
  -2  -7  -5   87.76   11.89
  -2  -7   5   30.23   12.08
  -1   7   5   84.77   10.60
  -1   7  -5   83.10   24.49
  -1  -7   5   82.14   15.13
  -1   7   5   45.58   18.96
  -1  -7   5   88.75   13.75
  -1  -7  -5  118.68   13.42
  -1  -7   5   89.02   14.80
   0   7   5   63.58    9.64
   0   7   5   43.45   17.53
   0  -7   5   53.09   13.73
   0  -7  -5   80.57   13.20
   0  -7   5   53.14   11.77
   0  -7   5   26.18    9.43
   1   7   5   96.61   11.33
   1   7   5   52.11   18.38
   1  -7   5   96.69   15.03
   1  -7   5   75.44   13.18
   1  -7  -5  101.14   15.66
   1  -7   5   83.48   12.87
   2   7   5   89.36   11.10
   2  -7   5   45.73   11.04
   2   7   5   36.30   16.26
   2  -7   5   55.14   12.48
   2  -7  -5   87.05   15.39
   2  -7   5   29.27    9.08
   3   7   5   69.76   10.39
   3  -7   5   59.86   12.78
   3   7   5   41.26   17.36
   3  -7  -5   73.71   14.20
   4  -7   5   53.37   12.54
   4  -7  -5   62.06   14.13
   4   7   5   34.21   14.87
   5   7   5   32.53   21.84
   5   7   5   38.61   15.43
   0  -8   5   22.61   11.47
 -11   0  -6   -0.24    3.62
 -10   0  -6  245.09   26.64
 -10   0   6  195.78   26.78
 -10   0  -6  235.86   14.14
  -9   0  -6   -1.06    7.83
  -9   0  -6    2.94    7.26
  -9   0   6   -0.88    7.39
  -9   0   6   -2.24    4.75
  -9   0  -6    0.41    2.80
  -8   0  -6  324.24   27.70
  -8   0   6  287.45   28.43
  -8   0  -6  262.41   33.56
  -8   0  -6  345.27   13.49
  -8   0   6  280.79   20.76
  -8   0  -6  290.21   15.06
  -7   0   6    2.12    2.76
  -7   0  -6   -6.73    9.97
  -7   0  -6   -0.59    5.72
  -7   0   6   -0.70    4.90
  -7   0  -6    0.31    1.69
  -7   0  -6    0.50    4.64
  -7   0   6   -0.60    4.32
  -7   0   6   -0.37    3.98
  -7   0  -6   -0.97    2.32
  -7   0  -6    0.62    6.28
  -7   0   6   -0.83    5.19
  -6   0  -6  516.63   31.20
  -6   0   6  371.24   29.06
  -6   0   6  542.50   20.77
  -6   0   6  341.67   26.57
  -6   0  -6  432.74   46.71
  -6   0   6  449.58   40.29
  -6   0  -6  481.42   28.47
  -6   0   6  456.67   26.29
  -6   0  -6  627.92   34.61
  -6   0   6  548.30   27.19
  -5   0  -6   -1.45    9.15
  -5   0  -6    1.72    4.10
  -5   0   6   -1.00    3.90
  -5   0   6    0.19    2.31
  -5   0   6   -0.84    6.40
  -5   0   6   -0.34    3.15
  -5   0  -6    0.75    3.77
  -5   0   6   -3.93    4.17
  -5   0  -6    0.42    4.52
  -5   0   6    1.04    3.35
  -4   0  -6 1382.12   48.82
  -4   0   6 1048.09   46.34
  -4   0  -6 1436.13   47.49
  -4   0   6 1054.26   44.97
  -4   0   6 1479.96   43.24
  -4   0  -6  955.27   72.58
  -4   0  -6 1286.73   35.03
  -4   0   6 1128.17   44.11
  -4   0   6 1187.11   56.55
  -4   0  -6 1641.39   49.35
  -4   0   6 1274.55   42.97
  -3   0  -6   -0.04    0.74
  -3   0  -6   -0.97    2.38
  -3   0  -6    1.42    7.82
  -3   0   6   -0.53    2.63
  -3   0   6   -0.40    1.75
  -3   0  -6    0.31    1.11
  -3   0  -6   -0.25    0.97
  -3   0   6    0.26    2.41
  -3   0  -6    0.22    2.29
  -3   0   6   -0.24    2.34
  -3   0   6    0.51    4.56
  -3   0  -6    1.31    2.47
  -3   0   6   -0.46    2.50
  -2   0   6 1202.30   35.89
  -2   0   6 1110.02   36.24
  -2   0   6 1207.67   41.25
  -2   0  -6 1459.97   35.40
  -2   0  -6 1014.46   74.16
  -2   0   6 1201.19   51.17
  -2   0  -6 1570.12   40.16
  -2   0  -6 1515.90   37.50
  -2   0   6 1182.62   35.95
  -2   0  -6 1533.01   38.08
  -2   0   6 1161.50   36.30
  -1   0  -6    0.83    3.56
  -1   0  -6    1.38    8.70
  -1   0  -6    1.40    1.48
  -1   0   6    0.47    1.28
  -1   0   6    1.69    1.34
  -1   0  -6    0.21    1.29
  -1   0   6    0.37    3.31
  -1   0   6    0.39    3.28
  -1   0   6   -0.21    1.22
   0   0  -6  680.98   28.52
   0   0  -6  709.85   23.48
   0   0  -6  726.55   21.18
   0   0   6  636.57   31.51
   0   0   6  663.00   22.03
   1   0  -6    1.36    7.88
   1   0   6    0.83    1.45
   1   0  -6   -0.23    1.45
   1   0  -6    0.34    3.24
   1   0   6    1.09    3.35
   1   0  -6    2.46    2.29
   2   0   6 1266.00   39.59
   2   0  -6 1351.26   36.44
   2   0  -6 1085.50   75.95
   2   0   6 1287.88   33.40
   2   0  -6 1414.68   33.58
   2   0   6 1409.77   51.90
   2   0  -6 1356.54   50.78
   2   0  -6 1554.14   40.63
   3   0  -6    0.47    1.16
   3   0   6    0.09    1.30
   3   0  -6    2.67    9.33
   3   0  -6    1.01    1.99
   3   0  -6   -0.42    3.56
   3   0  -6    0.23    1.20
   3   0   6    0.86    1.37
   3   0  -6   -0.10    1.38
   4   0  -6 1145.05   75.73
   4   0   6 1035.41   34.02
   4   0  -6 1526.19   38.72
   4   0  -6 1555.62   38.40
   4   0   6 1278.41   37.96
   4   0  -6 1321.71   54.53
   4   0  -6 1553.06   43.80
   4   0  -6 1517.67   38.37
   4   0   6 1273.42   38.01
   5   0  -6    1.26    9.09
   5   0  -6    0.31    2.25
   5   0  -6    0.15    2.12
   5   0  -6    0.23    2.78
   5   0   6    1.05    2.02
   5   0  -6    0.60    2.06
   5   0   6    1.02    2.22
   6   0  -6  578.99   48.85
   6   0  -6  599.96   23.05
   6   0  -6  573.14   22.56
   6   0   6  520.82   22.64
   6   0  -6  585.06   22.94
   6   0   6  512.88   22.86
   7   0  -6   -0.97    8.29
   7   0   6    3.41    9.40
   7   0  -6   -0.70    3.25
   7   0  -6   -0.23    3.02
   7   0   6   -0.26    3.43
   7   0  -6    1.98    3.35
   7   0   6    0.25    3.09
   8   0  -6  450.05   29.23
   8   0  -6  405.08   20.94
   8   0  -6  423.04   21.25
   9   0   6   -2.14   12.38
   9   0  -6    0.93    4.83
   9   0   6    2.70    4.97
  10   0  -6  318.88   20.41
  10   0   6  283.61   20.18
 -11  -1  -6    6.39    4.05
 -10   1  -6  149.47   21.37
 -10   1   6  116.97   20.84
 -10  -1  -6  139.42   20.16
 -10  -1   6  123.71   21.36
 -10  -1   6  155.56   16.43
 -10   1  -6  170.40   11.88
 -10  -1  -6  127.34   10.62
  -9  -1  -6    5.57    9.32
  -9   1  -6    5.98    7.49
  -9   1   6   -0.88    6.70
  -9  -1  -6    2.09    6.30
  -9  -1   6    9.24    8.54
  -9  -1   6    4.11    5.28
  -9   1  -6    7.64    3.72
  -9  -1  -6    6.65    3.67
  -8   1  -6  414.53   31.78
  -8   1   6  299.60   29.42
  -8  -1  -6  421.27   31.09
  -8  -1   6  410.37   33.23
  -8  -1  -6  331.91   39.60
  -8  -1   6  387.45   24.73
  -8   1  -6  458.86   18.73
  -8   1  -6  372.84   40.08
  -7  -1   6    5.02    4.01
  -7   1  -6   -1.30    8.50
  -7   1  -6    1.21    5.29
  -7   1   6    0.70    5.33
  -7  -1  -6    2.63    8.89
  -7   1  -6    1.55    4.78
  -7   1   6    4.18    5.21
  -7  -1  -6    3.25    4.51
  -7  -1   6    7.88    6.05
  -7  -1   6    3.76    4.15
  -7   1  -6    3.36    2.50
  -7  -1  -6    5.83    3.90
  -7  -1   6    7.88    4.63
  -7   1  -6    8.21    6.40
  -7  -1   6   -0.91    5.38
  -6   1  -6  561.22   34.20
  -6   1   6  527.72   34.69
  -6  -1   6  758.94   29.09
  -6  -1   6  727.15   55.04
  -6  -1  -6  625.68   32.24
  -6  -1   6  604.21   34.16
  -6  -1  -6  659.47   26.77
  -6  -1   6  649.85   28.82
  -6  -1  -6  559.86   21.99
  -6  -1   6  654.75   31.71
  -6  -1  -6  484.21   47.79
  -6  -1   6  662.93   30.27
  -6   1  -6  554.93   52.86
  -6   1  -6  683.96   22.00
  -6   1  -6  673.55   35.25
  -6  -1   6  739.57   33.66
  -6   1   6  721.12   30.54
  -6  -1  -6  605.55   20.96
  -6   1  -6  617.97   33.26
  -6   1   6  539.01   33.20
  -5  -1   6   31.32    5.79
  -5   1   6   22.89    6.99
  -5   1  -6   24.70    6.91
  -5   1  -6   21.15   13.19
  -5  -1  -6   23.54   12.51
  -5  -1   6   19.83   10.44
  -5  -1  -6   34.91    5.26
  -5  -1   6   26.34    5.24
  -5   1   6   31.08    6.87
  -5  -1  -6   34.21    4.44
  -5   1  -6   26.51    6.80
  -5   1   6   21.56    6.63
  -5  -1   6   25.74    6.06
  -5  -1   6   33.00    5.95
  -5   1  -6   35.90    3.67
  -5  -1  -6   26.66    6.59
  -5  -1   6   18.97    6.22
  -5   1  -6   28.70    7.22
  -5  -1   6   11.46    4.89
  -5   1   6    8.37    3.96
  -5  -1  -6   37.37    3.86
  -4  -1  -6  768.05   24.82
  -4  -1   6 1041.21   35.16
  -4   1  -6  713.93   64.06
  -4  -1  -6  714.52   58.00
  -4  -1  -6  864.79   28.64
  -4  -1   6  774.74   29.74
  -4  -1  -6  850.54   33.69
  -4   1   6  810.46   29.79
  -4  -1   6  719.33   33.60
  -4  -1  -6  773.52   26.04
  -4  -1   6  841.27   34.64
  -4  -1   6  896.80   32.53
  -4   1  -6  898.76   23.71
  -4  -1   6  861.65   41.16
  -4   1   6  858.82   44.45
  -4   1  -6  965.18   37.08
  -4  -1  -6 1160.39   40.69
  -4  -1   6  939.46   35.32
  -4   1   6  928.42   31.29
  -4   1  -6  850.21   34.84
  -4   1   6  817.17   34.82
  -4   1  -6  841.14   35.88
  -4   1   6  819.49   36.06
  -3   1  -6   53.43   11.34
  -3   1  -6   54.33   19.55
  -3  -1  -6   49.03   16.48
  -3   1   6   76.73    6.80
  -3  -1  -6   82.94    6.10
  -3  -1   6   68.75    6.21
  -3  -1   6   70.52    7.79
  -3  -1   6   80.16    8.62
  -3  -1   6   84.25    7.38
  -3   1  -6   90.53    3.53
  -3  -1   6   48.08    9.70
  -3   1   6   63.98   11.06
  -3  -1   6   64.13   11.83
  -3   1  -6   76.11    8.22
  -3  -1  -6   76.75    7.74
  -3   1   6   46.63    6.36
  -3  -1   6   46.80    7.42
  -3   1  -6   73.34    7.82
  -3   1   6   63.25    7.22
  -3  -1   6   93.69    9.73
  -3  -1  -6   75.37    7.58
  -2   1  -6 1095.05   51.04
  -2  -1   6 1862.35   54.90
  -2   1  -6  986.23   79.38
  -2   1   6 1302.91   39.71
  -2  -1   6 1310.35   35.70
  -2  -1   6 1314.46   41.23
  -2  -1  -6 1426.92   36.60
  -2  -1   6 1243.69   37.13
  -2   1  -6 1504.59   45.31
  -2  -1  -6 1383.57   39.93
  -2  -1   6 1229.33   40.10
  -2  -1   6 1321.45   43.39
  -2  -1   6 1429.20   53.66
  -2   1   6 1396.14   54.71
  -2  -1   6 1385.47   55.07
  -2   1  -6 1555.25   44.51
  -2  -1  -6 1576.80   38.10
  -2   1   6 1315.59   38.89
  -2   1  -6 1554.90   40.76
  -1  -1   6   43.78    9.00
  -1   1  -6   27.28    6.24
  -1   1   6   33.75    4.14
  -1   1  -6   26.46   15.82
  -1  -1   6   36.08    2.85
  -1   1  -6   31.16    4.78
  -1  -1   6   30.49    4.45
  -1  -1  -6   36.41    2.38
  -1  -1   6   31.81    2.58
  -1  -1  -6   39.71    4.89
  -1  -1  -6   36.26    3.10
  -1  -1   6   31.49    4.40
  -1   1   6   32.77    7.10
  -1  -1   6   23.64    6.41
  -1   1   6   20.83    6.16
  -1  -1   6   25.41    4.17
  -1  -1  -6   33.01    2.92
  -1  -1   6   25.54    2.60
  -1   1  -6   38.50    2.93
   0   1  -6 1660.34   55.08
   0  -1   6 1739.70   44.48
   0   1   6 1747.20   48.31
   0  -1   6 1655.40   46.81
   0  -1  -6 1970.60   51.97
   0  -1  -6 1655.91   56.25
   0   1   6 2037.74   61.61
   0  -1   6 1790.63   50.75
   0   1  -6 1780.51   47.33
   1  -1   6   36.70    2.08
   1  -1   6   32.42    3.53
   1   1  -6   30.32    5.07
   1  -1  -6   32.47    4.74
   1   1   6   33.04    4.24
   1  -1   6   35.97    2.67
   1  -1  -6   32.93    1.94
   1   1  -6   32.38   16.97
   1  -1  -6   38.81    2.67
   1  -1  -6   33.88    3.93
   1  -1   6   32.26    3.56
   1  -1  -6   36.11    3.17
   1  -1  -6   40.98    5.49
   1  -1   6   22.68    6.47
   1  -1  -6   17.90    5.49
   1   1   6   23.60    5.99
   1  -1   6   34.07    5.68
   2  -1  -6 1336.08   37.24
   2   1   6 1400.23   42.29
   2  -1  -6 1358.17   39.33
   2   1  -6 1320.31   35.31
   2   1  -6 1105.11   82.19
   2  -1   6 1369.46   37.80
   2  -1  -6 1568.27   37.87
   2  -1   6 1439.16   42.65
   2  -1   6 1249.15   50.75
   2   1   6 1426.56   35.78
   2  -1  -6 1534.34   46.64
   2   1  -6 1365.65   52.86
   2  -1  -6 1486.35   42.16
   2  -1  -6 1410.07   52.06
   2   1   6 1686.66   52.18
   3   1   6   91.71    8.22
   3   1  -6   85.26    4.32
   3  -1  -6   91.23    6.82
   3   1  -6  101.33   24.69
   3  -1  -6   90.50    6.43
   3  -1   6   85.63    6.52
   3  -1   6   47.93    7.47
   3  -1  -6   96.42    9.61
   3   1   6   59.56    8.90
   3  -1  -6   93.04    7.83
   3  -1  -6   43.12    9.03
   3   1  -6   77.54    4.86
   3   1   6   77.68    5.09
   4   1  -6  993.18   71.25
   4   1  -6  940.34   26.19
   4  -1  -6  993.82   31.37
   4   1  -6  910.37   28.10
   4   1   6  956.72   28.99
   4  -1  -6 1080.91   31.41
   4  -1   6  929.50   31.21
   4  -1   6  844.46   30.20
   4   1   6  821.25   30.13
   4   1   6 1150.58   42.13
   4  -1  -6  955.76   32.76
   4  -1  -6  887.12   43.11
   4   1  -6  942.76   47.17
   4   1  -6  964.10   37.48
   5  -1  -6   40.04    5.43
   5   1  -6   40.18    4.21
   5   1  -6   32.12   14.80
   5   1  -6   37.36    4.69
   5   1   6   31.45    4.72
   5   1  -6   42.23    6.23
   5  -1  -6   36.62    5.30
   5  -1   6   38.55    5.57
   5  -1  -6   38.73    5.95
   5   1  -6   19.23    7.52
   5   1  -6   36.08    4.55
   5   1   6   38.67    4.90
   5  -1  -6   17.23    7.74
   5   1  -6   37.69   11.13
   5   1  -6   37.85    7.49
   6   1  -6  769.39   27.68
   6   1  -6  920.42   56.68
   6   1   6  720.80   28.19
   6  -1  -6  840.58   30.69
   6   1  -6  771.45   25.97
   6   1  -6  796.91   31.40
   6  -1  -6  651.73   53.22
   6  -1  -6  840.77   29.78
   6  -1   6  758.31   29.60
   6   1  -6  643.82   39.31
   6  -1  -6  744.89   30.31
   6   1  -6  790.26   27.43
   6   1   6  762.28   28.11
   6  -1  -6  707.87   47.53
   6   1  -6  721.11   48.40
   6   1  -6  763.68   36.01
   7   1  -6    1.74    4.75
   7  -1  -6    4.10    3.93
   7  -1   6    5.30    4.13
   7  -1  -6    2.18    9.69
   7  -1   6    8.25   12.21
   7  -1  -6    5.18    4.06
   7   1  -6    5.90    3.41
   7   1  -6    2.25    3.17
   7   1   6    6.33    4.05
   7  -1  -6    1.00    7.38
   7   1  -6    1.02    7.55
   7  -1  -6    5.35    3.89
   7  -1   6    5.85    3.88
   7   1  -6    5.51    3.39
   7   1   6    5.47    3.62
   8   1   6  478.53   24.43
   8  -1  -6  520.88   41.40
   8   1  -6  542.63   23.54
   8   1  -6  537.68   24.58
   8  -1  -6  460.55   42.96
   8   1  -6  454.67   43.70
   8  -1  -6  563.02   25.78
   8  -1   6  526.23   25.96
   9  -1   6   -2.06    9.53
   9   1   6    4.46   16.04
   9   1  -6   10.39    5.00
   9  -1  -6    6.10    5.49
   9  -1   6    5.15    5.19
   9   1  -6    9.09    5.44
   9   1   6    5.03    5.07
   9  -1  -6    7.65   10.44
   9   1  -6   13.15   11.47
  10   1  -6  204.15   16.10
  10   1   6  179.90   15.92
  10  -1  -6  209.27   16.72
  10  -1   6  190.54   16.23
 -10  -2  -6  221.97   17.17
 -10  -2   6  199.59   18.32
 -10  -2  -6  189.77   13.36
 -10   2  -6  208.16   25.25
  -9   2  -6    7.01    8.20
  -9   2  -6   15.50    8.87
  -9   2   6    8.02    7.77
  -9  -2  -6   14.24   11.53
  -9  -2   6   17.63    6.75
  -9  -2  -6   11.48    5.50
  -9  -2   6   14.88    6.58
  -8   2  -6  227.40   28.26
  -8  -2   6  341.93   21.54
  -8  -2  -6  235.51   32.49
  -8  -2  -6  347.12   19.74
  -8  -2   6  343.98   21.52
  -8  -2  -6  286.95   15.62
  -8  -2   6  338.08   22.35
  -8   2  -6  308.73   27.80
  -8   2   6  223.51   25.69
  -7   2  -6   24.91   10.09
  -7  -2   6   44.59    8.10
  -7   2  -6   30.22    9.61
  -7   2   6   23.07    9.48
  -7  -2  -6   30.03   13.83
  -7  -2  -6   41.38    6.85
  -7  -2   6   36.88    7.09
  -7  -2  -6   41.25    8.72
  -7  -2  -6   38.88    5.55
  -7   2  -6   29.64    8.75
  -7   2   6   16.17    7.43
  -7  -2   6   41.34    8.06
  -7  -2   6   31.60    8.66
  -7  -2   6   13.93    8.14
  -7  -2  -6   49.72    5.53
  -6  -2  -6  499.31   19.35
  -6  -2   6  605.18   27.83
  -6  -2  -6  394.57   42.10
  -6   2  -6  233.01   27.52
  -6  -2   6  612.81   55.39
  -6  -2  -6  537.06   22.69
  -6  -2   6  537.99   24.70
  -6  -2  -6  572.86   22.52
  -6  -2  -6  486.30   26.24
  -6  -2   6  487.14   28.35
  -6  -2   6  467.90   25.12
  -6   2  -6  492.44   30.09
  -6   2  -6  487.33   29.49
  -6   2   6  444.56   29.47
  -6  -2   6  605.65   31.55
  -6   2  -6  468.30   30.81
  -6   2   6  457.32   31.37
  -5  -2  -6   26.16    3.96
  -5  -2   6   22.97    6.10
  -5   2   6   24.70    7.11
  -5   2  -6   21.08   14.40
  -5   2  -6    9.83    6.73
  -5  -2   6   24.75   13.01
  -5  -2  -6   27.18    4.51
  -5  -2   6   23.96    4.96
  -5   2  -6   23.14    7.08
  -5   2   6   20.49    4.88
  -5  -2  -6   27.78    4.41
  -5   2  -6   22.59    6.76
  -5   2   6   14.94    5.81
  -5  -2   6   23.50    5.48
  -5   2  -6   19.15    6.33
  -5  -2   6   11.55    5.97
  -5   2   6    8.25    4.00
  -4   2  -6  996.19   76.06
  -4  -2   6 1351.78   68.21
  -4   2   6 1052.93   38.63
  -4  -2   6 1222.01   37.62
  -4  -2  -6 1190.59   35.94
  -4  -2   6 1144.81   39.90
  -4  -2   6 1202.18   50.92
  -4   2   6 1070.79   51.83
  -4  -2   6 1381.55   45.51
  -4   2  -6 1220.47   45.72
  -4   2   6 1203.60   36.46
  -4   2  -6 1197.37   45.48
  -4   2   6 1115.23   44.20
  -3  -2   6   30.49    6.40
  -3   2   6   25.57    5.32
  -3   2   6   28.69    4.69
  -3  -2   6   29.41    5.46
  -3  -2   6   30.14    4.07
  -3  -2  -6   30.46    3.66
  -3  -2   6   36.63    5.12
  -3  -2   6   20.81    6.91
  -3   2   6   22.64    7.63
  -3   2   6   20.48    4.25
  -3   2  -6   23.59    5.67
  -3   2  -6   37.41    6.58
  -3   2   6   13.56    3.44
  -3   2  -6   27.44   15.43
  -2  -2   6 1876.73   57.60
  -2   2  -6 1340.21   56.00
  -2   2  -6 1342.90   92.23
  -2  -2   6 1347.58   88.26
  -2   2   6 1419.40   45.74
  -2  -2   6 1472.19   48.50
  -2   2  -6 1603.87   52.43
  -2  -2   6 1561.31   42.55
  -2  -2  -6 1517.39   41.36
  -2  -2   6 1501.75   44.11
  -2  -2   6 1572.81   59.74
  -2  -2   6 1537.21   61.24
  -2   2   6 1515.75   38.53
  -2  -2  -6 1867.81   50.01
  -2  -2   6 1368.22   45.67
  -2  -2  -6 2116.34   42.24
  -2   2   6 1449.94   47.38
  -2   2  -6 1748.28   50.49
  -2  -2   6 1577.31   42.07
  -2  -2  -6 1525.27   40.89
  -1   2  -6  110.02   11.85
  -1  -2   6  120.67    6.16
  -1  -2   6  150.07   14.73
  -1  -2   6  117.68   26.36
  -1   2   6  126.94    8.90
  -1   2  -6  121.10   10.52
  -1  -2  -6  115.62    5.69
  -1  -2   6  106.90    9.43
  -1  -2   6   67.20   14.29
  -1  -2   6  130.15    9.34
  -1  -2   6   65.00   11.11
  -1  -2   6  123.96    6.43
  -1  -2  -6  118.25    5.89
  -1  -2   6  111.02   12.93
  -1  -2   6  100.00    9.30
  -1  -2  -6  123.73    8.68
  -1  -2   6   94.03    7.46
   0  -2  -6 1177.46   37.14
   0   2  -6 1201.26   44.59
   0  -2   6 1216.82   30.98
   0   2   6 1251.75   38.66
   0  -2   6 1363.58   92.51
   0  -2   6 1214.25   57.94
   0  -2   6 1290.35   36.84
   0  -2   6 1322.09   52.94
   0  -2  -6 1171.16   42.63
   0  -2   6 1268.36   32.83
   0  -2  -6 1169.12   32.06
   0  -2   6 1304.16   47.91
   0  -2   6 1239.81   41.50
   0  -2   6 1229.69   37.98
   0  -2  -6 1448.26   39.68
   0  -2   6 1232.90   37.80
   0  -2  -6 1445.75   39.60
   1  -2   6   98.34    8.92
   1   2  -6  141.11    8.65
   1  -2   6  117.85    9.50
   1  -2  -6  129.51    9.86
   1  -2  -6  144.46   10.53
   1  -2   6  177.47   35.07
   1  -2  -6  134.19    8.78
   1   2   6  118.10    8.82
   1   2  -6  116.50   26.22
   1  -2  -6  144.14   11.08
   1  -2   6  118.62    5.81
   1  -2   6   89.06   14.09
   1  -2   6  127.77    6.30
   1  -2  -6  123.09    6.03
   1  -2  -6   75.79   10.00
   1  -2   6   99.72   10.16
   2   2  -6 1730.80   50.43
   2  -2   6 1665.36   54.44
   2  -2  -6 2018.18   56.62
   2  -2  -6 1596.12   41.44
   2   2   6 1570.86   49.31
   2  -2  -6 1636.33   47.79
   2  -2  -6 1987.01   55.97
   2   2  -6 1606.58   97.67
   2   2  -6 1761.93   46.00
   2  -2  -6 1819.47   54.59
   2  -2   6 1414.26   59.94
   2  -2  -6 1609.64   58.60
   2   2   6 1810.29   54.77
   2  -2   6 1764.42   59.12
   2  -2   6 1577.46   53.72
   3   2  -6   41.95    6.29
   3   2   6   38.84    5.87
   3   2  -6   34.65   16.14
   3  -2  -6   40.13    5.31
   3  -2   6   32.96    6.81
   3  -2  -6   41.23    7.23
   3  -2   6   39.17    5.18
   3  -2  -6   44.71    5.56
   3   2  -6   31.88    3.65
   3   2   6   32.49    3.84
   3   2  -6   56.30    6.61
   3  -2  -6   41.57    6.86
   3  -2   6   50.05   22.29
   3  -2   6   22.28    6.44
   3   2   6   16.59    6.45
   3  -2  -6   38.51    5.42
   3   2   6   17.54    4.80
   3  -2  -6   15.13    6.77
   4   2  -6 1426.06   47.91
   4   2   6 1366.15   45.41
   4   2  -6 1642.42   88.11
   4  -2  -6 1438.22   43.53
   4  -2   6 1857.57  112.56
   4  -2   6 1278.22   42.84
   4  -2  -6 1600.52   44.67
   4  -2   6 1335.02   52.00
   4  -2  -6 1588.01   53.66
   4   2  -6 1863.30   48.38
   4  -2  -6 1388.59   48.03
   4   2   6 1038.93   45.16
   4  -2   6 1140.07   45.40
   4   2  -6 1236.97   53.91
   4  -2  -6 1320.21   42.79
   4   2   6 1511.93   45.63
   4  -2  -6 1239.30   55.12
   4   2  -6 1323.91   57.08
   4   2  -6 1214.63   37.60
   4   2   6 1242.40   38.66
   5   2  -6   30.75    6.87
   5   2   6   34.41    6.73
   5   2  -6   27.85    2.56
   5  -2  -6   31.11    5.76
   5  -2   6   34.29   20.23
   5  -2   6   34.74    6.03
   5  -2  -6   28.81    5.81
   5   2  -6   38.19    7.18
   5   2   6   18.56    4.33
   5  -2  -6   26.07    5.04
   5   2  -6   26.66    4.07
   5   2   6   30.16    4.69
   5   2  -6   11.53    7.05
   5   2   6   18.95    5.17
   5  -2   6   30.07    8.26
   5   2  -6   25.63    9.22
   5  -2  -6    5.37    6.19
   5  -2  -6   31.74    8.08
   6   2  -6  618.67   32.21
   6   2   6  720.36   32.01
   6  -2  -6  643.75   27.91
   6   2  -6  628.04   20.74
   6  -2   6  669.73   28.54
   6  -2  -6  739.41   29.11
   6   2  -6  852.29   33.77
   6  -2   6  657.27   36.57
   6  -2  -6  744.12   36.88
   6   2  -6  606.94   24.20
   6   2   6  603.25   25.19
   6   2   6  732.67   29.25
   6   2  -6  616.15   43.95
   7   2  -6   60.51   10.50
   7   2  -6   52.84    5.71
   7  -2   6   32.23   15.95
   7  -2  -6   67.28    8.92
   7  -2   6   53.64    8.12
   7   2  -6   43.13    6.52
   7   2   6   49.99    7.14
   7  -2  -6   49.83   14.62
   7   2  -6   39.99   13.89
   8   2  -6  466.52   29.02
   8   2  -6  425.05   18.63
   8  -2   6  177.76   34.76
   8   2   6  168.34   37.09
   8   2  -6  417.73   20.97
   8   2   6  402.71   21.60
   8  -2  -6  358.22   37.28
   8   2  -6  361.34   38.30
   9   2  -6   20.60    8.20
   9   2  -6   14.39    5.62
   9   2   6   19.74    6.35
   9  -2   6    7.72   11.68
   9   2   6   21.09   16.86
   9  -2  -6   23.11   13.09
   9   2  -6   20.70   13.36
  10   2  -6  262.42   18.22
  10   2   6  237.14   18.29
  10  -2  -6  305.90   20.44
  10  -2   6  251.47   19.02
 -10  -3  -6  110.50   12.27
  -9   3  -6    7.67    8.01
  -9   3  -6   13.08    8.90
  -9   3   6    5.18    6.90
  -9  -3  -6   12.97    4.54
  -9  -3   6   14.42    6.47
  -9  -3  -6   11.48    5.50
  -9  -3   6   16.26    6.12
  -8  -3  -6  211.88   15.24
  -8  -3   6  259.07   17.97
  -8  -3  -6  203.75   13.49
  -8   3  -6  104.94   18.12
  -8  -3   6  233.23   18.58
  -8  -3  -6  164.25   27.59
  -8   3  -6  187.25   21.64
  -8   3   6  176.97   22.29
  -7  -3  -6    4.27    3.09
  -7   3  -6    6.26    6.18
  -7   3   6    2.03    5.66
  -7   3  -6    1.52    5.15
  -7  -3  -6    7.49    3.86
  -7  -3   6    9.15    4.91
  -7  -3  -6    5.34    3.99
  -7  -3   6    4.90    4.27
  -7   3   6    1.13    4.63
  -6  -3  -6  370.09   17.06
  -6  -3   6  447.49   25.15
  -6  -3   6  542.65   58.88
  -6  -3   6  471.48   21.60
  -6  -3  -6  386.95   18.39
  -6  -3  -6  392.40   18.96
  -6   3  -6  150.91   20.54
  -6  -3   6  383.24   21.82
  -6   3   6  246.77   20.91
  -6   3  -6  322.62   25.82
  -6   3   6  379.42   28.20
  -5  -3  -6   39.20    5.27
  -5   3  -6    8.97    6.16
  -5   3   6   22.06    7.51
  -5   3  -6   36.89    8.99
  -5  -3   6   40.85    8.25
  -5  -3   6   33.61   18.09
  -5   3   6   29.91    6.07
  -5  -3   6   41.93    5.93
  -5  -3  -6   41.96    5.38
  -5  -3   6   33.53    6.12
  -5  -3   6   17.94    8.08
  -5   3   6   20.08    5.76
  -5  -3   6   23.14   13.11
  -4   3  -6  404.18   30.91
  -4  -3   6  754.29   32.81
  -4  -3   6  579.29   54.32
  -4  -3   6  761.49   56.27
  -4   3   6  619.19   26.87
  -4  -3   6  634.75   29.46
  -4  -3   6  682.83   52.73
  -4  -3   6  664.14   24.55
  -4  -3  -6  633.31   22.90
  -4  -3   6  599.12   26.05
  -4  -3   6  624.21   34.77
  -4   3   6  601.90   36.50
  -4   3  -6  646.40   32.21
  -4   3   6  606.95   25.51
  -4  -3   6  681.52   23.91
  -4  -3  -6  619.09   22.07
  -4   3   6  609.82   32.12
  -4   3  -6  722.80   34.31
  -4  -3   6  682.89   32.41
  -4   3   6  724.37   23.05
  -3  -3   6  102.28   11.81
  -3  -3   6   51.43   20.54
  -3  -3   6   88.43   18.00
  -3   3   6   85.87    8.42
  -3  -3   6   75.27    9.11
  -3   3  -6   87.53   11.39
  -3  -3   6   60.95   17.18
  -3  -3   6  100.43    7.45
  -3  -3  -6   87.91    6.58
  -3  -3   6   50.95   10.58
  -3  -3   6  100.02    8.37
  -3   3   6   79.72   12.48
  -3   3  -6   82.59   10.33
  -3  -3  -6  110.55   11.25
  -3   3   6   73.71    6.01
  -3  -3   6   75.35    9.00
  -3   3   6   75.00    9.86
  -3   3  -6   93.11   11.01
  -3  -3   6   51.54    9.04
  -3   3   6   34.94    4.46
  -3  -3   6   87.48    6.72
  -3  -3  -6   97.03    6.58
  -2  -3   6  932.18   28.61
  -2  -3   6 1059.60   41.40
  -2  -3   6  713.93   69.02
  -2  -3   6 1041.83   52.12
  -2   3   6  857.71   32.26
  -2   3  -6  885.52   38.29
  -2  -3   6  874.76   34.85
  -2  -3  -6 1020.10   26.02
  -2  -3   6  927.97   57.17
  -2  -3   6  898.55   43.47
  -2  -3   6  852.77   29.23
  -2  -3   6  951.33   29.32
  -2  -3  -6  877.99   27.80
  -2   3   6  862.23   41.88
  -2  -3  -6 1004.97   25.88
  -2   3   6  848.44   35.60
  -2   3  -6  974.49   38.16
  -2  -3  -6 1060.12   37.32
  -2  -3   6  813.58   33.17
  -2  -3  -6  851.37   27.17
  -2  -3   6 1015.42   39.86
  -1  -3   6   20.03    4.60
  -1   3  -6   13.43    5.35
  -1  -3  -6   17.36    4.73
  -1  -3   6   23.43    6.99
  -1   3   6   27.02    5.02
  -1  -3   6    7.99   13.50
  -1   3  -6   15.12    5.03
  -1  -3   6   22.63    3.21
  -1  -3   6   21.48    5.21
  -1  -3  -6   14.91    2.61
  -1  -3   6   19.47    9.69
  -1  -3   6   21.37    2.88
  -1  -3  -6   10.59    3.75
  -1  -3   6   11.65    6.38
  -1   3   6   14.70    6.00
  -1  -3   6   15.83    6.47
  -1  -3   6   19.97    5.24
   0   3  -6  840.88   37.32
   0   3   6  967.59   32.25
   0  -3  -6  879.12   30.49
   0  -3   6  940.40   51.82
   0  -3   6  964.97   45.95
   0  -3  -6  894.20   34.41
   0  -3   6  847.87   22.29
   0  -3   6 1002.92   39.49
   0  -3   6  945.38   26.91
   0  -3   6  903.37   35.23
   0  -3  -6  843.94   25.73
   0  -3   6  889.13   32.29
   0  -3  -6 1013.92   34.55
   1  -3   6   20.35    8.10
   1  -3   6   17.21    4.89
   1  -3   6   37.30   21.66
   1  -3   6   21.99    2.95
   1  -3  -6   14.10    3.82
   1   3   6   24.46    4.70
   1  -3  -6   16.35    5.15
   1  -3   6   21.91    3.38
   1  -3   6   18.32    4.60
   1  -3  -6   14.07    4.65
   1  -3  -6   16.70    2.93
   1  -3   6   17.94    8.61
   1  -3  -6    7.22    4.53
   1  -3   6   19.35    5.37
   1  -3   6   18.20    5.39
   2  -3   6  884.70   36.71
   2  -3   6  938.32   37.32
   2  -3  -6 1093.00   39.85
   2  -3  -6 1109.08   40.20
   2  -3  -6  892.75   31.36
   2   3   6  906.84   32.81
   2  -3   6  809.64   29.60
   2  -3  -6  998.17   36.81
   2  -3   6  885.46   45.82
   2   3   6  674.84   44.36
   2  -3  -6  862.27   39.30
   2  -3   6  970.28   40.00
   3   3  -6  111.61   10.12
   3  -3   6  102.52   11.91
   3  -3  -6  126.30   13.41
   3   3  -6   95.34    7.14
   3  -3   6   96.25   11.88
   3  -3  -6  127.75   13.48
   3   3   6  111.19    9.83
   3  -3  -6  112.04    9.38
   3  -3   6  105.67   31.45
   3  -3  -6  106.26   10.84
   3  -3   6   57.66   11.36
   3   3   6   60.49   11.86
   3  -3  -6   51.25   10.39
   3  -3   6   75.30   12.11
   4   3  -6  731.31   31.60
   4  -3   6  745.29   37.28
   4  -3  -6  940.88   40.67
   4   3   6  770.37   30.96
   4  -3  -6  777.77   29.58
   4  -3   6 1126.04   92.54
   4  -3   6  725.76   36.60
   4  -3  -6  865.91   39.16
   4   3  -6  681.42   24.75
   4   3   6  598.21   35.11
   4   3   6  719.04   26.06
   4  -3   6  640.87   34.65
   4  -3  -6  704.04   27.89
   4  -3  -6  650.50   38.40
   4   3  -6  675.91   37.23
   5   3  -6   45.27    8.05
   5   3  -6   42.30    5.57
   5   3   6   49.82    7.95
   5   3   6   43.47    5.96
   5  -3  -6   53.48    7.68
   5  -3   6   50.21   25.28
   5  -3   6   49.26   10.00
   5  -3  -6   61.57   11.15
   5  -3   6   37.07    6.49
   5  -3  -6   55.07    7.76
   5  -3   6   14.81    9.98
   5   3   6   19.30    6.68
   5   3  -6   40.52   10.68
   6   3  -6  496.28   27.65
   6   3   6  561.45   27.41
   6   3  -6  422.87   12.19
   6   3  -6  440.12   12.51
   6  -3   6  505.06   24.08
   6  -3  -6  541.77   24.99
   6  -3   6  479.96   31.77
   6  -3  -6  554.53   33.57
   6   3   6  344.81   20.80
   6  -3  -6  450.16   25.66
   6   3  -6  455.70   36.02
   6   3  -6  452.60   19.95
   6   3   6  474.00   21.30
   7   3  -6    5.07    5.63
   7  -3   6    7.75   10.81
   7   3  -6    5.61    2.11
   7   3   6   12.53    6.52
   7   3  -6    6.72    2.47
   7   3  -6    6.56    3.91
   7   3   6    5.85    4.07
   7  -3   6   10.54    8.16
   7  -3  -6   10.89    7.97
   7   3  -6   10.55    8.85
   8   3  -6  290.59   23.02
   8  -3   6  174.79   32.22
   8  -3   6  303.37   26.51
   8  -3  -6  334.92   27.36
   8   3  -6  187.43   28.22
   8   3  -6  257.06   16.32
   8   3   6  271.70   17.56
   9   3   6   18.39    6.40
   9   3  -6   15.11    8.00
   9  -3   6    9.59   11.50
   9   3  -6    5.00   11.13
   9   3  -6   19.14    6.29
  -9   4  -6   17.25    9.51
  -9   4   6   18.06   10.57
  -9  -4  -6   19.91    6.33
  -9  -4   6   18.66    7.16
  -8   4  -6   64.17   14.18
  -8  -4  -6  163.13   13.22
  -8  -4   6  167.04   14.42
  -8  -4  -6  143.21   11.92
  -8  -4   6  154.59   14.93
  -8   4   6   97.88   17.89
  -8   4  -6  119.62   18.90
  -7   4  -6   18.84    8.25
  -7   4   6   29.06   10.92
  -7   4  -6   43.01   11.84
  -7  -4  -6   70.34    9.96
  -7  -4   6   54.99    8.01
  -7  -4  -6   49.88    7.17
  -7  -4   6   47.91    8.44
  -7  -4   6   22.47   10.67
  -6  -4  -6  203.48   13.58
  -6  -4   6  213.99   14.24
  -6  -4  -6  205.30   12.98
  -6  -4   6  177.86   14.76
  -6   4   6  161.97   14.70
  -6   4   6  198.31   21.25
  -6   4  -6  216.31   21.95
  -6  -4   6  249.57   23.31
  -5   4  -6   29.10    9.09
  -5   4   6   32.59    9.30
  -5   4  -6   40.33   10.00
  -5  -4   6   39.25    8.37
  -5  -4   6   23.60   15.31
  -5  -4   6   40.66   21.65
  -5   4   6   40.06    7.22
  -5   4  -6   34.03    9.86
  -5  -4   6   47.56    6.57
  -5  -4  -6   55.92    6.56
  -5  -4   6   52.97    7.93
  -5  -4   6   21.92    8.50
  -5  -4  -6   60.39   11.03
  -5   4   6   29.84    6.24
  -5  -4   6   44.25    5.99
  -5  -4  -6   49.48    5.77
  -5  -4   6   17.15    8.74
  -4   4  -6  220.81   21.42
  -4  -4   6  206.89   37.84
  -4  -4   6  325.02   42.74
  -4   4   6  263.21   17.26
  -4   4  -6  320.35   24.24
  -4  -4   6  305.68   15.85
  -4  -4  -6  314.75   15.07
  -4  -4   6  294.28   23.47
  -4  -4   6  234.48   15.61
  -4   4   6  259.07   23.61
  -4   4   6  291.26   15.65
  -4  -4  -6  421.80   25.36
  -4  -4   6  271.26   19.87
  -4   4   6  283.09   22.68
  -4   4  -6  323.69   24.36
  -4  -4   6  322.37   22.73
  -4  -4   6  312.24   15.12
  -4  -4  -6  316.65   14.29
  -3  -4   6   55.55    6.02
  -3  -4  -6   62.36    5.93
  -3   4  -6   45.64    9.87
  -3  -4   6   32.91   20.64
  -3   4   6   53.61    7.47
  -3  -4   6   48.24   16.76
  -3  -4  -6   62.88    6.18
  -3   4  -6   57.70   10.58
  -3  -4   6   57.47    6.39
  -3  -4  -6   60.66    6.05
  -3  -4   6   48.63    6.31
  -3  -4   6   22.11    8.14
  -3   4   6   35.83    9.31
  -3   4   6   51.56    9.80
  -3   4  -6   49.28    9.62
  -3  -4  -6   55.49    9.50
  -3  -4   6   39.71    7.91
  -3  -4   6   31.71    8.38
  -3   4   6   48.62    5.55
  -2   4  -6  399.11   27.20
  -2  -4   6  511.76   28.33
  -2  -4   6  432.84   58.25
  -2  -4   6  429.95   17.76
  -2  -4  -6  472.03   17.58
  -2   4   6  419.85   21.35
  -2  -4   6  431.93   38.26
  -2   4  -6  484.77   27.83
  -2  -4   6  420.10   23.61
  -2  -4   6  439.16   40.42
  -2  -4   6  402.76   28.63
  -2  -4   6  375.18   17.81
  -2   4   6  387.12   27.01
  -2  -4   6  416.70   18.11
  -2  -4  -6  478.85   18.22
  -2  -4   6  404.79   24.11
  -2   4   6  395.58   24.55
  -2   4  -6  495.62   27.92
  -2  -4  -6  560.91   17.94
  -2  -4  -6  561.10   27.23
  -2  -4   6  414.44   22.89
  -2   4   6  427.83   14.03
  -2  -4   6  464.91   26.84
  -1  -4   6  124.49   14.13
  -1  -4   6  140.63   37.26
  -1   4   6  111.76   10.02
  -1  -4   6  101.66   16.39
  -1   4  -6   94.96   12.11
  -1  -4   6   83.22   17.77
  -1  -4   6  112.70    7.81
  -1  -4  -6  114.10    7.45
  -1  -4  -6   73.96    7.52
  -1  -4   6   71.85   13.07
  -1  -4   6  105.64    7.21
  -1   4   6   91.45   12.82
  -1  -4   6   90.28   10.89
  -1  -4  -6  112.43    7.44
  -1  -4   6   65.40   10.71
  -1  -4  -6  140.79   12.88
  -1  -4   6   92.31   10.15
   0  -4  -6  509.53   21.44
   0  -4   6  536.00   30.45
   0  -4   6  705.20   76.95
   0   4   6  429.75   21.21
   0  -4   6  476.96   28.36
   0  -4   6  419.90   35.81
   0   4   6  227.91   30.62
   0  -4   6  453.47   32.07
   0  -4  -6  476.62   22.75
   0  -4   6  417.94   14.57
   0  -4   6  421.77   24.06
   0  -4   6  433.68   17.36
   0  -4  -6  487.09   17.47
   0  -4   6  417.15   22.19
   0  -4  -6  547.03   25.64
   1  -4  -6  130.11   10.33
   1  -4   6  146.23   17.48
   1   4   6  118.83   10.32
   1  -4   6  124.32    6.43
   1  -4   6  172.75   41.42
   1  -4   6  126.12    8.61
   1  -4  -6  135.10    8.61
   1  -4   6   78.45   15.92
   1   4   6   68.39   16.25
   1  -4  -6   68.29    9.84
   1  -4   6   97.78   12.03
   1  -4   6   91.90   10.87
   1  -4  -6  128.52   13.02
   1  -4   6  107.20   11.31
   1  -4  -6  142.29   13.37
   2  -4   6  430.17   18.81
   2  -4  -6  518.48   19.76
   2   4   6  425.17   21.67
   2  -4  -6  471.67   15.01
   2  -4   6  428.75   17.57
   2  -4  -6  531.44   26.02
   2  -4   6  427.90   32.99
   2   4   6  340.01   32.75
   2  -4  -6  482.72   27.86
   2  -4   6  421.53   20.47
   2  -4   6  427.09   26.63
   2  -4   6  411.04   24.78
   2  -4  -6  578.86   29.53
   2  -4   6  383.10   23.70
   2  -4  -6  576.37   29.07
   3  -4   6   55.66    9.94
   3  -4  -6   71.63   11.54
   3  -4   6   44.54    8.98
   3  -4  -6   79.73   11.84
   3   4   6   62.42    8.09
   3  -4   6   52.79    6.34
   3  -4   6   19.83    8.57
   3  -4   6   46.52    3.29
   3   4   6   30.94   10.68
   3  -4   6   33.09   10.17
   3  -4   6   54.38    6.77
   3  -4  -6   32.05    9.72
   3  -4   6   54.35   11.01
   4  -4   6  304.60   23.24
   4  -4  -6  437.71   27.91
   4  -4   6  316.12   23.70
   4  -4  -6  433.28   28.18
   4   4   6  354.71   19.92
   4  -4   6  149.91   21.85
   4  -4   6  236.86   16.00
   4   4   6  283.06   25.94
   4  -4   6  307.74   25.26
   4  -4  -6  332.04   27.01
   4   4  -6  360.35   24.07
   5  -4  -6   67.36   12.77
   5  -4   6   53.71   11.36
   5  -4  -6   53.20   12.15
   5  -4   6   45.88   10.62
   5  -4   6   24.75   12.38
   5  -4   6   37.97    6.98
   5   4   6   30.44    9.25
   5   4  -6   52.49    6.68
   5   4   6   60.31    7.62
   5   4  -6   44.56   11.12
   6  -4   6  130.02   23.02
   6  -4   6  251.25   23.65
   6  -4  -6  301.92   25.75
   6   4  -6  256.44   15.21
   6   4   6  257.26   16.13
   6   4   6  156.70   17.27
   6  -4  -6  237.09   18.20
   6   4  -6  250.68   25.92
   7   4  -6   61.30    8.25
   7   4   6   71.99    9.43
   7  -4   6   14.69   10.87
   7   4   6   33.42   19.85
   7  -4  -6   76.59   14.34
   7  -4  -6   56.89    9.76
   7  -4   6   50.22   12.03
   7   4  -6   47.46   14.54
   8   4  -6  193.39   14.76
   8   4   6  190.31   15.37
   8   4   6  227.05   19.07
   8   4   6   95.18   31.00
   8  -4   6  169.96   21.07
   8  -4  -6  235.50   24.54
   8   4  -6  141.59   23.86
   9   4  -6   24.29    6.83
   9   4   6   30.51    7.47
   9   4  -6   23.58   13.18
   9  -4   6   17.16   10.30
   9  -4  -6   30.48   12.42
  -8   5   6   52.30   14.41
  -8   5  -6   55.74   14.65
  -8  -5  -6   66.49    8.94
  -8  -5   6   58.89    9.89
  -7   5   6   15.49    9.87
  -7   5  -6   24.98   10.65
  -7  -5  -6   36.62    7.45
  -7  -5   6   24.00    6.99
  -7   5  -6    4.98    5.58
  -7  -5   6   27.74    6.47
  -7  -5  -6   25.17    5.79
  -6   5  -6   57.99   12.78
  -6   5  -6   90.44   15.57
  -6  -5  -6  115.73   10.96
  -6  -5   6  144.05   12.09
  -6  -5  -6  117.00   10.33
  -6  -5   6  117.97   12.24
  -6  -5   6  129.68   16.70
  -6   5   6  118.00   18.13
  -6   5  -6  113.85   17.49
  -6  -5   6  151.54   20.15
  -5   5   6   44.73   11.95
  -5   5  -6   56.09   12.54
  -5   5  -6   39.36   10.56
  -5   5   6   54.81    8.75
  -5  -5  -6   79.14    9.38
  -5   5   6   46.86    8.01
  -5   5  -6   55.72   11.91
  -5  -5   6   62.91    7.95
  -5  -5  -6   66.85    7.72
  -5  -5   6   55.00    8.16
  -5  -5   6   32.26   10.02
  -5  -5   6   37.01   12.00
  -4   5  -6  186.22   20.56
  -4   5   6  223.11   16.60
  -4   5   6  255.01   15.53
  -4   5  -6  222.30   21.69
  -4  -5   6  252.60   15.21
  -4  -5  -6  257.04   14.52
  -4  -5   6  251.49   22.44
  -4  -5   6  184.72   14.16
  -4   5   6  250.47   23.42
  -4   5  -6  281.97   24.86
  -4  -5  -6  317.39   16.43
  -4  -5   6  281.77   23.18
  -3   5  -6  128.41   16.35
  -3  -5  -6  139.51    9.63
  -3   5   6  128.42   11.98
  -3  -5   6   68.49   19.20
  -3   5  -6  133.82   16.19
  -3  -5  -6  154.12   10.89
  -3  -5   6   68.26   13.44
  -3  -5   6  145.32   10.95
  -3  -5  -6  153.67   10.68
  -3  -5   6  112.45   13.60
  -3  -5  -6  146.60   10.59
  -3   5   6  113.39   15.09
  -3   5  -6  147.34   17.63
  -3  -5  -6  152.21   16.26
  -3  -5   6  109.97   13.47
  -3  -5   6   60.38   11.79
  -2   5   6  280.13   17.72
  -2  -5   6  134.67   22.26
  -2  -5   6  306.90   15.09
  -2  -5  -6  310.72   14.58
  -2   5  -6  268.24   22.21
  -2   5   6  122.94   27.01
  -2  -5   6  254.76   23.32
  -2   5   6  238.97   21.53
  -2   5   6  242.98   21.09
  -2   5  -6  299.94   23.51
  -2  -5   6  277.95   20.71
  -2  -5  -6  381.34   16.44
  -2  -5  -6  354.56   23.24
  -2  -5   6  257.99   19.16
  -2  -5   6  317.07   22.84
  -1   5   6  115.29   10.97
  -1  -5   6   36.75    9.43
  -1  -5   6  112.28    8.46
  -1  -5  -6   61.63    6.80
  -1  -5  -6  107.43    7.95
  -1  -5   6   63.43   13.01
  -1   5   6   40.19   16.29
  -1   5   6   82.80   12.73
  -1  -5   6   88.28   11.54
  -1  -5  -6  120.62    9.68
  -1  -5   6   66.44   11.27
  -1  -5  -6  119.83   13.33
  -1  -5   6   77.74   10.52
  -1   5   6   43.37    3.77
  -1  -5   6   84.03    9.42
   0   5   6  242.93   16.18
   0   5   6  147.58   26.09
   0  -5   6  253.09   25.00
   0  -5  -6  251.02   15.83
   0  -5   6  246.82   13.03
   0  -5   6  246.51   19.27
   0  -5  -6  244.48   12.58
   0  -5   6  273.60   20.84
   0  -5   6  225.70   17.22
   0  -5  -6  283.23   20.02
   0   5   6  271.59   14.09
   0  -5   6  168.12   13.21
   1  -5   6  120.99    9.34
   1  -5   6  121.57    6.38
   1  -5  -6  129.67    9.37
   1   5   6  115.80   11.12
   1  -5   6   89.67    5.52
   1   5   6   44.20   15.35
   1  -5  -6   68.85   10.98
   1  -5   6   97.39   12.79
   1  -5   6   86.79   11.67
   1  -5  -6  114.27   13.88
   1  -5   6   77.43   10.89
   1  -5  -6  111.13   13.37
   1  -5   6   72.04    7.81
   2  -5  -6  302.23   12.08
   2  -5   6  304.45   13.00
   2  -5   6  222.55    8.15
   2   5   6  197.39   27.50
   2  -5   6  303.93   15.61
   2  -5   6  224.27    7.71
   2  -5  -6  315.23   15.54
   2  -5  -6  314.27   22.73
   2  -5   6  304.87   22.83
   2  -5   6  272.71   20.78
   2  -5  -6  349.65   24.49
   2  -5   6  256.87   20.17
   2  -5  -6  348.31   23.88
   2  -5   6  201.30   12.56
   3  -5   6  112.79   14.38
   3  -5  -6  144.87   16.74
   3  -5   6  115.77   14.19
   3  -5  -6  155.95   17.13
   3  -5   6  142.46    9.93
   3   5   6   76.94   17.28
   3  -5   6   95.63   17.72
   3  -5  -6   62.89   13.11
   3  -5   6  108.48   15.65
   4  -5   6  279.25   23.57
   4  -5  -6  341.07   26.49
   4  -5   6  241.47   15.27
   4   5   6  198.42   24.76
   4  -5   6  276.24   25.75
   5  -5  -6   87.25   14.63
   5  -5  -6   92.53   11.66
   5   5   6   46.07   13.15
   5  -5   6   56.95   12.17
   5   5  -6   61.34   11.54
   6   5  -6  154.02   12.90
   6   5   6  178.23   14.43
   6   5   6  161.31   15.10
   6  -5   6  134.90   18.07
   6  -5  -6  159.21   20.42
   6   5   6   93.26   15.91
   6  -5  -6  145.07   14.60
   6   5  -6  144.85   18.51
   7   5   6   29.02   21.53
   7   5  -6   32.47    7.06
   7  -5   6   27.29   11.01
   7  -5  -6   33.89   12.28
   7   5  -6   23.90   10.79
   7   5   6   41.00    8.12
   8   5  -6   83.27   10.56
   8   5   6   79.23   10.82
   8  -5   6   63.55   14.47
   8  -5  -6   91.94   17.10
   8   5  -6   64.91   16.09
  -7  -6   6   32.84    7.87
  -6  -6   6  118.16   11.75
  -6  -6  -6  101.91   10.31
  -6  -6   6   82.02   10.52
  -6  -6   6   93.17   14.86
  -6   6   6   85.53   17.41
  -6   6  -6   90.49   17.37
  -5   6   6   58.32   14.22
  -5   6  -6   65.28   15.46
  -5  -6   6   71.75    9.04
  -5  -6  -6   81.31    8.98
  -5  -6   6   61.67    8.87
  -5  -6   6   31.85   10.19
  -5  -6   6   22.46   12.39
  -4   6   6  114.95   12.63
  -4   6  -6   90.45   14.98
  -4   6   6   38.24   18.72
  -4  -6   6  136.84   11.72
  -4  -6   6  111.71   15.89
  -4  -6  -6  134.57   11.25
  -4  -6   6  108.32   14.74
  -4  -6  -6  162.33   12.97
  -4   6   6  107.91   17.44
  -4   6  -6  102.26   16.96
  -4  -6   6  145.18   19.69
  -3   6   6   88.92   10.65
  -3   6  -6   85.00   13.93
  -3   6   6   38.65   17.44
  -3  -6   6  105.26   10.19
  -3  -6  -6  104.86    9.87
  -3  -6   6   54.86   12.82
  -3   6   6   74.76   13.62
  -3   6  -6  105.71   16.26
  -3  -6   6   67.05   12.04
  -3  -6  -6   96.07   10.04
  -3  -6   6   46.10   12.62
  -2   6   6  154.43   13.86
  -2   6   6   83.71   23.57
  -2  -6   6  171.00   20.05
  -2  -6   6  198.12   18.64
  -2  -6  -6  274.55   16.08
  -2  -6   6  198.56   19.40
  -1  -6   6   78.50    7.37
  -1  -6   6   59.11   13.74
  -1   6   6   61.41   20.46
  -1  -6   6  104.38   13.71
  -1  -6  -6  120.41   11.98
  -1  -6   6   55.63   11.41
   0  -6   6  223.19   24.59
   0  -6   6  244.06   20.82
   0  -6   6  255.68   21.12
   1  -6  -6  116.27    9.26
   1   6   6   54.91   18.52
   1  -6   6  101.04   14.38
   1  -6   6   57.46   11.56
   1  -6   6   89.70   13.02
   1  -6  -6  117.28   15.52
   2   6   6  123.98   25.17
   2  -6   6  192.89   19.73
   2  -6   6  174.13   17.48
   2  -6   6  173.19   18.04
   2  -6  -6  229.81   21.67
   3  -6   6   66.95   12.42
   3  -6  -6   95.75   15.32
   3   6   6  114.67   12.08
   3   6   6   48.89   16.11
   3  -6   6   82.51   15.14
   4  -6   6  105.31   15.94
   4  -6  -6  147.46   19.19
   4   6   6  152.88   14.66
   4  -6  -6  148.28   14.93
   4  -6   6  132.61   19.28
   5  -6  -6   81.07   15.91
   5   6   6   85.35   11.77
   5  -6   6   51.35   12.74
   6  -6   6   97.50   16.42
   6  -6  -6  120.38   19.32
   6   6   6   77.16   29.24
  -4  -7   6   76.80   14.16
  -3  -7   6   55.96    8.58
  -3  -7  -6   43.08    7.30
  -3  -7   6   26.07   10.77
  -3  -7   6   26.51   12.49
  -2  -7   6   65.66   14.63
  -2  -7   6   92.09   16.17
  -1  -7   6   26.61   11.10
  -1  -7   6   21.03    9.52
   0   7   6   45.99   18.86
   0  -7   6   49.62   13.49
   0  -7   6   73.32   12.72
   0  -7  -6  102.30   15.94
   0  -7   6   81.05   13.21
   1  -7   6   35.61   10.18
   1  -7  -6   60.21   13.24
   1   7   6   31.94   15.78
   1  -7   6   22.19   11.40
   1  -7   6   21.13    9.02
   2   7   6   59.02   19.86
   2  -7   6   85.29   13.68
   2  -7   6   73.22   13.57
   2  -7  -6   99.51   16.26
   3  -7   6   28.58    9.70
   3  -7  -6   44.71   12.59
   3   7   6   31.14   14.39
   4   7   6   52.45   17.74
 -10   0  -7    3.09    7.97
 -10   0   7   -1.89    9.03
 -10   0  -7    1.27    3.31
  -9   0  -7  209.70   23.23
  -9   0   7  146.08   22.09
  -9   0  -7  148.65   26.43
  -9   0  -7  185.05   11.56
  -8   0  -7    2.77    9.96
  -8   0  -7    1.31    6.26
  -8   0   7    0.80    6.21
  -8   0  -7   -0.17    2.55
  -7   0  -7  480.44   32.07
  -7   0   7  333.96   29.54
  -7   0  -7  479.74   29.88
  -7   0   7  331.27   27.97
  -7   0  -7  379.22   45.09
  -7   0  -7  484.95   14.32
  -7   0  -7  448.84   18.14
  -7   0  -7  620.43   34.76
  -7   0   7  463.48   27.54
  -6   0   7    0.23    2.95
  -6   0  -7    1.67   10.48
  -6   0  -7    0.50    4.87
  -6   0   7   -1.80    4.90
  -6   0  -7   -0.04    1.01
  -6   0  -7   -1.75    4.44
  -6   0   7   -0.52    4.80
  -6   0  -7    2.24    5.14
  -6   0   7    0.34    4.13
  -5   0  -7  527.07   29.13
  -5   0   7  423.44   28.09
  -5   0  -7  527.08   27.64
  -5   0   7  436.14   27.05
  -5   0   7  614.37   26.30
  -5   0  -7  357.22   45.90
  -5   0  -7  528.77   14.10
  -5   0   7  500.60   27.35
  -5   0  -7  638.56   29.81
  -5   0   7  512.01   24.75
  -4   0  -7    0.61    3.12
  -4   0   7    0.69    3.23
  -4   0  -7    3.31   11.19
  -4   0  -7   -0.27    1.37
  -4   0   7   -0.32    3.05
  -4   0  -7   -0.04    0.78
  -4   0  -7    1.37    3.25
  -4   0   7   -0.31    3.12
  -4   0   7   -1.30    6.32
  -4   0  -7    1.68    3.45
  -4   0   7    1.36    3.45
  -3   0  -7  509.48   54.54
  -3   0   7  609.16   22.80
  -3   0   7  579.46   27.61
  -3   0  -7  664.12   20.05
  -3   0  -7  752.05   19.48
  -3   0   7  557.33   35.59
  -3   0  -7  792.57   27.23
  -3   0   7  694.68   29.22
  -3   0  -7  750.82   25.71
  -3   0   7  599.43   24.12
  -3   0  -7  772.47   26.58
  -3   0   7  568.05   24.44
  -2   0  -7    2.90    4.63
  -2   0  -7    1.64   11.09
  -2   0   7    1.17    1.79
  -2   0  -7   -0.77    2.06
  -2   0   7    1.08    1.56
  -2   0  -7    0.18    1.34
  -2   0   7    0.52    4.77
  -2   0   7   -0.47    4.98
  -1   0  -7 1102.08   45.94
  -1   0   7 1088.28   31.95
  -1   0   7 1233.90   49.04
  -1   0   7 1114.18   47.74
  -1   0   7 1102.42   32.31
   0   0  -7    0.29    3.08
   0   0   7   -0.35    1.54
   0   0  -7    0.76    1.54
   0   0   7    0.43    4.40
   0   0   7    0.81    2.05
   1   0  -7 1166.32   38.39
   1   0   7 1287.98   50.41
   1   0  -7 1306.57   35.32
   2   0  -7    1.62   10.97
   2   0  -7   -0.20    1.51
   2   0   7   -0.16    2.05
   2   0  -7    0.28    0.44
   2   0  -7    0.46    2.09
   2   0  -7    0.84    3.68
   2   0   7   -0.45    4.33
   3   0   7  667.76   26.27
   3   0  -7  699.79   21.93
   3   0  -7  566.97   56.69
   3   0  -7  704.37   19.69
   3   0   7  643.40   19.66
   3   0   7  762.46   37.92
   3   0  -7  676.60   35.55
   3   0  -7  770.93   26.47
   4   0  -7   -0.10    1.55
   4   0  -7   -1.58   11.06
   4   0   7   -0.59    1.82
   4   0  -7    0.47    1.68
   4   0   7   -0.32    2.04
   4   0  -7    1.69    3.06
   4   0  -7    0.52    4.61
   4   0  -7   -0.10    1.60
   4   0   7    0.12    1.59
   5   0  -7  600.03   21.43
   5   0   7  542.40   21.59
   5   0  -7  618.09   21.61
   5   0  -7  502.94   51.95
   5   0  -7  616.89   21.37
   5   0   7  571.74   21.75
   5   0  -7  603.72   25.67
   6   0  -7   -2.88   11.51
   6   0  -7    1.73    2.71
   6   0  -7   -0.70    2.72
   6   0   7   -1.00    2.68
   6   0  -7    1.09    2.81
   6   0   7    0.21    2.65
   7   0  -7  573.51   23.90
   7   0   7  506.75   23.82
   7   0  -7  558.83   49.42
   7   0  -7  577.85   23.47
   7   0  -7  576.27   23.48
   7   0   7  502.75   23.27
   8   0   7    1.45    3.85
   8   0  -7   -0.98    5.25
   8   0  -7    1.62    8.49
   8   0   7   -1.92   10.02
   8   0  -7   -0.76    3.70
   8   0  -7   -1.30    3.50
   9   0  -7  258.50   17.04
   9   0   7  228.33   16.69
  10   0  -7    0.99    5.09
  10   0   7    0.36    4.58
 -10   1  -7   -2.33    9.40
 -10   1   7    1.86    8.13
 -10  -1  -7    3.00    7.74
 -10  -1   7    3.70    8.23
 -10  -1  -7    0.88    3.41
  -9   1  -7  277.37   26.90
  -9   1   7  183.34   24.35
  -9  -1  -7  244.20   24.80
  -9  -1   7  254.37   28.18
  -9  -1  -7  263.63   35.43
  -9  -1   7  260.14   20.95
  -9   1  -7  299.98   14.60
  -9  -1  -7  257.55   14.42
  -8   1  -7   13.43   11.48
  -8   1  -7   11.15    8.01
  -8   1   7    0.77    5.71
  -8  -1  -7    7.39   12.36
  -8  -1  -7    9.34    7.29
  -8  -1   7    2.31    6.31
  -8  -1   7    7.36    5.07
  -8   1  -7    7.49    3.19
  -8  -1   7   -1.06    6.78
  -7  -1  -7  452.52   30.39
  -7  -1   7  496.94   23.70
  -7  -1   7  399.69   31.64
  -7   1  -7  376.59   44.20
  -7  -1  -7  340.88   42.75
  -7  -1  -7  456.14   28.16
  -7  -1   7  367.42   28.16
  -7  -1   7  422.34   25.26
  -7   1  -7  437.63   17.08
  -7  -1  -7  648.21   36.82
  -7  -1   7  510.98   29.75
  -7   1   7  446.33   25.48
  -7   1  -7  423.20   28.32
  -7   1   7  334.94   27.25
  -7   1  -7  408.06   29.43
  -7   1   7  357.01   29.50
  -6  -1   7   14.58    5.40
  -6   1   7    5.52    5.62
  -6   1  -7    7.94   11.43
  -6   1  -7    6.41    5.02
  -6  -1  -7   -1.52    9.91
  -6  -1  -7    8.70    6.08
  -6  -1  -7    8.41    2.97
  -6   1  -7    7.81    5.25
  -6   1   7    6.80    5.30
  -6  -1  -7    5.30    5.23
  -6  -1   7    6.03    5.26
  -6  -1   7   12.83    4.93
  -6   1  -7    8.55    2.45
  -6   1  -7    9.05    5.81
  -6  -1  -7   10.60    6.65
  -6  -1   7    7.62    5.84
  -6   1   7    3.43    4.42
  -5  -1   7 1119.74   38.80
  -5   1  -7  706.16   65.68
  -5  -1  -7  594.76   57.94
  -5  -1  -7  900.07   37.56
  -5  -1   7  981.35   58.86
  -5  -1   7  728.45   37.35
  -5  -1   7  771.67   32.05
  -5  -1  -7  922.08   29.51
  -5  -1   7  822.12   37.05
  -5  -1   7  866.21   34.44
  -5   1  -7  912.70   25.10
  -5   1  -7 1038.28   40.79
  -5  -1  -7 1280.89   44.26
  -5  -1   7  876.66   36.47
  -5   1   7  878.98   32.91
  -5   1  -7  858.71   37.33
  -5   1   7  769.79   36.84
  -5   1  -7  910.00   39.56
  -5   1   7  779.90   38.55
  -5  -1  -7  834.78   25.67
  -4  -1  -7    1.97    1.52
  -4  -1   7    4.64    4.21
  -4   1  -7   -0.75    6.39
  -4   1  -7    0.87    3.21
  -4   1   7    5.95    3.71
  -4   1  -7    1.80   10.43
  -4  -1  -7    9.13   10.95
  -4   1   7    2.86    2.80
  -4  -1  -7    2.92    2.02
  -4   1  -7    2.68    3.37
  -4   1   7    4.09    3.19
  -4  -1   7    4.18    3.68
  -4  -1  -7    1.68    2.98
  -4  -1   7    3.08    3.53
  -4   1  -7    2.88    1.19
  -4  -1  -7    2.06    2.40
  -4  -1   7    2.65    2.69
  -4   1   7    1.26    5.82
  -4  -1   7    4.26    5.34
  -4   1  -7    2.76    4.07
  -4  -1  -7    4.39    3.74
  -4  -1   7    1.58    3.65
  -4   1   7    2.77    3.15
  -3   1  -7  942.07   55.31
  -3  -1   7 2169.22   62.13
  -3   1  -7 1121.73   88.44
  -3  -1  -7 1195.10   83.80
  -3  -1  -7 1648.27   47.53
  -3  -1   7 1194.76   45.90
  -3  -1  -7 1686.98   42.17
  -3  -1   7 1182.73   41.47
  -3   1   7 1377.38   43.68
  -3  -1   7 1344.72   45.17
  -3   1  -7 1754.26   52.53
  -3  -1   7 1402.78   49.26
  -3  -1   7 1543.46   60.56
  -3   1   7 1396.53   60.48
  -3  -1   7 1464.71   63.27
  -3   1  -7 1801.53   50.94
  -3  -1  -7 1893.98   45.85
  -3  -1   7 1624.51   52.60
  -3   1   7 1336.83   43.86
  -3   1  -7 1723.62   46.89
  -2   1   7    9.05    2.10
  -2  -1   7   10.10    2.28
  -2   1  -7    8.22    5.54
  -2  -1   7   18.68    7.60
  -2  -1  -7   17.38    3.12
  -2   1  -7   17.04   14.77
  -2  -1  -7    7.62    8.82
  -2  -1  -7   13.87    3.17
  -2  -1   7   15.56    2.36
  -2  -1  -7   14.81    2.35
  -2   1   7   11.15    1.84
  -2   1  -7   12.72    4.03
  -2  -1   7    9.82    3.25
  -2   1   7   12.34    3.20
  -2  -1  -7   20.63    3.73
  -2  -1   7   17.24    4.27
  -2  -1   7   10.41    2.94
  -2   1   7    8.76    5.47
  -2  -1   7   15.61    6.92
  -2  -1  -7   12.79    2.65
  -2   1  -7   14.42    2.76
  -1   1  -7 1265.52   50.79
  -1   1   7 1343.12   40.88
  -1  -1   7 1406.34   36.56
  -1   1  -7 1468.58   43.87
  -1  -1   7 1270.52   41.79
  -1  -1  -7 1556.54   43.69
  -1   1   7 1526.90   56.18
  -1   1   7 1340.82   55.03
  -1  -1   7 1388.44   55.67
  -1  -1   7 1394.48   42.65
  -1   1  -7 1418.28   36.51
   0   1  -7   29.99    6.00
   0  -1  -7   37.44    7.38
   0  -1   7   35.09    3.36
   0   1   7   34.24    4.50
   0  -1  -7   46.16    5.84
   0  -1   7   38.79    8.27
   0  -1   7   19.26    7.36
   0   1   7   17.70    6.28
   0  -1   7   28.79    5.17
   0   1  -7   37.36    4.17
   1  -1  -7 1331.32   40.26
   1   1  -7 1343.11   46.19
   1  -1   7 1316.70   39.05
   1  -1  -7 1495.51   44.34
   1   1   7 1334.26   41.91
   1   1  -7 1047.94   86.18
   1  -1  -7 1631.65   46.99
   1  -1  -7 1313.68   51.16
   1  -1   7 1562.92   59.59
   1  -1  -7 1560.43   42.70
   1   1   7 1640.30   55.75
   1  -1   7 1647.79   50.00
   2  -1   7   16.73    3.36
   2   1  -7   16.75   14.15
   2  -1  -7   15.90    3.29
   2   1   7   10.28    3.24
   2  -1  -7   18.17    1.95
   2  -1   7   14.29    1.86
   2  -1   7    8.37    4.75
   2  -1  -7   19.05    4.91
   2  -1  -7   22.48    4.19
   2  -1   7    8.40    6.09
   2  -1  -7    9.50    5.45
   2   1   7   10.64    5.36
   2  -1  -7   12.28    2.62
   2  -1  -7   14.72    1.84
   2  -1   7   12.69    1.77
   3   1   7 1493.25   40.04
   3   1   7 1516.95   48.03
   3  -1  -7 1568.30   44.07
   3   1  -7 1265.12   93.06
   3  -1   7 1295.71   51.12
   3  -1  -7 1846.56   42.11
   3  -1   7 1432.44   41.32
   3   1  -7 1469.65   59.24
   3   1   7 1753.97   58.63
   3  -1  -7 1559.48   60.13
   3  -1  -7 1719.47   47.86
   3  -1   7 1445.52   41.36
   3   1  -7 1515.56   39.64
   4   1  -7    6.33    4.17
   4  -1  -7    4.56    2.36
   4  -1   7    1.93    2.07
   4   1  -7    8.52   12.61
   4   1   7    4.42    3.24
   4   1  -7    3.41    1.60
   4  -1  -7    4.68    2.76
   4  -1   7    0.66    2.39
   4   1   7    1.41    2.43
   4  -1  -7    4.01    3.06
   4   1   7    4.40    4.88
   4  -1  -7    1.60    5.01
   4   1  -7    3.47    1.79
   4   1   7    2.99    1.80
   4  -1  -7    4.52    2.24
   4  -1   7    4.54    2.41
   5   1  -7 1135.92   77.40
   5  -1  -7 1059.20   34.50
   5  -1  -7  772.90   65.03
   5   1  -7 1058.07   36.36
   5   1  -7  971.67   30.99
   5   1   7  951.73   31.73
   5  -1  -7 1127.36   33.63
   5  -1   7  993.40   33.58
   5   1   7 1165.90   46.67
   5  -1  -7 1021.34   36.25
   5   1  -7 1014.80   53.78
   5  -1  -7 1069.23   33.36
   5  -1   7  930.72   33.35
   5   1  -7 1005.64   28.93
   5   1  -7 1065.49   42.15
   6   1  -7   13.26    6.10
   6   1  -7    8.72   11.91
   6  -1  -7    2.87   10.92
   6  -1  -7   13.18    4.03
   6  -1   7    7.27    3.73
   6   1  -7   11.83    2.93
   6  -1  -7   12.18    4.15
   6   1  -7   10.66    4.47
   6   1  -7   10.94    8.69
   6  -1  -7   10.44    3.74
   6  -1   7    8.83    3.82
   6   1  -7    9.35    3.27
   6   1   7   10.51    3.68
   7   1  -7  625.99   45.33
   7  -1  -7  564.98   51.04
   7  -1  -7  546.42   24.11
   7   1  -7  524.44   20.29
   7   1  -7  526.81   22.38
   7   1   7  490.22   22.84
   7  -1  -7  549.86   23.57
   7  -1   7  516.83   23.71
   7  -1  -7  492.23   41.82
   7   1  -7  454.77   40.27
   7   1  -7  502.82   21.47
   7   1   7  484.56   22.10
   7  -1  -7  589.99   24.57
   7  -1   7  502.53   23.95
   7   1  -7  522.79   30.29
   8   1  -7   11.91    7.14
   8  -1  -7    6.85   11.44
   8   1   7    2.01   12.64
   8   1  -7   10.87    4.26
   8  -1  -7   10.44    5.12
   8  -1   7    9.63    5.26
   8  -1  -7   15.73   11.43
   8   1  -7    9.11   11.06
   8   1  -7    9.22    4.46
   8   1   7    7.07    4.39
   9   1  -7  365.88   20.25
   9   1   7  318.18   20.08
   9  -1  -7  284.41   35.62
   9   1  -7  284.51   36.26
   9  -1  -7  383.06   21.39
   9  -1   7  322.48   20.59
   9   1  -7  403.34   27.80
  10  -1  -7    1.35    4.89
  10  -1   7    1.82    5.26
  10   1  -7   -0.64    4.77
  10   1   7    1.07    5.25
 -10   2  -7    7.18    8.23
 -10   2   7    4.67    7.47
 -10  -2  -7    4.38    8.16
 -10  -2   7    2.71    8.18
 -10  -2  -7    7.03    4.07
  -9  -2  -7  139.09   13.31
  -9  -2   7  134.68   14.33
  -9  -2   7  118.10   14.32
  -9   2  -7  126.61   18.57
  -9   2   7   83.75   17.10
  -8   2  -7    1.34    6.08
  -8   2   7    3.80    6.88
  -8  -2  -7   -1.41   10.43
  -8  -2  -7    0.81    2.65
  -8   2  -7    7.79    8.66
  -8  -2   7   -2.13    4.71
  -8  -2  -7    2.14    4.05
  -8  -2   7    1.93    4.32
  -8  -2   7    2.96    7.52
  -7  -2   7  342.99   21.27
  -7   2  -7  139.63   21.88
  -7  -2  -7  188.99   32.11
  -7  -2  -7  295.42   17.23
  -7  -2   7  284.49   18.82
  -7  -2  -7  280.90   21.47
  -7  -2   7  261.92   22.93
  -7  -2  -7  254.13   14.06
  -7  -2   7  286.31   20.08
  -7   2  -7  257.51   21.82
  -7   2   7  261.79   23.42
  -7  -2   7  335.01   25.09
  -7   2  -7  276.32   24.05
  -7   2   7  212.24   22.35
  -7  -2  -7  269.50   13.15
  -6  -2  -7    6.71    2.78
  -6  -2   7    6.78    4.79
  -6   2  -7    3.27    6.05
  -6   2  -7    3.45    5.08
  -6   2   7    2.10    4.40
  -6   2  -7   -1.59   10.02
  -6  -2  -7   -1.46    9.21
  -6  -2  -7    7.80    3.74
  -6  -2   7    6.49    4.26
  -6  -2  -7    5.72    4.66
  -6  -2   7    5.13    4.82
  -6  -2  -7    4.84    3.51
  -6  -2   7    4.97    3.82
  -6  -2   7    6.69    6.51
  -6   2   7    1.95    4.32
  -5  -2  -7  325.47   14.67
  -5  -2   7  459.82   24.61
  -5   2  -7  293.49   41.46
  -5  -2  -7  259.26   37.12
  -5  -2   7  465.85   42.86
  -5   2   7  337.32   18.88
  -5  -2  -7  384.14   17.62
  -5  -2   7  380.32   19.27
  -5  -2  -7  335.83   20.40
  -5  -2   7  351.40   22.55
  -5  -2  -7  343.54   16.03
  -5  -2   7  367.60   22.96
  -5  -2   7  378.97   20.57
  -5   2  -7  380.72   23.89
  -5  -2   7  415.65   24.18
  -5   2   7  425.16   19.23
  -5   2  -7  362.40   23.40
  -5   2   7  342.12   22.73
  -4  -2   7   44.91    8.58
  -4   2   7   29.49    6.49
  -4   2  -7   36.85   17.33
  -4  -2   7   49.95   14.54
  -4   2   7   39.13    6.10
  -4  -2   7   35.35    6.57
  -4  -2  -7   42.08    5.07
  -4  -2   7   38.56    5.55
  -4  -2  -7   40.23    6.42
  -4  -2   7   31.29    6.78
  -4  -2   7   45.67    6.41
  -4  -2   7   25.02    8.31
  -4   2   7   24.07    8.98
  -4  -2  -7   42.62    7.52
  -4   2  -7   32.60    7.38
  -4   2   7   19.72    5.51
  -4   2  -7   40.61    7.41
  -4   2   7   17.58    4.37
  -4  -2   7   22.50    6.65
  -3   2  -7  308.90   26.10
  -3  -2   7  611.63   29.97
  -3   2  -7  351.51   46.98
  -3   2   7  413.13   19.82
  -3  -2   7  467.38   22.53
  -3   2  -7  488.97   25.87
  -3  -2   7  460.75   18.59
  -3  -2  -7  465.78   17.26
  -3  -2   7  479.20   24.06
  -3  -2   7  450.67   19.79
  -3  -2   7  490.48   30.92
  -3   2  -7  503.91   24.81
  -3  -2  -7  581.15   23.58
  -3  -2   7  400.12   19.55
  -3  -2  -7  631.05   19.57
  -3   2   7  469.04   17.11
  -3   2   7  452.71   21.64
  -3   2  -7  515.18   23.53
  -3   2   7  500.65   20.81
  -2   2  -7   29.35    7.60
  -2   2  -7   40.86   18.34
  -2   2   7   25.15    4.55
  -2   2  -7   33.73    6.55
  -2  -2   7   21.38    4.87
  -2  -2   7   27.55    3.44
  -2  -2  -7   31.27    3.23
  -2  -2   7   32.03    5.63
  -2  -2   7   13.97    6.90
  -2  -2   7   16.16    7.36
  -2   2   7   23.16    4.23
  -2   2  -7   27.26    4.92
  -2  -2  -7   28.78    4.71
  -2  -2   7   19.15    3.85
  -2  -2   7   39.00    8.70
  -1   2  -7  601.72   32.00
  -1   2   7  711.60   26.34
  -1   2  -7  684.56   29.10
  -1  -2   7  654.11   44.37
  -1  -2   7  693.66   26.11
  -1  -2   7  756.21   21.20
  -1  -2  -7  659.67   19.84
  -1  -2   7  747.84   39.31
  -1  -2   7  751.52   37.80
  -1  -2   7  696.10   28.30
  -1  -2   7  638.26   23.19
  -1  -2  -7  789.15   25.02
  -1  -2   7  748.34   20.80
  -1  -2  -7  672.70   19.68
   0   2  -7    4.38    1.82
   0   2  -7    3.05    3.79
   0  -2   7   10.62    1.51
   0  -2   7    9.60    1.67
   0  -2   7    7.73    2.86
   0  -2  -7    4.32    2.75
   0   2  -7    3.80   12.41
   0  -2   7   20.68   16.73
   0   2   7   10.19    3.32
   0  -2   7    8.67    2.94
   0  -2  -7    4.80    2.60
   0  -2  -7    3.87    3.16
   0  -2   7   10.90    2.63
   0  -2   7    8.55    6.93
   0  -2  -7    2.53    4.05
   0  -2   7    9.93    1.82
   0  -2   7    6.80    5.40
   0  -2  -7    4.36    1.30
   0  -2   7    7.55    3.46
   1   2  -7  690.62   24.66
   1  -2   7  766.83   28.29
   1  -2  -7  844.99   28.41
   1  -2   7  661.60   21.36
   1  -2  -7  640.42   24.72
   1  -2  -7  894.89   30.74
   1  -2   7  771.01   28.02
   1  -2  -7  835.70   27.93
   1   2   7  721.48   27.03
   1   2  -7  561.22   61.22
   1  -2   7  928.22   79.45
   1  -2  -7  801.08   30.60
   1  -2   7  680.41   40.23
   1  -2  -7  644.75   32.12
   1   2   7  844.53   35.55
   1  -2   7  797.98   32.07
   1  -2   7  716.89   20.30
   1  -2  -7  666.80   19.79
   2   2  -7   32.56    5.16
   2  -2  -7   25.42    2.74
   2  -2  -7   26.96    4.42
   2   2   7   33.05    5.31
   2   2  -7   12.60   12.97
   2  -2   7   27.40    5.72
   2  -2  -7   34.90    5.86
   2  -2   7   30.28    4.09
   2  -2  -7   40.74    4.62
   2   2  -7   37.77    4.20
   2  -2  -7   36.04    6.32
   2  -2   7   16.46    6.98
   2  -2  -7   28.88    4.80
   2  -2  -7   15.10    6.29
   2   2   7   14.52    5.85
   2  -2   7   22.93    7.05
   3   2  -7  505.59   23.66
   3   2   7  521.02   23.48
   3  -2  -7  495.07   20.77
   3   2  -7  484.23   52.97
   3  -2   7  704.71   70.47
   3  -2   7  489.05   20.41
   3  -2  -7  592.63   21.20
   3  -2   7  513.12   26.25
   3  -2  -7  596.31   26.41
   3   2  -7  759.79   25.59
   3  -2  -7  540.44   25.90
   3  -2   7  430.56   26.71
   3   2   7  387.52   27.70
   3  -2  -7  498.34   21.97
   3  -2  -7  491.10   30.38
   3   2   7  595.31   27.16
   3   2  -7  462.75   17.00
   3   2   7  496.35   17.88
   4   2  -7   55.77    8.13
   4   2   7   43.61    7.14
   4   2  -7   43.61    4.57
   4  -2  -7   41.93    5.99
   4   2   7   44.76    4.88
   4   2  -7   65.74   20.34
   4  -2   7   42.26    5.82
   4  -2  -7   57.53    6.50
   4  -2   7   37.92    7.87
   4   2  -7   63.03    7.33
   4  -2  -7   67.52    9.31
   4  -2  -7   55.23    8.63
   4  -2   7   26.38    6.61
   4   2   7   28.44    6.86
   4  -2  -7   43.28    6.27
   4   2   7   28.12    6.76
   4  -2  -7   16.53    7.81
   5   2  -7  426.30   24.62
   5   2   7  458.70   23.96
   5   2  -7  563.88   50.60
   5  -2  -7  453.60   20.95
   5  -2   7  462.11   21.11
   5  -2  -7  509.87   21.42
   5   2  -7  536.15   23.60
   5  -2   7  472.97   27.80
   5   2   7  320.42   17.68
   5   2   7  557.61   25.35
   5   2  -7  401.17   31.54
   5   2  -7  400.90   16.88
   5   2   7  413.88   17.77
   6   2  -7    6.19    5.14
   6   2   7   10.09    3.75
   6  -2   7    1.39    7.65
   6   2   7   11.50    5.61
   6   2  -7    6.94    1.85
   6  -2  -7    6.50    4.51
   6   2  -7    8.00    5.55
   6   2   7    2.46    4.55
   6   2  -7    5.70    7.52
   6  -2  -7    8.49    4.17
   6  -2   7    7.57    4.05
   6   2  -7    6.28    3.15
   7   2  -7  362.17   24.84
   7   2   7  412.45   25.05
   7   2  -7  344.93   13.41
   7  -2  -7  406.81   20.63
   7  -2   7  366.96   20.23
   7   2   7  433.26   22.86
   7   2  -7  340.61   17.42
   7   2   7  336.05   18.33
   7   2  -7  351.99   34.62
   8   2  -7    5.08    6.26
   8  -2  -7    5.24   10.73
   8   2   7    4.26   12.32
   8   2  -7    0.49    3.89
   8   2   7    5.34    4.10
   8   2   7    3.46    5.43
   8   2  -7   14.49   11.17
   9   2  -7  170.85   18.63
   9   2  -7  187.41   14.25
   9   2   7  151.74   13.62
   9   2  -7  138.66   25.87
   9  -2  -7  184.01   15.25
   9  -2   7  169.12   14.95
  10  -2   7   -1.97   10.88
  10  -2  -7    8.47    6.25
  10  -2   7    9.91    6.18
  10   2  -7    7.95    5.77
  10   2   7    8.55    5.66
  -9  -3  -7  173.53   14.59
  -9  -3   7  180.79   16.44
  -9  -3  -7  135.61   11.06
  -9  -3   7  153.91   15.90
  -9   3  -7  134.76   19.42
  -8   3  -7   22.02    9.60
  -8   3  -7   29.85    9.64
  -8   3   7   26.25   10.05
  -8  -3  -7   25.23   14.49
  -8  -3  -7   40.55    7.17
  -8  -3   7   39.85    7.94
  -8  -3  -7   41.10    6.47
  -8  -3   7   40.36    8.77
  -8  -3   7    9.95    9.71
  -7  -3  -7  214.98   34.09
  -7  -3  -7  265.55   16.07
  -7  -3   7  295.86   18.69
  -7  -3  -7  270.27   15.72
  -7  -3   7  240.35   18.37
  -7   3  -7  244.00   23.06
  -7   3   7  237.11   23.46
  -7  -3   7  326.15   26.35
  -7  -3  -7  264.64   13.89
  -6  -3  -7   65.63    6.69
  -6   3  -7   45.26   10.67
  -6  -3  -7   62.45    7.43
  -6  -3   7   65.32    8.34
  -6  -3  -7   68.48    7.64
  -6  -3   7   50.76    8.34
  -6   3   7   56.03   11.29
  -5  -3  -7  411.47   18.02
  -5  -3   7  534.33   28.06
  -5  -3   7  513.17   50.92
  -5   3   7  375.64   21.14
  -5  -3   7  459.59   20.76
  -5  -3  -7  426.17   18.60
  -5  -3   7  388.09   21.33
  -5  -3   7  419.86   29.83
  -5   3   7  362.23   20.22
  -5   3   7  430.16   27.22
  -5   3  -7  469.56   28.33
  -5   3   7  449.26   19.21
  -4  -3   7   55.38    9.73
  -4  -3   7   29.65    6.40
  -4   3   7   36.01    7.74
  -4   3  -7   39.21    8.17
  -4  -3   7   43.16   18.84
  -4  -3   7   42.73   15.36
  -4   3   7   44.04    6.83
  -4  -3   7   36.42    7.26
  -4   3  -7   45.06    9.26
  -4  -3   7   55.09    6.19
  -4  -3  -7   44.40    5.17
  -4  -3   7   44.84    6.36
  -4  -3   7   19.03    7.91
  -4  -3  -7   46.22    8.45
  -4   3   7   30.14    4.64
  -4   3  -7   36.95    8.18
  -4   3   7   17.54    3.82
  -3  -3   7  810.62   36.86
  -3  -3   7  589.07   60.67
  -3  -3   7  762.42   49.46
  -3   3   7  607.72   26.79
  -3  -3  -7  822.08   21.46
  -3   3   7  668.32   19.90
  -3  -3   7  637.68   29.89
  -3   3  -7  717.48   34.77
  -3  -3   7  681.60   24.36
  -3  -3  -7  678.32   23.14
  -3  -3   7  641.33   25.32
  -3  -3   7  629.02   37.31
  -3   3   7  601.94   36.97
  -3  -3  -7  934.11   34.40
  -3  -3   7  602.12   28.02
  -3   3   7  638.87   30.55
  -3   3  -7  804.04   34.17
  -3  -3   7  654.94   23.49
  -3  -3  -7  686.78   22.49
  -3   3   7  683.29   23.71
  -3  -3   7  759.63   35.09
  -2   3  -7   85.70   12.39
  -2  -3   7  125.73   14.73
  -2   3  -7   77.19   24.83
  -2  -3   7   75.80   25.46
  -2   3   7  102.89    9.47
  -2   3  -7   96.21   11.51
  -2  -3   7   87.02    9.75
  -2  -3   7   70.24   17.89
  -2  -3   7  105.04    7.36
  -2  -3   7  101.91    7.12
  -2  -3  -7  101.72    6.62
  -2  -3   7   56.02   11.75
  -2   3   7   79.34   12.76
  -2  -3   7   82.32    9.92
  -2   3   7   85.40    9.20
  -2   3  -7  108.17   10.68
  -2  -3  -7  103.72   10.00
  -2  -3   7   83.42    8.57
  -2  -3   7   58.23   10.05
  -2  -3   7  101.15    6.84
  -2  -3  -7   99.93    6.25
  -1   3  -7  709.97   36.49
  -1  -3   7  834.90   25.06
  -1  -3   7  869.27   80.00
  -1  -3  -7  793.34   23.99
  -1   3   7  792.65   30.30
  -1  -3   7  754.34   50.43
  -1  -3   7  834.11   44.00
  -1  -3   7  800.62   25.25
  -1   3   7  827.20   40.93
  -1  -3  -7  758.46   24.13
  -1  -3   7  837.17   41.23
  -1  -3   7  760.23   32.91
  -1  -3  -7  952.61   32.65
  -1  -3   7  725.06   29.02
   0  -3  -7  189.81   11.79
   0   3  -7  176.62   15.91
   0  -3   7  243.66   22.53
   0  -3   7  214.24   42.09
   0   3   7  172.58   11.93
   0   3  -7  153.72   33.39
   0  -3   7  150.78   21.41
   0  -3   7  184.87    8.75
   0  -3  -7   97.43   10.89
   0  -3   7   99.48   16.07
   0  -3  -7  180.57    8.18
   0  -3   7  166.29   15.89
   0  -3   7  138.51   12.78
   0  -3   7  145.73   11.49
   0  -3  -7  176.66   12.98
   0  -3   7  146.52   11.36
   0  -3  -7  168.00   12.59
   1  -3   7  797.77   32.54
   1  -3  -7 1018.84   35.93
   1  -3   7  815.34   25.23
   1  -3  -7  837.37   24.77
   1  -3  -7  807.02   29.48
   1   3   7  804.47   30.95
   1  -3   7 1030.36   90.37
   1   3  -7  892.62   76.52
   1  -3   7  781.56   24.15
   1  -3  -7  949.17   35.82
   1  -3   7  801.29   46.65
   1  -3   7  752.00   24.17
   1  -3   7  886.22   47.18
   1  -3  -7  779.02   35.66
   1  -3   7  834.15   36.82
   1  -3   7  862.63   36.38
   1  -3   7  748.88   31.95
   1  -3  -7  981.16   35.42
   2  -3   7   95.63   11.00
   2  -3  -7  113.57   11.96
   2  -3   7   94.08   10.84
   2  -3  -7  118.57   12.19
   2  -3  -7   98.41    4.97
   2  -3  -7  106.16    9.08
   2   3   7   95.03    9.43
   2  -3   7   88.37    7.51
   2  -3  -7  113.95   11.32
   2  -3   7   65.55   13.10
   2   3   7   72.65   15.00
   2  -3  -7   59.16   10.86
   2  -3   7   90.58   12.15
   2  -3   7  105.83    7.14
   2  -3  -7  109.93    7.14
   3   3  -7  754.77   30.21
   3  -3   7  747.41   35.36
   3  -3  -7  965.98   38.95
   3  -3  -7  757.43   28.69
   3   3   7  718.33   30.24
   3  -3   7  696.78   34.28
   3  -3  -7  906.29   37.75
   3  -3  -7  807.39   34.14
   3  -3   7  669.07   37.88
   3   3   7  554.51   37.78
   3  -3  -7  730.03   28.60
   3  -3  -7  703.12   38.06
   3  -3   7  749.48   39.60
   4   3  -7   57.48    8.35
   4   3   7   57.33    8.22
   4  -3   7   52.60    9.98
   4  -3  -7   54.27   10.11
   4  -3   7   51.67    7.00
   4  -3  -7   59.90    7.59
   4  -3  -7   64.80    9.45
   4   3   7   21.92    7.76
   4  -3   7   32.64    8.60
   4  -3  -7   55.46    7.29
   4   3  -7   53.31    5.74
   4   3   7   58.44    6.32
   5   3  -7  510.86   26.93
   5   3   7  532.62   26.55
   5  -3   7  244.53   32.49
   5  -3   7  495.65   23.34
   5  -3  -7  622.08   25.49
   5  -3   7  473.30   30.45
   5   3  -7  466.72   19.67
   5  -3  -7  621.82   33.47
   5   3   7  477.63   20.74
   5   3   7  365.61   24.39
   5  -3  -7  516.89   27.66
   5   3  -7  464.18   32.86
   6   3  -7   72.24   10.88
   6   3  -7   73.20    7.60
   6   3   7  101.60   12.00
   6   3   7   71.33    7.96
   6  -3   7   69.92    9.05
   6  -3  -7   89.54   10.14
   6  -3   7   64.97   12.05
   6  -3  -7   84.84   13.55
   6   3   7   36.81    6.84
   6   3  -7   70.57   15.45
   7   3  -7  349.92   24.48
   7   3   7  405.70   24.92
   7  -3   7  352.16   27.86
   7  -3  -7  443.41   29.88
   7   3  -7  313.75   32.41
   7   3  -7  331.50   17.55
   7   3   7  314.81   18.34
   8   3  -7   46.23   10.32
   8   3   7   72.36   11.72
   8  -3   7   36.75   17.76
   8   3  -7   41.46   15.34
   8   3  -7   46.62    7.32
   8   3   7   49.91    7.89
   9   3  -7  201.77   30.22
   9   3  -7  214.17   14.94
   9   3   7  192.58   15.13
  -9  -4  -7   61.10    9.34
  -8   4   7    4.86    7.62
  -8   4  -7   10.53    8.30
  -8  -4  -7    8.70   12.40
  -8  -4  -7   15.58    5.09
  -8  -4   7   11.77    6.06
  -8  -4  -7   10.41    4.99
  -8  -4   7   13.14    5.66
  -7  -4   7  142.90   12.89
  -7  -4  -7  130.98   11.32
  -7  -4   7  109.75   12.41
  -7   4   7  110.58   17.59
  -7   4  -7  115.42   17.37
  -6   4  -7    9.88    7.30
  -6   4   7   12.59    7.46
  -6   4  -7   11.08    7.05
  -6   4  -7   15.06    8.86
  -6  -4  -7   21.06    5.25
  -6  -4   7   18.79    5.82
  -6  -4   7   23.18    5.63
  -6  -4  -7   19.77    4.95
  -6  -4   7   10.92    8.41
  -5   4  -7  129.95   18.01
  -5  -4   7  170.74   32.91
  -5  -4   7  246.31   41.47
  -5   4   7  215.54   16.22
  -5   4  -7  246.38   22.66
  -5  -4   7  241.59   14.79
  -5  -4  -7  254.42   13.94
  -5  -4   7  196.09   14.90
  -5  -4   7  244.26   22.95
  -5  -4  -7  325.32   23.58
  -5  -4   7  222.38   18.49
  -5  -4   7  256.12   14.36
  -5  -4  -7  254.88   13.16
  -5   4   7  236.95   21.52
  -5   4  -7  293.35   23.85
  -5  -4   7  259.14   22.16
  -4   4  -7   38.56   10.22
  -4  -4   7   22.61   16.49
  -4   4   7   56.17    8.18
  -4  -4   7   63.15   20.85
  -4  -4  -7   73.64    6.76
  -4   4  -7   60.38   11.26
  -4   4   7   57.61    6.10
  -4  -4   7   64.14    7.24
  -4  -4  -7   67.34    6.70
  -4  -4   7   59.22    7.43
  -4  -4   7   34.19   10.37
  -4  -4  -7   94.11   12.50
  -4  -4   7   49.68    9.07
  -4   4   7   48.72    9.95
  -4   4  -7   77.40   12.73
  -4  -4   7   63.94    6.73
  -4  -4  -7   65.24    6.17
  -4  -4   7   25.30    8.49
  -3  -4   7  336.05   38.19
  -3   4   7  310.05   18.74
  -3   4  -7  382.69   26.01
  -3  -4   7  342.12   16.66
  -3  -4  -7  363.32   16.02
  -3  -4   7  350.51   27.51
  -3  -4   7  318.87   16.58
  -3  -4  -7  478.82   15.27
  -3   4   7  308.26   22.34
  -3   4  -7  415.61   25.97
  -3  -4  -7  478.84   25.78
  -3  -4   7  294.85   19.95
  -3  -4   7  379.25   25.27
  -3   4   7  333.65   12.17
  -3  -4   7  342.82   15.97
  -3  -4  -7  370.36   15.46
  -2  -4   7   65.38    6.26
  -2  -4  -7   72.19    6.09
  -2   4   7   67.22    8.36
  -2  -4   7   67.74   16.33
  -2   4  -7   60.22   10.23
  -2  -4   7   64.45    6.00
  -2  -4   7   68.10    6.67
  -2  -4  -7   79.76    6.70
  -2  -4   7   38.95   10.83
  -2   4  -7   74.88   10.66
  -2  -4   7   49.90    8.97
  -2  -4  -7   71.19    9.96
  -2  -4   7   46.37    7.77
  -2  -4   7   39.87    9.29
  -1   4   7  371.38   19.86
  -1  -4   7  408.23   31.48
  -1  -4   7  356.40   15.49
  -1  -4  -7  387.85   15.23
  -1  -4   7  406.83   30.37
  -1  -4   7  349.77   13.17
  -1  -4   7  350.34   22.15
  -1  -4   7  415.81   26.07
  -1  -4  -7  457.72   23.66
  -1  -4   7  343.64   19.93
   0  -4   7   31.62    6.31
   0   4   7   40.79    6.65
   0  -4   7   25.13    6.24
   0  -4  -7   31.52    7.26
   0  -4   7   27.68   11.57
   0  -4   7   40.74    4.73
   0  -4  -7   33.51    4.22
   0  -4   7   18.89    8.99
   0  -4  -7   22.65    6.35
   0  -4   7   36.56    7.65
   0  -4  -7   37.90    7.36
   1  -4   7  384.49   16.17
   1  -4  -7  406.86   16.08
   1   4   7  369.46   20.05
   1  -4   7  388.44   12.31
   1  -4   7  359.38   32.29
   1   4   7  252.31   31.00
   1  -4   7  364.40   31.21
   1  -4  -7  370.62   22.99
   1  -4   7  374.30   22.86
   1  -4   7  369.83   23.94
   1  -4   7  340.68   21.46
   1  -4  -7  479.96   25.77
   1  -4   7  358.24   21.78
   1  -4  -7  487.35   25.56
   2  -4   7   52.47    8.98
   2  -4  -7   82.56   11.40
   2  -4   7   62.24    9.81
   2  -4  -7   83.57   11.54
   2  -4  -7   73.77    4.12
   2   4   7   68.24    8.77
   2  -4   7   70.71    6.03
   2  -4  -7   96.10   11.32
   2  -4   7   71.79    6.72
   2  -4   7   49.84   12.88
   2   4   7   35.14   12.28
   2  -4  -7   83.18    6.96
   2  -4   7   48.73    8.18
   2  -4  -7   40.27    9.50
   2  -4   7   58.63   10.53
   3  -4   7  338.88   23.81
   3  -4  -7  507.85   29.23
   3  -4   7  350.33   24.16
   3  -4  -7  511.25   29.33
   3   4   7  346.78   20.33
   3  -4   7  298.17   16.02
   3  -4  -7  443.17   24.33
   3   4   7  290.76   28.87
   3  -4   7  338.91   28.02
   3  -4  -7  360.70   26.59
   3  -4   7  316.61   19.12
   3  -4   7  413.61   29.26
   4  -4   7   76.77   12.23
   4  -4  -7   93.68   13.87
   4   4   7   80.72    9.92
   4  -4   7   70.29   11.77
   4  -4  -7   99.91   13.87
   4  -4   7   42.58    6.95
   4  -4   7   40.48   12.83
   4  -4  -7   86.13   10.97
   4   4   7   37.40   10.97
   4  -4   7   46.69   11.65
   5   4  -7  279.50   15.25
   5   4   7  275.97   16.09
   5   4   7  325.17   20.30
   5  -4   7  280.83   23.59
   5  -4  -7  345.21   26.27
   5  -4   7  265.47   16.77
   5  -4  -7  369.07   19.86
   5  -4   7  143.53   24.08
   5  -4   7  160.29   14.29
   5   4   7  207.17   21.07
   6   4   7   24.60    5.89
   6  -4   7    8.41   10.49
   6   4   7   27.46    7.62
   6  -4   7   16.24    8.31
   6  -4  -7   29.49   10.39
   6   4  -7   14.65    8.70
   6   4  -7   21.44    5.38
   7   4   7  181.48   17.10
   7  -4   7  153.49   19.47
   7  -4  -7  212.66   22.62
   7   4  -7  165.85   12.78
   7   4   7  167.76   13.52
   7  -4  -7  149.25   15.66
   7   4  -7  135.48   20.79
   8   4   7   18.54    6.39
   8   4  -7   14.55    5.76
   8   4  -7   14.76   10.73
   8  -4   7   17.48    9.32
   8  -4  -7   23.69   10.37
  -7  -5   7  143.90   13.20
  -7  -5  -7  141.04   11.99
  -7  -5   7  113.56   12.79
  -7   5   7   95.68   17.75
  -7   5  -7  135.26   19.48
  -6   5   7   42.53   11.78
  -6   5  -7   57.47   13.20
  -6   5  -7   30.71    9.94
  -6   5   7   50.21    9.05
  -6   5  -7   42.42   11.50
  -6  -5   7   61.54    8.59
  -6  -5  -7   61.04    7.86
  -6  -5   7   47.69    8.18
  -6  -5   7   23.37   10.57
  -5   5  -7   98.29   16.07
  -5   5   7  155.46   14.48
  -5   5  -7  158.93   19.20
  -5  -5   7  189.43   13.45
  -5  -5  -7  164.04   11.75
  -5  -5   7  131.21   12.18
  -5  -5   7  163.27   19.36
  -5   5   7  166.71   20.04
  -5   5  -7  188.10   21.37
  -5  -5   7  200.07   21.47
  -4   5  -7   48.93   11.39
  -4   5   7   68.15    9.66
  -4   5  -7   65.06   12.86
  -4  -5   7   75.63    8.27
  -4  -5  -7   70.62    7.49
  -4  -5   7   55.53    7.50
  -4  -5   7   28.67   10.18
  -4  -5  -7   83.90    8.09
  -4   5   7   62.07   12.37
  -4   5  -7   76.80   13.65
  -4  -5   7   29.98    9.59
  -3   5  -7  209.12   21.50
  -3   5   7  212.17   16.00
  -3   5  -7  243.15   21.93
  -3  -5   7  209.21   22.21
  -3  -5   7  175.01   12.60
  -3  -5   7  258.02   14.89
  -3  -5  -7  256.32   13.91
  -3   5   7  213.10   20.19
  -3  -5   7  218.47   19.23
  -3   5  -7  286.14   23.45
  -3  -5  -7  329.20   14.01
  -3  -5   7  262.06   21.90
  -2  -5   7   96.91    8.32
  -2  -5  -7  111.87    8.28
  -2   5   7   89.17   10.48
  -2   5  -7  100.62   14.02
  -2  -5   7   85.09    7.53
  -2  -5   7   94.06    8.49
  -2  -5  -7   94.80    8.14
  -2  -5   7   50.80   12.78
  -2  -5   7   73.10   11.53
  -2  -5  -7  104.95    7.53
  -2  -5  -7  102.18   13.27
  -2  -5   7   74.55   10.76
  -2  -5   7   41.54   10.53
  -1   5   7  348.54   20.46
  -1  -5   7  369.04   16.82
  -1  -5  -7  390.03   16.35
  -1  -5   7  364.68   30.06
  -1  -5   7  311.35   13.61
  -1  -5   7  332.91   23.30
  -1  -5   7  408.90   26.96
  -1  -5   7  319.99   21.06
  -1  -5  -7  447.08   25.68
   0   5   7  141.11   12.64
   0  -5   7   67.68   14.83
   0   5   7   45.77   16.63
   0  -5   7  135.06    9.27
   0  -5  -7  133.03    8.90
   0  -5   7   94.12   12.80
   0  -5   7   90.29   11.58
   0  -5  -7  143.89   15.09
   0  -5   7   61.59   11.58
   0  -5   7   96.27   11.53
   0  -5  -7  130.56   13.88
   1   5   7  354.98   20.95
   1   5   7  216.15   30.92
   1  -5   7  339.25   31.37
   1  -5  -7  374.69   23.24
   1  -5   7  363.32   25.42
   1  -5   7  327.64   22.92
   1  -5  -7  454.77   27.69
   1  -5   7  386.58   17.37
   1  -5   7  335.32   22.79
   1  -5  -7  482.62   27.97
   1  -5  -7  391.32   17.15
   2  -5   7   69.22   11.26
   2  -5  -7  125.88   15.21
   2  -5  -7  106.66    6.18
   2   5   7  106.38   11.35
   2  -5   7  100.43    8.77
   2  -5  -7  113.06    9.06
   2  -5  -7  115.39   13.17
   2   5   7   74.69   18.31
   2  -5  -7   55.24   11.46
   2  -5   7   84.95   13.29
   2  -5   7   69.09   11.26
   2  -5  -7   97.02   13.84
   3  -5   7  233.51   20.82
   3  -5  -7  334.46   25.41
   3   5   7  250.14   18.07
   3  -5  -7  273.37   20.11
   3   5   7  194.75   26.42
   3  -5   7  277.37   24.94
   4  -5   7   71.02   12.71
   4  -5  -7   79.76   13.99
   4   5   7   84.70   10.79
   4   5   7   44.96   13.25
   5  -5   7  190.74   20.65
   5   5   7  157.01   20.87
   6  -5  -7   95.00   16.62
   6  -5   7   48.68   12.23
   7   5  -7  171.60   13.89
   7   5   7  157.33   14.46
   7  -5   7  140.80   19.88
   7  -5  -7  185.14   22.57
   7   5  -7  140.21   19.97
   8   5  -7   26.01   12.49
  -6   6   7   12.38    9.00
  -6   6  -7   26.83   11.17
  -6  -6   7    5.80    8.12
  -6  -6   7   23.52    6.30
  -6  -6  -7   16.15    5.26
  -5   6   7   59.33   14.39
  -5  -6   7   78.42    9.62
  -5  -6  -7   76.47    8.76
  -5  -6   7   77.82   14.72
  -5   6  -7   67.21   15.17
  -4   6   7   21.01    9.26
  -4   6  -7   34.12   10.82
  -4  -6   7   34.33    6.95
  -4  -6  -7   33.68    6.29
  -4  -6   7   19.08    9.76
  -4  -6   7   16.04    9.91
  -3   6   7  113.55   12.35
  -3   6  -7   88.46   14.61
  -3  -6   7   96.39   16.26
  -3  -6   7  124.73   11.08
  -3  -6  -7  117.00   10.19
  -3  -6   7   99.20   14.10
  -3  -6   7  118.52   16.17
  -2   6   7   45.03    8.23
  -2   6   7   15.73   14.33
  -2  -6   7   61.15    7.65
  -2  -6   7   20.14   10.08
  -2  -6  -7   54.07    6.99
  -2  -6   7   37.25    9.51
  -2  -6   7   23.95    9.11
  -1   6   7  106.05   11.91
  -1  -6   7   96.06   16.84
  -1  -6   7   94.57   13.59
  -1  -6   7  145.15   17.25
   0   6   7   55.36    8.91
   0  -6   7   35.92    9.00
   0  -6  -7   49.57   11.38
   0   6   7   13.58   11.20
   0  -6   7   29.91   11.57
   0  -6   7   37.36    9.57
   0  -6   7   24.62    9.74
   1   6   7  119.33   12.66
   1  -6   7   81.83   17.47
   1   6   7   71.89   20.72
   1  -6   7  118.59   15.65
   1  -6   7  111.47   15.15
   1  -6   7  105.00   14.30
   1  -6  -7  120.58   16.26
   2  -6  -7   63.45   10.81
   2  -6   7   47.02   10.40
   2  -6  -7   54.03   12.50
   2   6   7   26.01   14.02
   2  -6   7   30.14   10.46
   3  -6   7   98.83   14.80
   3  -6  -7  148.69   18.82
   3   6   7   86.97   20.48
   3  -6   7  155.82   20.11
   4   6   7   13.52   10.45
   4  -6   7   32.33    9.89
   5  -6   7   70.17   13.84
   5  -6  -7   91.60   16.51
   6  -6   7   18.28    9.68
   6  -6  -7   23.55   11.13
  -3  -7  -7   33.90    7.04
  -2  -7   7   67.65    9.23
  -2  -7  -7   66.66    8.62
  -2  -7   7   43.61   12.88
  -1  -7   7   62.09   12.96
   0  -7   7   44.73   10.98
   0  -7  -7   61.77   13.72
   0  -7   7   26.91   10.08
   1  -7   7   50.71   11.57
   1  -7  -7   65.49   14.50
   1  -7   7   52.05   11.95
   2  -7   7   37.71   10.72
   2  -7  -7   64.12   14.77
   2  -7   7   29.93   10.32
   3  -7   7   32.67   10.35
   3  -7  -7   47.43   12.96
 -10   0  -8  136.88   19.93
  -9   0  -8   -1.36   10.64
  -9   0  -8    0.68    6.85
  -9   0   8   -4.19    7.74
  -9   0  -8   -0.35    2.65
  -8   0  -8  280.90   24.83
  -8   0   8  188.91   22.78
  -8   0  -8  206.84   34.19
  -8   0  -8  259.45   12.97
  -8   0   8  284.02   22.63
  -7   0  -8   -1.72   12.34
  -7   0  -8   -1.09    5.62
  -7   0   8    0.65    5.21
  -7   0  -8   -1.41    5.18
  -7   0  -8   -0.28    2.20
  -7   0  -8    0.48    5.49
  -7   0   8   -0.43    5.54
  -6   0  -8  502.02   27.60
  -6   0   8  390.44   26.75
  -6   0  -8  489.18   29.09
  -6   0   8  394.73   28.14
  -6   0  -8  413.64   51.70
  -6   0  -8  431.23   16.66
  -6   0  -8  585.57   29.64
  -6   0   8  497.85   26.09
  -5   0  -8   -0.36    3.94
  -5   0   8   -0.41    3.88
  -5   0  -8    1.88   11.83
  -5   0  -8    0.32    3.84
  -5   0   8    1.80    3.83
  -5   0  -8   -0.32    3.93
  -5   0   8    0.30    3.79
  -4   0  -8  608.68   64.08
  -4   0  -8  741.69   23.26
  -4   0   8  774.97   34.69
  -4   0  -8  983.46   33.45
  -4   0   8  869.57   34.54
  -4   0  -8  902.40   31.55
  -4   0   8  742.31   30.00
  -4   0  -8  901.11   32.46
  -4   0   8  752.23   31.04
  -3   0  -8   -1.47    5.61
  -3   0  -8    0.42    1.78
  -3   0   8    1.55    1.65
  -3   0  -8    3.78   11.42
  -3   0   8    0.49    2.09
  -3   0  -8    0.21    2.73
  -3   0   8   -0.62    2.19
  -3   0  -8    0.72    1.36
  -3   0   8    0.63    5.15
  -3   0  -8    0.58    2.40
  -2   0  -8  952.60   48.10
  -2   0   8  979.10   30.59
  -2   0  -8 1115.25   32.90
  -2   0   8 1004.78   31.32
  -2   0   8 1072.46   49.14
  -2   0   8  954.60   48.47
  -2   0   8  975.39   31.10
  -1   0  -8    0.43    4.27
  -1   0  -8    1.90    9.37
  -1   0   8   -0.13    1.86
  -1   0  -8    0.42    1.79
  -1   0   8   -1.03    5.22
  -1   0   8    0.54    4.77
  -1   0   8   -0.70    2.21
   0   0  -8 1141.90   43.40
   0   0   8 1108.05   34.83
   0   0  -8 1232.77   34.76
   0   0   8 1291.83   53.47
   0   0   8 1257.53   39.10
   1   0  -8    2.09    2.62
   1   0  -8   -1.91   11.52
   1   0   8    1.49    2.30
   1   0  -8    0.14    1.98
   1   0   8   -0.51    5.32
   2   0   8  976.87   33.64
   2   0  -8  980.34   46.08
   2   0   8 1197.18   51.05
   2   0  -8 1148.66   34.29
   3   0  -8    0.38    0.93
   3   0  -8   -1.89   11.44
   3   0  -8    0.78    1.74
   3   0   8    1.51    2.75
   3   0  -8   -0.96    2.42
   3   0  -8    1.03    4.68
   3   0   8    1.07    5.85
   3   0   8    0.12    0.87
   4   0   8  863.79   33.03
   4   0  -8  835.25   26.25
   4   0  -8  697.38   67.86
   4   0  -8  891.63   24.49
   4   0   8  819.88   24.64
   4   0   8  649.12   28.64
   4   0   8  965.88   46.26
   4   0  -8  963.17   32.50
   5   0  -8   -1.81   13.38
   5   0  -8    0.14    2.13
   5   0  -8   -0.25    2.19
   5   0   8    0.57    2.28
   5   0  -8   -0.25    3.46
   5   0   8    1.86    6.84
   5   0  -8    0.96    2.18
   5   0   8    0.55    2.18
   6   0  -8  573.30   21.52
   6   0   8  526.30   21.81
   6   0  -8  537.13   20.85
   6   0  -8  489.06   54.31
   6   0  -8  583.56   21.36
   6   0   8  524.72   21.49
   7   0  -8   -1.48   13.41
   7   0  -8    1.24    3.24
   7   0  -8    2.33    3.42
   7   0   8   -1.18    3.51
   7   0  -8    1.57    3.58
   8   0  -8  367.75   18.87
   8   0   8  321.47   18.66
   8   0  -8  330.82   35.66
   8   0  -8  259.02   32.63
   8   0  -8  330.27   24.80
   9   0  -8    1.97    4.98
   9   0   8    2.52    4.98
  10   0  -8  197.70   15.42
 -10   1  -8   71.48   15.25
 -10  -1  -8   81.99   16.74
  -9   1  -8    3.45    8.50
  -9   1   8   -3.27    8.80
  -9  -1  -8    1.45   10.70
  -9  -1  -8   -1.37    6.64
  -9  -1   8   -0.86    7.47
  -9  -1  -8    0.19    2.91
  -8  -1  -8  232.94   22.74
  -8  -1   8  179.62   22.65
  -8   1  -8  186.95   27.35
  -8   1  -8  173.51   31.05
  -8  -1  -8  152.59   31.95
  -8   1  -8  255.61   11.85
  -8  -1   8  214.76   20.86
  -8   1  -8  242.19   23.39
  -8   1   8  156.99   20.37
  -7   1  -8    0.55    5.23
  -7   1   8    0.62    5.31
  -7   1  -8    3.26   11.03
  -7  -1  -8    3.41   11.89
  -7  -1  -8    5.44    6.50
  -7  -1   8    0.68    5.93
  -7   1  -8    0.95    5.44
  -7  -1  -8    2.78    5.37
  -7   1  -8    1.33    1.94
  -7  -1  -8   -0.50    6.11
  -7  -1   8   -0.95    5.75
  -7   1   8    2.68    5.31
  -6  -1  -8  467.83   28.28
  -6  -1   8  282.92   25.19
  -6  -1   8  499.12   25.87
  -6  -1  -8  442.15   25.90
  -6  -1   8  292.47   23.83
  -6   1  -8  335.86   45.10
  -6  -1  -8  279.80   41.67
  -6  -1  -8  363.91   16.11
  -6   1  -8  424.70   14.06
  -6   1  -8  470.73   27.02
  -6  -1  -8  577.60   28.78
  -6   1  -8  434.14   25.59
  -6   1   8  335.03   23.81
  -6  -1   8  399.36   24.35
  -6   1   8  422.42   22.97
  -6   1  -8  441.57   27.09
  -6   1   8  366.70   26.06
  -5  -1  -8    8.92    2.09
  -5  -1   8   10.28    6.26
  -5   1  -8    2.65    6.16
  -5   1  -8   11.67    5.12
  -5   1   8   11.39    5.16
  -5   1  -8    5.66   12.76
  -5  -1  -8    8.71   10.96
  -5  -1  -8   10.04    5.18
  -5  -1   8    6.60    5.27
  -5  -1  -8   11.17    3.16
  -5   1  -8   11.96    5.12
  -5   1   8   10.44    4.73
  -5  -1  -8    9.77    4.74
  -5  -1   8    6.95    4.84
  -5   1  -8   11.04    1.71
  -5   1  -8    7.90    5.10
  -5  -1  -8    8.23    4.67
  -5  -1   8    4.52    4.34
  -5   1   8    7.11    4.37
  -4  -1  -8  386.10   14.36
  -4  -1  -8  507.41   24.02
  -4  -1   8  365.54   22.56
  -4   1  -8  243.34   26.47
  -4  -1   8  615.78   31.97
  -4  -1  -8  511.52   22.97
  -4  -1   8  363.39   21.37
  -4   1  -8  374.65   50.85
  -4  -1  -8  359.45   46.29
  -4   1   8  389.73   19.17
  -4  -1   8  411.64   20.56
  -4  -1  -8  397.41   15.95
  -4  -1   8  423.14   23.75
  -4  -1   8  428.70   30.87
  -4   1  -8  513.25   24.40
  -4  -1  -8  565.56   21.82
  -4   1   8  462.01   22.04
  -4  -1   8  443.90   24.75
  -4   1  -8  521.82   22.39
  -4   1   8  385.84   19.58
  -3  -1   8   10.96    2.74
  -3   1   8   11.12    2.74
  -3   1  -8   16.76    3.53
  -3   1  -8    6.16    6.37
  -3   1  -8    2.08   11.47
  -3  -1  -8    8.82   10.67
  -3  -1  -8   15.71    3.96
  -3  -1   8   19.14    4.41
  -3   1   8   14.81    2.75
  -3  -1  -8   21.80    3.71
  -3  -1   8   15.16    4.23
  -3   1  -8   18.41    5.14
  -3   1   8   16.35    3.99
  -3  -1  -8   22.32    4.01
  -3  -1   8   16.19    4.88
  -3  -1  -8   16.39    3.82
  -3  -1   8   14.07    3.75
  -3  -1   8   17.26    8.28
  -3  -1  -8   17.82    3.40
  -3  -1  -8   17.77    3.46
  -3  -1   8   15.02    5.82
  -2   1  -8  530.80   33.06
  -2   1  -8  481.77   59.72
  -2  -1  -8  589.41   60.28
  -2   1   8  613.79   23.70
  -2  -1   8  634.44   20.13
  -2   1  -8  769.44   28.26
  -2  -1   8  656.28   25.57
  -2  -1   8  618.20   26.32
  -2  -1  -8  815.17   25.71
  -2   1   8  626.62   37.60
  -2  -1   8  639.32   38.22
  -2  -1   8  626.82   25.33
  -2   1   8  649.08   17.86
  -1   1  -8   13.97    5.28
  -1  -1  -8   15.45    7.42
  -1  -1   8   13.56    2.38
  -1  -1  -8   10.72   12.86
  -1   1   8   14.42    3.55
  -1  -1  -8   14.62    3.73
  -1  -1   8   11.03    6.74
  -1   1   8   17.73    7.45
  -1  -1   8   15.23    7.11
  -1   1   8   13.05    6.79
  -1  -1   8   13.89    3.94
  -1   1  -8   16.90    2.39
   0   1  -8  900.03   37.96
   0  -1  -8 1065.96   39.96
   0  -1   8  904.95   27.52
   0   1  -8  706.77   73.58
   0   1   8  889.37   31.12
   0  -1  -8 1071.16   34.78
   0  -1   8 1039.37   48.62
   0   1   8 1044.75   45.74
   0  -1   8  865.06   43.09
   0  -1   8  975.68   34.65
   0   1  -8  983.30   29.89
   1   1  -8   15.82    3.66
   1  -1   8   16.68    2.99
   1   1  -8   15.78    4.87
   1  -1  -8   12.94    3.88
   1   1  -8    2.14   12.96
   1  -1  -8    5.42   11.80
   1   1   8   16.02    3.84
   1  -1  -8   16.24    4.54
   1  -1  -8   14.45    3.68
   1  -1  -8    6.83    5.53
   1  -1   8   10.78    6.65
   1   1   8    8.18    5.50
   1  -1   8    9.85    5.23
   2  -1  -8  645.13   22.81
   2  -1  -8  693.40   23.79
   2  -1   8  593.92   23.42
   2   1   8  617.14   25.41
   2   1  -8  584.42   65.95
   2  -1  -8  493.31   56.22
   2  -1   8  552.87   33.34
   2  -1  -8  819.93   31.37
   2  -1  -8  672.46   35.43
   2  -1   8  769.27   41.58
   2  -1  -8  803.16   26.83
   2   1   8  787.14   37.44
   2   1  -8  744.20   28.33
   3   1  -8   21.26    5.41
   3  -1  -8   21.13    3.99
   3   1  -8   -2.08   13.09
   3  -1  -8   19.94   14.84
   3   1   8   19.24    4.65
   3  -1   8   12.88    5.29
   3  -1  -8   20.33    2.39
   3  -1   8   20.46    2.47
   3  -1  -8   21.52    4.54
   3  -1   8   13.22    8.15
   3  -1  -8    6.67    6.47
   3   1   8   19.62    7.31
   3   1  -8   19.33    2.20
   3  -1  -8   18.81    2.30
   3  -1   8   19.27    2.40
   4   1  -8  460.46   14.65
   4   1   8  461.43   23.07
   4  -1  -8  475.96   19.09
   4   1  -8  455.98   56.28
   4  -1  -8  363.17   48.11
   4   1  -8  522.18   21.33
   4  -1   8  367.45   20.47
   4   1   8  345.49   20.99
   4  -1  -8  540.07   17.11
   4  -1   8  435.74   16.65
   4   1   8  552.47   30.81
   4  -1  -8  500.16   21.94
   4  -1  -8  528.51   17.09
   4   1  -8  458.13   15.45
   4  -1   8  431.11   16.62
   4   1  -8  500.65   25.46
   4   1   8  441.31   15.90
   5   1  -8   14.53    5.86
   5   1  -8   12.40   14.50
   5  -1  -8    3.52   11.50
   5   1   8    8.64    4.71
   5   1  -8   11.45    2.39
   5  -1  -8   12.88    3.98
   5   1  -8   13.41    4.41
   5  -1  -8   12.04    3.36
   5  -1   8   10.93    3.24
   5   1   8    4.35    6.20
   5  -1  -8   11.42    3.29
   5  -1   8   10.75    3.27
   5   1  -8    7.28    2.61
   5   1   8    7.83    2.77
   6   1   8  512.08   27.20
   6   1  -8  463.28   16.68
   6  -1  -8  506.33   21.50
   6   1  -8  547.63   53.44
   6  -1  -8  404.44   49.64
   6   1  -8  470.63   18.93
   6   1   8  426.45   19.19
   6  -1  -8  550.73   20.96
   6   1   8  587.98   33.18
   6  -1   8  455.56   20.43
   6  -1  -8  503.16   20.50
   6  -1   8  456.48   20.66
   6   1  -8  513.39   28.98
   7   1  -8    1.87    5.29
   7   1  -8    3.72    3.38
   7   1  -8    3.47    9.89
   7  -1  -8    1.57   11.96
   7   1   8    3.58    3.25
   7   1  -8    2.15    2.51
   7  -1  -8    3.17    3.96
   7  -1  -8    1.99    3.51
   7  -1   8    1.99    3.73
   7   1   8    3.27    7.30
   7   1  -8    2.93    8.85
   7  -1  -8    2.97    3.68
   8  -1  -8  293.36   38.63
   8  -1   8  115.97   28.95
   8   1   8  133.41   32.07
   8   1  -8  286.84   16.05
   8   1   8  222.42   15.31
   8   1  -8  240.17   30.83
   8  -1  -8  301.99   17.03
   8  -1   8  269.87   17.07
   8   1  -8  286.02   23.03
   9   1  -8    1.62    4.18
   9   1   8    0.31    4.43
   9  -1  -8    2.61    4.74
   9  -1   8    5.14    5.13
  10   1  -8  101.15   11.18
  10  -1  -8  103.73   11.67
 -10  -2  -8   99.02   17.36
 -10  -2  -8  100.61    9.51
 -10   2  -8   94.58   16.91
  -9   2  -8    6.14    7.62
  -9   2   8    2.35    5.95
  -9  -2  -8    8.67    7.89
  -9  -2   8    4.22    8.06
  -9  -2   8    8.08    6.21
  -8   2  -8  148.53   23.11
  -8  -2  -8  146.66   30.01
  -8  -2  -8  196.90   12.07
  -8  -2   8  200.79   17.88
  -8  -2   8  244.32   22.98
  -8   2  -8  209.49   21.59
  -8   2   8  159.33   19.87
  -7   2  -8   16.19    9.30
  -7   2  -8   27.70    8.64
  -7   2   8   21.96    8.45
  -7   2  -8   34.97   17.44
  -7  -2  -8   11.47   12.79
  -7  -2  -8   26.39    4.68
  -7  -2  -8   23.17    7.82
  -7  -2   8   25.18    7.25
  -7  -2  -8   28.74    6.35
  -7  -2   8   21.50    6.23
  -7  -2  -8   30.09   10.70
  -7  -2   8   12.32    8.00
  -6  -2   8  479.73   27.26
  -6   2  -8  319.34   43.80
  -6  -2  -8  282.51   41.15
  -6  -2  -8  372.59   23.86
  -6  -2  -8  413.45   19.72
  -6  -2   8  380.75   21.26
  -6  -2   8  356.58   25.90
  -6  -2  -8  378.96   18.14
  -6  -2   8  385.37   22.47
  -6  -2   8  428.96   26.70
  -6   2  -8  387.77   25.50
  -6   2   8  322.74   24.22
  -6   2   8  437.91   22.51
  -6  -2  -8  338.77   15.15
  -5  -2  -8   21.02    3.63
  -5   2   8   26.48    6.87
  -5   2  -8   23.56    6.84
  -5   2  -8   31.01   17.73
  -5  -2  -8    8.48   11.09
  -5  -2  -8   25.02    4.81
  -5  -2   8   11.42    4.68
  -5   2   8   18.64    5.14
  -5  -2  -8   22.54    4.09
  -5  -2   8   31.34    7.94
  -5  -2   8   18.81    5.18
  -5  -2  -8   26.85    6.74
  -5  -2   8   13.42    5.82
  -5  -2   8   18.93    4.91
  -5   2  -8   25.38    7.08
  -5  -2  -8   27.69    6.67
  -5   2   8   12.17    5.64
  -5  -2   8   20.27    7.05
  -5   2   8    7.77    4.23
  -4   2  -8  326.11   29.71
  -4  -2   8  793.10   36.44
  -4   2  -8  475.58   56.09
  -4  -2  -8  442.43   51.99
  -4  -2   8  631.64   47.08
  -4   2   8  550.98   24.95
  -4  -2  -8  611.54   22.18
  -4  -2   8  509.42   22.79
  -4  -2   8  570.21   26.83
  -4  -2  -8  590.67   26.44
  -4   2  -8  657.16   32.42
  -4  -2   8  480.75   26.40
  -4  -2   8  565.10   28.63
  -4  -2   8  575.05   36.36
  -4  -2  -8  751.09   28.82
  -4  -2   8  498.46   23.45
  -4   2  -8  659.51   30.71
  -4  -2  -8  831.91   25.26
  -4   2   8  528.01   22.85
  -4   2   8  548.40   25.93
  -4   2  -8  673.40   28.67
  -4  -2   8  649.03   31.90
  -4   2   8  619.48   24.83
  -3   2   8   19.17    4.60
  -3   2  -8   23.88    5.12
  -3  -2   8   18.54    4.06
  -3   2  -8   16.68    6.82
  -3  -2   8   34.52    9.71
  -3   2  -8   14.14   14.96
  -3  -2  -8   25.82    3.59
  -3  -2   8   24.91    4.22
  -3  -2  -8   22.33    2.11
  -3   2  -8   20.43    6.38
  -3  -2   8   19.24    5.29
  -3   2   8   23.02    4.71
  -3  -2  -8   26.13    4.90
  -3  -2   8   23.35    5.67
  -3  -2   8    5.94    6.41
  -3  -2   8   20.09    4.78
  -3  -2  -8   26.72    5.04
  -3   2   8   15.83    4.68
  -3  -2   8   17.40    6.70
  -2   2  -8  614.48   35.79
  -2   2  -8  604.21   66.40
  -2   2   8  712.46   28.19
  -2   2  -8  827.84   33.52
  -2  -2   8  805.72   31.42
  -2  -2  -8  761.13   22.62
  -2  -2   8  716.80   23.71
  -2  -2  -8  793.17   25.82
  -2  -2   8  736.11   29.77
  -2  -2   8  796.95   43.04
  -2  -2   8  813.62   44.04
  -2  -2   8  750.22   31.17
  -2  -2  -8  948.69   27.57
  -2  -2   8  715.18   25.00
  -1   2  -8   59.09    9.78
  -1   2   8   61.70    7.08
  -1  -2  -8   84.95    8.76
  -1  -2   8   59.12    4.02
  -1  -2  -8   66.69    3.74
  -1  -2   8   64.18    6.69
  -1  -2   8   44.76   13.42
  -1  -2   8   70.39   12.51
  -1  -2   8   58.74    7.68
  -1  -2   8   51.26    5.03
  -1  -2  -8   60.83    5.28
  -1  -2   8   55.87    5.17
  -1  -2  -8   63.26    5.32
   0   2  -8  805.57   26.02
   0  -2   8  902.21   28.05
   0  -2  -8 1059.04   27.60
   0   2  -8  789.97   36.95
   0  -2  -8 1090.77   42.65
   0  -2   8  897.97   27.72
   0  -2  -8 1043.14   27.00
   0   2  -8  632.01   69.23
   0  -2   8  901.57   23.65
   0   2   8  843.26   31.10
   0  -2   8  805.00   27.06
   0  -2  -8  988.37   35.26
   0  -2   8  856.74   50.35
   0  -2   8  862.65   23.09
   0  -2  -8  846.35   22.47
   0  -2   8  964.17   44.17
   0  -2   8  977.14   36.31
   0  -2   8  905.63   23.04
   0  -2  -8  845.74   22.37
   1   2  -8   69.17    6.35
   1  -2  -8   68.31    6.89
   1  -2   8   69.09    4.95
   1  -2  -8   64.87    7.30
   1   2   8   65.74    7.33
   1   2  -8   54.33   23.10
   1  -2   8   65.49    6.49
   1  -2   8   65.04    3.53
   1  -2   8   68.96    4.64
   1  -2  -8   75.37    4.63
   1  -2  -8   72.57    5.73
   1  -2  -8   61.03    3.28
   1  -2  -8   82.31    9.37
   1  -2   8   46.85   11.60
   1  -2  -8   38.97    8.77
   1   2   8   46.26    9.86
   1  -2   8   54.43   10.26
   1  -2   8   46.43   11.25
   1  -2   8   52.25    8.29
   2   2  -8  808.00   29.68
   2  -2   8  722.21   25.62
   2  -2  -8  726.07   23.08
   2  -2  -8  736.60   27.72
   2   2   8  809.19   30.79
   2  -2   8  771.25   22.29
   2   2  -8  618.91   67.04
   2  -2  -8  760.64   21.91
   2  -2   8  806.77   24.96
   2  -2  -8  957.67   25.26
   2  -2   8  800.05   29.86
   2  -2  -8  929.92   28.71
   2   2  -8  855.26   25.29
   2  -2   8  686.21   39.47
   2  -2  -8  892.80   34.71
   2  -2   8  861.55   47.23
   2  -2  -8  708.99   37.41
   2  -2  -8  837.22   30.17
   2   2   8  946.16   39.49
   2  -2   8  934.35   40.76
   3   2  -8   34.02    6.04
   3  -2  -8   27.09    4.93
   3   2   8   28.13    5.74
   3   2  -8   21.14   15.37
   3  -2   8   24.72    4.04
   3  -2  -8   28.80    4.10
   3   2  -8   41.30    5.93
   3  -2  -8   36.30    7.53
   3  -2   8   15.88    6.41
   3  -2  -8   25.85    5.32
   3  -2  -8   14.62    7.64
   3   2   8   18.35    6.85
   3  -2   8   23.78    5.49
   4   2  -8  691.71   30.62
   4   2   8  685.35   29.92
   4  -2  -8  627.99   25.44
   4   2  -8  683.60   64.54
   4  -2  -8  773.79   25.29
   4  -2   8  692.03   25.13
   4   2  -8  851.40   29.74
   4  -2   8  535.52   28.94
   4  -2  -8  678.60   32.30
   4   2   8  518.01   29.83
   4   2  -8  598.75   21.25
   4   2   8  789.92   34.17
   4   2   8  656.86   22.47
   5   2  -8   30.92    7.38
   5   2   8   36.91    7.54
   5   2  -8   25.91    4.04
   5   2   8   28.71    4.39
   5   2  -8   37.32   18.21
   5  -2  -8   20.98    5.11
   5   2  -8   37.79    6.86
   5  -2  -8   33.77    5.35
   5  -2   8   27.73    5.26
   5   2   8   15.28    4.47
   5   2   8   21.62    7.34
   6   2  -8  471.82   27.66
   6   2   8  519.72   27.50
   6  -2  -8  501.71   21.58
   6   2  -8  428.59   18.53
   6   2   8  428.68   19.41
   7   2  -8   24.56    7.88
   7  -2  -8   31.74   17.50
   7  -2   8   14.36   12.15
   7   2   8   39.79    8.85
   7   2   8   21.64    5.22
   7   2   8   25.77    7.55
   7   2  -8   27.12   12.01
   7   2  -8   32.97    5.47
   7  -2  -8   30.19    6.21
   8   2  -8  284.22   23.30
   8   2   8  313.41   23.22
   8  -2  -8  266.56   39.24
   8   2  -8  276.78   15.84
   8   2  -8  244.66   30.81
   8   2   8  252.64   16.17
   8  -2  -8  330.26   18.69
   8  -2   8  280.81   18.03
   9  -2   8    7.69   15.37
   9  -2  -8   11.51    5.95
   9   2  -8    7.17    4.68
  10   2  -8  159.64   13.79
  10  -2  -8  159.46   14.54
  -9   3  -8    4.90    7.53
  -9  -3  -8    7.08    4.08
  -9  -3  -8   10.96    5.68
  -8  -3  -8   94.82   24.34
  -8  -3  -8  133.06   12.14
  -8  -3   8  126.34   13.49
  -8  -3  -8  115.15    9.85
  -8  -3   8  111.07   13.41
  -8   3  -8  117.58   17.35
  -8   3   8   91.14   15.91
  -7   3  -8   -0.83    5.59
  -7   3   8    0.62    6.01
  -7   3  -8    5.87    6.64
  -7  -3  -8   -1.64   10.71
  -7  -3  -8    8.77    3.97
  -7  -3   8    6.99    5.12
  -7  -3  -8    5.07    4.14
  -7  -3   8    7.58    4.92
  -7  -3   8    9.19    8.42
  -6  -3  -8  240.55   12.97
  -6   3  -8  134.92   19.61
  -6  -3  -8  167.31   32.86
  -6  -3  -8  252.15   14.78
  -6  -3   8  228.04   15.92
  -6  -3  -8  246.91   18.44
  -6  -3  -8  245.89   14.65
  -6  -3   8  224.40   16.70
  -6   3   8  201.01   19.75
  -6   3  -8  273.92   22.47
  -6  -3   8  279.06   22.81
  -5  -3  -8   20.57    4.27
  -5  -3  -8   20.65    7.21
  -5  -3   8   10.97    5.19
  -5   3   8   16.56    6.64
  -5   3  -8   14.68    6.82
  -5   3  -8   19.22    7.80
  -5   3   8   14.25    5.11
  -5  -3   8   18.22    5.26
  -5  -3   8    6.48    6.98
  -5  -3  -8   20.77    4.48
  -5  -3   8   16.09    4.82
  -5  -3  -8   21.76    6.86
  -5   3   8    6.48    4.01
  -4  -3   8  412.68   26.77
  -4  -3   8  378.50   39.55
  -4   3   8  288.59   18.14
  -4   3  -8  367.37   24.92
  -4  -3   8  329.27   16.74
  -4  -3  -8  353.79   15.68
  -4  -3   8  287.44   20.50
  -4  -3   8  314.42   17.25
  -4  -3   8  311.84   26.66
  -4  -3  -8  442.92   23.90
  -4  -3   8  293.71   18.90
  -4   3   8  314.85   20.90
  -4   3  -8  390.16   23.58
  -4  -3  -8  496.97   17.56
  -4   3   8  308.23   15.13
  -3   3   8   21.66    5.52
  -3  -3   8   23.52    5.30
  -3   3  -8   20.03    7.63
  -3  -3   8   47.22   10.39
  -3   3  -8   30.71   18.57
  -3   3   8   33.86    6.08
  -3  -3   8   40.37   13.62
  -3   3  -8   38.26    8.58
  -3  -3   8   26.24    6.28
  -3  -3   8   35.05    4.84
  -3  -3  -8   40.42    4.58
  -3  -3   8   31.02    6.68
  -3  -3   8   32.79    4.72
  -3  -3   8   15.66    8.77
  -3   3  -8   39.79    7.47
  -3  -3  -8   47.84    7.69
  -3  -3   8   22.06    6.26
  -3   3   8   15.90    4.18
  -3  -3   8   24.58    7.84
  -2   3  -8  347.75   26.04
  -2  -3   8  558.82   33.85
  -2   3  -8  329.40   49.71
  -2   3   8  391.10   20.35
  -2   3  -8  483.83   26.32
  -2  -3   8  406.01   22.75
  -2  -3   8  398.26   21.19
  -2  -3   8  414.77   16.66
  -2  -3  -8  432.90   15.74
  -2  -3   8  423.70   31.50
  -2  -3   8  390.32   22.80
  -2  -3   8  420.36   16.13
  -2  -3  -8  435.56   15.32
  -2  -3   8  485.21   28.18
  -2  -3  -8  562.04   23.31
  -2  -3   8  385.68   19.33
  -1  -3   8   19.00    3.01
  -1  -3  -8   21.87    2.97
  -1   3  -8   14.98    6.70
  -1  -3   8   18.18    9.07
  -1  -3   8   12.81    4.00
  -1  -3  -8   17.60    4.95
  -1   3   8   20.39    4.96
  -1  -3   8   20.98    4.52
  -1  -3   8    8.59    8.50
  -1  -3   8   16.92    3.03
  -1  -3  -8   20.84    3.08
  -1  -3   8    7.20    7.50
  -1  -3   8   22.54    8.68
  -1  -3   8   14.99    5.47
   0   3  -8  477.99   28.09
   0   3  -8  409.60   54.88
   0   3   8  467.70   22.44
   0  -3   8  486.81   16.78
   0  -3  -8  507.61   16.29
   0  -3  -8  643.07   28.26
   0  -3   8  406.77   35.77
   0  -3   8  465.72   18.74
   0  -3  -8  471.55   25.88
   0  -3   8  504.22   35.30
   0  -3   8  491.45   30.52
   0  -3   8  516.30   26.74
   0  -3   8  460.49   22.06
   0  -3  -8  656.13   25.57
   0  -3   8  462.09   21.98
   0  -3  -8  647.54   25.40
   1  -3   8   18.16    2.26
   1  -3  -8   20.00    5.73
   1   3  -8    6.17   13.91
   1  -3   8   18.29    5.30
   1  -3  -8   24.00    6.15
   1  -3   8   20.88    2.84
   1  -3  -8   25.33    5.05
   1   3   8   17.83    4.70
   1  -3   8   16.13    2.21
   1  -3  -8   27.06    6.45
   1  -3   8   14.16    8.73
   1  -3   8   18.01    5.22
   1  -3  -8   20.95    5.65
   1  -3   8   17.01    2.73
   1  -3  -8   11.20    6.18
   1  -3  -8   20.81    2.75
   1  -3   8   15.68    6.70
   1  -3   8   16.48    5.69
   2  -3   8  410.91   23.50
   2  -3  -8  631.61   27.68
   2  -3  -8  413.79   12.21
   2   3  -8  473.76   57.81
   2   3   8  442.44   21.99
   2  -3   8  413.71   23.26
   2  -3  -8  587.87   26.28
   2  -3   8  405.73   15.42
   2  -3  -8  447.81   15.48
   2  -3   8  301.04   16.00
   2  -3  -8  540.31   26.57
   2  -3   8  366.57   29.23
   2  -3  -8  410.42   27.09
   2  -3   8  413.47   25.51
   2  -3   8  444.89   28.09
   3   3  -8   47.95    7.02
   3   3   8   36.37    6.83
   3  -3  -8   47.65    8.83
   3  -3   8   28.30    5.18
   3  -3  -8   59.58    6.95
   3  -3  -8   42.57    8.07
   3  -3   8   27.39    8.93
   3   3   8   21.28    8.92
   3  -3   8   28.95    7.31
   4   3  -8  392.23   21.75
   4   3   8  347.60   20.82
   4  -3   8  358.61   18.35
   4  -3  -8  506.76   20.92
   4  -3   8  338.83   23.90
   4  -3  -8  431.60   25.61
   4  -3  -8  389.51   23.64
   4   3   8  257.68   22.98
   4  -3   8  287.22   22.43
   5   3  -8   26.51    7.00
   5  -3  -8   32.75    6.25
   5   3   8   19.76    6.56
   5  -3  -8   25.75    7.60
   5   3   8    7.70    5.19
   5  -3   8   19.80    7.60
   5  -3  -8   30.77    8.44
   5   3  -8   24.24    4.51
   5   3   8   26.16    4.86
   6   3  -8  310.36   21.84
   6   3   8  333.87   22.04
   6   3  -8  270.12   14.88
   6  -3  -8  369.99   19.49
   6   3   8  274.58   15.67
   6  -3   8  283.35   23.35
   6  -3  -8  385.99   25.83
   7   3  -8    7.62    6.28
   7   3   8   10.48    7.03
   7   3  -8   11.00    4.62
   7   3   8    7.50    4.67
   7   3  -8   19.34   10.52
   8   3  -8  165.87   12.63
   8   3   8  159.44   13.29
   8   3  -8  128.21   23.34
   9   3  -8    9.98    5.39
  -8  -4  -8   87.36   25.19
  -8  -4  -8  109.76   11.35
  -8  -4   8   89.05   12.27
  -8   4  -8  114.63   17.84
  -7   4   8   20.81    9.40
  -7   4  -8   22.00    9.20
  -7   4  -8   30.58   10.84
  -7  -4  -8   55.26    9.12
  -7  -4   8   27.90    7.13
  -7  -4  -8   33.32    6.54
  -7  -4   8   39.35    7.80
  -6   4   8  156.69   14.73
  -6   4  -8  164.42   19.81
  -6  -4   8  197.24   14.43
  -6  -4  -8  189.48   12.79
  -6  -4  -8  162.02   12.34
  -6  -4   8  148.13   13.64
  -6   4   8  166.26   19.02
  -6   4  -8  210.86   20.97
  -5  -4  -8   51.72   10.96
  -5   4   8   29.68    8.86
  -5   4  -8   51.59   11.04
  -5   4  -8   15.45    8.17
  -5   4   8   36.11    7.59
  -5   4  -8   54.51   11.60
  -5  -4   8   47.35    6.85
  -5  -4  -8   50.69    6.31
  -5  -4   8   40.12    7.03
  -5  -4   8   24.17    9.70
  -5  -4   8   20.51    8.53
  -4   4   8  213.03   16.16
  -4   4  -8  236.78   21.46
  -4  -4   8  233.07   14.08
  -4  -4  -8  230.32   12.83
  -4  -4   8  198.92   13.59
  -4  -4   8  237.92   23.98
  -4  -4  -8  304.82   11.21
  -4   4   8  205.03   18.77
  -4   4  -8  273.07   21.73
  -4  -4  -8  242.54   12.41
  -4  -4  -8  320.43   22.02
  -4  -4   8  242.70   20.76
  -4   4   8  240.43   11.16
  -3   4   8   36.10    8.01
  -3   4   8   44.29    7.40
  -3  -4   8   34.84   15.14
  -3   4  -8   49.64   10.29
  -3  -4   8   51.08    6.15
  -3  -4  -8   51.46    5.69
  -3  -4   8   45.07    5.57
  -3  -4   8   22.11   10.03
  -3   4  -8   54.32    9.79
  -3  -4   8   33.99    8.17
  -3  -4  -8   54.46    9.33
  -3  -4   8   39.15    7.50
  -3   4   8   19.51    3.56
  -3  -4   8   52.45    5.91
  -3  -4  -8   50.97    5.31
  -3  -4   8   24.11    9.21
  -2  -4   8  337.64   15.11
  -2  -4  -8  353.03   14.30
  -2   4  -8  291.30   24.52
  -2  -4   8  339.70   33.30
  -2   4   8  310.05   18.82
  -2   4  -8  320.84   23.34
  -2  -4   8  300.55   12.95
  -2  -4   8  352.35   29.57
  -2  -4   8  340.29   15.74
  -2  -4  -8  352.41   14.87
  -2  -4   8  305.31   21.25
  -2  -4   8  354.33   24.98
  -2  -4   8  286.50   18.36
  -1  -4   8   87.08    6.86
  -1  -4  -8   93.97    6.58
  -1   4   8   88.92    9.74
  -1  -4   8   75.41   15.05
  -1  -4   8   56.10   13.53
  -1  -4   8   90.67    7.25
  -1  -4  -8   94.29    6.94
  -1  -4   8   66.47   10.04
  -1  -4   8   69.13    8.70
  -1  -4  -8   99.47   10.91
  -1  -4   8   48.96   10.67
   0   4   8  427.70   22.60
   0  -4   8  418.25   16.81
   0  -4  -8  448.21   16.44
   0  -4  -8  404.68   23.13
   0  -4   8  462.42   34.98
   0  -4   8  435.03   26.21
   0  -4   8  380.67   22.24
   0  -4  -8  532.83   26.53
   0  -4   8  383.22   22.03
   0  -4  -8  549.88   26.61
   1  -4   8   72.49    9.95
   1  -4  -8  115.14   12.63
   1   4   8  100.78   10.30
   1  -4  -8  119.25   12.83
   1  -4  -8   56.07    9.95
   1   4   8   34.69   13.80
   1  -4   8   49.83   13.58
   1  -4   8   74.34   11.50
   1  -4   8   88.79    6.68
   1  -4  -8   96.05    6.51
   1  -4   8   75.78   11.46
   1  -4   8   75.79   10.26
   1  -4  -8   94.06   11.53
   2  -4   8  360.90   23.39
   2  -4  -8  467.04   26.83
   2  -4   8  340.39   23.03
   2  -4  -8  445.43   26.25
   2  -4   8  332.80   15.28
   2   4   8  360.89   20.93
   2  -4  -8  372.50   15.52
   2  -4  -8  434.90   24.70
   2  -4   8  318.08   29.27
   2   4   8  226.13   28.68
   2  -4   8  360.71   33.36
   2  -4  -8  348.15   24.91
   2  -4   8  380.61   26.95
   3  -4  -8   65.23   11.55
   3  -4   8   48.36    9.88
   3   4   8   53.11    8.47
   3  -4   8   45.24    9.57
   3  -4  -8   70.11   10.47
   3  -4   8   38.32   11.29
   3   4   8   17.31    9.49
   3  -4  -8   49.98    9.88
   3  -4   8   47.53    5.88
   3  -4  -8   54.64    6.09
   3  -4   8   41.59   11.41
   4   4   8  283.66   19.06
   4  -4   8  250.87   21.41
   4  -4  -8  352.44   24.96
   4  -4   8  112.45   20.50
   4  -4  -8  264.54   19.58
   4   4   8  171.72   21.08
   5   4   8   65.07   10.23
   5  -4  -8   73.17    9.62
   5  -4  -8   59.73   10.07
   5  -4   8   41.35   10.41
   5  -4  -8   57.09   11.87
   6   4  -8  211.09   13.95
   6   4   8  213.72   14.90
   6   4   8  239.79   18.94
   6  -4   8  208.49   21.66
   6  -4  -8  226.53   19.23
   7   4  -8   54.13    7.68
   7   4   8   53.61    8.26
   7  -4   8   39.90   11.05
   7  -4  -8   52.70   12.66
   8   4  -8  141.31   12.39
   8   4  -8  129.08   22.10
  -7   5  -8   17.74    9.22
  -7  -5  -8   20.59    5.78
  -6  -5   8   81.24    9.89
  -6  -5  -8  100.12    9.57
  -6  -5   8   85.32   15.70
  -6   5   8   67.43   14.23
  -6   5  -8   91.43   15.83
  -5   5   8   25.09    9.38
  -5   5  -8   30.78   10.40
  -5   5  -8   27.78    9.75
  -5   5   8   34.66    8.08
  -5  -5   8   37.64    6.66
  -5  -5  -8   41.26    6.43
  -5  -5   8   22.32   10.57
  -4   5  -8   90.28   15.70
  -4   5   8  136.80   13.54
  -4   5  -8  144.37   17.98
  -4  -5   8  140.42   11.37
  -4  -5  -8  149.05   10.61
  -4  -5   8  146.68   19.65
  -4  -5   8  127.26   15.75
  -4   5   8  104.98   14.84
  -4   5  -8  177.90   18.89
  -4  -5   8  150.10   17.52
  -3   5   8   47.87    8.19
  -3   5  -8   49.13   11.37
  -3  -5   8   56.15    7.16
  -3  -5  -8   61.21    6.69
  -3  -5   8   27.87   10.85
  -3  -5   8   41.52    9.84
  -3  -5   8   31.50   10.09
  -2  -5  -8  189.36   11.13
  -2   5   8  176.16   14.78
  -2  -5   8  168.48   21.79
  -2  -5   8  183.01   12.17
  -2  -5  -8  193.72   11.85
  -2  -5   8  175.04   17.22
  -2  -5   8  184.73   19.15
  -2  -5  -8  228.54   18.65
  -1   5   8   66.84    9.21
  -1  -5  -8   69.42    6.49
  -1   5   8   52.45   18.89
  -1  -5   8   30.81   11.72
  -1  -5   8   71.10    7.32
  -1  -5   8   52.14   10.01
  -1  -5  -8   64.18   10.97
  -1  -5   8   45.02   11.18
   0   5   8  172.05   14.73
   0  -5  -8  198.36   11.05
   0  -5   8  174.26   22.81
   0   5   8  100.17   23.99
   0  -5   8  194.01   18.42
   0  -5   8  191.06   19.65
   0  -5   8  158.92   15.34
   0  -5  -8  248.48   19.80
   0  -5  -8  233.21   19.37
   1   5   8   68.17    9.62
   1  -5  -8   88.95   12.02
   1   5   8   41.99   16.67
   1  -5   8   35.47   13.15
   1  -5  -8   67.94    6.45
   1  -5   8   55.14   10.97
   1  -5   8   50.47    9.61
   1  -5  -8   75.37   12.09
   1  -5  -8   64.71   11.66
   2  -5  -8  270.27   22.15
   2  -5   8  154.16   16.49
   2  -5  -8  246.11   21.09
   2  -5  -8  210.24   12.07
   2   5   8  174.41   15.18
   2  -5  -8  223.80   18.54
   2   5   8  106.69   21.28
   2  -5   8  142.70   22.91
   2  -5   8  194.67   20.08
   3  -5  -8   68.88   12.92
   3   5   8   60.20    9.67
   3  -5  -8   77.10   11.27
   3   5   8   33.22   13.09
   3  -5   8   55.95   11.07
   3  -5   8   42.98   12.27
   4   5   8  168.13   15.58
   4  -5   8  136.75   16.91
   4  -5  -8  194.46   20.50
   4  -5  -8  182.18   16.98
   5  -5   8   30.60   10.02
   5  -5  -8   38.60   11.97
   6  -5   8   99.74   16.60
   6  -5  -8  129.24   19.27
   7  -5  -8   33.49   12.20
  -5   6  -8   54.21   13.23
  -5  -6  -8   56.04    7.77
  -4  -6   8   77.78    9.39
  -4  -6  -8   73.65    8.37
  -3  -6   8   70.45    8.71
  -3  -6  -8   67.98    7.98
  -2  -6   8   91.39   17.48
  -2  -6   8  106.03   10.19
  -2  -6  -8  106.27    9.58
  -2  -6   8  102.00   14.36
  -2  -6   8  107.88   15.58
  -1   6   8   32.43   16.07
  -1  -6   8   46.26   13.93
  -1  -6   8   66.29   12.28
  -1  -6   8   30.47   10.67
   0  -6   8  109.33   19.89
   0  -6   8  148.93   17.72
   0  -6   8  150.47   18.20
   0  -6   8  131.92   15.58
   0  -6  -8  161.97   17.98
   1  -6   8   51.65   10.64
   1   6   8   30.29   15.76
   1  -6   8   41.04   14.42
   1  -6   8   61.85   12.53
   1  -6   8   42.57   11.42
   1  -6  -8   79.71   13.76
   2  -6   8   81.24   13.42
   2   6   8   54.14   17.50
   3  -6  -8   74.04   14.44
   3  -6   8   50.46   11.51
   3   6   8   29.50   14.16
   4  -6  -8   91.58   16.29
   5  -6  -8   56.56   14.72
  -2  -7  -8   48.32    7.75
  -1  -7  -8   26.95   10.62
   0  -7  -8   53.64   13.47
   1  -7  -8   40.46   12.14
   2  -7  -8   60.53   13.85
  -9   0  -9  107.07   26.06
  -8   0  -9    5.13    7.25
  -8   0  -9    1.68   12.77
  -8   0   9   -0.49    6.67
  -7   0  -9  292.89   12.88
  -7   0   9  311.04   22.63
  -6   0  -9   -1.59    4.45
  -6   0   9   -0.89    4.85
  -6   0  -9   -2.03   13.23
  -6   0  -9   -0.71    4.16
  -6   0  -9   -0.11    1.92
  -6   0  -9   -0.72    4.55
  -6   0   9   -1.75    4.74
  -5   0  -9  418.06   38.80
  -5   0  -9  399.06   54.66
  -5   0  -9  576.80   26.27
  -5   0  -9  576.60   25.05
  -5   0   9  481.48   25.90
  -5   0  -9  583.95   26.15
  -5   0   9  443.54   23.96
  -4   0  -9   -2.62    6.99
  -4   0  -9    1.61    2.47
  -4   0   9    0.41    2.09
  -4   0  -9    2.12   12.81
  -4   0   9    1.00    2.47
  -4   0  -9    0.80    3.35
  -4   0  -9   -0.55    1.41
  -4   0  -9    0.72    3.55
  -4   0   9   -1.70    4.27
  -3   0  -9  485.46   14.42
  -3   0  -9  582.66   39.48
  -3   0  -9  436.17   56.85
  -3   0   9  555.16   21.23
  -3   0  -9  711.16   24.73
  -3   0   9  599.71   21.94
  -3   0  -9  685.23   18.92
  -3   0   9  580.07   21.86
  -2   0  -9    0.56    4.99
  -2   0  -9   -2.16   12.47
  -2   0   9    1.31    2.12
  -2   0  -9    0.30    1.68
  -2   0   9   -0.61    6.15
  -2   0   9    0.59    2.09
  -1   0  -9  892.58   40.96
  -1   0  -9  962.58   27.58
  -1   0   9  946.46   47.50
  -1   0   9  969.23   30.71
   0   0  -9    1.00    3.40
   0   0  -9    4.37   12.05
   0   0   9    1.05    2.26
   0   0  -9    0.26    2.04
   0   0   9    0.58    6.08
   0   0   9   -0.58    5.03
   1   0  -9  876.77   33.41
   1   0   9  989.07   47.73
   1   0  -9  950.38   29.16
   2   0  -9  -10.97   15.78
   2   0   9    1.91    2.50
   2   0  -9    0.17    2.50
   2   0   9   -0.60    5.89
   3   0   9  746.29   41.16
   3   0  -9  701.38   25.97
   4   0  -9  -10.75   15.46
   4   0  -9    0.63    2.15
   4   0   9    1.09    3.39
   4   0  -9    0.21    1.20
   4   0   9    0.27    2.98
   4   0  -9    0.23    3.16
   4   0   9   -1.89    7.21
   4   0   9    0.46    1.27
   5   0   9  522.84   26.30
   5   0  -9  511.45   19.17
   5   0  -9  539.84   17.61
   5   0   9  490.74   17.69
   6   0   9    1.45    2.56
   6   0  -9   -1.98   14.26
   6   0  -9   -0.90    2.67
   6   0   9    1.40    7.62
   6   0  -9   -0.14    2.50
   7   0  -9  356.77   47.11
   7   0  -9  384.76   17.51
   7   0   9  428.65   34.24
   8   0  -9    5.78    6.61
   8   0   9   -1.94   10.70
   8   0  -9    0.44    3.81
  -9   1  -9  117.62   26.37
  -8   1  -9    1.70    5.67
  -8   1  -9    1.61   11.61
  -8  -1  -9   10.86   14.47
  -8  -1  -9    2.37    6.70
  -8  -1  -9    0.34    2.67
  -8  -1   9   -1.65    6.49
  -7  -1  -9  313.29   23.95
  -7   1  -9  185.38   26.60
  -7   1  -9  198.18   36.58
  -7  -1  -9  165.85   35.19
  -7  -1   9  245.09   21.01
  -7   1   9  268.69   19.92
  -7   1  -9  285.14   22.09
  -6   1  -9    3.86    7.53
  -6   1  -9    4.52    5.33
  -6   1   9    2.36    4.44
  -6   1  -9    5.79   12.13
  -6  -1  -9    3.88   13.10
  -6  -1  -9    3.05    5.54
  -6  -1   9    3.19    5.16
  -6  -1  -9    2.23    2.33
  -6  -1  -9    4.96    2.32
  -6  -1  -9    7.29    5.60
  -6   1  -9    3.65    5.61
  -6  -1  -9    1.70    4.23
  -6  -1   9    5.56    5.58
  -6   1   9    4.00    4.80
  -5  -1  -9  432.51   23.36
  -5  -1   9  327.69   22.29
  -5  -1  -9  449.60   22.66
  -5   1  -9  214.98   26.59
  -5   1  -9  335.77   49.37
  -5  -1  -9  265.83   43.72
  -5  -1   9  347.07   19.97
  -5  -1  -9  332.79   14.92
  -5  -1  -9  439.29   15.09
  -5   1  -9  427.81   23.77
  -5  -1  -9  479.33   21.41
  -5  -1   9  381.34   23.62
  -5   1   9  362.55   20.40
  -5   1   9  330.02   19.19
  -5   1  -9  445.21   21.88
  -5  -1  -9  333.75   12.27
  -4  -1  -9    1.80    1.59
  -4  -1  -9    3.02    2.88
  -4  -1   9    2.17    2.10
  -4   1   9    3.70    2.60
  -4   1  -9    3.23    2.89
  -4   1  -9   -0.74    5.59
  -4  -1  -9    3.64    3.19
  -4   1  -9   -6.53   13.14
  -4  -1   9    2.87    3.04
  -4  -1  -9    1.99   11.53
  -4   1   9    2.24    2.15
  -4  -1   9    4.60    3.48
  -4   1  -9    2.67    4.36
  -4  -1  -9    4.92    3.27
  -4   1   9    2.95    3.33
  -4  -1  -9    3.03    2.09
  -4  -1   9    4.64    4.23
  -4  -1  -9    4.43    2.45
  -4  -1  -9    3.11    3.20
  -4  -1   9    2.59    2.85
  -4   1  -9    6.00    4.66
  -4  -1  -9    3.29    2.96
  -4   1   9    1.18    3.75
  -4  -1   9    1.16    4.70
  -3   1  -9  335.14   28.68
  -3   1  -9  338.98   51.77
  -3  -1  -9  330.58   48.62
  -3   1   9  426.78   19.76
  -3  -1  -9  550.15   16.94
  -3   1  -9  561.33   24.92
  -3  -1   9  439.70   21.05
  -3  -1   9  426.17   23.30
  -3  -1  -9  548.02   19.56
  -3  -1   9  413.25   20.80
  -3   1   9  442.54   15.22
  -3  -1   9  503.18   27.52
  -2   1  -9    3.16    5.21
  -2  -1  -9    4.68    7.09
  -2   1  -9    4.73   12.37
  -2  -1  -9    4.07   11.79
  -2   1   9    6.46    3.25
  -2  -1   9    6.34    2.15
  -2  -1  -9    7.19    3.00
  -2  -1   9    6.31    7.05
  -2  -1   9    3.96    6.62
  -2  -1   9    5.30    3.15
  -1   1  -9  587.43   32.19
  -1  -1  -9  770.84   37.86
  -1   1   9  604.61   24.12
  -1  -1   9  613.60   20.26
  -1  -1  -9  737.90   26.40
  -1  -1   9  696.55   40.68
  -1   1   9  716.77   39.98
  -1  -1   9  612.77   38.21
  -1  -1   9  679.55   26.98
  -1   1  -9  638.47   19.44
   0   1  -9   11.84    3.13
   0   1  -9   10.36    5.18
   0  -1  -9   16.66    5.46
   0   1  -9    9.63   13.93
   0  -1   9   12.23    2.65
   0   1   9   10.54    3.44
   0  -1  -9    8.57    3.88
   0  -1  -9   12.18    3.56
   0  -1   9    6.35    7.26
   0  -1   9    5.76    6.51
   0   1   9   12.77    7.63
   0  -1   9    8.45    4.40
   1   1  -9  628.17   29.10
   1  -1  -9  673.70   26.76
   1  -1   9  606.23   22.08
   1   1   9  633.93   25.40
   1   1  -9  412.35   60.53
   1  -1  -9  447.43   57.83
   1  -1  -9  747.91   29.59
   1  -1   9  739.43   42.46
   1  -1  -9  771.54   26.35
   1   1   9  789.48   40.05
   1   1  -9  691.09   25.72
   2   1  -9    5.86    3.49
   2  -1  -9    4.55    2.77
   2   1  -9    4.80   13.90
   2  -1  -9   10.50   15.11
   2  -1   9    4.66    2.71
   2   1   9    9.59    3.78
   2  -1   9    1.66    5.38
   2  -1  -9    7.22    3.41
   2  -1   9    4.65    6.86
   2   1   9    5.74    6.63
   3  -1  -9  487.16   19.51
   3  -1   9  457.08   20.80
   3   1   9  467.96   22.76
   3   1  -9  315.55   51.47
   3  -1  -9  365.03   52.45
   3   1  -9  516.23   20.31
   3  -1   9  394.89   26.03
   3  -1   9  572.53   37.95
   3   1   9  605.97   34.13
   3  -1  -9  550.15   22.79
   3   1  -9  547.94   25.43
   4   1  -9    2.08    4.19
   4   1  -9    4.38   13.24
   4  -1  -9   14.56   14.51
   4  -1  -9    3.58    1.75
   4  -1   9    5.65    3.77
   4   1   9    5.87    4.69
   4  -1  -9    3.96    2.88
   4   1  -9    3.30    3.16
   4  -1   9    5.35    1.93
   4  -1   9    0.29    3.21
   4   1  -9    2.82    1.72
   4  -1  -9    6.18    3.91
   4  -1   9    4.41    7.80
   4   1   9    3.21    6.46
   4  -1  -9    4.26    1.81
   4   1   9    4.82    1.85
   5   1   9  386.24   15.46
   5  -1  -9  460.53   16.32
   5  -1   9  368.58   15.91
   5   1   9  441.32   24.13
   5  -1  -9  412.22   18.41
   5   1  -9  347.04   50.09
   5  -1  -9  297.16   47.41
   5   1  -9  451.90   21.29
   5  -1   9  475.50   36.92
   5   1   9  494.68   31.13
   5  -1  -9  452.36   16.18
   5   1  -9  414.86   15.13
   5   1  -9  447.07   25.99
   6   1  -9    7.06    6.26
   6   1  -9    4.01    2.63
   6   1  -9   -3.41   14.58
   6  -1  -9    7.81   14.45
   6   1   9    5.93    2.94
   6   1   9    4.57    5.27
   6  -1  -9    3.26    3.52
   6   1   9    3.35    7.35
   6  -1  -9    5.07    3.20
   6  -1   9    3.27    3.14
   7  -1  -9  331.38   16.26
   7   1   9  319.57   22.59
   7   1  -9  326.60   41.03
   7  -1  -9  246.86   41.41
   7   1   9  336.67   26.73
   7   1  -9  292.91   14.76
   7   1  -9  304.75   23.38
   8  -1   9    1.85   10.71
   8   1  -9    3.15    3.44
   8   1   9   -1.18    8.00
   8  -1  -9    2.11    3.70
  -8   2  -9   -0.56    6.10
  -8  -2  -9    5.33   13.15
  -8  -2  -9   11.77    8.21
  -7  -2  -9  238.21   21.25
  -7   2  -9  184.86   34.54
  -7  -2  -9  143.20   32.18
  -7  -2  -9  174.00   11.38
  -7   2  -9  222.92   19.99
  -7  -2   9  230.09   21.21
  -7   2   9  208.93   16.89
  -6   2  -9    5.10    6.96
  -6   2  -9   13.33    5.99
  -6   2  -9   13.06   13.81
  -6  -2  -9   11.30   15.41
  -6  -2  -9    7.72    5.83
  -6  -2  -9    8.15    3.47
  -6  -2   9    4.47    6.05
  -6   2   9    5.22    5.08
  -5  -2  -9  284.75   13.09
  -5   2  -9  135.51   20.45
  -5   2  -9  267.14   43.07
  -5  -2  -9  217.14   39.05
  -5  -2  -9  352.17   20.77
  -5   2   9  292.09   18.05
  -5   2  -9  377.62   25.18
  -5  -2  -9  288.98   14.68
  -5  -2  -9  420.19   21.72
  -5  -2  -9  464.24   18.68
  -5   2   9  318.06   19.48
  -5   2  -9  371.95   21.32
  -5  -2   9  349.25   23.41
  -5   2   9  331.43   17.98
  -4  -2  -9   20.66    5.34
  -4   2   9   11.17    4.01
  -4   2  -9   14.46    4.94
  -4   2  -9    8.24    6.57
  -4  -2   9   18.48    9.25
  -4   2  -9    2.09   12.10
  -4  -2  -9   11.73   13.65
  -4  -2   9   11.12    4.83
  -4   2  -9   12.95    6.28
  -4  -2  -9   15.34    2.98
  -4   2   9   13.40    4.64
  -4  -2  -9   11.87    4.53
  -4  -2   9    8.57    3.33
  -4  -2   9   11.66    7.76
  -4  -2  -9   13.85    2.82
  -4   2   9    7.25    4.30
  -4  -2   9    8.65    6.09
  -3   2  -9  277.94   25.24
  -3  -2   9  635.12   37.99
  -3   2  -9  289.64   47.60
  -3  -2  -9  262.34   43.42
  -3  -2  -9  475.55   18.87
  -3  -2   9  342.47   18.22
  -3  -2   9  350.06   15.37
  -3   2   9  366.80   19.18
  -3   2  -9  435.33   24.13
  -3  -2   9  401.77   21.51
  -3  -2  -9  493.23   21.41
  -3  -2   9  345.96   20.84
  -3  -2   9  422.48   32.06
  -3  -2   9  383.72   21.46
  -3  -2  -9  497.69   17.95
  -3  -2   9  360.47   15.57
  -3   2   9  448.88   21.52
  -3  -2   9  442.77   26.65
  -2  -2  -9   19.31    2.75
  -2   2  -9   14.55    6.54
  -2  -2  -9   14.37    2.37
  -2  -2   9   14.76    2.52
  -2   2  -9   15.76   18.42
  -2   2   9   22.74    5.13
  -2  -2   9   13.27    2.39
  -2  -2  -9   24.99    5.42
  -2  -2   9   15.29    4.55
  -2  -2   9   15.58    3.01
  -2  -2   9   17.25    8.77
  -2  -2   9   18.70    5.27
  -2  -2  -9   14.68    2.28
  -2  -2  -9   14.78    2.28
  -1   2  -9  462.32   28.82
  -1  -2  -9  702.00   37.88
  -1   2   9  507.83   22.78
  -1  -2   9  469.95   20.78
  -1  -2  -9  655.54   26.66
  -1  -2   9  440.42   38.59
  -1  -2   9  532.96   34.96
  -1  -2   9  565.75   25.79
   0   2  -9   21.80    6.63
   0  -2  -9   26.44    7.11
   0   2  -9   18.47   17.56
   0  -2   9   25.62    2.57
   0   2   9   27.09    5.13
   0  -2  -9   24.92    5.91
   0  -2   9   14.89    8.91
   0  -2   9   16.00    8.85
   0  -2   9   28.02    9.18
   0  -2   9   20.26    5.86
   1   2  -9  512.84   20.74
   1  -2  -9  610.43   23.67
   1  -2   9  518.67   17.87
   1   2  -9  370.99   54.94
   1   2   9  533.37   24.12
   1  -2   9  486.49   36.04
   1  -2  -9  651.99   28.37
   1  -2  -9  521.39   30.86
   1  -2   9  628.82   40.32
   1  -2  -9  600.50   23.85
   1  -2   9  534.72   32.93
   1  -2   9  639.71   31.40
   2   2  -9   25.82    5.01
   2  -2  -9   15.01    2.88
   2  -2   9   18.12    3.49
   2   2  -9    9.00   17.11
   2  -2   9   18.21    1.41
   2  -2  -9   19.67    4.45
   2   2   9   19.22    5.17
   2  -2  -9   16.07    1.40
   2   2  -9   21.97    3.15
   2  -2  -9   20.03    1.80
   2  -2   9   16.75    1.54
   2  -2  -9   27.45    6.82
   2  -2   9   12.04    7.36
   2  -2  -9   20.28    4.93
   2  -2   9   10.41    8.21
   2   2   9    9.98    7.24
   2  -2  -9   16.60    1.62
   2  -2   9   15.39    1.50
   3   2  -9  456.60   22.19
   3  -2   9  370.96   17.85
   3  -2  -9  411.44   19.11
   3   2   9  399.61   21.44
   3   2  -9  360.19   52.64
   3  -2   9  380.24   13.06
   3   2  -9  505.53   19.07
   3  -2  -9  469.24   14.58
   3  -2   9  401.13   14.30
   3  -2   9  377.09   26.27
   3  -2  -9  466.18   25.59
   3  -2  -9  394.53   13.12
   3  -2   9  492.20   37.03
   3   2   9  524.57   29.25
   4   2  -9   20.58    5.79
   4  -2   9   13.74    3.18
   4   2  -9    9.90   14.25
   4  -2  -9   13.12    4.37
   4   2   9   18.12    5.90
   4   2  -9   23.45    5.74
   4   2   9    5.22    4.93
   4  -2   9   23.08   12.48
   4   2   9   11.98    7.09
   4  -2  -9   16.64    3.35
   5   2  -9  376.21   23.47
   5   2   9  409.07   23.62
   5   2  -9  380.71   49.28
   5  -2  -9  415.10   17.02
   5   2  -9  352.05   14.98
   5   2   9  372.96   16.18
   5  -2  -9  407.19   16.90
   5  -2   9  373.34   17.16
   6   2  -9    8.63    5.93
   6   2  -9   15.32   13.63
   6  -2  -9    2.01   16.82
   6  -2  -9   13.51    4.35
   6   2   9   12.32    6.80
   6   2   9   11.34    6.63
   6   2  -9    7.58    3.37
   7   2  -9  270.49   21.61
   7   2   9  289.96   21.46
   7  -2  -9  288.96   15.88
   7   2  -9  243.02   13.57
   8  -2  -9    5.38    5.04
   8   2  -9    7.79    4.01
  -8  -3  -9   12.31   16.23
  -8  -3  -9   11.43    4.38
  -8  -3   9   12.26    6.22
  -7  -3  -9  109.93   28.24
  -7  -3  -9  168.05   12.87
  -7   3  -9  165.50   20.24
  -7  -3  -9  136.60   10.89
  -7  -3   9  124.78   13.42
  -7   3  -9  163.92   17.96
  -6   3  -9   23.36    7.82
  -6  -3  -9    7.57   12.80
  -6   3  -9   25.99    9.34
  -6  -3  -9   23.95    5.12
  -6  -3   9   20.04    5.54
  -6  -3  -9   23.44    5.14
  -6  -3   9   15.99    8.17
  -6   3   9    7.45    5.27
  -5  -3  -9  194.91   11.55
  -5   3   9  191.26   15.23
  -5  -3  -9  217.97   12.89
  -5  -3   9  195.68   13.96
  -5   3  -9  231.11   20.76
  -5  -3   9  201.40   22.84
  -5   3  -9  264.75   19.62
  -5  -3   9  210.82   19.26
  -5   3   9  226.87   13.97
  -4   3   9   13.64    4.94
  -4   3  -9   38.39    8.04
  -4  -3  -9   33.79    7.29
  -4   3  -9    8.65    7.17
  -4   3  -9   21.40   16.70
  -4  -3  -9   27.41    4.59
  -4   3  -9   30.78    8.77
  -4   3   9   18.09    5.59
  -4  -3   9   18.47    9.61
  -4  -3  -9   25.42    6.02
  -4  -3   9   20.13    4.55
  -4   3   9    8.62    3.97
  -3   3  -9  165.57   19.25
  -3   3  -9  227.29   42.52
  -3  -3   9  276.06   31.44
  -3   3   9  230.59   15.70
  -3   3  -9  298.47   21.41
  -3  -3   9  234.73   13.04
  -3  -3  -9  284.99   12.45
  -3  -3   9  233.51   16.87
  -3  -3   9  259.63   25.71
  -3  -3   9  240.35   18.13
  -3  -3  -9  347.38   17.83
  -3   3   9  273.50   14.85
  -2   3  -9   29.82    9.07
  -2   3  -9   31.25   19.48
  -2   3   9   37.82    6.66
  -2  -3   9   30.47    4.14
  -2  -3  -9   38.33    3.90
  -2  -3   9   27.67    5.77
  -2  -3   9   14.27    9.09
  -2  -3   9   25.41    6.89
  -2  -3  -9   42.31    6.14
  -2  -3   9   29.60    8.83
  -1   3  -9  338.94   25.12
  -1   3   9  349.19   19.56
  -1  -3  -9  478.81   24.36
  -1  -3   9  350.18   17.55
  -1  -3   9  355.33   13.99
  -1  -3  -9  379.99   13.26
  -1  -3   9  378.30   31.81
  -1  -3   9  354.27   29.11
  -1  -3   9  359.98   22.22
  -1  -3  -9  390.67   13.04
  -1  -3   9  337.89   17.21
  -1  -3  -9  472.76   19.77
  -1  -3  -9  509.66   20.38
   0  -3  -9   49.38    3.71
   0  -3  -9   66.34    7.72
   0  -3   9   31.52    5.78
   0  -3  -9   58.69    7.34
   0   3  -9   49.62   22.97
   0   3   9   52.37    7.55
   0  -3   9   40.54    4.57
   0  -3  -9   72.77    9.64
   0  -3   9   45.30    4.07
   0  -3  -9   50.71    3.89
   0  -3   9   30.67    9.53
   0  -3   9   33.32    7.98
   1  -3  -9  532.60   22.11
   1  -3  -9  458.08   19.55
   1  -3   9  347.24   11.56
   1   3  -9  297.79   48.49
   1   3   9  379.90   20.46
   1  -3   9  375.16   19.75
   1  -3  -9  502.34   21.08
   1  -3  -9  385.87   12.85
   1  -3  -9  468.55   25.03
   1  -3   9  314.26   29.87
   1  -3  -9  338.10   23.98
   1  -3   9  368.38   27.12
   1  -3   9  411.02   25.52
   2  -3   9   28.87    3.69
   2   3   9   39.04    7.07
   2   3  -9   52.24   22.16
   2  -3  -9   55.23    5.67
   2  -3  -9   39.81    6.98
   2  -3  -9   50.11    8.79
   2  -3   9   21.44    9.24
   2  -3   9   29.17    6.63
   2  -3   9   14.10    9.95
   2  -3   9   21.60    7.68
   2  -3  -9   40.49    3.52
   2  -3   9   34.13    9.95
   3   3  -9  285.02   16.96
   3   3   9  272.37   18.35
   3  -3  -9  377.37   15.94
   3  -3   9  288.59   19.50
   3  -3  -9  382.37   20.43
   3  -3  -9  279.58   11.94
   3  -3  -9  340.03   21.91
   3  -3   9  219.25   21.85
   3   3   9  187.46   22.90
   3  -3   9  289.28   30.18
   4   3  -9   38.43    7.41
   4   3   9   34.34    7.68
   4  -3  -9   34.26    5.69
   4  -3  -9   46.21    8.31
   4  -3  -9   45.71    9.28
   4   3   9   12.84    7.77
   4  -3   9   22.93    6.97
   5   3  -9  245.97   18.49
   5   3   9  262.16   18.99
   5  -3  -9  259.52   20.52
   6   3  -9   30.25    8.20
   6  -3   9   12.42   12.76
   6   3   9   30.08    8.56
   6   3  -9   32.41    5.32
   7   3  -9  176.58   17.69
   7   3  -9  170.89   11.77
  -7  -4  -9  118.55   11.97
  -6   4  -9   31.86   10.14
  -6   4  -9   32.58   10.65
  -6   4   9   28.60    7.30
  -6  -4  -9   30.39    6.23
  -6  -4  -9   24.24    5.67
  -5   4   9  153.67   14.37
  -5   4  -9  193.54   20.68
  -5  -4  -9  191.58   12.39
  -5  -4   9  173.11   22.41
  -5   4  -9  221.83   20.14
  -4   4  -9   47.68    9.78
  -4   4   9   38.03    7.74
  -4   4  -9   41.41    9.95
  -4  -4  -9   42.50    5.69
  -4  -4   9   13.99    9.38
  -4  -4   9   31.36    8.72
  -4  -4   9   30.22    9.31
  -3   4  -9  167.79   19.91
  -3   4   9  203.87   15.89
  -3   4  -9  258.84   21.71
  -3  -4   9  225.35   12.99
  -3  -4  -9  247.25   12.31
  -3  -4   9  242.91   25.47
  -3  -4   9  217.89   18.74
  -3  -4   9  270.00   22.77
  -3   4   9  236.59   11.93
  -2   4  -9   39.15   10.19
  -2   4   9   43.02    7.73
  -2  -4   9   51.50    5.81
  -2  -4  -9   62.32    5.67
  -2  -4   9   30.49   11.65
  -2  -4   9   38.58    8.73
  -2  -4  -9   63.77    9.06
  -2  -4   9   30.36    9.81
  -1  -4  -9  317.25   12.96
  -1   4   9  262.13   17.87
  -1  -4   9  309.26   29.60
  -1  -4   9  279.60   13.76
  -1  -4  -9  317.89   13.38
  -1  -4   9  279.10   20.85
  -1  -4   9  370.16   26.72
  -1  -4   9  273.29   17.77
  -1  -4  -9  393.12   21.56
  -1  -4  -9  415.47   21.98
   0  -4  -9   79.93   10.24
   0  -4  -9   68.21    5.44
   0   4   9   63.71    8.99
   0  -4  -9   93.07   11.91
   0  -4   9   68.20    6.07
   0  -4  -9   69.08    5.66
   0  -4   9   34.39   12.46
   0  -4   9   58.36   10.65
   0  -4   9   51.86    8.34
   0  -4  -9   73.32    9.91
   1  -4  -9  440.11   24.43
   1  -4   9  299.47   20.45
   1  -4  -9  432.39   24.10
   1  -4  -9  408.45   19.70
   1   4   9  309.99   19.68
   1  -4  -9  387.83   23.95
   1  -4  -9  316.53   13.19
   1   4   9  215.15   30.78
   1  -4  -9  297.92   22.11
   1  -4   9  289.23   30.10
   1  -4   9  320.19   24.05
   2  -4   9   47.36    9.27
   2  -4  -9   63.72   10.46
   2   4   9   51.72    8.57
   2  -4  -9   69.45   10.83
   2   4   9   31.71   13.17
   2  -4  -9   59.91    5.36
   2  -4   9   51.99   11.86
   3   4   9  261.93   18.67
   3  -4   9  233.24   19.61
   3  -4  -9  361.95   23.55
   3  -4  -9  315.55   21.90
   3   4   9  147.77   22.07
   3  -4   9  261.31   25.11
   4   4   9   53.67    9.43
   4  -4  -9   58.39   11.42
   4  -4  -9   52.17   10.03
   5   4   9  212.37   18.16
   5  -4  -9  264.01   22.19
   5  -4  -9  227.90   19.64
   6  -4  -9   45.17   11.48
  -5   5  -9  112.39   16.30
  -4   5  -9   31.32   10.34
  -4  -5  -9   40.66    5.89
  -4  -5   9   29.71    9.13
  -3   5   9  113.36   12.37
  -3  -5  -9  133.51    9.70
  -3  -5   9  136.49   20.50
  -3  -5   9  123.69   15.35
  -2   5   9   46.34    8.58
  -2  -5  -9   54.21    6.39
  -2  -5   9   26.08   11.23
  -2  -5   9   36.30    9.14
  -2  -5   9   19.17    8.83
  -1   5   9  170.78   14.93
  -1  -5   9  175.36   23.75
  -1  -5  -9  186.08   11.09
  -1  -5   9  174.89   17.76
  -1  -5  -9  213.11   18.21
  -1  -5   9  176.53   19.42
   0   5   9   50.38    8.83
   0  -5  -9   76.09   11.72
   0   5   9   23.61   14.38
   0  -5   9   34.45   13.13
   0  -5   9   57.16   11.28
   0  -5   9   38.19   11.24
   0  -5  -9   62.28   11.04
   1  -5  -9  222.05   19.22
   1   5   9  180.26   15.67
   1  -5  -9  207.06   18.50
   1   5   9  132.38   25.84
   1  -5   9  144.12   22.91
   1  -5   9  169.59   18.55
   2   5   9   56.00    9.32
   2  -5  -9   68.83   11.41
   2  -5  -9   55.83   11.71
   2   5   9   39.12   14.66
   2  -5   9   30.66   14.38
   2  -5   9   43.75   11.88
   3  -5  -9  167.20   18.37
   3  -5  -9  163.79   16.94
   3  -5   9  153.29   20.42
   4  -5  -9   49.08   12.29
   1   6   9   57.26   19.04
   2   6   9   22.63   13.35
  -8   0 -10  103.89   28.08
  -8   0  10  153.62   17.76
  -7   0 -10    2.03   12.76
  -7   0  10   -0.90    6.16
  -6   0 -10  277.76   32.78
  -6   0 -10  243.93   43.77
  -6   0  10  255.87   19.01
  -5   0 -10    0.98    8.02
  -5   0 -10    2.33   14.05
  -5   0 -10   -0.31    4.11
  -5   0 -10   -0.38    1.58
  -5   0  10   -1.49    4.87
  -4   0 -10  337.46   31.82
  -4   0 -10  381.76   18.87
  -4   0  10  327.95   16.63
  -4   0  10  328.20   21.64
  -3   0 -10   -0.68    6.31
  -3   0 -10   -2.39   13.20
  -3   0  10   -0.88    2.53
  -3   0 -10    0.50    1.44
  -3   0 -10   -0.88    1.93
  -3   0  10   -0.50    2.38
  -3   0  10   -0.78    4.80
  -2   0 -10  474.61   31.53
  -2   0  10  432.15   18.74
  -2   0 -10  541.47   17.05
  -2   0  10  470.18   35.03
  -2   0  10  525.95   19.80
  -1   0 -10    1.80    4.91
  -1   0  10    0.80    2.42
  -1   0 -10    1.55    2.11
  -1   0  10   -2.71    6.88
   0   0 -10  689.03   31.69
   0   0 -10  744.00   23.35
   0   0  10  757.89   43.48
   1   0 -10    0.85    3.37
   1   0 -10    7.46   16.23
   1   0  10    0.18    2.55
   1   0 -10   -0.77    2.48
   1   0  10   -1.98    7.00
   2   0  10  598.69   37.95
   2   0 -10  562.94   21.52
   3   0 -10   -7.43   18.33
   3   0  10    0.48    3.06
   3   0 -10    2.51    3.48
   3   0  10   -2.06    7.57
   4   0  10  341.10   19.68
   4   0 -10  366.89   18.87
   5   0 -10    2.37   17.52
   5   0  10   -0.33    4.57
   5   0  10    6.49    9.32
   6   0  10  310.89   21.07
   6   0 -10  259.44   46.84
   6   0  10  377.53   31.76
   7   0 -10    0.51    5.78
   7   0 -10   -9.42   15.41
   7   0  10    0.43    5.70
   7   0  10   -1.54    8.70
   8   0  10  200.31   25.16
  -8   1  10  121.31   15.07
  -7   1 -10    1.91   11.52
  -7  -1 -10   -2.11   13.78
  -7  -1  10   -1.00    6.37
  -7   1  10    1.68    6.31
  -6   1 -10  153.97   22.89
  -6   1 -10  191.68   38.36
  -6  -1 -10  155.08   36.18
  -6   1 -10  293.60   21.67
  -6  -1 -10  197.13   10.45
  -6  -1  10  234.40   19.12
  -6   1  10  262.10   18.13
  -5   1 -10   -1.66    6.80
  -5   1 -10   -2.22   12.83
  -5  -1 -10    2.20   14.36
  -5   1 -10    3.42    5.10
  -5  -1 -10    0.45    3.48
  -5  -1 -10    1.65    2.08
  -5  -1  10    3.34    5.82
  -5   1  10    5.08    5.01
  -4   1 -10  258.07   27.09
  -4  -1 -10  426.70   37.69
  -4   1 -10  281.01   48.59
  -4  -1 -10  239.62   44.52
  -4   1  10  350.92   18.58
  -4  -1 -10  443.13   16.27
  -4   1 -10  424.75   22.80
  -4  -1 -10  338.45   14.94
  -4  -1 -10  407.42   14.77
  -4  -1  10  364.01   19.95
  -4   1  10  386.90   22.25
  -4  -1  10  402.77   25.30
  -3   1 -10    1.28    5.60
  -3  -1 -10    1.61    8.41
  -3   1 -10    4.93   16.08
  -3  -1 -10   -2.27   13.16
  -3   1 -10    2.48    3.78
  -3   1  10    1.53    3.25
  -3  -1 -10    1.89    2.54
  -3  -1  10    1.73    3.31
  -3  -1  10   -0.43    5.39
  -2   1 -10  380.42   27.87
  -2  -1 -10  485.67   33.27
  -2   1 -10  257.66   49.99
  -2  -1 -10  292.93   48.93
  -2   1  10  413.43   19.32
  -2  -1  10  407.96   15.24
  -2  -1 -10  481.54   19.46
  -2  -1  10  465.90   34.68
  -2  -1  10  472.06   21.37
  -1   1 -10    3.36    1.71
  -1   1 -10    2.72    5.06
  -1  -1 -10    2.35    4.78
  -1   1  10    5.10    3.47
  -1  -1  10    5.62    2.25
  -1  -1 -10    3.44    3.50
  -1  -1 -10    3.98    2.97
  -1  -1  10   -2.12    7.29
  -1  -1  10    4.44    3.70
   0   1 -10  464.85   26.48
   0  -1 -10  507.75   25.88
   0   1 -10  325.19   55.88
   0  -1 -10  340.23   53.57
   0   1  10  440.55   20.38
   0  -1  10  469.60   17.58
   0   1 -10  450.72   14.03
   0  -1 -10  563.39   21.21
   0  -1  10  557.32   37.98
   0   1  10  568.58   36.20
   0  -1  10  581.63   27.64
   0   1 -10  469.10   18.08
   1   1 -10    2.34    2.76
   1   1 -10    2.65    4.20
   1  -1 -10    3.79    3.43
   1   1 -10    2.67   16.16
   1  -1 -10    4.77   15.00
   1  -1  10    3.76    2.38
   1   1  10    5.85    3.47
   1   1 -10    5.12    2.16
   1  -1  10    3.55    6.19
   1  -1 -10    5.82    3.52
   1  -1  10   -1.45    7.39
   1   1  10    1.84    6.59
   2  -1  10  413.71   18.47
   2   1  10  438.76   21.28
   2   1 -10  291.58   52.66
   2  -1 -10  270.56   48.55
   2   1 -10  463.14   17.66
   2  -1  10  407.61   30.19
   2  -1  10  540.26   38.08
   2  -1 -10  510.94   21.46
   2   1  10  564.91   34.82
   2   1 -10  468.86   22.05
   3   1 -10    2.44    4.15
   3   1 -10   -5.12   16.09
   3  -1 -10   -2.39   15.04
   3  -1  10    1.94    3.00
   3   1  10    2.96    4.04
   3   1 -10    1.73    2.73
   3  -1 -10    2.06    3.14
   3  -1  10    2.30    8.02
   3   1  10    2.38    7.40
   4  -1 -10  387.40   17.66
   4  -1  10  367.06   19.90
   4   1  10  398.05   22.12
   4   1 -10  330.09   54.29
   4  -1 -10  220.17   45.06
   4   1 -10  442.50   19.74
   4  -1  10  505.66   37.86
   4   1  10  535.23   33.96
   4   1 -10  428.64   24.16
   5   1 -10    1.60    5.56
   5   1 -10   -2.18   16.56
   5  -1 -10    2.31   15.09
   5  -1  10    2.17    4.26
   5  -1 -10    0.95    3.03
   5   1  10    0.35    4.60
   5  -1  10   -0.83    8.61
   5   1  10    6.07    7.78
   6   1  10  298.89   20.95
   6   1 -10  308.42   47.64
   6  -1  10  348.44   33.05
   6   1  10  349.09   27.74
   6   1 -10  285.69   21.76
   7   1 -10    0.49    5.57
   7   1 -10    1.56   13.01
   7  -1 -10   10.25   19.27
   7   1  10    4.36    5.90
   7  -1  10    2.77   12.04
   7   1  10    3.69    8.17
   8  -1  10  177.96   26.47
  -7  -2 -10    2.03   13.27
  -7   2 -10    0.58    6.57
  -6   2 -10  157.23   35.14
  -6  -2 -10  121.57   31.73
  -6   2 -10  227.94   20.38
  -6  -2 -10  174.25   10.96
  -6  -2  10  195.62   18.44
  -6   2  10  187.93   15.03
  -5   2 -10    3.92    6.85
  -5   2 -10   12.83   14.45
  -5  -2 -10   -2.15   15.00
  -5   2 -10    6.81    5.87
  -5   2  10    6.18    4.71
  -5  -2 -10   11.25    3.82
  -5  -2 -10   14.40    4.43
  -5  -2  10   12.83    6.83
  -5   2  10    4.68    4.71
  -4   2 -10  127.53   18.53
  -4  -2 -10  155.94   36.27
  -4   2 -10  148.59   35.47
  -4   2  10  189.49   14.18
  -4   2 -10  254.05   19.08
  -4  -2 -10  269.91   14.85
  -4  -2  10  218.82   24.43
  -4  -2  10  213.07   16.26
  -4   2  10  229.03   15.59
  -4  -2  10  227.93   19.80
  -3   2 -10   11.95    7.45
  -3   2 -10    2.33   14.09
  -3  -2 -10   15.68   16.11
  -3   2 -10   18.77    6.46
  -3   2  10   13.44    4.61
  -3  -2  10   11.10    4.73
  -3  -2 -10   15.31    4.61
  -3  -2  10    6.78    9.10
  -3  -2  10    8.21    4.75
  -3   2  10   11.82    5.46
  -3  -2  10    7.95    6.16
  -2   2 -10  259.88   22.63
  -2  -2 -10  390.11   31.19
  -2   2 -10  222.40   44.56
  -2  -2 -10  214.42   42.22
  -2   2  10  247.59   15.68
  -2  -2  10  255.78   15.81
  -2  -2 -10  364.10   18.56
  -2  -2  10  276.49   17.90
  -1   2 -10    7.31    5.65
  -1  -2 -10   12.90    7.74
  -1  -2 -10    9.28   15.14
  -1   2  10   12.53    4.46
  -1  -2 -10   11.73    4.47
  -1  -2  10   11.14    4.85
   0   2 -10  358.89   24.42
   0  -2 -10  493.13   25.07
   0   2 -10  249.57   47.84
   0   2  10  343.02   19.14
   0  -2 -10  486.97   23.65
   0  -2  10  414.16   33.73
   0  -2  10  406.79   23.72
   1   2 -10   14.47    3.52
   1  -2 -10    9.69    3.72
   1   2 -10    7.46   14.39
   1  -2 -10   11.91   17.63
   1  -2  10    9.99    2.53
   1   2  10   12.24    4.64
   1  -2 -10   12.23    5.65
   1  -2  10    8.39    7.30
   1  -2 -10   12.43    4.62
   1  -2  10   16.66    9.59
   1  -2  10   10.29    6.88
   2   2 -10  310.78   16.33
   2  -2  10  251.80   12.48
   2   2  10  276.73   17.34
   2   2 -10  223.67   45.34
   2  -2 -10  175.19   40.66
   2  -2  10  233.20   23.43
   2  -2 -10  360.29   21.57
   2  -2  10  317.96   30.56
   2   2  10  338.43   25.94
   3   2 -10   13.20    4.99
   3   2 -10   18.72   18.71
   3  -2 -10    2.40   13.91
   3  -2  10   10.16    3.68
   3   2  10   10.56    5.03
   3   2 -10   17.89    3.66
   3  -2  10   12.82   11.26
   3   2  10   13.13    7.56
   4   2 -10  250.34   17.39
   4  -2  10  193.37   13.46
   4   2  10  237.24   17.20
   4   2 -10  224.51   42.99
   4  -2  10  262.76   29.14
   4   2  10  280.08   22.22
   5   2 -10   15.78    6.48
   5   2 -10    5.87   15.27
   5  -2 -10    9.37   17.34
   5   2  10   11.42    6.27
   5  -2  10    9.49   10.34
   5   2  10   14.21    7.63
   6   2 -10  230.71   19.33
   6   2  10  239.92   19.42
   6   2 -10  271.29   40.95
   6  -2 -10  155.92   38.39
   6  -2  10  267.58   32.32
   7   2 -10    9.24    6.95
   7  -2 -10    6.37   16.15
   7  -2  10    1.64   11.09
  -7   3 -10   13.20    8.43
  -7  -3 -10   17.08    4.71
  -6   3 -10  170.76   18.90
  -6  -3 -10  169.43   12.88
  -5  -3 -10   26.00   19.28
  -5   3 -10   21.20    8.28
  -5   3  10   18.26    6.23
  -4   3 -10  115.27   17.52
  -4   3 -10  140.59   35.23
  -4  -3 -10  120.34   32.38
  -4   3  10  199.14   15.24
  -4   3 -10  253.26   20.78
  -4  -3  10  232.52   25.54
  -4  -3  10  211.47   17.77
  -4  -3  10  229.45   20.80
  -4   3  10  217.01   13.56
  -3   3 -10   15.32    7.65
  -3   3 -10   20.89   18.12
  -3   3 -10   26.68    8.05
  -3   3  10   24.59    6.04
  -3  -3 -10   30.14    6.88
  -3  -3  10   15.65   10.67
  -3  -3  10   16.44    6.48
  -3   3  10   11.99    4.75
  -2   3 -10  223.37   21.86
  -2   3 -10  176.10   39.43
  -2   3  10  251.81   16.82
  -2  -3 -10  348.03   20.40
  -2  -3  10  288.93   28.56
  -2  -3  10  278.01   19.47
  -1   3 -10   45.59   10.56
  -1   3  10   50.63    7.89
  -1  -3  10   27.60   12.32
  -1  -3  10   42.12    8.46
   0  -3 -10  414.55   23.75
   0   3 -10  212.69   44.07
   0   3  10  280.68   18.34
   0  -3 -10  375.55   22.49
   0  -3  10  342.71   23.01
   1  -3 -10   61.87    6.73
   1   3  10   48.57    7.90
   1   3 -10   31.29   21.04
   1  -3 -10   72.24   10.12
   1  -3  10   42.47    9.94
   2   3  10  271.82   18.48
   2  -3 -10  345.38   22.27
   2  -3  10  336.69   32.73
   2  -3  10  312.05   25.49
   3   3 -10   40.87   22.06
   3   3  10   30.64    7.40
   3  -3 -10   23.09    7.53
   3   3  10   19.16   10.02
   3  -3  10   15.10   11.99
   4   3 -10  247.97   17.14
   4   3  10  249.51   18.35
   4  -3 -10  263.06   20.65
   4  -3  10  272.71   31.37
   5   3 -10   23.17    7.14
   5   3  10   33.15    8.51
   5  -3  10   25.64   13.71
   6   3 -10  181.84   16.97
   7  -3 -10   17.96   19.19
  -6  -4 -10  104.17   10.27
  -5   4 -10   27.56    9.65
  -5   4  10   14.70    6.26
  -5  -4  10   15.39    7.25
  -4   4  10  130.98   13.30
  -4  -4  10  123.30   14.78
  -3   4 -10   19.05    8.66
  -3   4  10   31.61    7.32
  -3  -4  10   24.60   11.90
  -3  -4  10   25.49    7.82
  -2   4 -10  165.43   19.51
  -2   4  10  195.20   15.63
  -2  -4 -10  245.88   18.82
  -2  -4  10  191.83   24.49
  -2  -4  10  171.82   16.79
  -2  -4  10  219.41   21.50
  -1   4  10   27.87    6.92
  -1  -4 -10   38.53    8.83
  -1  -4  10   19.15   11.58
  -1  -4  10   32.28    8.69
  -1  -4  10   18.31    9.18
   0   4  10  222.54   16.86
   0  -4 -10  284.11   20.97
   0  -4  10  244.22   28.22
   0  -4  10  245.35   20.89
   1   4  10   32.04    7.22
   1  -4 -10   44.99    9.30
   1   4  10    9.94    9.71
   1  -4  10   17.73   11.87
   1  -4  10   30.60    9.79
   2   4  10  216.66   17.04
   2  -4 -10  253.56   19.72
   2  -4  10  217.81   22.83
   3   4  10   43.86    9.09
   3  -4 -10   44.90    9.67
   3  -4  10   18.56   12.37
   4  -4 -10  196.35   18.44
  -2  -5  10  104.16   14.54
  -1  -5 -10   59.16   11.21
  -1  -5  10   39.23   10.22
   0   5  10   98.11   24.71
   0  -5  10  125.61   16.58
   1  -5 -10   58.27   11.13
   1   5  10   23.24   13.52
   1  -5  10   30.64   10.73
   2   5  10   76.49   19.17
   2  -5  10  122.99   18.51
  -6   0  11    0.41    5.34
  -5   0 -11  257.00   29.01
  -5   0  11  251.18   19.41
  -4   0 -11    0.80    7.37
  -4   0 -11    2.62   16.47
  -4   0  11    1.65    5.61
  -3   0 -11  340.34   28.72
  -3   0  11  367.57   24.23
  -2   0 -11   -0.30    1.69
  -2   0 -11    0.57    5.83
  -2   0 -11   -2.69   16.28
  -2   0 -11    0.55    1.40
  -2   0  11    3.89    8.13
  -1   0 -11  309.59   22.84
  -1   0  11  293.06   14.76
   0   0 -11    1.84    4.44
   0   0 -11   -5.53   16.69
   0   0  11    0.56    2.79
   0   0  11    2.98    8.01
   1   0 -11  318.68   19.14
   1   0  11  301.91   15.85
   1   0  11  353.84   30.78
   1   0 -11  350.85   15.22
   2   0 -11   -2.79   15.39
   2   0  11    1.56    3.22
   2   0 -11   -0.37    2.83
   2   0  11   -3.73    8.13
   3   0  11  310.47   17.68
   3   0 -11  241.06   50.33
   4   0 -11   -5.46   19.64
   4   0  11    1.74    4.09
   4   0  11    0.78    8.34
   5   0  11  250.49   18.08
   5   0 -11  226.71   47.51
   5   0  11  326.66   30.37
   6   0 -11    1.91    6.01
   6   0 -11   -4.78   19.11
   6   0  11   -2.29    5.36
   6   0  11    0.80    9.52
   7   0  11  176.13   24.01
  -7   1  11  137.74   15.59
  -6   1  11    1.46    5.26
  -5   1 -11  135.98   21.03
  -5  -1 -11  210.77   29.22
  -5  -1 -11  102.06   31.69
  -5   1 -11  203.46   16.48
  -5  -1  11  186.73   17.49
  -5   1  11  165.89   14.72
  -4   1 -11    3.73    7.80
  -4  -1 -11    7.41    9.69
  -4   1 -11   17.53   18.01
  -4  -1 -11    9.94   17.88
  -4   1 -11    5.84    4.74
  -4   1  11    0.36    5.04
  -4  -1  11    4.60    6.17
  -3   1 -11  154.61   19.69
  -3  -1 -11  246.33   25.92
  -3   1 -11  164.04   40.80
  -3  -1 -11  119.22   34.63
  -3   1  11  213.17   13.83
  -3  -1  11  232.15   25.95
  -3   1  11  270.92   19.28
  -3  -1  11  255.91   20.93
  -2   1 -11    5.01    6.37
  -2  -1 -11    9.43    7.63
  -2   1 -11   16.44   19.71
  -2  -1 -11   -2.58   14.25
  -2   1  11    1.74    2.92
  -2  -1  11    8.02    9.18
  -1   1 -11  295.66   10.37
  -1   1 -11  332.69   24.00
  -1  -1 -11  373.76   24.54
  -1   1  11  305.73   16.38
  -1  -1  11  366.89   32.01
   0   1 -11    1.62    2.17
   0   1 -11   -0.41    4.66
   0  -1 -11    1.68    4.57
   0   1 -11   -2.85   17.95
   0  -1 -11    2.66   15.38
   0   1  11    0.23    3.27
   0  -1 -11    1.67    3.12
   0  -1  11    4.74    8.60
   0   1  11    5.70    8.44
   1  -1 -11  347.67   18.65
   1   1 -11  235.15   50.64
   1  -1 -11  220.00   46.76
   1   1  11  312.93   17.55
   1  -1 -11  382.69   17.86
   1  -1  11  421.05   34.66
   1   1  11  392.47   31.74
   1   1 -11  337.82   16.54
   2   1 -11    3.25    3.78
   2   1 -11   -2.86   15.79
   2  -1 -11   10.78   18.21
   2  -1  11    2.75    2.83
   2   1  11    2.87    3.52
   2  -1 -11    4.78    3.79
   2  -1  11    0.83    8.77
   2   1  11    3.39    7.94
   3  -1  11  190.29   12.66
   3   1  11  224.31   15.49
   3   1 -11  117.41   37.22
   3  -1 -11  121.02   37.26
   3  -1  11  299.28   29.94
   3   1  11  316.33   27.32
   3   1 -11  225.75   15.87
   4   1 -11    4.98    5.00
   4   1 -11   -2.61   17.05
   4  -1 -11    5.31   17.34
   4  -1  11    6.59    4.46
   4   1  11    6.32    5.17
   4  -1  11    4.33    9.67
   4   1  11    1.99    8.42
   5  -1  11  181.42   14.62
   5   1  11  200.86   16.49
   5   1 -11  151.09   38.25
   5  -1 -11  155.12   39.85
   5  -1  11  268.06   29.57
   5   1  11  252.80   24.98
   5   1 -11  210.28   17.84
   6   1 -11   -1.36    5.93
   6   1 -11   -4.16   14.07
   6  -1 -11    7.40   18.25
   6  -1  11    5.01    5.48
   6   1  11    1.21    5.17
   6  -1  11   -0.92   10.27
   6   1  11   -1.33    8.26
   7  -1  11  143.06   15.20
   7  -1  11  202.99   27.20
  -6   2 -11   10.89    7.18
  -5   2 -11  236.66   19.72
  -5   2  11  189.49   14.73
  -4   2 -11    5.78    6.55
  -4  -2 -11    2.44   14.75
  -4   2 -11    8.75    5.93
  -4   2  11    5.54    4.49
  -4   2  11    5.01    5.30
  -4  -2  11    1.02    6.21
  -3   2 -11  232.65   23.26
  -3  -2 -11  392.90   34.14
  -3   2 -11  198.16   43.55
  -3  -2 -11  184.88   41.59
  -3   2  11  252.59   16.43
  -3  -2 -11  325.55   16.74
  -3   2  11  261.98   18.20
  -3  -2  11  287.06   23.09
  -2   2 -11   10.92    7.51
  -2  -2 -11   11.93    8.88
  -2   2 -11    7.80   15.04
  -2  -2 -11   10.21   14.77
  -2   2  11   12.45    4.85
  -2  -2 -11   18.80    5.27
  -2  -2  11    9.90    5.37
  -1   2 -11  267.25   22.70
  -1  -2 -11  342.84   24.15
  -1   2  11  247.49   16.26
  -1  -2 -11  368.96   19.66
  -1  -2  11  306.16   30.29
  -1  -2  11  284.30   19.67
   0   2 -11   26.68    7.88
   0  -2 -11   26.77    7.12
   0   2 -11   18.87   19.96
   0  -2 -11   15.83   17.23
   0   2  11   27.67    6.32
   0  -2 -11   32.61    7.07
   0  -2  11   11.90   10.29
   0  -2  11   19.01    7.46
   1   2 -11  288.09   13.89
   1  -2 -11  303.70   15.64
   1   2  11  255.11   16.84
   1   2 -11  202.43   44.57
   1  -2 -11  157.61   41.16
   1  -2 -11  351.80   21.16
   1  -2  11  349.85   32.93
   2   2 -11   11.15    4.19
   2   2 -11   -2.64   15.30
   2  -2 -11   10.76   18.77
   2   2  11   10.96    5.10
   2  -2  11   10.79    9.80
   3   2 -11  302.02   17.77
   3   2  11  267.74   18.30
   3   2 -11  255.31   49.26
   3  -2  11  327.21   33.21
   3   2  11  351.49   27.76
   4   2 -11    7.63    5.24
   4   2 -11    7.02   16.32
   4  -2 -11    5.33   18.60
   4   2  11    5.65    5.16
   4  -2  11    7.70   11.64
   4   2  11    4.56    7.96
   5   2 -11  258.79   19.21
   5   2  11  231.17   18.26
   5   2 -11  203.74   41.47
   5  -2  11  249.69   30.49
   6   2 -11    8.80    6.38
   6   2 -11   -1.86   14.55
   6  -2 -11    5.01   19.54
  -6   3 -11    9.66    7.42
  -5   3  11  103.22   11.81
  -5  -3 -11  113.71    9.45
  -4   3 -11   18.54    7.56
  -4   3  11   10.98    5.72
  -3   3 -11  115.31   17.15
  -3   3  11  146.78   13.21
  -3  -3  11  161.29   15.54
  -3   3  11  166.16   13.09
  -2   3 -11    8.03    7.31
  -2  -3 -11   32.32   12.50
  -2   3  11   16.47    5.67
  -2  -3 -11   22.18    6.64
  -2  -3  11    2.61    9.22
  -2  -3  11    8.97    5.96
  -1   3 -11  174.33   19.05
  -1  -3 -11  254.96   22.04
  -1   3 -11  125.44   36.31
  -1   3  11  181.23   14.52
  -1  -3 -11  253.18   17.98
  -1  -3  11  214.85   18.35
   0  -3 -11    9.68    5.53
   0   3 -11    5.15   13.49
   0   3  11    8.51    4.83
   0  -3 -11   12.83    6.30
   0  -3  11   11.13    6.81
   1   3  11  194.62   15.57
   1  -3 -11  259.99   19.35
   1  -3  11  207.81   27.27
   1  -3  11  230.08   21.81
   2   3 -11   15.08   18.09
   2   3  11   14.27    5.79
   2  -3 -11   19.76    7.56
   2  -3  11   16.55   10.88
   3   3  11  187.37   16.12
   3   3 -11  158.06   38.65
   3  -3 -11  195.01   17.87
   4   3 -11   29.28    6.90
   5   3 -11  147.73   14.32
   5  -3 -11   94.39   32.41
  -4  -4  11   11.98    6.53
  -3  -4 -11  166.33   15.68
  -3  -4  11  112.98   14.29
  -2   4  11   28.73    7.33
  -2  -4 -11   34.73    8.80
  -2  -4  11   19.06    7.82
  -1   4  11  133.16   13.51
  -1  -4  11  126.58   15.60
   0   4  11   48.17    8.86
   0  -4  11   37.98   10.06
   1  -4 -11  188.38   17.36
   1  -4  11  154.70   19.37
   2  -4 -11   45.33   10.37
   2  -4  11   26.64   10.82
  -4   0 -12  105.48   18.48
  -4   0  12  152.43   16.11
  -3   0 -12   -0.67    7.19
  -3   0  12    2.32    6.77
  -2   0 -12  176.43   18.86
  -1   0 -12   -0.46    5.87
  -1   0  12    1.69    8.06
   0   0 -12  271.92   19.67
   0   0  12  317.02   30.92
   1   0 -12    3.09   17.86
   1   0  12    1.64    8.83
   2   0 -12  154.55   44.10
   2   0  12  247.15   27.60
   3   0 -12   -6.15   19.35
   3   0  12    3.30    9.75
   4   0 -12   72.12   31.65
   4   0  12  211.60   26.39
   5   0 -12   -0.44    5.70
   5   0 -12    2.83   20.92
   5   0  12    4.23   10.11
   6   0 -12  108.43   35.37
   6   0  12  174.04   24.25
  -6   1  12  122.06   14.01
  -5   1  12    2.25    5.59
  -4  -1 -12  298.51   30.03
  -4   1  12  226.55   18.47
  -3   1 -12   -2.63    6.79
  -3  -1 -12   -0.70    7.65
  -3   1  12   -1.24    5.88
  -3  -1  12    1.52    6.13
  -2   1 -12  253.28   23.12
  -2  -1 -12  320.29   25.58
  -1   1 -12    4.97    6.07
  -1  -1 -12    2.24    5.69
  -1  -1  12    4.39    9.80
   0   1 -12  218.93   18.51
   0  -1 -12  249.32   17.54
   0   1 -12  159.31   43.37
   0   1  12  199.85   13.68
   0  -1 -12  141.67   41.16
   0  -1  12  244.50   28.02
   1   1 -12   21.19   22.41
   1  -1 -12  -14.91   16.45
   1   1  12    2.56    4.00
   1  -1  12    0.88    8.96
   1   1  12    2.33    8.68
   2   1  12  243.40   16.44
   2   1 -12  114.79   38.85
   2  -1 -12  143.70   41.57
   2  -1  12  349.92   33.54
   2   1  12  361.49   31.52
   2   1 -12  294.54   16.55
   3   1 -12    1.50    4.47
   3   1 -12    2.93   19.77
   3  -1 -12   -2.98   17.26
   3   1  12    1.21    4.48
   3   1  12    2.23    8.41
   4   1  12  257.58   18.34
   4   1 -12  222.31   47.83
   4  -1 -12  187.94   45.98
   4  -1  12  309.99   33.04
   4   1  12  333.57   30.13
   4   1 -12  301.28   20.07
   5   1 -12   -0.41    5.47
   5   1 -12   -4.97   18.39
   5  -1 -12    2.85   17.91
   5   1  12   -0.37    5.17
  -4  -2 -12  118.13   21.74
  -4   2  12   95.95   11.66
  -3  -2 -12    4.60    9.65
  -3   2  12    7.21    6.20
  -2   2 -12  120.09   16.88
  -2  -2 -12  146.19   18.13
  -1   2 -12    1.08    5.41
  -1  -2 -12    3.07    6.07
  -1   2  12    1.14    3.96
   0   2  12  128.15   12.02
   1   2  12    0.30    3.86
   2   2  12  125.09   12.33
   3   2 -12   10.61   19.63
   3   2  12    6.59    5.24
   4   2 -12   92.03   11.01
   4   2 -12   64.38   27.05
   5   2 -12    9.86    6.03
  -4  -3 -12  181.80   27.90
  -3  -3 -12   25.86   12.94
  -3   3  12   15.91    5.99
  -2   3  12  147.14   13.27
  -1   3  12   29.82    7.27
  -1  -3 -12   48.68    9.20
   0   3  12  143.51   13.73
   0  -3 -12  226.90   17.90
   1   3  12   39.14    8.25
   1  -3 -12   51.15    9.86
   2  -3 -12  198.39   18.20
  -1  -4 -12   15.44    7.78
   0  -4 -12  118.00   14.46
  -2   0 -13    1.65    6.67
  -1   0 -13  144.00   16.04
  -3  -1 -13  119.46   18.07
  -2   1 -13    6.35    6.91
  -2  -1 -13    2.20    6.28
  -1   1 -13  157.72   17.55
   0   1 -13    3.55    6.00
   1   1  13  174.15   24.85
   2   1  13    5.86   10.22
   3   1  13  130.88   21.31
   0   0   0    0.00    0.00
;
_shelx_hkl_checksum              83394
loop_
_space_group_symop_operation_xyz
'x, y, z'
'x+1/2, -y, z+1/2'
loop_
_atom_site_label
_atom_site_type_symbol
_atom_site_fract_x
_atom_site_fract_y
_atom_site_fract_z
_atom_site_U_iso_or_equiv
_atom_site_adp_type
_atom_site_occupancy
_atom_site_site_symmetry_order
_atom_site_calc_flag
_atom_site_refinement_flags_posn
_atom_site_refinement_flags_adp
_atom_site_refinement_flags_occupancy
_atom_site_disorder_assembly
_atom_site_disorder_group
Re1 Re 0.9998(4) 0.01605(4) 0.0008(3) 0.02744(10) Uani 1 1 d . U . . .
O1 O 0.8424(16) 0.0279(13) -0.1070(15) 0.055(3) Uani 1 1 d . . . . .
O2 O 1.0011(11) -0.2247(17) 0.0989(7) 0.058(3) Uani 1 1 d . . . . .
O3 O 1.0006(14) 0.2334(18) 0.1176(9) 0.072(3) Uani 1 1 d . . . . .
O4 O 1.1614(14) 0.0256(12) -0.1035(15) 0.050(3) Uani 1 1 d . . . . .
F1 F 0.9994(14) 0.5157(10) 0.7829(10) 0.050(3) Uani 1 1 d . . . . .
C1 C 0.9951(18) 0.5224(17) 0.6343(15) 0.028(3) Uani 1 1 d . . . . .
N1 N 0.9963(14) 0.5486(17) 0.3662(11) 0.032(3) Uani 1 1 d . . . . .
H1 H 0.9956 0.5569 0.2611 0.038 Uiso 1 1 d R U . . .
C3 C 0.8595(15) 0.435(3) 0.4147(13) 0.043(3) Uani 1 1 d . . . . .
H3A H 0.8548 0.2900 0.3706 0.052 Uiso 1 1 d R U . . .
H3B H 0.7709 0.5169 0.3845 0.052 Uiso 1 1 d R U . . .
C2 C 0.8584(15) 0.410(3) 0.5768(14) 0.052(4) Uani 1 1 d . . . . .
H2A H 0.7677 0.4768 0.6163 0.063 Uiso 1 1 d R U . . .
H2B H 0.8596 0.2558 0.6028 0.063 Uiso 1 1 d R U . . .
C5 C 1.1360(14) 0.433(3) 0.4140(12) 0.043(3) Uani 1 1 d . . . . .
H5A H 1.2245 0.5156 0.3847 0.052 Uiso 1 1 d R U . . .
H5B H 1.1409 0.2884 0.3695 0.052 Uiso 1 1 d R U . . .
C4 C 1.1348(15) 0.408(3) 0.5768(14) 0.051(4) Uani 1 1 d . . . . .
H4A H 1.1332 0.2536 0.6026 0.061 Uiso 1 1 d R U . . .
H4B H 1.2252 0.4742 0.6175 0.061 Uiso 1 1 d R U . . .
C7 C 1.0005(13) 0.7750(19) 0.4261(11) 0.039(3) Uani 1 1 d . . . . .
H7A H 0.9134 0.8581 0.3930 0.047 Uiso 1 1 d R U . . .
H7B H 1.0914 0.8502 0.3945 0.047 Uiso 1 1 d R U . . .
C6 C 0.9988(19) 0.760(3) 0.5900(12) 0.063(5) Uani 1 1 d . . . . .
H6A H 1.0884 0.8299 0.6291 0.076 Uiso 1 1 d R U . . .
H6B H 0.9106 0.8353 0.6276 0.076 Uiso 1 1 d R U . . .
loop_
_atom_site_aniso_label
_atom_site_aniso_U_11
_atom_site_aniso_U_22
_atom_site_aniso_U_33
_atom_site_aniso_U_23
_atom_site_aniso_U_13
_atom_site_aniso_U_12
Re1 0.02668(18) 0.03240(16) 0.02324(17) -0.0004(5) 0.00034(13) -0.0001(6)
O1 0.046(7) 0.060(6) 0.057(7) 0.005(4) -0.018(5) 0.003(4)
O2 0.080(6) 0.057(6) 0.036(4) 0.019(4) 0.000(4) 0.009(5)
O3 0.113(8) 0.056(6) 0.047(4) -0.028(4) -0.001(5) 0.000(6)
O4 0.034(6) 0.052(6) 0.064(7) 0.005(4) 0.019(5) -0.003(3)
F1 0.053(6) 0.080(7) 0.018(4) 0.002(2) 0.001(4) -0.002(3)
C1 0.026(7) 0.036(6) 0.022(6) 0.004(4) -0.001(5) 0.002(4)
N1 0.033(6) 0.039(5) 0.022(4) 0.007(4) 0.001(4) 0.006(4)
C3 0.031(6) 0.073(8) 0.025(5) -0.007(6) -0.012(5) -0.007(7)
C2 0.047(7) 0.060(8) 0.051(7) 0.002(7) -0.018(5) -0.027(7)
C5 0.034(6) 0.067(8) 0.029(5) -0.009(6) 0.016(4) 0.014(6)
C4 0.043(7) 0.057(8) 0.053(7) 0.005(7) 0.006(6) 0.022(7)
C7 0.044(6) 0.020(5) 0.053(6) 0.005(5) 0.002(5) -0.001(5)
C6 0.091(10) 0.067(10) 0.032(6) -0.015(6) -0.009(6) -0.002(9)
loop_
_atom_type_symbol
_atom_type_description
_atom_type_scat_dispersion_real
_atom_type_scat_dispersion_imag
_atom_type_scat_source
C C 0.0033 0.0016 'International Tables Vol C Tables 4.2.6.8 and 6.1.1.4'
H H 0.0000 0.0000 'International Tables Vol C Tables 4.2.6.8 and 6.1.1.4'
N N 0.0061 0.0033 'International Tables Vol C Tables 4.2.6.8 and 6.1.1.4'
O O 0.0106 0.0060 'International Tables Vol C Tables 4.2.6.8 and 6.1.1.4'
F F 0.0171 0.0103 'International Tables Vol C Tables 4.2.6.8 and 6.1.1.4'
Re Re -1.0185 7.2310 'International Tables Vol C Tables 4.2.6.8 and 6.1.1.4'
loop_
_geom_angle_atom_site_label_1
_geom_angle_atom_site_label_2
_geom_angle_atom_site_label_3
_geom_angle
_geom_angle_site_symmetry_1
_geom_angle_site_symmetry_3
_geom_angle_publ_flag
O2 Re1 O3 108.5(5) . . ?
O2 Re1 O1 110.5(5) . . ?
O3 Re1 O1 110.1(5) . . ?
O2 Re1 O4 108.7(5) . . ?
O3 Re1 O4 109.2(5) . . ?
O1 Re1 O4 109.8(7) . . ?
F1 C1 C2 111.7(12) . . ?
F1 C1 C4 108.6(12) . . ?
C2 C1 C4 109.0(12) . . ?
F1 C1 C6 107.6(10) . . ?
C2 C1 C6 111.0(12) . . ?
C4 C1 C6 108.9(12) . . ?
C7 N1 C3 110.0(10) . . ?
C7 N1 C5 107.8(10) . . ?
C3 N1 C5 111.6(10) . . ?
N1 C3 C2 111.0(10) . . ?
C1 C2 C3 108.0(11) . . ?
N1 C5 C4 109.7(10) . . ?
C1 C4 C5 108.3(11) . . ?
N1 C7 C6 108.6(12) . . ?
C1 C6 C7 109.5(13) . . ?
loop_
_geom_bond_atom_site_label_1
_geom_bond_atom_site_label_2
_geom_bond_distance
_geom_bond_site_symmetry_2
_geom_bond_publ_flag
Re1 O2 1.724(9) . ?
Re1 O3 1.710(9) . ?
Re1 O1 1.716(13) . ?
Re1 O4 1.728(12) . ?
F1 C1 1.385(17) . ?
C1 C2 1.49(2) . ?
C1 C4 1.51(2) . ?
C1 C6 1.499(19) . ?
N1 C7 1.485(15) . ?
N1 C3 1.465(18) . ?
N1 C5 1.489(18) . ?
C3 C2 1.517(18) . ?
C5 C4 1.523(18) . ?
C7 C6 1.530(12) . ?
loop_
_geom_hbond_atom_site_label_D
_geom_hbond_atom_site_label_H
_geom_hbond_atom_site_label_A
_geom_hbond_distance_DH
_geom_hbond_distance_HA
_geom_hbond_distance_DA
_geom_hbond_angle_DHA
_geom_hbond_site_symmetry_A
C7 H7B O1 0.97 2.34 3.264(18) 159.5 2_565
C7 H7A O4 0.97 2.34 3.243(17) 155.3 2_465
C5 H5B O1 0.97 2.63 3.344(17) 130.9 2
C5 H5A F1 0.97 2.61 3.450(17) 144.4 2_564
C3 H3B F1 0.97 2.59 3.422(18) 144.5 2_464
C3 H3A O4 0.97 2.58 3.301(17) 131.4 2_455
N1 H1 O3 0.98 2.38 3.004(14) 121.2 .
N1 H1 O2 0.98 2.01 2.845(13) 141.7 1_565
loop_
_geom_torsion_atom_site_label_1
_geom_torsion_atom_site_label_2
_geom_torsion_atom_site_label_3
_geom_torsion_atom_site_label_4
_geom_torsion
_geom_torsion_site_symmetry_1
_geom_torsion_site_symmetry_2
_geom_torsion_site_symmetry_3
_geom_torsion_site_symmetry_4
_geom_torsion_publ_flag
C7 N1 C3 C2 -62.4(15) . . . . ?
C5 N1 C3 C2 57.2(16) . . . . ?
F1 C1 C2 C3 177.5(11) . . . . ?
C4 C1 C2 C3 -62.6(16) . . . . ?
C6 C1 C2 C3 57.4(16) . . . . ?
N1 C3 C2 C1 2.9(17) . . . . ?
C7 N1 C5 C4 64.4(14) . . . . ?
C3 N1 C5 C4 -56.5(16) . . . . ?
F1 C1 C4 C5 -175.4(11) . . . . ?
C2 C1 C4 C5 62.7(16) . . . . ?
C6 C1 C4 C5 -58.5(16) . . . . ?
N1 C5 C4 C1 -3.1(17) . . . . ?
C3 N1 C7 C6 59.3(12) . . . . ?
C5 N1 C7 C6 -62.5(11) . . . . ?
F1 C1 C6 C7 177.8(11) . . . . ?
C2 C1 C6 C7 -59.7(15) . . . . ?
C4 C1 C6 C7 60.3(14) . . . . ?
N1 C7 C6 C1 0.6(12) . . . . ?
