#------------------------------------------------------------------------------
#$Date: 2021-01-04 05:13:17 +0200 (Mon, 04 Jan 2021) $
#$Revision: 260427 $
#$URL: file:///home/coder/svn-repositories/cod/cif/4/13/54/4135405.cif $
#------------------------------------------------------------------------------
#
# This file is available in the Crystallography Open Database (COD),
# http://www.crystallography.net/
#
# All data on this site have been placed in the public domain by the
# contributors.
#
data_4135405
loop_
_publ_author_name
'Tang, Yuan-Yuan'
'Xie, Yongfa'
'Ai, Yong'
'Liao, Wei-Qiang'
'Li, Peng-Fei'
'Nakamura, Takayoshi'
'Xiong, Ren-Gen'
_publ_section_title
;
 Organic Ferroelectric Vortex-Antivortex Domain Structure.
;
_journal_issue                   52
_journal_name_full               'Journal of the American Chemical Society'
_journal_page_first              21932
_journal_page_last               21937
_journal_paper_doi               10.1021/jacs.0c11416
_journal_volume                  142
_journal_year                    2020
_chemical_formula_moiety         'C7 H13 F N, O4 Re'
_chemical_formula_sum            'C7 H13 F N O4 Re'
_chemical_formula_weight         380.39
_space_group_crystal_system      orthorhombic
_space_group_IT_number           38
_space_group_name_Hall           'A 2 -2'
_space_group_name_H-M_alt        'A m m 2'
_atom_sites_solution_hydrogens   difmap
_audit_creation_method           SHELXL-2014/7
_cell_angle_alpha                90
_cell_angle_beta                 90
_cell_angle_gamma                90
_cell_formula_units_Z            2
_cell_length_a                   6.2249(2)
_cell_length_b                   8.8294(2)
_cell_length_c                   9.3691(2)
_cell_measurement_reflns_used    6629
_cell_measurement_temperature    403(2)
_cell_measurement_theta_max      31.1700
_cell_measurement_theta_min      3.1440
_cell_volume                     514.95(2)
_computing_cell_refinement       'CrysAlisPro 1.171.39.46 (Rigaku OD, 2018)'
_computing_data_collection       'CrysAlisPro 1.171.39.46 (Rigaku OD, 2018)'
_computing_data_reduction        'CrysAlisPro 1.171.39.46 (Rigaku OD, 2018)'
_computing_molecular_graphics    'DIAMOND (Brandenburg & Putz, 2005)'
_computing_publication_material  'SHELXL-2014/7 (Sheldrick, 2014)'
_computing_structure_refinement  'SHELXL-2014/7 (Sheldrick, 2014)'
_computing_structure_solution    'SHELXL-2014/7 (Sheldrick, 2014)'
_diffrn_ambient_temperature      403(2)
_diffrn_measured_fraction_theta_full 1.000
_diffrn_measured_fraction_theta_max 0.934
_diffrn_measurement_device_type  'XtaLAB Synergy R, DW system, HyPix'
_diffrn_measurement_method       'four-circle diffractometer'
_diffrn_radiation_type           MoK\a
_diffrn_radiation_wavelength     0.71073
_diffrn_reflns_av_R_equivalents  0.0301
_diffrn_reflns_av_unetI/netI     0.0173
_diffrn_reflns_Laue_measured_fraction_full 1.000
_diffrn_reflns_Laue_measured_fraction_max 0.934
_diffrn_reflns_limit_h_max       8
_diffrn_reflns_limit_h_min       -8
_diffrn_reflns_limit_k_max       12
_diffrn_reflns_limit_k_min       -11
_diffrn_reflns_limit_l_max       13
_diffrn_reflns_limit_l_min       -13
_diffrn_reflns_number            6666
_diffrn_reflns_point_group_measured_fraction_full 1.000
_diffrn_reflns_point_group_measured_fraction_max 0.937
_diffrn_reflns_theta_full        25.242
_diffrn_reflns_theta_max         31.291
_diffrn_reflns_theta_min         3.170
_diffrn_source                   'Rotating-anode X-ray tube'
_exptl_absorpt_coefficient_mu    11.803
_exptl_absorpt_correction_T_max  0.105
_exptl_absorpt_correction_T_min  0.094
_exptl_absorpt_correction_type   multi-scan
_exptl_absorpt_process_details   'CrysAlisPro 1.171.39.46 (Rigaku OD, 2018)'
_exptl_crystal_colour            colourless
_exptl_crystal_density_diffrn    2.453
_exptl_crystal_description       block
_exptl_crystal_F_000             356
_exptl_crystal_size_max          0.210
_exptl_crystal_size_mid          0.210
_exptl_crystal_size_min          0.200
_refine_diff_density_max         0.362
_refine_diff_density_min         -0.539
_refine_diff_density_rms         0.090
_refine_ls_abs_structure_details
;
 Refined as an inversion twin.
;
_refine_ls_abs_structure_Flack   0.00(4)
_refine_ls_extinction_method     none
_refine_ls_goodness_of_fit_ref   1.002
_refine_ls_hydrogen_treatment    constr
_refine_ls_matrix_type           full
_refine_ls_number_parameters     60
_refine_ls_number_reflns         871
_refine_ls_number_restraints     79
_refine_ls_restrained_S_all      1.100
_refine_ls_R_factor_all          0.0179
_refine_ls_R_factor_gt           0.0168
_refine_ls_shift/su_max          0.001
_refine_ls_shift/su_mean         0.000
_refine_ls_structure_factor_coef Fsqd
_refine_ls_weighting_details
'w=1/[\s^2^(Fo^2^)+(0.0217P)^2^] where P=(Fo^2^+2Fc^2^)/3'
_refine_ls_weighting_scheme      calc
_refine_ls_wR_factor_gt          0.0341
_refine_ls_wR_factor_ref         0.0346
_reflns_Friedel_coverage         0.902
_reflns_Friedel_fraction_full    1.000
_reflns_Friedel_fraction_max     0.941
_reflns_number_gt                853
_reflns_number_total             871
_reflns_threshold_expression     'I > 2\s(I)'
_cod_data_source_file            ja0c11416_si_007.cif
_cod_data_source_block           Amm2
_cod_depositor_comments
'Adding full bibliography for 4135405--4135410.cif.'
_cod_database_code               4135405
_shelx_shelxl_version_number     2014/7
_shelx_space_group_comment
;
The symmetry employed for this shelxl refinement is uniquely defined
by the following loop, which should always be used as a source of
symmetry information in preference to the above space-group names.
They are only intended as comments.
;
_shelx_estimated_absorpt_t_min   0.191
_shelx_estimated_absorpt_t_max   0.201
_shelx_res_file
;

    Amm2.res created by SHELXL-2014/7

TITL Amm2 in Amm2
CELL 0.71073   6.2249   8.8294   9.3691  90.000  90.000  90.000
ZERR    2.00   0.0002   0.0002   0.0002   0.000   0.000   0.000
LATT -5
SYMM -X, -Y, Z
SYMM X, -Y, Z
SYMM -X, Y, Z
SFAC C  H  N  O  F  Re
UNIT 14 26 2 8 2 2
L.S. 20
ACTA
BOND
FMAP 2
PLAN 20
CONF
DFIX 2.5 0.02 N1 C5
DFIX  1.5 0.02 N1 c2
dfix 1.35 0.02 c5 f1
dfix 2.35 0.02 c3 f1
dfix 2.3 0.02 c1 f1
DFIX  1.5 0.02 N1 c4
DFIX  1.55 0.02 c4 c3
DFIX  1.55 0.02 c1 c2
DFIX  1.5 0.02 c1 c5
DFIX  1.5 0.02 c3 C5
DFIX 2.45 0.02 N1 C1
DFIX 2.45 0.02 N1 C3
DFIX 2.45 0.02 C5 C2
DFIX 2.45 0.02 C5 C4
DFIX 1.75 0.02 C2 C4
DFIX 1.75 0.02 C1 C3
SIMU C1 C2 C3 C4 C5 N1
DELU C1 C2 C3 C4 C5 N1
TWIN
TEMP 130
SIZE 0.20 0.21 0.21
WGHT    0.021700
BASF   0.00104
FVAR       0.52199
F1    5    0.500000    0.500000    0.306352    10.25000    0.12877    0.09322 =
         0.03447    0.00000    0.00000    0.00000
RE1   6    1.000000    0.000000    0.031500    10.25000    0.06192    0.05118 =
         0.04387    0.00000    0.00000    0.00000
O2    4    1.000000    0.157425   -0.075254    10.50000    0.10684    0.06516 =
         0.09640    0.01964    0.00000    0.00000
O1    4    0.774311    0.000000    0.134840    10.50000    0.11502    0.12840 =
         0.09131    0.00000    0.04269    0.00000
N1    3    0.500000    0.500000   -0.106428    10.25000    0.12166    0.05566 =
         0.03399    0.00000    0.00000    0.00000
AFIX   3
H1A   2    0.500000    0.500000   -0.202448    10.25000   -1.20000
AFIX   0
C1    1    0.411362    0.638897    0.103716    10.50000    0.13470    0.05625 =
         0.05808   -0.01970    0.00370    0.05043
AFIX   3
H1B   2    0.268042    0.655807    0.137796    10.50000   -1.20000
H1C   2    0.499962    0.717637    0.141406    10.50000   -1.20000
AFIX   0
C2    1    0.422914    0.644670   -0.060227    10.50000    0.14723    0.07533 =
         0.05452   -0.00127   -0.00821    0.01207
AFIX   3
H2A   2    0.281694    0.666510   -0.095677    10.50000   -1.20000
H2B   2    0.519264    0.722360   -0.092337    10.50000   -1.20000
AFIX   0
C3    1    0.253490    0.500000    0.111365    10.25000    0.07379    0.15312 =
         0.07024    0.00000    0.01543    0.00000
AFIX   3
H3A   2    0.180550    0.411680    0.146245    10.25000   -1.20000
H3B   2    0.180550    0.588320    0.146245    10.25000   -1.20000
AFIX   0
C4    1    0.254001    0.500000   -0.051922    10.25000    0.08644    0.13163 =
         0.07247    0.00000   -0.02501    0.00000
AFIX   3
H4A   2    0.181681    0.411870   -0.087782    10.25000   -1.20000
H4B   2    0.181681    0.588130   -0.087782    10.25000   -1.20000
AFIX   0
C5    1    0.500000    0.500000    0.159250    10.25000    0.09672    0.04935 =
         0.03847    0.00000    0.00000    0.00000
HKLF 4

REM  Amm2 in Amm2
REM R1 =  0.0168 for     853 Fo > 4sig(Fo)  and  0.0179 for all     871 data
REM     60 parameters refined using     79 restraints

END

WGHT      0.0182      0.0000

REM Highest difference peak  0.362,  deepest hole -0.539,  1-sigma level  0.090
Q1    1   0.6235  0.7496 -0.2187  11.00000  0.05    0.36
Q2    1   0.5000  0.7043 -0.2261  10.50000  0.05    0.23
Q3    1   0.5000  0.7921 -0.2094  10.50000  0.05    0.22
Q4    1   0.2367  0.7450 -0.2098  11.00000  0.05    0.22
Q5    1   1.0000  0.2519 -0.1651  10.50000  0.05    0.22
Q6    1   0.0000  0.5000  0.2117  10.25000  0.05    0.22
Q7    1   0.2100  0.5000  0.0830  10.50000  0.05    0.22
Q8    1   0.0000  0.7468  0.2281  10.50000  0.05    0.21
Q9    1   0.2100  0.5000 -0.0228  10.50000  0.05    0.21
Q10   1   0.2541  0.7074 -0.2016  11.00000  0.05    0.21
Q11   1   0.2686  0.6895  0.2564  11.00000  0.05    0.21
Q12   1   0.5976  0.7990  0.1406  11.00000  0.05    0.21
Q13   1   0.5977  0.7980 -0.0780  11.00000  0.05    0.21
Q14   1   0.5904  0.7094 -0.1371  11.00000  0.05    0.20
Q15   1   0.0000  0.5000 -0.1498  10.25000  0.05    0.20
Q16   1   0.0000  0.6349  0.0323  10.50000  0.05    0.20
Q17   1   0.5000  0.9074  0.0305  10.50000  0.05    0.19
Q18   1   0.0752  0.5857  0.2665  11.00000  0.05    0.19
Q19   1   1.0000  0.2337  0.0331  10.50000  0.05    0.19
Q20   1   0.2925  0.8314  0.2156  11.00000  0.05    0.19
;
_shelx_res_checksum              60463
_shelx_hkl_file
;
   0   0 -12   77.64   14.62
   0   0 -12  121.01   14.10
   0   0 -10  333.31   24.09
   0   0 -10  329.97   19.09
   0   0 -10  336.54   19.88
   0   0 -10  311.36   10.30
   0   0 -10  336.65   20.76
   0   0  -8  853.51   31.40
   0   0  -8  844.59   29.97
   0   0  -8  850.96   23.10
   0   0  -8  832.40   36.48
   0   0  -6  585.72   22.38
   0   0  -6  614.22   27.29
   0   0  -6  622.98   22.12
   0   0  -4  742.66   26.04
   0   0  -4  707.69   21.34
   0   0  -4  733.78   22.01
   0   0  -2 6467.86  129.68
   0   0  -2 6517.89  130.09
   0   0   2 5843.54  123.90
   0   0   2 6016.52  129.16
   0   0   4  882.96   36.30
   0   0   6  582.86   29.72
   0   0   6  594.85   21.94
   0   0   6  574.32   34.20
   0   0   8  746.67   37.99
   0   0   8  808.65   46.73
   0   0   8  838.04   30.13
   0   0  10  328.96   26.07
   0   0  12  106.38   18.17
   0  -1 -13   33.37   11.57
   0  -1 -13   33.98   10.72
   0   1 -13   32.28    9.01
   0  -1 -11  164.67   18.54
   0   1 -11  118.39   13.52
   0  -1 -11  142.59   15.43
   0   1 -11  145.49   13.90
   0  -1 -11  154.90   13.09
   0   1 -11  141.24   16.48
   0   1  -9  509.56   27.68
   0   1  -9  584.22   25.49
   0  -1  -9  512.27   22.36
   0  -1  -9  518.13   23.53
   0   1  -9  546.10   25.74
   0   1  -9  564.44   24.65
   0  -1  -9  507.81   15.17
   0  -1  -9  634.08   44.12
   0  -1  -9  505.22   30.39
   0  -1  -7  932.52   24.38
   0  -1  -7 1053.89   41.86
   0   1  -7  918.41   32.49
   0   1  -7  952.83   36.01
   0  -1  -7 1062.69   52.33
   0  -1  -7  922.53   29.84
   0  -1  -7  940.29   30.88
   0   1  -7  935.88   31.63
   0   1  -7  915.62   31.89
   0  -1  -5 2752.81   61.04
   0   1  -5 2795.59   66.44
   0  -1  -5 2851.16   64.90
   0   1  -5 2792.54   66.90
   0   1  -5 2908.60   68.01
   0  -1  -5 2906.10   65.61
   0  -1  -5 2843.09   76.27
   0   1  -5 2911.82   70.92
   0   1  -3 3517.49   78.11
   0  -1  -3 3577.08   75.22
   0  -1  -3 3587.35   75.42
   0  -1  -3 3608.39   73.88
   0  -1  -3 3507.60   72.60
   0   1  -3 3658.73   76.19
   0   1  -3 3585.42   72.52
   0  -1  -3 3352.70   87.57
   0   1  -1 3459.59   70.50
   0  -1  -1 3344.83   69.67
   0  -1  -1 3436.80   74.61
   0   1  -1 3515.35   71.53
   0  -1  -1 3517.15   70.52
   0  -1  -1 3553.88   70.72
   0  -1   1 3480.59   70.17
   0   1   1 3369.28   72.28
   0  -1   1 3339.46   68.15
   0  -1   3 3863.31   76.85
   0  -1   3 3749.71   84.21
   0   1   3 3786.15   76.51
   0  -1   3 3944.97   93.84
   0   1   3 3896.00   89.70
   0   1   3 3681.18   78.94
   0   1   3 3723.37   79.26
   0  -1   3 3699.33   82.11
   0   1   3 3845.42   95.47
   0  -1   5 2700.40   70.13
   0  -1   5 2508.96   73.64
   0   1   5 2636.23   61.51
   0  -1   5 2633.51   79.81
   0   1   5 2757.61   82.72
   0   1   7  968.81   30.78
   0  -1   7  938.05   47.50
   0  -1   7  951.03   32.60
   0   1   7  986.69   49.34
   0  -1   7  943.82   42.00
   0   1   7  950.42   41.49
   0   1   9  504.90   31.23
   0   1   9  497.86   22.66
   0  -1   9  500.38   24.12
   0  -1   9  525.11   39.06
   0   1   9  573.67   41.05
   0  -1   9  568.84   33.48
   0   1  11  181.37   20.21
   0  -1  11  152.93   19.20
   0  -1  13   35.28   12.60
   0   2 -12   82.49   12.69
   0  -2 -12   65.81   14.55
   0  -2 -12   55.50   12.04
   0   2 -12   66.54   10.31
   0   2 -10  237.40   15.73
   0  -2 -10  222.31   22.27
   0  -2 -10  229.56   14.57
   0   2 -10  276.28   19.00
   0  -2 -10  250.87   31.40
   0  -2  -8  862.70   40.44
   0  -2  -8  758.17   48.06
   0   2  -8  771.99   27.98
   0  -2  -8  746.10   21.29
   0  -2  -8  791.18   26.80
   0   2  -8  731.98   29.52
   0   2  -8  779.20   31.08
   0  -2  -6 1182.00   28.27
   0   2  -6 1179.15   37.19
   0  -2  -6 1318.18   57.73
   0  -2  -6 1193.19   30.25
   0  -2  -6 1208.86   33.16
   0   2  -6 1260.25   34.78
   0  -2  -6 1178.97   28.33
   0  -2  -6 1238.31   47.36
   0   2  -4 2021.97   46.49
   0   2  -4 1999.21   50.52
   0  -2  -4 1975.18   45.40
   0  -2  -4 1904.32   62.20
   0   2  -4 2018.28   44.76
   0  -2  -4 1984.62   45.75
   0  -2  -4 2000.26   45.00
   0  -2  -2 3411.48   79.49
   0  -2  -2 3359.91   69.84
   0  -2  -2 3378.89   71.19
   0   2  -2 3476.52   71.42
   0  -2  -2 3340.09   71.56
   0  -2   0 8748.27  177.73
   0  -2   0 8557.27  175.49
   0   2   0 9176.42  177.46
   0  -2   2 3702.29   75.99
   0   2   2 3860.14   83.77
   0   2   2 3600.41   75.65
   0  -2   2 3667.22   79.70
   0   2   4 2196.60   49.71
   0   2   4 2299.26   61.73
   0   2   4 2159.55   47.97
   0  -2   4 2208.99   56.16
   0   2   4 2194.36   49.08
   0   2   4 2174.61   48.94
   0  -2   4 2202.82   48.51
   0  -2   4 2121.19   54.35
   0  -2   6  960.12   24.96
   0   2   6 1057.78   30.13
   0  -2   6 1097.77   24.64
   0  -2   6  985.70   41.73
   0  -2   6 1145.02   49.13
   0  -2   6 1072.47   38.71
   0   2   8  732.67   26.18
   0  -2   8  686.65   34.90
   0   2   8  724.60   36.27
   0  -2   8  690.47   43.40
   0  -2   8  815.74   30.94
   0  -2   8  770.94   39.14
   0  -2  10  216.24   21.29
   0   2  10  211.60   20.90
   0   2  10  213.44   14.64
   0   2  12   75.00   15.35
   0  -2  12   74.73   15.36
   0  -3 -11  118.20   18.62
   0   3 -11  123.89   11.93
   0  -3 -11  121.37   26.32
   0   3 -11  119.72   14.46
   0   3  -9  312.70   20.31
   0  -3  -9  398.14   37.73
   0  -3  -9  398.76   29.37
   0  -3  -9  346.76   16.46
   0   3  -9  347.37   17.68
   0   3  -7  475.45   19.12
   0  -3  -7  504.35   17.29
   0   3  -7  512.70   23.78
   0  -3  -7  488.72   16.44
   0  -3  -7  478.29   16.34
   0  -3  -7  481.43   18.42
   0   3  -5 1747.70   48.68
   0  -3  -5 1880.95   71.07
   0  -3  -5 1710.71   42.58
   0  -3  -5 1769.92   63.55
   0  -3  -5 1796.29   43.22
   0  -3  -5 1754.72   43.36
   0   3  -5 1771.43   43.24
   0   3  -5 1752.83   42.83
   0  -3  -3 2965.14   67.68
   0   3  -3 2966.08   67.13
   0  -3  -3 2995.78   66.60
   0  -3  -3 3012.06   66.95
   0  -3  -3 2997.28   64.71
   0  -3  -1 3712.10   80.47
   0  -3  -1 3638.17   74.65
   0   3  -1 3676.42   79.82
   0   3  -1 3563.33   78.15
   0  -3   1 3876.83   81.59
   0   3   1 3789.38   77.89
   0   3   1 3725.58   77.81
   0   3   1 3670.10   82.81
   0   3   3 3429.02   82.38
   0   3   3 3387.49   71.84
   0   3   3 3380.23   74.96
   0  -3   3 3383.99   75.26
   0  -3   3 3455.34   78.29
   0   3   3 3323.74   70.17
   0  -3   3 3443.36   72.74
   0   3   3 3464.25   74.92
   0  -3   5 1690.44   41.95
   0   3   5 1755.82   54.85
   0  -3   5 1745.83   50.02
   0   3   5 1695.52   41.22
   0   3   5 1710.75   40.73
   0   3   5 1770.02   41.16
   0   3   5 1757.52   43.26
   0  -3   5 1645.07   47.47
   0  -3   7  491.84   34.03
   0   3   7  490.72   18.85
   0  -3   7  505.32   16.24
   0  -3   7  432.64   28.34
   0  -3   7  521.09   26.72
   0  -3   7  508.78   15.67
   0   3   9  322.96   16.45
   0  -3   9  310.55   23.34
   0  -3   9  344.41   26.28
   0  -3  11  136.38   18.03
   0   3  11  115.81   17.32
   0  -3  13   47.93   14.08
   0   4 -12   27.24    6.83
   0  -4 -12   46.46   15.17
   0   4 -10  139.40   11.33
   0   4 -10  149.88   15.27
   0  -4 -10  129.43   19.37
   0   4 -10  147.28   11.37
   0  -4  -8  543.22   19.06
   0  -4  -8  493.22   18.54
   0  -4  -8  520.93   43.44
   0   4  -8  509.27   24.98
   0   4  -8  546.05   26.38
   0  -4  -8  551.30   20.06
   0   4  -8  503.90   20.39
   0  -4  -6 1050.74   51.88
   0  -4  -6 1048.36   31.76
   0  -4  -6 1075.08   29.73
   0   4  -6 1025.00   36.25
   0   4  -6 1058.11   30.89
   0  -4  -6 1014.80   55.44
   0   4  -4 1639.26   42.90
   0  -4  -4 1604.60   43.45
   0  -4  -4 1631.88   41.86
   0  -4  -2 1784.70   45.28
   0  -4  -2 1634.45   49.03
   0  -4  -2 1638.03   38.27
   0   4  -2 1761.14   44.47
   0   4  -2 1751.62   43.78
   0   4   0 3310.81   74.49
   0   4   0 3183.60   74.10
   0  -4   0 3232.21   73.10
   0  -4   0 3172.18   74.77
   0   4   0 3160.30   69.72
   0   4   0 3232.19   68.20
   0   4   2 1983.81   45.36
   0   4   2 1835.33   47.92
   0   4   2 1964.48   51.12
   0  -4   2 1913.51   48.93
   0   4   2 1927.44   48.27
   0  -4   4 1726.79   41.72
   0  -4   4 1717.79   48.02
   0   4   4 1702.25   40.12
   0  -4   4 1701.09   44.58
   0   4   4 1694.31   38.10
   0   4   4 1711.58   51.79
   0   4   4 1672.23   44.09
   0   4   4 1746.19   44.00
   0  -4   6  933.30   28.10
   0   4   6  928.52   25.60
   0   4   6  888.03   25.31
   0   4   6 1012.89   40.09
   0  -4   6  873.60   32.97
   0  -4   6  957.64   35.16
   0   4   6  899.07   28.48
   0   4   6  892.73   26.98
   0  -4   8  490.99   25.27
   0  -4   8  521.43   28.77
   0   4   8  503.35   19.08
   0  -4   8  445.88   35.42
   0  -4   8  502.34   17.69
   0  -4   8  503.46   16.98
   0  -4   8  458.20   29.51
   0   4   8  535.30   30.54
   0   4  10  152.26   11.19
   0  -4  10  106.69   17.00
   0  -4  12   65.84   14.15
   0  -5 -11  114.88   25.53
   0  -5 -11  125.34   21.42
   0   5  -9  213.23   17.78
   0  -5  -9  238.02   12.76
   0  -5  -9  222.80   31.54
   0  -5  -9  267.84   27.42
   0   5  -9  226.56   15.24
   0   5  -7  306.73   15.20
   0  -5  -7  311.35   32.88
   0  -5  -7  304.07   16.02
   0  -5  -7  288.64   13.06
   0  -5  -7  309.89   16.67
   0   5  -5  877.85   29.27
   0  -5  -5  842.39   30.17
   0   5  -5  847.08   31.80
   0  -5  -5  894.84   27.98
   0   5  -5  903.49   22.42
   0  -5  -3 1496.17   35.71
   0   5  -3 1427.02   41.76
   0   5  -3 1506.03   42.05
   0  -5  -3 1533.26   51.98
   0  -5  -3 1429.86   42.80
   0   5  -1 2000.43   52.17
   0   5  -1 1979.67   52.50
   0  -5  -1 1873.04   52.67
   0   5  -1 2009.99   48.94
   0  -5  -1 2017.65   54.53
   0  -5   1 1961.53   41.52
   0   5   1 1961.10   44.83
   0   5   1 2001.62   45.17
   0  -5   1 1859.19   49.21
   0  -5   1 2024.95   48.78
   0  -5   3 1519.86   43.54
   0   5   3 1581.17   46.77
   0   5   3 1562.75   42.77
   0  -5   3 1492.95   44.06
   0   5   3 1510.13   42.71
   0  -5   3 1495.25   38.36
   0   5   3 1583.27   38.46
   0   5   5  867.01   22.14
   0  -5   5  917.21   33.01
   0   5   5  845.85   35.39
   0  -5   5  863.82   32.75
   0  -5   5  885.33   29.52
   0   5   5  874.66   24.20
   0   5   5  834.21   29.07
   0  -5   5  847.45   26.09
   0   5   5  896.00   28.40
   0  -5   7  336.70   20.29
   0   5   7  323.70   14.86
   0  -5   7  332.23   29.68
   0  -5   7  292.28   15.47
   0   5   7  351.30   23.60
   0   5   7  290.53   12.16
   0  -5   7  270.74   19.37
   0   5   7  311.17   15.64
   0   5   7  325.77   12.96
   0   5   9  196.17   19.90
   0  -5   9  225.73   20.08
   0  -5   9  230.96   11.65
   0   5   9  198.44   11.65
   0  -5   9  223.68   11.21
   0  -5  11   83.49   15.38
   0  -6 -10   91.31   19.54
   0  -6 -10  102.77   26.16
   0   6 -10   97.74   11.62
   0  -6  -8  236.52   15.16
   0   6  -8  248.93   17.02
   0  -6  -8  211.56   30.93
   0  -6  -8  254.94   15.45
   0   6  -8  246.38   14.77
   0  -6  -8  228.22   15.16
   0  -6  -6  344.52   34.86
   0   6  -6  354.89   17.89
   0  -6  -6  342.33   31.00
   0   6  -6  316.42   10.07
   0  -6  -6  324.97   18.23
   0   6  -6  312.31   18.94
   0  -6  -6  312.76   14.90
   0  -6  -4  479.77   23.25
   0  -6  -4  521.57   17.03
   0   6  -4  541.69   23.22
   0   6  -4  547.40   23.46
   0  -6  -4  465.11   31.07
   0   6  -2 1223.59   36.18
   0   6  -2 1248.63   39.50
   0  -6  -2 1194.20   39.55
   0  -6  -2 1181.79   42.88
   0   6  -2 1196.02   38.43
   0  -6   0 2462.90   65.95
   0  -6   0 2447.44   63.63
   0   6   0 2486.28   58.21
   0   6   0 2568.26   64.83
   0   6   0 2453.91   64.72
   0   6   0 2441.06   56.31
   0   6   2 1106.02   33.06
   0   6   2 1231.53   29.39
   0   6   2 1186.61   37.48
   0   6   2 1157.22   37.41
   0  -6   2 1183.68   36.78
   0  -6   2 1206.11   34.17
   0   6   4  527.16   14.99
   0   6   4  479.88   24.53
   0   6   4  535.01   17.81
   0  -6   4  489.81   22.73
   0   6   4  527.70   13.59
   0   6   4  518.75   22.32
   0  -6   4  523.68   18.58
   0   6   4  541.51   22.34
   0  -6   4  504.26   23.55
   0  -6   6  332.90   20.67
   0   6   6  332.21   16.55
   0   6   6  321.42   12.53
   0   6   6  311.36   21.34
   0  -6   6  319.13   17.54
   0  -6   6  335.90   20.19
   0  -6   6  303.77   14.53
   0   6   6  323.79   10.97
   0   6   6  335.14   17.34
   0  -6   8  234.18   14.29
   0   6   8  263.30   11.47
   0   6   8  246.51   21.19
   0  -6   8  239.89   19.76
   0   6   8  273.80   14.51
   0  -6   8  243.94   14.21
   0  -6  10   69.75   15.00
   0  -6  10   86.05    7.67
   0   6  10   90.37   14.94
   0   7  -9  111.56   13.22
   0  -7  -9  107.00   25.59
   0   7  -9  103.40   13.75
   0   7  -7  190.35   16.27
   0  -7  -7  210.86   15.92
   0  -7  -7  215.62   31.89
   0   7  -7  207.15   14.92
   0   7  -7  228.24   17.13
   0  -7  -7  203.31   12.09
   0  -7  -5  505.93   24.72
   0   7  -5  420.51   21.92
   0  -7  -5  457.49   15.91
   0   7  -5  440.86   23.58
   0  -7  -5  470.40   33.57
   0   7  -5  472.81   23.42
   0   7  -3  582.08   25.78
   0   7  -3  585.78   27.01
   0  -7  -3  598.68   32.98
   0   7  -3  565.94   23.79
   0  -7  -3  555.59   26.71
   0  -7  -1  610.80   28.00
   0   7  -1  637.39   22.93
   0   7  -1  689.01   27.82
   0   7  -1  659.44   27.98
   0  -7  -1  658.17   29.08
   0   7  -1  593.15   20.77
   0   7   1  574.26   18.89
   0  -7   1  632.09   24.35
   0   7   1  597.29   19.09
   0  -7   1  581.79   15.14
   0   7   3  580.34   25.05
   0   7   3  545.68   24.85
   0   7   3  564.02   15.58
   0  -7   3  605.13   25.76
   0   7   3  567.52   20.49
   0  -7   3  579.07   26.59
   0   7   5  436.19   20.97
   0   7   5  414.32   10.80
   0  -7   5  419.50   17.30
   0   7   5  451.18   15.59
   0   7   5  430.01   24.41
   0   7   5  461.86   21.83
   0  -7   5  422.44   21.89
   0   7   5  392.20   10.34
   0  -7   5  452.83   23.71
   0   7   7  212.16    9.47
   0   7   7  217.53   18.95
   0  -7   7  172.06   16.55
   0   7   7  189.60    7.30
   0   7   7  218.19   14.21
   0  -7   7  214.53   15.11
   0   7   7  205.42   14.61
   0  -7   9  114.96   11.04
   0   7   9  101.92   15.27
   0  -7   9   96.03    9.88
   0  -8  -8  116.97   13.17
   0   8  -8  104.51   13.85
   0  -8  -8  104.59   12.88
   0  -8  -8   69.99   22.27
   0   8  -8   84.38   12.45
   0   8  -6  156.45   15.77
   0  -8  -6  141.46   15.00
   0   8  -6  190.17   15.39
   0   8  -6  137.71   13.83
   0   8  -4  239.99   16.99
   0  -8  -4  247.72   18.79
   0  -8  -4  241.28   24.38
   0   8  -4  237.92   15.71
   0   8  -4  191.47   16.71
   0   8  -2  437.91   22.96
   0   8  -2  378.52   17.21
   0  -8  -2  451.13   26.98
   0   8  -2  433.87   23.67
   0  -8  -2  420.65   24.65
   0   8  -2  421.01   19.20
   0   8   0  733.94   30.51
   0  -8   0  716.06   30.48
   0  -8   0  662.93   31.66
   0   8   0  755.29   24.14
   0   8   0  706.21   22.88
   0  -8   2  412.71   23.63
   0   8   2  404.59   18.60
   0   8   2  424.91   22.10
   0   8   2  408.00   13.78
   0   8   2  414.49   22.66
   0  -8   2  416.04   19.65
   0   8   4  228.79   11.94
   0  -8   4  211.12   16.87
   0  -8   4  270.95   18.19
   0   8   4  240.09   16.65
   0  -8   4  230.81   12.82
   0  -8   4  251.66   13.77
   0   8   4  225.24   15.90
   0   8   6  167.31   16.27
   0  -8   6  162.53   10.67
   0  -8   6  130.90   13.60
   0   8   6  147.14    8.23
   0   8   6  162.13   13.88
   0   8   6  135.28   12.67
   0   8   8   76.70   13.94
   0   8   8   92.29   10.82
   0  -8   8   96.53   11.49
   0  -8   8   80.50   11.16
   0   8   8   88.02   10.70
   0   9  -9   62.10   13.06
   0  -9  -7   69.80   12.59
   0   9  -7   75.23   13.18
   0   9  -7   43.16    9.59
   0   9  -5  159.44   16.73
   0   9  -5  204.00   15.61
   0  -9  -5  184.00   18.20
   0   9  -3  247.80   19.24
   0   9  -3  250.97   14.67
   0  -9  -3  238.23   23.59
   0  -9  -3  242.77   20.28
   0   9  -3  243.63   15.36
   0   9  -1  186.27   11.88
   0   9  -1  214.06   17.64
   0  -9  -1  206.15   18.13
   0  -9  -1  213.14   18.28
   0   9  -1  208.16   11.82
   0   9   1  193.25   16.76
   0   9   1  206.31   10.37
   0  -9   1  228.63   16.52
   0   9   1  216.57   11.08
   0   9   3  225.68   17.59
   0   9   3  250.22   13.66
   0   9   3  215.75    6.93
   0  -9   3  208.28   18.30
   0  -9   3  258.13   15.72
   0   9   5  171.29   15.30
   0   9   5  157.35    9.41
   0  -9   5  156.19   16.20
   0  -9   5  165.45   11.88
   0   9   7   57.40   11.97
   0  -9   7   72.43   11.44
   0   9   7   47.26    9.36
   0  -9   9   17.59    8.25
   0  -9   9   30.36    8.49
   0 -10  -6   48.93   11.82
   0  10  -6   83.79   14.85
   0  10  -6   80.09   11.99
   0  10  -4  110.40   14.96
   0  10  -4   95.43   10.34
   0  10  -4  114.62   11.77
   0 -10  -4  108.93   15.42
   0  10  -2   94.57   13.74
   0  10  -2  120.07   10.38
   0  10  -2   91.45    9.10
   0 -10  -2  112.18   15.10
   0 -10   0  137.44   15.66
   0  10   0  129.09    9.16
   0 -10   0  138.81   16.22
   0  10   0  130.91    9.40
   0 -10   2  110.17   14.84
   0  10   2   97.80    5.68
   0  10   2  106.99   10.26
   0 -10   2  101.53   12.20
   0  10   2  120.45   13.95
   0 -10   4   99.18   10.81
   0  10   4   97.43    8.81
   0  10   4  100.23   13.31
   0 -10   4   90.80   14.42
   0 -10   6   85.21   13.44
   0  10   6   49.56   10.98
   0  10   8   43.20    9.87
   0 -10   8   31.17   10.54
   0 -10   8   42.35   10.37
   0  11  -5   38.82    8.79
   0  11  -5   38.93    9.10
   0 -11  -5   28.86   11.41
   0  11  -3   63.15    8.83
   0 -11  -3   91.91   15.33
   0  11  -3   57.26    8.74
   0  11  -3   66.90   13.69
   0 -11  -1   73.81   14.77
   0  11  -1   73.08    8.18
   0  11  -1   92.05   14.15
   0  11  -1   62.65    7.93
   0  11   1   73.31    6.25
   0 -11   1   59.23   12.03
   0  11   1   66.18   12.91
   0  11   1   69.54    9.85
   0  11   3   55.36   12.41
   0  11   3   63.68    8.22
   0 -11   3   58.51   13.02
   0  11   5   32.36   10.30
   0 -11   5   42.56   12.51
   0  12  -4   22.06    7.40
   0  12   2   20.96    6.61
  -1   0 -12   61.15   11.92
   1   0 -12   72.78   11.23
   1   0 -12  104.50   17.96
   1   0 -12   77.36   12.34
  -1   0 -12   73.29   11.25
   1   0 -10  255.93   13.49
   1   0 -10  282.04   16.57
   1   0 -10  278.42   23.24
  -1   0 -10  287.97   18.21
   1   0 -10  225.31   18.08
   1   0 -10  271.98   17.99
  -1   0 -10  286.24   20.50
  -1   0  -8  673.62   26.38
   1   0  -8  604.03   31.96
  -1   0  -8  631.66   28.99
   1   0  -8  599.34   23.66
   1   0  -8  630.02   25.90
   1   0  -8  597.10   21.71
   1   0  -8  662.87   28.66
   1   0  -6 1717.37   49.47
  -1   0  -6 1759.93   49.97
   1   0  -6 1640.65   54.15
  -1   0  -6 1775.28   47.21
   1   0  -6 1649.89   43.99
   1   0  -6 1692.98   46.48
   1   0  -6 1750.13   69.10
   1   0  -4 2972.29   59.27
  -1   0  -4 2870.85   65.60
   1   0  -4 2869.94   83.02
  -1   0  -4 2825.92   59.46
   1   0  -4 2895.93   65.16
   1   0  -2 4821.33  105.70
   1   0  -2 4746.38  111.41
  -1   0  -2 4894.50  101.32
  -1   0  -2 4804.87   99.26
   1   0  -2 4915.33   99.05
   1   0  -2 4625.93  102.07
   1   0  -2 4684.75  100.92
   1   0  -2 5141.46  102.53
   1   0   0 2467.86   52.01
   1   0   0 2443.59   51.76
   1   0   0 2447.42   52.06
   1   0   0 2515.11   51.09
  -1   0   0 2418.52   51.78
   1   0   0 2413.05   51.35
  -1   0   0 2353.24   52.49
  -1   0   0 2425.95   51.61
  -1   0   0 2515.34   52.25
   1   0   0 2470.20   52.49
   1   0   2 4683.91  101.29
  -1   0   2 4731.52  102.83
   1   0   2 4793.22   98.43
  -1   0   4 2676.86   64.86
   1   0   4 2696.97   55.68
  -1   0   4 2559.77   76.96
  -1   0   4 2588.27   61.37
   1   0   4 2526.13   71.87
  -1   0   4 2593.28   55.61
  -1   0   4 2682.30   70.21
  -1   0   6 1743.53   47.86
   1   0   6 1883.70   65.12
  -1   0   6 1779.69   53.53
  -1   0   6 1776.35   67.56
   1   0   6 1796.50   47.89
  -1   0   8  606.86   25.37
  -1   0   8  657.16   42.69
  -1   0   8  664.98   31.72
   1   0   8  631.53   25.68
   1   0   8  575.26   38.41
   1   0   8  632.50   38.57
  -1   0  10  263.88   21.42
  -1   0  10  283.93   18.28
   1   0  10  289.90   26.87
   1   0  12   72.44   16.53
  -1   0  12   80.05   14.40
   1   1 -13   50.03   10.90
  -1  -1 -13   34.51   11.72
  -1  -1 -13   43.86   10.81
  -1   1 -13   44.78    9.04
   1   1 -11  155.32   15.53
   1  -1 -11  160.92   16.20
   1  -1 -11  139.71   13.54
   1  -1 -11  142.58   18.88
   1   1 -11  130.52   13.82
   1   1 -11  161.52   18.23
  -1   1 -11  111.98   12.20
  -1  -1 -11  175.01   18.27
   1   1  -9  421.40   20.52
  -1  -1  -9  421.02   20.93
  -1   1  -9  408.90   20.18
   1  -1  -9  417.34   18.64
   1  -1  -9  402.86   23.46
   1   1  -9  381.44   25.24
   1  -1  -9  377.16   16.60
  -1   1  -9  380.90   20.85
  -1   1  -9  408.14   22.13
   1   1  -9  381.82   21.30
  -1   1  -9  424.43   23.18
  -1  -1  -9  413.09   25.31
   1  -1  -9  351.43   26.17
   1   1  -9  411.00   22.34
   1  -1  -9  371.54   19.48
   1  -1  -7 1239.47   48.19
   1  -1  -7 1213.64   34.17
  -1  -1  -7 1221.26   37.17
   1   1  -7 1157.45   38.29
  -1   1  -7 1179.87   38.51
  -1   1  -7 1204.18   38.38
   1  -1  -7 1194.34   34.00
  -1  -1  -7 1266.54   44.74
   1   1  -7 1219.67   44.26
  -1  -1  -7 1303.90   55.77
  -1   1  -7 1167.69   26.23
   1  -1  -7 1179.87   36.15
   1   1  -7 1176.36   38.82
  -1   1  -7 1182.00   38.69
   1  -1  -5 1065.62   29.45
   1  -1  -5  976.26   24.78
  -1  -1  -5 1056.20   30.90
  -1   1  -5 1034.54   30.69
  -1   1  -5 1042.36   31.76
  -1  -1  -5 1034.71   36.08
  -1   1  -5 1033.00   31.77
   1  -1  -5 1078.58   24.85
   1  -1  -5  977.02   41.29
   1  -1  -5 1085.58   49.30
  -1   1  -5 1044.52   23.92
   1   1  -5 1071.83   32.50
   1   1  -5 1025.76   32.27
  -1  -1  -5 1068.84   25.46
   1  -1  -5 1004.08   27.31
  -1  -1  -5 1029.95   42.43
   1  -1  -5 1027.48   29.31
   1   1  -5 1036.89   24.97
  -1  -1  -3 2777.25   70.47
   1  -1  -3 2621.87   67.65
  -1   1  -3 2787.97   57.51
   1   1  -3 2744.79   59.12
  -1  -1  -3 2753.59   62.16
  -1   1  -3 2844.62   62.92
   1  -1  -3 2850.70   60.14
   1   1  -3 2718.58   66.13
   1  -1  -3 2681.66   59.32
   1  -1  -3 2745.56   78.85
   1  -1  -3 2879.32   71.63
   1  -1  -3 2603.09   59.46
   1   1  -3 2738.52   63.71
  -1  -1  -3 2756.57   59.64
   1   1  -3 2739.11   59.61
   1  -1  -3 2797.43   62.08
  -1   1  -3 2791.86   62.40
  -1  -1  -1 7636.00  151.47
  -1  -1  -1 7205.30  154.64
  -1   1  -1 7609.39  154.13
  -1   1  -1 7422.50  153.62
   1   1  -1 7356.05  154.38
   1   1  -1 7102.60  156.08
   1  -1  -1 7523.48  154.83
   1   1  -1 7395.25  154.74
   1  -1  -1 7389.17  155.34
   1  -1  -1 7444.18  155.41
  -1  -1  -1 7380.79  155.18
   1   1   1 7363.40  152.37
  -1   1   1 7283.78  153.38
  -1  -1   1 7642.67  153.41
   1  -1   1 7489.91  151.47
  -1  -1   1 7525.25  151.57
   1  -1   1 7530.53  150.82
  -1   1   1 7527.70  152.53
   1  -1   3 2529.31   55.70
  -1  -1   3 2567.09   59.19
  -1  -1   3 2555.08   70.52
   1   1   3 2510.16   55.46
   1   1   3 2588.90   55.39
  -1   1   3 2557.12   56.40
   1  -1   3 2590.68   58.47
   1  -1   3 2507.61   57.45
  -1  -1   3 2560.45   55.15
   1   1   3 2464.74   66.82
  -1  -1   3 2572.90   63.07
   1  -1   3 2598.04   55.64
  -1  -1   3 2549.93   58.50
  -1  -1   5 1067.20   35.96
   1  -1   5 1139.09   44.60
   1  -1   5 1151.67   26.57
   1  -1   5 1142.51   26.90
  -1  -1   5 1131.52   34.32
  -1   1   5 1128.82   31.85
  -1   1   5 1163.59   38.30
  -1  -1   5 1148.59   26.68
  -1  -1   5 1116.11   40.06
   1   1   5 1185.30   45.99
  -1  -1   5 1128.68   47.81
   1   1   5 1178.55   26.62
   1   1   5 1155.37   32.16
   1   1   5 1073.09   44.84
  -1   1   5 1112.03   49.17
   1   1   5 1099.08   32.53
   1  -1   7 1262.11   53.94
  -1  -1   7 1089.51   54.06
   1  -1   7 1163.97   37.66
  -1   1   7 1138.55   42.70
  -1  -1   7 1193.61   43.10
   1   1   7 1197.07   36.14
  -1   1   7 1178.03   56.90
  -1  -1   7 1185.28   38.29
  -1   1   7 1173.87   35.91
  -1  -1   7 1190.24   46.91
   1   1   7 1298.69   55.23
  -1  -1   9  378.28   23.95
   1  -1   9  364.62   29.99
  -1  -1   9  388.18   21.13
  -1   1   9  405.96   25.68
   1   1   9  397.60   30.48
   1  -1   9  392.41   21.00
   1  -1   9  433.73   34.37
   1   1   9  394.57   33.68
  -1   1   9  396.11   19.93
   1   1   9  410.69   20.38
  -1  -1  11  143.45   15.90
  -1   1  11  142.11   16.93
   1  -1  11  124.87   19.11
   1   1  11  184.40   22.30
  -1  -1  13   36.15   11.50
   1  -2 -12  103.78   18.48
  -1  -2 -12  116.13   16.75
  -1   2 -12  112.63   11.68
   1  -2 -12   97.13   14.90
   1   2 -12   88.39   13.44
   1   2 -12   87.86   11.77
   1   2 -10  217.74   17.47
  -1   2 -10  242.94   18.28
  -1  -2 -10  234.42   15.62
   1  -2 -10  209.51   18.08
   1  -2 -10  221.01   13.21
   1  -2 -10  228.00   15.06
   1   2 -10  232.56   16.65
  -1   2 -10  249.32   15.16
   1  -2 -10  195.28   30.64
   1  -2 -10  280.89   25.71
  -1  -2 -10  219.87   28.82
  -1  -2 -10  233.64   21.37
  -1   2  -8  455.93   22.36
  -1   2  -8  437.85   14.36
   1  -2  -8  448.21   18.46
  -1  -2  -8  495.66   28.82
  -1  -2  -8  464.05   20.72
   1  -2  -8  470.85   19.92
  -1   2  -8  485.39   19.58
   1   2  -8  465.52   23.33
   1   2  -8  440.81   21.45
   1  -2  -8  482.19   18.21
  -1  -2  -8  528.60   37.41
   1  -2  -8  474.72   30.39
  -1   2  -8  412.11   22.16
   1  -2  -6 1360.65   35.87
   1   2  -6 1359.52   41.64
  -1   2  -6 1335.12   32.63
   1  -2  -6 1304.54   36.66
   1  -2  -6 1338.02   33.59
   1   2  -6 1310.13   39.23
   1  -2  -6 1172.86   51.92
  -1  -2  -6 1314.19   32.76
  -1  -2  -6 1313.33   37.86
  -1   2  -6 1380.80   35.13
  -1   2  -6 1318.57   40.13
   1  -2  -6 1257.96   31.71
   1  -2  -6 1292.10   32.24
   1   2  -6 1293.85   31.76
  -1   2  -6 1386.76   40.83
  -1  -2  -6 1366.07   56.40
   1  -2  -4 2434.51   52.98
   1   2  -4 2470.50   54.59
   1   2  -4 2353.75   60.06
  -1  -2  -4 2512.86   72.96
   1  -2  -4 2376.96   54.42
   1   2  -4 2409.71   57.35
   1  -2  -4 2428.26   54.28
  -1   2  -4 2466.93   58.67
  -1   2  -4 2378.45   58.27
  -1   2  -4 2162.44   51.24
  -1  -2  -4 2397.69   55.05
  -1   2  -4 2396.41   53.52
   1  -2  -4 2504.21   80.83
   1  -2  -4 2381.48   57.15
   1  -2  -4 2403.90   68.10
   1  -2  -4 2505.03   50.94
  -1  -2  -4 2350.82   56.87
   1   2  -2 4410.45   91.79
   1  -2  -2 4290.21   95.55
   1   2  -2 4363.14   96.46
  -1  -2  -2 4589.11   94.66
   1   2  -2 4425.90   93.79
  -1  -2  -2 4250.25   93.92
  -1  -2  -2 4293.87   94.15
   1  -2  -2 4371.74   98.09
   1  -2  -2 4429.43   87.86
   1  -2  -2 4400.44   93.76
  -1   2  -2 4409.05   92.58
   1  -2  -2 4393.69   94.83
   1   2   0 2743.13   59.15
   1  -2   0 2722.86   58.70
  -1   2   0 2726.34   58.93
  -1  -2   0 2616.55   59.16
  -1   2   0 2618.25   58.41
   1  -2   0 2632.33   57.22
   1  -2   0 2662.46   54.44
   1  -2   0 2638.35   59.17
  -1  -2   0 2666.43   59.10
   1   2   0 2583.17   56.48
  -1  -2   2 4446.54   98.53
  -1  -2   2 4502.89   95.91
  -1   2   2 4646.41   99.08
   1   2   2 4447.09  104.66
   1  -2   2 4560.83   95.98
   1  -2   4 2380.92   53.95
  -1  -2   4 2333.34   58.85
   1  -2   4 2408.92   58.59
  -1  -2   4 2449.46   54.17
   1   2   4 2523.43   57.22
   1  -2   4 2333.69   57.28
   1   2   4 2406.81   55.25
   1  -2   4 2341.04   54.55
   1   2   4 2460.32   53.94
  -1  -2   4 2484.47   58.34
  -1  -2   4 2209.58   59.39
   1   2   4 2353.65   70.11
  -1   2   4 2415.31   53.58
  -1  -2   4 2362.19   62.65
   1   2   4 2417.47   51.20
  -1  -2   4 2369.55   73.14
   1  -2   6 1457.52   55.68
   1   2   6 1362.16   36.98
   1  -2   6 1348.71   43.10
  -1  -2   6 1312.01   31.82
   1   2   6 1298.63   37.38
  -1   2   6 1281.27   44.39
   1  -2   6 1270.42   39.86
  -1  -2   6 1360.71   43.47
   1   2   6 1331.41   31.25
  -1  -2   6 1349.11   46.77
   1  -2   6 1371.55   32.52
  -1  -2   6 1311.23   55.76
   1  -2   6 1283.25   31.47
   1   2   6 1282.43   51.04
  -1   2   6 1364.86   36.30
  -1   2   8  445.99   26.21
  -1   2   8  372.18   17.86
  -1  -2   8  465.38   22.97
   1   2   8  429.39   19.26
  -1  -2   8  415.65   26.64
  -1  -2   8  427.12   24.08
   1  -2   8  433.14   33.04
  -1  -2   8  437.59   35.09
   1  -2  10  238.17   24.97
   1   2  10  247.52   15.94
  -1  -2  10  199.73   18.09
  -1   2  10  227.90   20.25
  -1   2  10  222.96   14.90
   1   2  10  208.51   22.72
   1   2  12   75.31   16.54
  -1  -2  12   94.49   14.31
  -1   2  12   77.62   14.25
   1  -2  12   73.05   18.60
  -1  -3 -13   24.75   11.82
   1   3 -13   20.45    8.95
   1  -3 -11  122.34   27.39
   1  -3 -11   71.41   15.69
   1  -3 -11   69.14   12.19
  -1   3 -11   91.67   12.69
   1   3 -11   97.47   13.32
  -1   3 -11   81.21    8.95
  -1  -3 -11   86.11   15.95
  -1  -3 -11   91.95   21.67
   1   3 -11   87.53   10.86
  -1  -3  -9  280.17   15.83
   1   3  -9  239.49   15.73
   1  -3  -9  285.24   12.80
   1  -3  -9  265.75   13.82
   1  -3  -9  268.06   25.20
  -1  -3  -9  246.82   22.55
  -1   3  -9  284.66   18.78
  -1   3  -9  285.61   13.58
  -1   3  -9  275.07   11.84
   1   3  -9  252.19   17.98
   1  -3  -9  288.57   33.25
  -1  -3  -9  303.47   31.03
   1   3  -9  238.33   16.68
   1  -3  -7 1150.33   34.17
   1   3  -7 1184.20   36.63
   1  -3  -7 1038.95   53.37
   1  -3  -7 1102.72   30.17
  -1   3  -7 1141.71   31.71
  -1   3  -7 1179.41   38.89
  -1   3  -7 1115.92   30.66
   1   3  -7 1209.69   40.67
  -1   3  -7 1153.89   39.33
   1   3  -7 1136.07   30.20
   1  -3  -7 1153.83   30.61
  -1  -3  -7 1138.62   31.46
   1  -3  -7 1051.97   49.26
  -1  -3  -7 1120.25   35.06
   1  -3  -7 1112.16   29.64
  -1  -3  -7 1270.10   58.85
  -1   3  -5 1666.45   41.64
   1  -3  -5 1696.92   59.41
   1  -3  -5 1626.66   38.44
  -1   3  -5 1589.11   45.54
  -1  -3  -5 1576.10   42.04
   1  -3  -5 1610.87   41.29
   1   3  -5 1637.27   44.20
   1   3  -5 1662.91   41.61
  -1   3  -5 1631.63   37.29
   1  -3  -5 1640.22   43.73
  -1  -3  -5 1661.67   43.74
   1   3  -5 1684.04   48.41
   1  -3  -5 1635.78   36.63
  -1  -3  -5 1805.15   65.45
  -1  -3  -3 2319.81   55.04
   1  -3  -3 2215.79   54.31
  -1  -3  -3 2296.35   54.94
   1  -3  -3 2258.76   61.89
   1   3  -3 2359.18   51.59
  -1   3  -3 2300.10   54.05
  -1  -3  -3 2238.59   55.21
   1   3  -3 2166.10   57.24
  -1   3  -3 2293.09   54.79
   1  -3  -3 2187.39   55.98
   1   3  -3 2334.49   54.74
   1  -3  -3 2278.61   55.64
   1  -3  -1 2092.07   47.52
  -1   3  -1 2061.87   49.23
   1   3  -1 2056.58   49.41
   1  -3  -1 2042.20   49.71
  -1  -3  -1 1979.78   53.06
   1  -3  -1 2026.05   49.40
  -1  -3  -1 1956.76   49.75
  -1   3  -1 1978.45   45.24
  -1   3  -1 2017.13   48.65
   1   3   1 2270.07   55.76
  -1   3   1 2290.16   53.51
  -1  -3   1 2281.31   50.78
  -1   3   1 2289.50   55.10
   1  -3   1 2361.06   52.14
  -1  -3   1 2369.31   49.56
  -1  -3   3 2333.23   55.25
  -1  -3   3 2337.81   56.49
  -1  -3   3 2387.39   59.91
  -1   3   3 2447.53   56.17
  -1  -3   3 2365.71   56.09
   1   3   3 2331.72   55.76
   1   3   3 2364.39   53.72
   1   3   3 2379.09   55.73
   1   3   3 2363.78   65.09
  -1   3   3 2372.51   60.56
   1  -3   3 2360.83   55.96
  -1   3   3 2328.06   57.35
   1  -3   3 2389.03   57.27
   1   3   5 1703.22   43.41
  -1   3   5 1724.22   39.67
   1  -3   5 1617.51   41.21
   1   3   5 1614.37   55.73
  -1  -3   5 1617.43   50.38
  -1  -3   5 1704.89   48.46
   1  -3   5 1735.28   47.48
   1  -3   5 1660.70   46.02
  -1  -3   5 1704.56   41.93
  -1  -3   5 1661.61   62.20
  -1  -3   5 1523.32   46.64
   1   3   5 1710.24   39.61
   1   3   5 1611.45   40.75
   1   3   5 1655.07   41.56
  -1  -3   5 1600.44   44.63
  -1  -3   7 1184.42   55.43
   1  -3   7  975.79   37.78
  -1   3   7 1105.72   31.32
  -1  -3   7 1032.92   41.99
   1   3   7 1084.84   27.80
   1  -3   7 1097.78   37.54
   1  -3   7 1060.86   28.34
   1   3   7 1018.66   31.78
   1   3   7 1036.38   32.67
   1  -3   7 1107.91   29.23
   1  -3   7 1054.78   51.15
   1   3   7 1066.59   46.98
  -1  -3   7 1108.18   28.76
  -1  -3   7 1021.44   39.08
  -1   3   9  272.07   14.81
   1  -3   9  230.75   24.98
  -1   3   9  261.08   20.79
  -1  -3   9  266.42   19.71
  -1  -3   9  286.99   23.52
   1   3   9  274.46   15.40
  -1  -3  11   94.46   13.64
  -1   3  11   92.61   14.53
  -1   3  11   98.81   10.70
   1  -3  11  115.43   20.20
   1   3  11   92.71   16.80
  -1  -3  13   37.88   11.05
  -1  -4 -12   87.05   24.06
   1   4 -12   66.95   10.33
  -1  -4 -12   70.15   16.30
   1  -4 -10  172.08   22.65
  -1   4 -10  144.46   14.95
  -1  -4 -10  149.47   25.71
  -1   4 -10  170.76   10.71
  -1  -4 -10  170.76   21.05
   1   4 -10  161.95   13.64
   1  -4 -10  142.81   28.39
   1   4 -10  168.53   16.06
  -1  -4  -8  270.29   15.11
   1  -4  -8  258.42   12.79
   1  -4  -8  277.49   11.04
  -1   4  -8  241.37   11.54
   1   4  -8  251.85   18.15
   1  -4  -8  280.61   12.76
   1  -4  -8  270.54   14.89
  -1   4  -8  272.37   14.41
   1  -4  -8  285.84   26.18
  -1   4  -8  254.84   17.60
  -1  -4  -8  250.04   12.90
  -1  -4  -8  332.69   32.12
   1  -4  -8  246.51   30.80
   1   4  -8  266.24   15.56
   1   4  -8  265.64   12.48
  -1  -4  -6  707.37   25.47
   1  -4  -6  748.01   26.48
  -1   4  -6  717.24   28.15
   1  -4  -6  688.70   27.85
   1  -4  -6  725.74   40.64
   1  -4  -6  735.27   18.57
   1   4  -6  745.81   24.48
   1   4  -6  752.83   30.28
  -1  -4  -6  732.67   25.91
   1  -4  -6  730.73   25.08
  -1  -4  -6  755.17   44.60
  -1   4  -6  689.38   24.77
  -1  -4  -6  677.13   24.85
  -1  -4  -4 1656.91   43.37
   1  -4  -4 1588.72   43.93
   1  -4  -4 1726.56   55.88
  -1   4  -4 1649.03   44.01
   1   4  -4 1636.26   43.79
  -1   4  -4 1643.78   43.87
  -1   4  -4 1620.14   44.64
   1   4  -4 1650.34   39.62
  -1  -4  -4 1465.34   57.32
   1  -4  -4 1587.45   44.68
  -1  -4  -4 1663.42   45.22
  -1  -4  -4 1593.52   44.47
   1  -4  -4 1617.50   44.87
   1  -4  -2 2748.39   66.67
  -1   4  -2 2803.81   66.00
  -1   4  -2 2711.37   65.93
   1   4  -2 2817.08   66.58
   1  -4  -2 2797.06   66.61
  -1   4  -2 2696.00   62.81
  -1  -4  -2 2664.81   66.65
  -1  -4  -2 2757.79   75.23
   1  -4  -2 2757.61   63.69
   1   4   0 1672.57   44.48
   1  -4   0 1708.42   45.37
  -1   4   0 1711.69   38.42
   1  -4   0 1740.53   39.73
   1   4   0 1824.33   46.24
  -1   4   0 1750.37   45.25
  -1  -4   0 1617.12   45.89
  -1   4   0 1760.23   45.43
  -1  -4   0 1875.84   45.25
   1   4   0 1716.85   41.37
  -1   4   0 1741.12   42.35
   1  -4   0 1704.25   45.60
   1   4   2 2951.18   71.43
  -1   4   2 2914.23   68.34
   1  -4   2 2886.79   66.96
   1   4   2 2931.38   67.53
   1   4   2 2946.13   68.71
  -1  -4   2 2949.28   70.46
  -1  -4   2 2746.38   60.19
  -1   4   2 2911.90   67.46
  -1  -4   4 1563.62   41.91
  -1   4   4 1595.37   44.17
  -1   4   4 1563.27   42.28
   1   4   4 1637.62   52.37
   1   4   4 1570.15   42.19
   1  -4   4 1632.30   45.19
   1   4   4 1579.09   40.66
  -1   4   4 1649.49   48.47
  -1  -4   4 1588.59   47.97
  -1  -4   4 1608.95   46.92
  -1  -4   4 1592.54   42.82
   1  -4   4 1611.50   42.84
   1   4   4 1589.15   41.69
  -1  -4   4 1537.04   43.20
   1   4   6  726.93   22.85
   1  -4   6  732.77   29.12
  -1  -4   6  738.67   24.33
   1   4   6  725.44   23.24
  -1   4   6  761.55   21.18
  -1  -4   6  738.12   30.23
  -1   4   6  818.09   33.83
   1  -4   6  687.81   28.49
   1   4   6  721.58   35.29
   1   4   6  766.78   25.11
   1  -4   6  754.99   24.57
   1   4   6  728.39   23.47
  -1  -4   6  663.89   28.52
  -1  -4   6  696.33   24.93
  -1  -4   6  760.82   32.20
  -1  -4   6  683.55   25.88
  -1  -4   6  778.16   42.42
   1   4   8  250.53   13.80
   1   4   8  249.65   11.26
   1   4   8  279.82   23.49
   1  -4   8  243.25   18.20
   1  -4   8  259.35   11.97
   1   4   8  245.02   13.45
  -1  -4   8  264.85   11.99
   1  -4   8  253.99   27.40
   1  -4   8  253.68   11.97
  -1  -4   8  281.62   21.37
  -1   4   8  252.59   12.66
  -1  -4   8  260.97   18.68
   1  -4  10  105.08   19.28
  -1   4  10  180.52   11.92
   1  -4  10  142.78   16.75
   1   4  10  175.57   12.72
  -1  -4  10  159.19   16.08
   1   4  10  154.80   19.90
  -1   4  10  166.14   17.61
  -1  -4  12   53.68   11.16
   1  -4  12   41.04   15.48
   1  -5 -11   88.25   25.29
   1  -5 -11   47.96   15.31
  -1  -5 -11   89.69   24.29
  -1  -5 -11   63.88   17.19
   1  -5  -9  129.70   27.63
  -1   5  -9  175.89   12.50
   1  -5  -9  221.90   25.42
   1  -5  -9  172.01   13.00
   1  -5  -9  194.46   16.21
  -1  -5  -9  170.21   11.28
  -1  -5  -9  161.70   12.15
  -1  -5  -9  204.90   29.33
   1  -5  -9  177.87   11.34
   1   5  -9  156.45   15.43
  -1  -5  -7  560.13   23.22
   1  -5  -7  537.48   22.37
   1   5  -7  553.53   27.52
  -1  -5  -7  556.44   22.29
   1  -5  -7  533.08   38.60
   1  -5  -7  575.18   25.39
  -1   5  -7  560.32   23.23
  -1   5  -7  541.10   26.03
   1  -5  -7  587.11   23.85
   1   5  -7  572.43   22.24
   1  -5  -7  678.17   49.56
  -1  -5  -7  558.74   42.18
  -1  -5  -5  705.98   26.95
  -1   5  -5  660.52   26.43
  -1   5  -5  700.37   25.75
   1  -5  -5  696.08   26.22
   1  -5  -5  657.52   36.25
  -1   5  -5  676.73   25.75
  -1  -5  -5  585.37   37.80
   1   5  -5  668.73   25.08
   1  -5  -5  665.69   25.55
   1  -5  -5  679.64   26.13
   1   5  -5  650.71   20.30
  -1  -5  -5  660.18   20.34
  -1  -5  -5  707.41   26.71
   1   5  -3 1175.89   37.83
   1  -5  -3 1229.01   34.07
   1   5  -3 1172.41   36.50
  -1   5  -3 1193.29   36.73
  -1   5  -3 1182.33   36.44
  -1  -5  -3 1225.12   47.70
  -1  -5  -3 1153.47   37.67
   1  -5  -3 1186.12   37.22
   1  -5  -3 1164.40   36.69
  -1   5  -3 1160.54   34.56
   1   5  -1 1905.72   50.66
  -1   5  -1 1889.89   50.56
   1  -5  -1 1830.75   51.13
  -1   5  -1 1845.90   44.28
   1  -5  -1 1837.93   50.37
   1   5  -1 1840.98   49.37
  -1   5  -1 1861.69   50.29
  -1  -5  -1 1863.40   53.27
  -1   5  -1 1891.89   46.63
  -1  -5  -1 1858.94   51.74
   1  -5  -1 1842.23   51.88
   1   5   1 1869.60   48.58
  -1  -5   1 1893.80   43.67
   1  -5   1 1837.95   46.46
  -1  -5   1 1916.25   46.24
  -1   5   1 1892.12   39.95
   1   5   1 1928.65   48.88
  -1   5   1 1848.67   46.91
   1   5   3 1154.58   33.80
   1   5   3 1164.74   35.09
   1   5   3 1153.13   38.74
  -1  -5   3 1146.01   37.55
  -1   5   3 1147.60   26.39
   1  -5   3 1099.88   34.55
  -1  -5   3 1145.17   36.12
  -1   5   3 1144.95   35.00
   1  -5   3 1112.28   27.53
   1  -5   3 1145.91   35.63
  -1   5   3 1147.37   36.05
  -1  -5   3 1122.85   33.00
   1   5   3 1135.53   33.98
   1   5   5  680.17   24.28
  -1  -5   5  715.47   24.80
   1   5   5  672.82   23.41
  -1   5   5  659.87   26.12
  -1  -5   5  651.43   25.42
  -1  -5   5  646.21   24.71
  -1   5   5  714.70   25.26
   1  -5   5  661.94   26.80
   1   5   5  652.46   20.57
   1  -5   5  695.56   27.62
  -1  -5   5  654.61   29.19
  -1  -5   5  707.47   29.13
   1   5   5  666.64   31.76
   1   5   5  681.29   23.56
   1  -5   5  686.43   25.49
  -1   5   5  672.46   29.88
  -1  -5   7  551.81   27.15
   1  -5   7  538.10   21.32
   1   5   7  558.01   20.85
   1   5   7  553.77   31.62
  -1   5   7  548.91   29.17
   1  -5   7  570.83   26.73
   1   5   7  537.16   20.18
   1  -5   7  498.01   25.10
  -1  -5   7  487.90   36.32
   1   5   7  522.53   18.92
  -1  -5   7  528.90   28.54
  -1  -5   7  490.06   24.97
  -1  -5   7  534.39   21.18
  -1   5   7  533.46   16.47
   1   5   7  548.23   20.40
   1  -5   9  170.41   10.39
   1  -5   9  175.73   17.36
  -1   5   9  169.80   10.03
   1   5   9  169.63   11.34
  -1  -5   9  172.13   10.25
   1   5   9  138.65   17.99
   1  -5   9  168.55   10.48
   1   5   9  175.80    9.97
  -1  -5   9  172.65   15.45
  -1  -5  11   46.69   10.15
   1  -5  11   62.97   18.22
   1  -6 -10  135.92   30.34
  -1  -6 -10   56.41   15.77
   1  -6 -10   88.16   18.92
  -1  -6 -10  123.59   25.42
   1   6 -10   69.87   12.55
   1  -6  -8  222.14   32.44
   1   6  -8  187.81   10.87
   1   6  -8  174.08   12.80
  -1   6  -8  198.30   16.36
  -1  -6  -8  198.94   14.29
   1  -6  -8  177.48   14.42
  -1  -6  -8  203.15   12.44
   1  -6  -8  186.71   13.51
  -1  -6  -8  234.35   30.45
  -1   6  -8  185.36   14.25
  -1  -6  -6  418.65   21.30
  -1   6  -6  434.16   22.11
   1   6  -6  412.48   14.73
   1   6  -6  420.10   23.49
  -1   6  -6  395.90   21.03
   1  -6  -6  417.96   19.52
  -1   6  -6  413.67   20.19
   1  -6  -6  406.19   20.81
   1  -6  -6  390.88   20.37
   1   6  -6  424.02   20.28
  -1  -6  -6  402.10   14.55
  -1  -6  -6  403.84   21.27
   1  -6  -6  495.74   42.41
  -1  -6  -6  478.85   38.91
  -1  -6  -4  768.99   41.06
  -1  -6  -4  700.25   29.33
  -1   6  -4  695.37   26.68
   1  -6  -4  703.05   28.22
  -1   6  -4  728.92   28.23
   1   6  -4  742.12   29.64
   1  -6  -4  733.67   36.89
   1  -6  -4  690.96   28.90
   1  -6  -4  726.10   24.95
   1   6  -4  723.80   27.99
  -1   6  -4  675.83   27.91
   1  -6  -2 1135.04   31.95
   1   6  -2 1155.82   37.55
   1  -6  -2 1054.23   37.60
   1  -6  -2 1200.41   42.26
  -1   6  -2 1155.34   34.25
  -1   6  -2 1148.69   37.76
   1   6  -2 1119.67   36.54
  -1  -6  -2 1206.32   44.80
  -1   6  -2 1136.80   37.23
  -1  -6  -2 1116.37   38.62
  -1   6  -2 1131.82   32.56
  -1   6   0  884.01   23.82
  -1   6   0  977.79   33.01
  -1  -6   0  933.71   31.97
   1  -6   0  941.86   26.23
  -1  -6   0  883.57   32.97
   1  -6   0  903.06   31.44
   1   6   0  896.21   29.45
   1  -6   0  837.54   32.43
   1   6   0  899.24   22.52
  -1   6   0  878.51   31.31
  -1   6   0  861.61   27.38
   1   6   0  904.34   31.84
   1   6   2 1120.04   34.85
  -1   6   2 1101.86   35.96
   1   6   2 1136.25   36.10
   1   6   2 1094.44   35.95
   1   6   2 1158.50   36.61
  -1  -6   2 1087.31   30.14
   1   6   2 1154.39   33.12
   1  -6   2 1050.18   33.41
  -1   6   2 1048.71   32.67
   1   6   4  645.55   25.29
  -1   6   4  672.86   27.37
   1  -6   4  698.77   27.88
   1   6   4  683.80   30.60
   1  -6   4  706.48   27.70
  -1  -6   4  669.37   27.79
   1   6   4  692.00   24.41
   1   6   4  696.94   26.43
  -1   6   4  701.99   30.23
  -1   6   4  668.92   16.77
  -1  -6   4  721.22   29.59
  -1   6   4  655.53   26.17
  -1  -6   4  706.15   24.66
   1  -6   4  668.36   19.15
  -1   6   6  420.10   21.17
  -1  -6   6  464.88   25.55
   1   6   6  420.70   19.21
  -1   6   6  410.62   24.22
   1  -6   6  450.94   20.95
  -1   6   6  430.94   19.74
  -1  -6   6  443.23   20.53
   1   6   6  405.65   15.30
  -1  -6   6  441.30   19.49
   1  -6   6  439.79   23.22
  -1  -6   6  395.24   23.37
   1   6   6  400.73   25.54
   1   6   6  396.53   18.44
   1  -6   6  388.94   21.70
   1   6   6  440.78   18.05
  -1  -6   6  465.30   21.75
   1  -6   8  182.56   16.27
   1   6   8  181.89   10.57
   1   6   8  171.22   18.75
  -1  -6   8  190.09   12.83
   1   6   8  184.68   11.82
   1   6   8  184.33   11.37
   1  -6   8  180.71   12.61
   1   6   8  175.74   11.43
   1  -6   8  191.55   13.19
  -1  -6   8  157.45   14.07
  -1   6   8  198.05   17.94
   1  -6  10   84.62    7.80
  -1  -6  10   70.10   10.84
  -1  -6  10   75.43    7.67
   1   6  10   85.68   15.83
   1  -6  10   96.23    8.72
   1  -7  -9   82.96   24.70
  -1  -7  -9  124.68   26.67
  -1   7  -9   89.73   11.94
  -1   7  -9   78.10   12.27
   1   7  -7  201.14   17.20
   1  -7  -7  208.74   15.95
   1   7  -7  219.26   15.58
  -1   7  -7  216.34   16.64
  -1   7  -7  227.74   16.86
  -1  -7  -7  206.70   29.25
  -1  -7  -7  194.34   15.36
  -1  -7  -7  199.54   15.93
   1  -7  -7  211.04   13.78
   1  -7  -7  212.24   31.29
  -1   7  -5  225.21   15.23
  -1  -7  -5  191.69   15.57
  -1   7  -5  207.51   15.26
  -1  -7  -5  214.41   25.94
  -1  -7  -5  223.33   16.82
   1  -7  -5  238.81   17.11
   1  -7  -5  256.19   24.34
  -1   7  -5  233.38   16.52
   1   7  -5  243.37   17.16
   1   7  -5  224.69   15.77
   1  -7  -5  221.28   12.89
   1  -7  -3  514.21   18.91
  -1   7  -3  490.52   21.42
   1   7  -3  466.71   22.94
  -1  -7  -3  481.26   31.07
  -1   7  -3  512.86   24.21
   1   7  -3  507.17   24.13
   1  -7  -3  516.46   29.17
  -1   7  -3  510.77   24.61
   1  -7  -3  494.44   25.26
  -1  -7  -3  476.20   24.89
  -1   7  -3  514.94   20.97
  -1   7  -1  940.05   30.61
  -1  -7  -1  961.78   38.16
  -1  -7  -1  970.31   37.25
   1   7  -1 1020.98   36.08
  -1   7  -1 1008.88   36.72
  -1   7  -1  995.96   28.60
   1   7  -1 1046.98   34.27
   1  -7  -1 1019.70   37.81
   1  -7  -1  989.23   37.53
  -1   7  -1 1005.67   35.85
   1   7   1  990.31   35.48
   1  -7   1  962.43   30.20
  -1   7   1  953.19   30.02
   1   7   1  972.66   30.86
  -1  -7   1  978.89   32.20
   1   7   1  920.32   22.12
  -1  -7   1  918.54   26.04
  -1   7   1  985.47   23.41
  -1  -7   3  413.24   22.60
  -1   7   3  431.24   21.50
   1   7   3  482.15   20.50
   1   7   3  434.60   22.48
  -1  -7   3  452.71   16.67
  -1   7   3  446.64   15.24
   1  -7   3  425.98   22.97
   1   7   3  459.42   18.29
  -1   7   3  424.49   21.95
   1   7   3  442.74   21.75
  -1  -7   3  438.75   19.55
   1   7   3  462.55   21.98
   1  -7   3  444.44   21.20
  -1   7   5  268.56   17.21
   1   7   5  264.03   13.75
   1   7   5  235.87   15.46
  -1  -7   5  212.92   15.23
  -1   7   5  211.79    6.22
  -1   7   5  257.80   16.07
  -1  -7   5  210.81   16.79
   1  -7   5  218.15   15.90
   1  -7   5  240.40   16.97
  -1  -7   5  233.35   13.56
   1   7   5  213.77   14.36
   1  -7   5  248.44   10.06
  -1  -7   5  249.21   17.03
   1   7   5  241.67   18.35
   1   7   5  226.02   10.07
   1   7   7  186.83   13.26
   1   7   7  221.96   20.06
   1   7   7  205.20   11.94
  -1  -7   7  205.10   15.16
  -1  -7   7  208.10   15.10
   1   7   7  206.89   13.87
  -1   7   7  230.50   18.96
   1   7   7  215.96   10.38
  -1  -7   7  178.87   13.87
   1  -7   7  237.56   16.12
   1  -7   7  216.68   17.08
  -1  -7   7  192.17   13.34
  -1   7   7  226.02   15.96
  -1  -7   9   98.50   11.08
   1  -7   9   93.09   10.28
   1   7   9   87.43    8.14
  -1   7   9   98.15   14.21
  -1  -7   9   95.22    9.70
   1   7   9   84.54   15.18
   1  -7  11   26.65   14.43
   1   8 -10   48.60   12.62
  -1  -8  -8   65.32   22.35
  -1  -8  -8   74.02   11.71
  -1  -8  -8   55.36   10.51
   1   8  -8   70.68   11.93
  -1   8  -8   63.26   11.54
   1  -8  -8   83.26   12.02
  -1   8  -8   82.99   12.18
   1  -8  -8   69.53   23.07
  -1   8  -6  177.17   16.32
  -1  -8  -6  187.30   16.43
   1  -8  -6  185.82   16.41
   1   8  -6  182.41   16.35
  -1   8  -6  198.65   16.10
  -1  -8  -6  171.86   15.98
  -1   8  -6  217.51   16.06
  -1   8  -4  305.14   17.60
   1   8  -4  333.55   20.49
   1  -8  -4  292.58   14.18
  -1   8  -4  359.31   18.91
   1   8  -4  363.00   20.89
  -1   8  -4  342.99   20.69
  -1  -8  -4  312.57   28.86
  -1   8  -4  305.25   20.25
  -1  -8  -4  303.49   21.00
   1  -8  -4  329.50   21.81
  -1   8  -2  345.81   17.58
   1   8  -2  397.53   21.97
  -1   8  -2  378.80   16.89
   1  -8  -2  422.60   25.72
  -1  -8  -2  372.92   25.47
  -1  -8  -2  368.43   22.79
   1   8  -2  369.73   19.74
   1  -8  -2  361.38   22.75
   1   8  -2  393.71   22.62
  -1   8  -2  368.81   22.13
  -1   8  -2  367.22   21.21
  -1  -8   0  258.81   18.15
   1  -8   0  282.83   18.44
  -1  -8   0  289.28   19.59
  -1   8   0  235.24   17.15
   1  -8   0  259.26   19.14
   1   8   0  309.35   18.80
   1   8   0  262.02   15.03
  -1   8   0  320.21   19.20
  -1   8   0  295.48   11.84
  -1   8   0  277.18   14.45
   1   8   0  251.01   10.27
  -1   8   2  411.32   21.90
   1   8   2  380.47   19.44
   1  -8   2  376.80   18.88
  -1  -8   2  378.25   22.79
   1   8   2  376.57   21.70
  -1   8   2  365.35   21.27
   1   8   2  402.84   21.62
   1  -8   2  378.89   23.06
   1   8   2  398.79   17.07
  -1   8   2  377.83   17.65
  -1  -8   2  370.76   17.55
   1  -8   2  376.53   19.71
   1   8   4  328.80   16.68
   1   8   4  343.65   21.22
  -1   8   4  342.67   19.95
  -1  -8   4  333.81   14.13
   1  -8   4  319.13   19.44
  -1   8   4  300.54   19.44
   1   8   4  341.82   19.92
   1  -8   4  349.49   21.65
   1   8   4  295.71   18.89
   1   8   4  311.58   13.99
  -1  -8   4  291.72   19.85
   1  -8   4  294.95   12.89
  -1  -8   4  330.12   16.71
  -1   8   4  329.18   11.43
  -1   8   6  187.53   14.72
  -1  -8   6  190.59   15.25
   1   8   6  164.58   13.55
  -1   8   6  184.38   15.38
   1  -8   6  214.04   17.00
  -1  -8   6  179.13   12.96
  -1  -8   6  192.48    9.41
  -1  -8   6  190.37   15.88
   1   8   6  193.30   14.88
   1   8   6  207.43   17.80
   1   8   6  193.29    8.90
   1   8   6  198.03   11.85
   1   8   8   73.99    9.86
  -1  -8   8   47.76    9.34
   1   8   8   70.60    7.71
  -1   8   8   63.96   12.45
   1   8   8   92.53   15.56
   1  -8   8   62.23   10.20
  -1  -8   8   56.50    9.47
  -1   8   8   77.27   10.49
  -1  -8   8   71.64    8.87
   1   9  -9   34.42   11.88
  -1   9  -7   82.83   12.84
   1  -9  -7   86.45   13.50
   1   9  -7   89.39   13.10
  -1  -9  -7   98.79   13.17
   1  -9  -7   95.74   26.70
  -1   9  -7   86.59   12.23
  -1  -9  -7  120.60   27.21
  -1  -9  -7  102.97   14.24
   1   9  -7   91.72   14.56
  -1   9  -5  117.93   12.08
  -1   9  -5  123.80   12.21
   1  -9  -5  107.29   14.77
  -1  -9  -5  128.19   15.02
   1   9  -5  126.16   13.69
  -1   9  -5  122.91   14.85
   1   9  -5  139.91   15.74
  -1  -9  -5  119.15   14.74
   1   9  -3  156.88   15.85
  -1   9  -3  151.93   15.56
  -1  -9  -3  174.63   21.28
   1   9  -3  180.38   14.35
   1  -9  -3  177.85   17.38
  -1   9  -3  167.95   12.99
  -1   9  -3  159.61   11.82
  -1  -9  -3  157.36   16.27
   1   9  -1  185.50   10.06
   1   9  -1  228.34   18.72
  -1   9  -1  223.49   13.70
   1  -9  -1  215.56   18.38
   1  -9  -1  228.08   19.11
  -1  -9  -1  224.11   18.73
   1   9  -1  182.01   13.53
  -1  -9  -1  227.63   19.66
  -1   9  -1  223.49   11.77
  -1   9  -1  212.25   17.40
  -1  -9   1  217.68   16.44
   1   9   1  229.06   16.18
   1  -9   1  225.31   16.76
  -1   9   1  224.41   13.44
   1   9   1  247.46   18.37
   1   9   1  214.20   13.07
  -1  -9   1  221.56    9.98
  -1   9   1  220.97    8.36
   1   9   3  171.40   10.20
  -1  -9   3  160.09   16.34
  -1  -9   3  181.45   12.14
   1  -9   3  193.03   14.36
   1  -9   3  178.28   16.90
   1   9   3  161.43   14.98
   1  -9   3  205.58   15.07
   1   9   3  167.35   12.76
  -1   9   3  166.04   15.36
  -1  -9   3  174.03   13.10
  -1   9   3  158.61    9.60
  -1  -9   5  138.03   14.81
   1   9   5  154.45   13.83
   1   9   5  136.10   10.33
  -1   9   5  110.25    4.77
  -1  -9   5  142.28   14.80
  -1  -9   5  125.44    8.51
   1   9   5  129.33   15.30
   1   9   5  129.06    6.68
  -1   9   5  124.62   13.53
  -1  -9   5  120.84   10.83
   1  -9   5  134.24   15.10
   1   9   5  125.07    7.70
   1  -9   7   79.78   11.87
  -1  -9   7   84.54   12.32
   1   9   7   91.00    8.33
   1   9   7   86.54   13.65
   1   9   7   94.64   11.73
  -1   9   7   72.21   11.39
  -1  -9   7   87.67   12.19
   1  -9   9   27.45    8.65
  -1  -9   9   22.68    8.18
   1 -10  -6   28.76   10.69
  -1 -10  -6   37.39   11.90
  -1  10  -6   49.02    9.96
  -1 -10  -6   42.15   11.77
  -1  10  -6   36.94    8.90
   1  10  -6   45.51   12.13
   1  10  -6   27.53    8.73
  -1  10  -6   42.66   11.94
  -1  10  -4  121.31   12.15
  -1  10  -4  104.82   11.35
  -1 -10  -4   94.06   14.61
   1  10  -4  142.07   17.01
  -1  10  -4  101.16   14.78
  -1 -10  -4   91.81   14.12
   1 -10  -4  130.09   16.88
   1  10  -4   77.67   11.13
  -1 -10  -2  155.24   17.70
  -1  10  -2   89.95   13.30
   1 -10  -2  113.03   15.29
   1  10  -2  139.22   16.07
   1  10  -2  129.57    9.45
   1  10  -2  135.73   12.45
  -1 -10  -2  163.34   20.41
  -1  10  -2  145.60   10.77
  -1  10  -2  126.36   11.32
  -1 -10   0  103.73    7.73
   1 -10   0  102.48   14.73
   1 -10   0  110.07   14.50
  -1 -10   0   81.06   13.88
  -1  10   0  105.69    9.46
  -1 -10   0  117.64   14.66
  -1  10   0  103.74    7.08
  -1  10   0  124.26   14.60
   1  10   0  109.16    6.43
   1  10   0  102.24    9.72
  -1  10   2  135.34   10.40
   1  10   2  137.95   12.64
  -1 -10   2  120.41   13.02
  -1  10   2  140.49   15.26
   1  10   2  135.06   14.75
   1 -10   2  136.72   16.48
  -1 -10   2  128.99   15.72
   1  10   2  137.28    9.62
   1 -10   2  138.00   14.33
  -1  10   4  101.86    6.68
   1 -10   4   87.00   14.37
  -1 -10   4  106.78   13.82
  -1 -10   4   95.33   14.40
   1  10   4  103.22   10.19
   1  10   4  109.92    6.93
   1  10   4   88.85   13.14
   1 -10   4   94.82   11.56
  -1  10   4   81.15   12.24
  -1 -10   6   35.37   10.81
   1  10   6   46.44    6.90
  -1  10   6   30.90    9.93
   1  10   6   50.38   10.43
   1 -10   6   40.53   11.18
  -1 -10   6   47.98   10.98
   1 -10   8   19.63    9.48
  -1 -10   8   15.97    7.89
  -1  10   8   14.59    9.12
   1  10   8   15.84    7.66
  -1 -10   8   20.01    9.22
   1 -11  -5   42.38   13.05
  -1 -11  -5   37.95   12.29
   1  11  -5   46.07    8.78
  -1  11  -5   55.89   10.12
  -1  11  -5   26.56    8.25
   1  11  -5   43.09   10.49
   1  11  -3   34.64   11.64
  -1 -11  -3   36.44   11.92
   1 -11  -3   50.98   13.19
  -1 -11  -3   43.25   12.78
  -1  11  -3   48.63    8.47
   1  11  -3   50.19    7.51
   1  11  -3   37.20    8.53
  -1  11  -3   44.04   12.42
  -1  11  -3   51.61    8.23
   1 -11  -1   57.53   13.35
  -1  11  -1   53.35    8.22
  -1 -11  -1   44.42   12.31
  -1 -11  -1   59.47   14.41
  -1  11  -1   65.52   12.86
   1  11  -1   62.68    8.89
  -1  11  -1   54.57    6.36
  -1  11   1   61.97    8.25
   1  11   1   60.77   10.25
   1  11   1   48.00   12.07
   1  11   1   47.18    6.85
  -1 -11   3   27.99   11.08
   1 -11   3   39.20   12.38
  -1 -11   3   65.54   13.11
   1  11   3   62.89   12.09
  -1  11   3   49.15   11.57
   1  11   3   48.15    8.44
  -1 -11   5   49.36   11.42
  -1  11   5   21.11    9.94
   1  11   5   29.65   10.15
   1  11   7   26.46    9.54
  -1  12  -4   19.30    8.46
   1  12  -4   15.65    7.81
   1  12  -2   34.56    7.95
   1  12   0   36.03    9.65
   1  12   2   19.79    7.35
   2   0 -12   53.13    9.97
  -2   0 -12   47.64    9.37
   2   0 -12   66.88   15.09
  -2   0 -12   60.86   11.20
   2   0 -12   53.22   11.76
   2   0 -10  182.24   13.02
   2   0 -10  167.98   12.66
  -2   0 -10  218.07   16.25
   2   0 -10  201.37   15.38
   2   0 -10  212.06   20.96
   2   0 -10  184.91   16.78
   2   0  -8  629.04   23.32
   2   0  -8  664.45   29.62
  -2   0  -8  679.30   26.57
   2   0  -8  635.19   34.12
  -2   0  -8  650.18   27.33
   2   0  -8  592.38   16.12
   2   0  -8  631.44   26.47
   2   0  -8  611.88   16.01
   2   0  -8  720.05   47.86
  -2   0  -6 1075.82   29.58
  -2   0  -6 1138.36   36.30
   2   0  -6 1089.05   29.14
   2   0  -6 1005.86   44.31
  -2   0  -6 1164.22   34.01
   2   0  -6 1187.68   36.12
   2   0  -6 1127.20   54.86
  -2   0  -4 2083.74   52.09
   2   0  -4 1978.38   55.26
  -2   0  -4 1908.13   47.20
   2   0  -4 2067.79   53.70
  -2   0  -4 2020.08   48.61
   2   0  -4 1995.40   51.34
   2   0  -4 2057.51   48.42
   2   0  -4 2061.77   59.15
   2   0  -4 2027.15   68.48
   2   0  -2 3069.34   69.49
   2   0  -2 3192.59   74.13
  -2   0  -2 3005.47   69.65
   2   0  -2 2993.15   72.57
   2   0  -2 3111.07   70.95
  -2   0  -2 3124.49   70.09
  -2   0  -2 3134.99   68.12
   2   0  -2 3053.04   68.49
   2   0  -2 3121.23   70.70
   2   0  -2 3169.26   81.26
  -2   0   0 5138.04  105.22
   2   0   0 4860.49  106.60
   2   0   0 5014.26  106.02
  -2   0   0 4871.83  106.67
  -2   0   0 5126.14  104.73
   2   0   0 5027.72  105.45
  -2   0   0 5027.91  106.38
   2   0   0 4825.47  103.96
   2   0   0 5034.34  106.78
   2   0   2 2556.83   61.12
  -2   0   2 2628.79   61.27
  -2   0   2 2599.35   71.12
   2   0   2 2642.85   58.48
  -2   0   4 1971.45   51.00
  -2   0   4 2049.06   49.85
   2   0   4 1983.06   41.38
  -2   0   4 1990.23   47.63
  -2   0   4 1987.98   59.29
   2   0   4 2039.60   47.64
   2   0   4 1877.21   56.43
  -2   0   6 1142.30   36.55
   2   0   6 1259.18   48.28
  -2   0   6 1102.43   29.65
   2   0   6 1171.00   29.72
   2   0   6 1129.50   36.71
  -2   0   6 1140.33   36.19
   2   0   8  652.70   16.27
   2   0   8  675.70   16.45
  -2   0   8  625.06   43.24
  -2   0   8  705.70   28.06
  -2   0   8  743.52   30.10
   2   0   8  645.37   38.99
   2   0   8  727.76   28.05
   2   0  10  180.38   24.64
   2   0  10  158.71   23.43
  -2   0  10  180.07   15.74
  -2   0  12   56.74   10.91
   2   0  12   51.31   16.77
  -2  -1 -13   41.21   10.79
   2   1 -11  132.49   14.17
   2  -1 -11  124.58   12.64
  -2   1 -11  107.34   11.12
   2   1 -11   94.42   16.20
   2   1 -11  123.79   14.87
  -2  -1 -11  107.52   14.08
   2  -1 -11  109.18   14.73
   2  -1 -11  114.62   18.73
   2  -1  -9  337.23   18.18
  -2  -1  -9  331.35   19.44
   2  -1  -9  341.44   15.82
   2   1  -9  314.96   17.36
   2   1  -9  328.80   19.97
  -2  -1  -9  285.49   19.49
   2  -1  -9  305.21   16.94
   2  -1  -9  325.11   25.99
   2  -1  -9  312.48   21.35
   2   1  -9  345.74   21.01
   2   1  -9  324.41   24.73
   2  -1  -9  310.87   34.87
   2  -1  -7  542.58   22.08
   2   1  -7  543.15   24.98
   2  -1  -7  496.46   21.60
  -2  -1  -7  551.81   23.74
   2   1  -7  537.44   24.50
  -2   1  -7  536.15   24.14
   2  -1  -7  519.53   18.87
   2  -1  -7  592.80   41.80
   2  -1  -7  547.81   17.08
   2  -1  -7  521.86   34.04
  -2  -1  -7  595.27   26.23
   2   1  -7  527.40   17.23
   2  -1  -7  513.71   16.87
  -2  -1  -7  543.34   17.64
  -2   1  -7  539.35   20.75
  -2  -1  -5 1835.47   50.24
   2   1  -5 1867.09   51.89
  -2  -1  -5 1895.48   46.57
  -2   1  -5 1911.59   51.10
   2   1  -5 1768.39   56.00
   2  -1  -5 1957.17   48.59
   2   1  -5 1881.67   45.83
   2  -1  -5 1906.10   60.64
   2  -1  -5 1776.35   58.11
   2  -1  -5 1873.79   53.66
   2   1  -5 1949.28   57.44
   2  -1  -5 1850.09   49.82
   2   1  -5 1836.78   46.39
   2  -1  -5 1925.12   73.27
   2  -1  -5 1833.19   45.89
   2   1  -5 1979.24   70.13
   2  -1  -3 2844.43   69.47
   2   1  -3 2751.84   65.49
  -2  -1  -3 2861.17   65.81
   2   1  -3 2902.78   69.25
  -2  -1  -3 2912.62   67.59
  -2   1  -3 2912.28   67.33
   2   1  -3 2900.33   71.88
   2  -1  -3 2842.52   65.61
   2   1  -3 2819.39   67.49
   2  -1  -3 2909.51   75.63
   2  -1  -3 2939.12   69.38
   2  -1  -3 2937.63   71.12
   2   1  -3 2877.13   65.53
   2  -1  -3 2834.52   84.92
   2  -1  -3 2719.89   64.81
  -2  -1  -3 2859.79   67.42
   2   1  -3 2943.28   80.20
  -2   1  -3 2799.33   65.92
   2   1  -1 3442.67   76.67
  -2  -1  -1 3345.92   76.73
   2  -1  -1 3354.20   72.60
   2  -1  -1 3383.50   77.37
   2  -1  -1 3482.80   75.34
   2  -1  -1 3453.78   76.92
  -2   1  -1 3405.60   71.13
   2  -1  -1 3434.05   76.73
   2   1  -1 3408.04   76.50
   2  -1  -1 3512.44   79.41
  -2  -1  -1 3476.08   76.64
  -2  -1  -1 3455.38   73.50
  -2   1  -1 3282.10   76.71
  -2   1  -1 3442.53   75.48
   2   1   1 3177.02   66.89
  -2   1   1 3098.65   66.78
   2  -1   1 2990.08   69.08
   2   1   1 2962.50   71.00
  -2  -1   1 3122.60   69.40
   2  -1   1 3194.34   64.93
  -2  -1   1 3149.31   69.51
  -2   1   1 3222.86   72.58
   2  -1   1 3065.31   69.54
  -2  -1   1 3084.27   74.08
   2  -1   3 2785.86   60.09
   2  -1   3 2862.68   64.26
  -2  -1   3 2539.09   76.66
   2  -1   3 2811.11   66.23
  -2   1   3 2720.11   63.88
  -2  -1   3 2663.59   70.06
   2   1   3 2821.62   63.66
  -2  -1   3 2816.90   66.17
   2  -1   3 2745.65   64.59
  -2  -1   3 2796.17   63.55
  -2  -1   5 1901.23   51.26
  -2  -1   5 1813.57   44.53
   2   1   5 1868.39   50.08
   2   1   5 1871.78   44.76
   2   1   5 1883.51   48.40
   2  -1   5 1838.60   49.42
  -2  -1   5 1874.60   47.27
  -2  -1   5 1821.16   57.94
  -2   1   5 1827.10   48.09
  -2   1   5 1884.40   50.90
   2   1   5 1796.84   44.68
   2   1   5 1791.29   58.65
   2  -1   5 1770.51   44.55
   2  -1   5 1856.64   59.56
  -2  -1   7  609.46   24.97
   2   1   7  642.94   25.76
   2   1   7  583.24   38.20
  -2  -1   7  544.04   31.67
  -2   1   7  595.67   27.02
  -2  -1   7  576.03   25.37
   2  -1   7  620.72   18.27
  -2   1   7  608.14   24.16
   2   1   7  583.87   17.60
   2   1   7  597.48   23.93
  -2  -1   7  602.79   18.16
   2   1   7  621.64   36.11
   2  -1   7  600.63   17.86
   2  -1   7  624.49   35.74
   2   1   9  342.26   18.84
  -2  -1   9  296.22   18.85
  -2   1   9  288.84   19.88
  -2   1   9  316.65   17.85
  -2  -1   9  344.75   20.24
   2  -1   9  299.20   29.02
  -2   1  11  107.79   14.05
  -2  -1  11  108.87   12.83
   2   1  11  108.98   20.65
   2  -1  11   64.10   17.83
  -2  -1  13   35.58    9.65
   2  -2 -12   32.53   10.58
  -2  -2 -12   23.46    9.71
   2   2 -12   47.67   11.29
   2   2 -12   28.56    9.04
   2   2 -10  119.15   13.21
   2  -2 -10  160.18   12.37
  -2   2 -10  148.18   10.85
   2   2 -10  147.82   14.64
   2  -2 -10  117.06   18.40
  -2  -2 -10  136.28   15.71
   2  -2 -10  152.18   12.23
   2  -2 -10  125.11   14.72
  -2  -2  -8  504.83   23.60
  -2  -2  -8  536.07   17.64
  -2   2  -8  531.22   25.50
   2  -2  -8  556.26   18.84
   2  -2  -8  540.48   21.91
   2   2  -8  508.34   25.92
   2   2  -8  566.59   17.32
   2  -2  -8  506.54   37.60
  -2   2  -8  551.78   19.97
   2  -2  -8  515.47   16.65
   2  -2  -8  549.24   17.21
   2  -2  -8  560.62   23.32
   2   2  -8  515.46   25.02
  -2  -2  -8  554.53   29.46
   2  -2  -8  487.41   42.04
  -2  -2  -8  636.24   38.12
  -2  -2  -6 1224.76   39.08
   2  -2  -6 1268.95   34.68
   2  -2  -6 1283.02   34.98
  -2   2  -6 1276.02   40.53
   2  -2  -6 1308.59   31.58
   2  -2  -6 1366.60   39.98
  -2   2  -6 1255.63   31.34
   2   2  -6 1339.76   41.12
   2   2  -6 1223.66   41.59
   2  -2  -6 1254.23   43.29
   2  -2  -6 1355.45   52.64
  -2   2  -6 1325.04   32.60
   2   2  -6 1294.01   35.05
   2  -2  -6 1244.51   51.24
   2  -2  -6 1288.34   35.78
   2  -2  -6 1357.16   64.94
  -2  -2  -6 1448.87   52.88
  -2  -2  -6 1226.28   35.14
  -2  -2  -4 2225.28   57.91
  -2   2  -4 2241.79   57.86
   2   2  -4 2266.28   55.24
   2  -2  -4 2297.79   69.30
   2  -2  -4 2281.35   52.76
   2  -2  -4 2376.01   56.38
   2  -2  -4 2330.62   58.71
  -2   2  -4 2302.43   52.57
   2   2  -4 2143.93   59.96
   2  -2  -4 2155.45   63.35
  -2  -2  -4 2313.85   56.10
   2  -2  -4 2301.73   55.85
   2   2  -4 2363.35   56.20
   2  -2  -4 2330.41   61.77
   2  -2  -4 2197.94   80.19
  -2  -2  -4 2358.18   65.01
   2   2  -2 1652.50   41.17
  -2   2  -2 1646.07   38.59
  -2  -2  -2 1713.59   43.81
  -2   2  -2 1655.63   41.98
   2   2  -2 1618.24   45.34
   2  -2  -2 1676.41   35.33
   2   2  -2 1579.50   35.12
   2   2  -2 1601.57   42.12
  -2  -2  -2 1653.79   37.25
   2  -2  -2 1596.40   42.90
  -2   2  -2 1669.21   40.93
   2  -2  -2 1629.96   43.75
  -2  -2  -2 1719.08   43.33
   2  -2  -2 1611.05   42.73
   2  -2  -2 1705.03   44.16
   2   2  -2 1708.11   43.43
   2  -2  -2 1613.86   44.40
   2  -2   0 2182.22   52.52
   2   2   0 2081.92   54.04
  -2   2   0 2208.06   48.95
   2  -2   0 2210.56   49.32
  -2  -2   0 2236.10   51.54
  -2   2   0 2224.11   53.14
  -2  -2   0 2224.07   53.99
   2   2   0 2190.55   53.76
   2  -2   0 2214.12   49.40
   2  -2   0 2133.29   49.71
   2   2   0 2183.91   53.17
   2  -2   0 2187.64   53.91
   2   2   0 2138.36   49.25
  -2   2   0 2200.71   52.64
   2  -2   2 1426.34   39.00
   2  -2   2 1512.50   38.42
  -2  -2   2 1516.84   39.25
   2  -2   2 1470.07   39.97
   2  -2   2 1551.62   38.20
   2   2   2 1531.27   40.03
  -2  -2   2 1623.39   48.37
   2  -2   4 2355.29   56.35
   2   2   4 2366.68   58.79
   2   2   4 2409.71   55.53
   2   2   4 2339.05   55.59
   2  -2   4 2359.30   56.41
   2   2   4 2092.41   70.82
   2  -2   4 2270.49   57.55
  -2  -2   4 2280.28   63.60
  -2  -2   4 2326.04   51.34
   2  -2   4 2191.58   52.55
  -2  -2   4 2294.86   55.27
  -2  -2   4 2272.07   58.37
  -2  -2   4 2247.76   72.65
   2  -2   6 1291.20   39.75
   2  -2   6 1302.25   34.52
   2  -2   6 1269.43   33.87
   2   2   6 1253.46   39.28
   2   2   6 1227.96   54.60
  -2   2   6 1273.82   36.19
  -2  -2   6 1366.12   48.32
  -2  -2   6 1252.22   41.16
  -2  -2   6 1205.84   35.99
   2   2   6 1278.30   33.78
   2   2   6 1291.13   37.52
   2  -2   6 1329.94   52.22
  -2   2   6 1172.82   41.04
  -2  -2   6 1304.40   34.03
   2   2   8  538.26   24.34
   2  -2   8  569.64   16.87
  -2   2   8  585.00   28.24
  -2  -2   8  540.99   24.16
  -2   2   8  560.17   22.72
  -2  -2   8  584.26   17.13
  -2  -2   8  570.20   26.66
   2  -2   8  563.58   17.09
   2   2   8  600.78   23.99
   2   2   8  560.10   16.44
  -2  -2   8  499.75   31.29
   2   2   8  586.74   38.68
   2  -2   8  534.91   35.73
  -2  -2  10  144.21   13.40
  -2   2  10  144.70   15.41
   2  -2  10  157.05   23.50
  -2   2  10  144.68   12.55
   2  -2  12   33.47   15.29
  -2   2  12   54.55   12.12
  -2  -2  12   43.45    9.75
   2   3 -11  114.35   14.24
  -2  -3 -11   96.30   15.28
   2  -3 -11   98.89   17.74
  -2   3 -11  109.08    8.62
   2  -3 -11  112.74   15.33
   2   3 -11   96.86   12.77
   2   3  -9  235.76   18.14
  -2  -3  -9  229.39   16.01
   2  -3  -9  221.81    9.86
  -2   3  -9  221.74   10.63
  -2  -3  -9  238.36   10.65
   2   3  -9  210.83    9.63
   2  -3  -9  248.85   13.63
   2  -3  -9  257.83   15.56
  -2   3  -9  214.51    8.75
   2  -3  -9  208.55    9.78
  -2  -3  -9  224.75   20.65
   2  -3  -9  228.66   24.03
  -2  -3  -9  217.80   25.44
   2  -3  -9  232.58   10.09
   2   3  -9  202.76   16.14
   2  -3  -7  335.43   10.85
   2  -3  -7  358.23   15.05
   2  -3  -7  410.47   30.78
  -2   3  -7  331.34   19.15
   2  -3  -7  354.66   27.05
   2  -3  -7  379.20   15.89
   2   3  -7  378.04   19.83
  -2  -3  -7  393.71   29.13
   2  -3  -7  358.37   15.28
  -2   3  -7  342.50   13.78
   2   3  -7  345.74   20.90
   2   3  -7  339.48   15.16
   2  -3  -7  363.79   18.71
   2  -3  -7  371.44   21.99
  -2  -3  -7  338.91   15.69
  -2  -3  -7  364.86   18.91
   2  -3  -7  356.34   35.04
  -2   3  -7  362.67   11.70
   2  -3  -5 1486.16   41.17
  -2   3  -5 1507.09   44.08
   2  -3  -5 1536.60   54.16
   2  -3  -5 1453.87   40.99
  -2   3  -5 1465.18   38.96
   2  -3  -5 1455.19   35.90
   2   3  -5 1510.48   47.06
   2   3  -5 1485.73   41.11
   2  -3  -5 1525.25   44.24
  -2  -3  -5 1621.23   56.73
  -2  -3  -5 1495.96   42.18
   2   3  -5 1554.17   44.68
   2  -3  -5 1556.59   47.59
  -2  -3  -5 1569.73   44.25
   2  -3  -5 1459.40   56.41
   2  -3  -5 1469.96   67.82
   2  -3  -3 2363.61   57.58
  -2  -3  -3 2086.12   48.57
   2   3  -3 2160.58   60.43
  -2  -3  -3 2333.63   58.50
   2  -3  -3 2342.26   57.77
   2  -3  -3 2260.75   62.19
   2   3  -3 2341.10   54.99
  -2   3  -3 2350.70   55.48
   2  -3  -3 2332.24   59.21
   2  -3  -3 2332.14   48.78
   2   3  -3 2348.15   57.77
   2  -3  -3 2269.87   59.44
  -2  -3  -3 2393.64   58.44
   2  -3  -1 1876.59   48.09
  -2   3  -1 1831.19   43.80
   2  -3  -1 1852.27   48.73
   2   3  -1 1751.33   38.30
  -2  -3  -1 1787.54   47.87
   2  -3  -1 1852.62   48.00
   2   3  -1 1856.50   47.89
  -2   3  -1 1797.04   46.37
   2  -3  -1 1908.98   47.46
   2   3   1 1713.22   48.30
   2   3   1 1773.68   37.44
  -2   3   1 1681.17   38.95
   2  -3   1 1829.32   39.31
  -2   3   1 1728.75   46.66
   2  -3   1 1761.37   42.21
  -2  -3   1 1817.05   43.50
   2  -3   3 2339.77   59.57
   2   3   3 2429.32   59.93
   2  -3   3 2434.08   59.47
   2   3   3 2343.36   70.09
   2   3   3 2490.31   59.13
  -2  -3   3 2351.30   58.85
   2  -3   3 2298.08   56.46
   2  -3   3 2380.22   58.05
  -2  -3   3 2343.61   63.21
  -2  -3   3 2329.33   58.22
   2  -3   5 1477.98   41.30
  -2  -3   5 1503.43   40.75
   2  -3   5 1517.71   43.83
  -2  -3   5 1512.46   43.61
   2   3   5 1561.84   43.71
   2   3   5 1479.46   57.04
  -2  -3   5 1411.96   48.17
  -2  -3   5 1489.12   35.88
   2  -3   5 1575.08   41.01
   2   3   5 1457.61   35.04
  -2  -3   5 1379.23   57.84
   2  -3   5 1423.68   39.67
   2   3   5 1459.21   39.82
  -2   3   7  399.83   22.75
   2  -3   7  365.86   19.50
   2   3   7  378.78   19.05
   2   3   7  360.52   28.48
   2  -3   7  391.78   15.92
  -2  -3   7  354.63   16.68
   2  -3   7  405.65   21.07
   2  -3   7  355.17   15.00
   2   3   7  383.12   17.90
   2   3   7  386.08   15.20
  -2  -3   7  403.13   25.58
  -2  -3   7  362.71   20.96
  -2   3   7  399.30   16.61
  -2  -3   7  369.95   15.23
   2  -3   7  402.07   29.84
   2   3   9  231.30   25.19
   2   3   9  217.90   15.27
  -2  -3   9  216.98   14.70
   2   3   9  229.51    9.10
  -2   3   9  227.47   18.69
  -2  -3   9  241.24    9.58
   2   3   9  229.18   14.72
   2  -3   9  238.15    9.87
  -2   3   9  235.79   14.04
   2  -3   9  236.44    9.68
   2  -3   9  241.40   26.61
  -2  -3  11   96.79   11.65
   2  -3  11   79.01   20.15
  -2   3  11  102.39   14.55
  -2  -4 -12   26.53   11.86
   2   4 -12   19.20    7.75
  -2  -4 -10  102.19   20.64
  -2  -4 -10  113.16   17.38
   2   4 -10   73.76   11.22
   2   4 -10   83.13   13.19
   2  -4 -10   97.51   18.35
   2  -4  -8  340.18   15.86
  -2  -4  -8  342.46   18.87
   2  -4  -8  354.68   21.95
   2   4  -8  313.14   21.44
  -2  -4  -8  359.27   16.98
   2   4  -8  346.91   15.94
  -2   4  -8  359.72   15.51
   2  -4  -8  364.55   19.00
   2   4  -8  341.77   19.91
   2  -4  -8  322.01   15.83
  -2  -4  -8  376.29   32.06
  -2  -4  -6  819.28   30.27
   2  -4  -6  768.25   27.94
  -2   4  -6  761.81   30.61
   2  -4  -6  838.03   42.17
  -2   4  -6  804.38   26.91
   2   4  -6  865.06   34.70
   2   4  -6  886.49   29.09
  -2  -4  -6  818.67   30.01
   2  -4  -6  884.08   31.36
   2  -4  -6  877.18   33.77
   2  -4  -6  821.55   28.28
   2  -4  -6  946.77   56.81
  -2  -4  -6  913.03   45.90
  -2   4  -4 1353.33   39.50
  -2  -4  -4 1352.82   41.02
  -2  -4  -4 1388.06   30.95
   2  -4  -4 1397.24   40.44
  -2   4  -4 1296.10   40.21
   2   4  -4 1323.52   44.21
   2  -4  -4 1347.70   41.83
  -2   4  -4 1379.36   38.90
   2   4  -4 1356.69   40.53
   2   4  -4 1418.57   37.75
   2  -4  -4 1410.66   48.49
   2  -4  -4 1421.91   42.91
  -2  -4  -4 1364.14   41.38
   2  -4  -4 1406.08   41.22
   2  -4  -2 1069.33   34.59
  -2   4  -2 1036.51   31.35
   2  -4  -2 1157.93   37.25
  -2  -4  -2 1127.85   35.53
   2  -4  -2 1113.01   35.32
   2   4  -2 1137.41   34.99
  -2  -4  -2 1134.09   36.01
  -2   4  -2 1115.05   33.34
   2  -4  -2 1044.04   33.50
   2  -4   0 1497.96   40.12
   2  -4   0 1457.46   42.56
   2  -4   0 1504.46   36.09
  -2   4   0 1460.12   35.90
   2   4   0 1497.42   37.11
  -2  -4   0 1458.16   42.40
   2  -4   0 1471.24   35.00
  -2   4   0 1503.80   42.09
   2   4   0 1429.00   42.00
   2   4   0 1437.72   34.35
  -2  -4   0 1468.85   43.67
  -2   4   0 1440.14   40.06
  -2  -4   2 1073.99   32.69
   2   4   2 1075.51   34.44
   2   4   2 1140.15   37.91
  -2   4   2 1095.56   23.88
  -2  -4   2 1030.44   33.93
   2  -4   2 1085.50   23.93
   2  -4   2 1116.53   31.37
   2  -4   2 1016.06   32.61
   2   4   2 1110.79   34.24
  -2   4   2 1127.87   35.04
   2   4   4 1486.60   42.30
   2  -4   4 1457.44   42.20
   2  -4   4 1459.40   41.99
   2   4   4 1365.52   50.82
   2  -4   4 1402.34   41.84
   2   4   4 1428.57   37.48
  -2  -4   4 1422.45   41.40
  -2   4   4 1426.44   43.28
   2   4   4 1459.12   41.02
  -2  -4   4 1433.95   45.33
  -2  -4   4 1445.67   46.68
  -2  -4   4 1356.09   40.51
   2   4   6  803.90   26.83
   2   4   6  833.32   29.55
  -2  -4   6  821.47   23.17
  -2  -4   6  854.88   28.24
  -2  -4   6  812.41   45.00
   2  -4   6  752.71   27.20
   2  -4   6  803.19   31.25
  -2  -4   6  811.19   30.11
   2   4   6  854.94   27.31
  -2  -4   6  802.15   35.43
  -2  -4   6  807.92   32.99
   2   4   6  813.08   23.26
   2  -4   6  808.91   28.23
   2  -4   6  754.28   28.15
   2   4   6  793.60   40.05
   2   4   8  365.20   18.77
  -2   4   8  362.44   23.14
  -2  -4   8  351.46   16.65
   2   4   8  332.57   27.61
   2  -4   8  383.35   16.40
   2  -4   8  356.05   15.66
   2  -4   8  330.30   20.01
  -2  -4   8  368.34   15.77
   2   4   8  321.10   16.63
   2  -4   8  337.33   30.27
   2   4   8  355.16   14.97
  -2   4  10   71.53   12.53
  -2  -4  10   96.51    9.94
  -2  -4  10   99.03    5.67
  -2   4  10   91.37    8.85
   2  -4  10   85.65    5.99
   2  -4  12   37.18   17.95
  -2  -5 -11   29.70   17.22
  -2  -5 -11   45.54   13.96
  -2  -5  -9  158.46   24.66
   2   5  -9  164.23   16.50
  -2  -5  -9  153.29   13.53
   2  -5  -9  143.63   13.37
   2  -5  -9  179.79   12.00
  -2  -5  -9  139.52   11.15
  -2   5  -9  161.76   11.10
  -2  -5  -7  264.49   16.11
  -2  -5  -7  212.36   14.66
   2   5  -7  225.12   17.94
   2  -5  -7  262.30   17.08
   2   5  -7  241.85   14.32
   2  -5  -7  236.73   14.86
  -2   5  -7  252.76   14.39
   2   5  -7  238.03   13.90
   2  -5  -7  260.75   17.77
  -2  -5  -7  230.65   25.49
   2  -5  -7  225.51   13.86
  -2   5  -7  266.71   17.36
   2  -5  -7  198.19   29.14
  -2  -5  -5  733.73   28.29
  -2  -5  -5  677.92   17.72
  -2   5  -5  778.84   29.29
   2  -5  -5  750.09   28.10
   2  -5  -5  764.31   37.64
   2  -5  -5  758.94   29.92
  -2  -5  -5  782.68   29.71
   2   5  -5  702.71   24.03
  -2   5  -5  775.72   19.05
  -2   5  -5  744.22   27.20
   2   5  -5  759.25   28.96
   2  -5  -5  753.69   28.71
  -2   5  -5  713.05   27.73
  -2  -5  -5  817.31   44.08
   2  -5  -5  787.69   30.13
   2  -5  -3 1175.59   38.88
  -2   5  -3 1191.97   36.83
  -2   5  -3 1140.88   34.03
  -2   5  -3 1172.83   35.68
   2  -5  -3 1194.65   42.96
  -2  -5  -3 1202.29   38.98
  -2  -5  -3 1175.63   39.55
   2  -5  -3 1115.58   37.96
  -2   5  -3 1154.64   36.57
   2   5  -3 1189.93   37.98
   2  -5  -3 1133.88   36.24
   2  -5  -1 1141.18   34.68
  -2   5  -1 1147.72   36.44
  -2   5  -1 1155.97   34.81
  -2   5  -1 1137.07   32.06
   2  -5  -1 1197.65   38.62
   2  -5  -1 1148.68   37.84
   2  -5  -1 1155.18   26.93
   2   5  -1 1192.41   37.70
  -2  -5  -1 1170.72   38.28
  -2  -5  -1 1163.38   38.78
   2   5  -1 1126.11   38.10
  -2   5   1 1135.25   36.01
   2   5   1 1037.56   35.28
   2   5   1 1087.04   32.48
   2  -5   1  975.94   25.55
  -2   5   1 1088.01   26.92
  -2  -5   1 1065.01   30.22
   2  -5   1 1105.73   30.16
  -2   5   1 1093.53   33.43
   2   5   3 1187.24   37.27
   2   5   3 1141.97   36.58
   2  -5   3 1149.77   37.54
   2   5   3 1055.84   39.63
  -2  -5   3 1114.02   37.09
  -2   5   3 1125.02   37.83
   2  -5   3 1173.51   35.55
  -2  -5   3 1149.65   35.43
  -2  -5   3 1180.58   38.75
   2   5   5  724.72   27.52
   2  -5   5  705.40   27.83
  -2   5   5  682.72   28.50
   2  -5   5  720.22   27.48
  -2  -5   5  696.80   27.30
   2  -5   5  731.51   28.70
   2   5   5  803.32   27.83
  -2  -5   5  763.31   31.80
  -2  -5   5  711.68   31.95
   2  -5   5  706.63   26.41
  -2  -5   5  727.54   27.21
   2   5   5  747.37   24.78
   2   5   5  764.30   36.50
   2  -5   7  274.21   15.35
   2   5   7  273.52   15.89
   2   5   7  228.92   21.38
  -2  -5   7  239.58   10.64
   2   5   7  265.42   13.97
   2   5   7  251.67   13.60
   2   5   7  268.81   12.19
  -2  -5   7  277.27   15.26
   2  -5   7  267.92   16.76
  -2  -5   7  239.92   20.24
  -2  -5   7  237.93   15.92
   2  -5   7  267.25   15.20
  -2   5   9  137.18   15.64
   2   5   9  140.07   12.14
  -2  -5   9  140.68   10.21
   2  -5   9  178.32   11.39
   2   5   9  138.10    9.44
   2   5   9  144.02   18.80
   2  -5   9  161.83   10.69
   2   5   9  151.76   11.65
  -2  -5   9  143.63    9.93
   2  -5  11   46.63   17.43
  -2  -6 -10   46.01   18.84
   2  -6 -10   33.61   14.37
  -2  -6  -8  177.05   25.63
  -2   6  -8  210.56   14.09
  -2  -6  -8  188.54   14.61
   2  -6  -8  195.46   15.80
   2   6  -8  186.80   13.50
   2   6  -8  173.57   11.63
  -2   6  -8  181.20   15.65
   2  -6  -8  167.87   22.30
   2   6  -8  146.85   16.12
   2  -6  -8  173.75   12.90
   2  -6  -8  187.45   14.39
   2  -6  -8  171.41   14.94
  -2  -6  -6  241.16    6.79
   2  -6  -6  275.45   17.47
  -2   6  -6  286.75   16.98
  -2  -6  -6  280.59   17.81
   2  -6  -6  308.38   17.33
   2   6  -6  293.27   13.66
  -2   6  -6  312.85   18.17
   2  -6  -6  307.94   19.21
   2   6  -6  271.76   16.63
   2  -6  -6  308.42   35.67
  -2  -6  -6  344.01   31.36
  -2  -6  -6  237.32    7.12
   2  -6  -6  283.58   17.18
  -2   6  -4  509.44   22.77
   2   6  -4  437.18   23.99
  -2   6  -4  467.90   21.81
   2   6  -4  505.22   23.79
  -2  -6  -4  505.91   24.59
  -2   6  -4  461.72   20.59
   2  -6  -4  486.65   23.80
  -2   6  -4  445.49   21.89
   2  -6  -4  508.48   24.50
  -2  -6  -4  511.91   25.42
   2  -6  -4  465.65   21.41
  -2   6  -2  772.57   28.04
   2  -6  -2  792.20   27.58
  -2   6  -2  761.83   30.03
  -2   6  -2  739.23   26.14
  -2  -6  -2  752.86   30.98
   2  -6  -2  809.66   33.27
  -2   6  -2  774.69   29.88
  -2   6  -2  771.16   24.68
   2  -6  -2  749.39   30.96
   2   6  -2  791.63   30.60
   2  -6  -2  814.53   31.42
   2   6  -2  764.72   31.14
  -2  -6  -2  803.52   32.42
   2  -6   0 1273.57   42.40
   2  -6   0 1185.52   31.62
  -2  -6   0 1198.19   41.64
  -2   6   0 1226.69   40.17
  -2   6   0 1210.53   32.82
  -2  -6   0 1208.20   41.23
   2  -6   0 1307.14   40.81
   2  -6   0 1197.24   40.06
  -2   6   0 1168.86   39.42
   2   6   0 1232.11   40.25
   2   6   0 1230.77   40.27
  -2   6   0 1159.78   36.59
   2   6   2  762.56   29.01
  -2   6   2  739.67   28.44
  -2   6   2  689.30   18.47
  -2  -6   2  653.71   28.46
   2  -6   2  669.07   24.51
   2   6   2  736.52   28.84
   2   6   2  685.77   27.80
   2  -6   2  680.94   28.90
  -2  -6   2  674.10   29.19
  -2   6   2  736.42   27.63
   2   6   4  448.08   21.35
   2   6   4  480.55   26.03
  -2  -6   4  505.02   23.48
   2  -6   4  461.18   23.00
  -2   6   4  475.24   23.69
   2   6   4  499.94   23.04
   2  -6   4  501.30   22.58
   2   6   4  471.87   20.85
  -2  -6   4  512.45   21.51
  -2  -6   4  442.75   23.20
   2  -6   6  283.43   18.68
  -2  -6   6  340.59   18.60
   2   6   6  322.93   17.29
   2  -6   6  347.38   18.88
   2   6   6  304.75   14.38
   2   6   6  300.83   15.18
   2   6   6  304.71   16.76
   2  -6   6  305.70   17.95
  -2   6   6  292.85   18.65
   2  -6   6  310.80   17.60
   2   6   6  295.45   22.94
  -2  -6   6  298.91   17.34
  -2  -6   6  276.28   27.98
   2  -6   8  184.14   15.51
   2   6   8  181.33   11.64
   2   6   8  194.78   13.37
  -2  -6   8  175.79    8.10
   2   6   8  197.22   20.46
   2   6   8  182.80   12.33
   2   6   8  192.94   11.03
   2  -6   8  173.45   12.96
  -2  -6   8  191.60   13.21
   2  -6   8  183.54   13.54
   2   6  10   57.57    8.41
   2   6  10   57.53   13.96
  -2   6  10   53.50   11.69
  -2  -7 -11    7.19   15.17
   2  -7  -9   73.16   23.02
  -2  -7  -9   63.96   18.75
  -2   7  -9   58.26   11.24
   2  -7  -7  100.50   12.29
   2  -7  -7  123.66   11.89
   2   7  -7  151.74   13.46
  -2  -7  -7  129.84   13.64
   2   7  -7  126.12   15.05
  -2   7  -7  150.15   13.30
  -2   7  -7  142.39   13.63
   2  -7  -7  129.05   12.80
  -2  -7  -7  134.20   23.93
  -2   7  -5  325.70   19.20
   2   7  -5  290.48   20.68
  -2   7  -5  344.18   19.60
   2  -7  -5  324.22   20.44
  -2  -7  -5  359.74   21.51
  -2   7  -5  347.00   18.82
   2   7  -5  332.64   19.76
   2  -7  -5  381.01   22.15
  -2   7  -5  309.59   18.90
  -2  -7  -5  361.24   22.00
   2  -7  -5  286.86   16.84
  -2   7  -3  477.30   22.05
   2  -7  -3  505.61   21.01
  -2  -7  -3  487.17   25.24
  -2   7  -3  468.39   23.77
  -2   7  -3  430.97   20.49
   2  -7  -3  451.75   27.31
  -2   7  -3  419.66   18.78
   2  -7  -3  460.20   24.50
   2   7  -3  481.60   23.78
  -2   7  -3  498.38   24.04
  -2  -7  -3  436.53   24.66
   2   7  -3  415.05   23.56
   2  -7  -3  476.14   24.55
  -2   7  -1  485.74   24.16
  -2  -7  -1  501.56   25.67
  -2   7  -1  504.31   19.54
   2   7  -1  471.82   23.60
  -2   7  -1  504.17   24.47
   2   7  -1  506.71   24.64
   2  -7  -1  483.00   24.67
   2  -7  -1  450.88   24.43
  -2  -7  -1  495.00   25.95
   2  -7  -1  493.32   25.00
  -2   7  -1  472.79   21.55
   2   7   1  443.62   22.86
  -2   7   1  436.49   15.89
  -2   7   1  448.19   23.18
  -2  -7   1  447.14   17.92
   2  -7   1  473.04   18.46
   2   7   1  446.82   21.94
   2   7   1  488.90   20.05
  -2   7   1  458.80   20.99
  -2   7   3  429.83   11.64
   2   7   3  438.01   21.66
  -2   7   3  424.63   11.31
  -2  -7   3  414.58   22.66
   2   7   3  439.68   22.91
  -2   7   3  438.93   23.37
   2   7   3  499.74   23.52
   2  -7   3  447.94   20.72
   2  -7   3  428.35   23.28
  -2  -7   3  464.75   21.27
   2  -7   3  427.08   13.10
  -2  -7   3  423.74   23.50
   2   7   3  425.74   21.46
   2   7   5  354.79   18.29
   2   7   5  307.43   17.30
  -2  -7   5  297.99   18.85
   2   7   5  299.51   21.70
   2   7   5  313.17   18.24
   2  -7   5  335.99   20.61
   2  -7   5  340.52   19.96
  -2  -7   5  299.66   17.18
  -2  -7   5  295.31   19.96
  -2   7   5  326.34   20.02
   2   7   7  157.34   13.03
  -2  -7   7  134.13   12.94
   2   7   7  152.67    9.99
   2  -7   7  137.38   13.15
   2   7   7  128.74   11.23
   2   7   7  126.81   16.33
   2   7   7  153.40   11.56
   2  -7   7  129.38   13.27
   2  -7   7  138.77   13.38
  -2  -7   7  146.70   13.04
   2  -7   9   69.13    9.90
   2   7   9   61.96    8.49
   2   7   9   55.83   14.25
  -2  -7   9   83.72    9.81
  -2  -8 -10   22.04   16.68
  -2  -8  -8  100.50   23.53
   2  -8  -8   81.64   12.57
   2   8  -8   77.96   13.67
  -2  -8  -8   74.56   11.77
  -2   8  -8   84.59   12.08
  -2   8  -8   81.88   11.34
   2  -8  -8   77.07   24.48
  -2   8  -6  139.89   13.16
   2  -8  -6  147.93   12.72
  -2   8  -6  136.91   13.93
   2  -8  -6  144.60   15.29
  -2  -8  -6  136.95   14.53
   2   8  -6  135.95   15.18
  -2   8  -6  154.98   14.50
  -2   8  -4  199.56   14.96
   2  -8  -4  217.55   13.86
  -2   8  -4  187.36   14.51
  -2  -8  -4  182.91   16.53
  -2   8  -4  204.43   13.48
   2  -8  -4  184.63   17.15
   2   8  -4  192.87   16.46
  -2   8  -4  175.87   15.80
  -2  -8  -4  166.84   16.34
  -2   8  -2  256.47   16.14
  -2   8  -2  235.61   14.35
  -2  -8  -2  255.47   19.19
   2  -8  -2  273.22   21.09
   2  -8  -2  287.75   20.51
  -2   8  -2  264.22   18.60
   2   8  -2  265.13   18.02
  -2  -8  -2  264.09   20.06
   2   8   0  400.03   22.43
  -2  -8   0  358.78   16.87
  -2   8   0  393.21   21.94
  -2  -8   0  362.92   22.63
  -2   8   0  359.19   15.70
   2  -8   0  397.50   22.47
  -2  -8   0  355.38   21.51
   2  -8   0  347.65   12.39
   2  -8   0  371.02   23.24
  -2   8   0  379.28   22.08
  -2   8   0  371.48   18.63
   2   8   0  402.12   20.76
   2  -8   0  383.22   14.68
   2   8   0  340.57    9.35
  -2  -8   0  352.53   22.82
   2   8   0  336.85    9.01
   2   8   2  301.37   18.36
  -2  -8   2  253.89   19.34
  -2   8   2  246.76   10.46
  -2  -8   2  245.78   18.46
   2   8   2  240.50   15.54
   2  -8   2  278.21   15.41
   2   8   2  237.35   17.26
   2   8   2  236.96   15.39
  -2   8   2  234.58   15.82
   2  -8   2  251.17   19.29
   2   8   4  207.25   14.60
   2  -8   4  205.54   17.30
  -2  -8   4  195.39   16.12
  -2   8   4  193.31   16.24
   2   8   4  191.94   15.08
   2   8   4  181.44   15.45
  -2  -8   4  189.00   13.88
  -2  -8   4  201.53   17.18
   2  -8   4  203.01   15.21
   2   8   6  183.01   13.26
   2   8   6  101.05   13.83
  -2  -8   6  142.55   13.79
  -2   8   6  158.06   14.88
   2   8   6  148.62   12.57
   2  -8   6  136.07   14.26
   2  -8   6  147.22   14.28
  -2  -8   6  138.34   12.44
   2   8   6  135.62    9.17
   2  -8   8   98.75   12.51
   2   8   8   82.55    9.36
   2   8   8   57.55   13.05
  -2  -8   8   77.14   10.69
   2   8   8   74.25    9.20
  -2  -9  -9   18.89   15.94
   2  -9  -7   54.43   12.72
  -2   9  -7   41.06   10.79
  -2  -9  -7   37.84   10.45
  -2   9  -7   47.30   10.53
  -2   9  -7   38.28    9.50
   2   9  -7   34.91   10.31
   2  -9  -7   45.29   21.04
  -2  -9  -7   50.17   20.24
  -2  -9  -5  129.92   15.09
  -2   9  -5  141.13   13.66
   2  -9  -5   93.00   14.49
  -2  -9  -5  107.80   15.03
  -2   9  -5  130.30   14.48
  -2   9  -5  118.72   11.45
   2   9  -5  115.76   14.08
  -2   9  -3  170.70   14.04
  -2  -9  -3  187.79   17.81
  -2   9  -3  181.33   12.18
  -2   9  -3  173.62   16.04
   2  -9  -3  161.29   17.26
  -2  -9  -3  197.70   18.72
   2   9  -3  169.23   15.15
   2   9  -1  161.14    7.78
  -2  -9  -1  159.78   16.68
  -2  -9  -1  189.89   17.46
  -2   9  -1  171.92   11.89
  -2   9  -1  151.56   15.40
   2  -9  -1  170.88   17.94
   2   9  -1  158.81   13.87
  -2   9  -1  172.42   13.20
  -2   9   1  131.17    9.10
  -2  -9   1  153.95   10.56
   2   9   1  174.04   15.94
   2   9   1  156.80   14.49
   2  -9   1  152.89   10.71
  -2   9   1  142.86   12.31
   2   9   1  165.44   13.08
   2  -9   1  165.51   15.09
  -2   9   3  173.09    7.79
   2   9   3  180.21   14.57
  -2   9   3  179.09    7.50
  -2  -9   3  178.60   16.77
  -2   9   3  149.13   15.55
   2  -9   3  160.17   16.87
   2   9   3  164.27   15.03
   2  -9   3  178.03   14.06
   2   9   3  175.94   12.68
  -2  -9   3  167.73   14.08
  -2  -9   3  180.66   17.26
   2  -9   5  117.32   14.81
   2   9   5  117.73   11.15
  -2  -9   5  103.07   13.86
  -2  -9   5  109.16   13.74
   2   9   5  121.12   12.73
   2   9   5  103.27    9.97
  -2   9   5  103.39   13.42
   2   9   5  106.22   13.44
   2  -9   7   39.01   11.05
   2   9   7   36.01    7.55
   2   9   7   32.39    9.93
  -2   9   7   36.31    9.49
  -2  -9   7   41.05    9.23
   2   9   7   45.70    9.23
  -2 -10  -8   23.44   17.74
   2 -10  -6   61.80   13.99
  -2  10  -6   46.95   10.68
   2  10  -6   68.02   12.85
  -2 -10  -6   54.40   12.81
  -2  10  -6   52.81   10.98
  -2  10  -6   59.88   10.51
  -2 -10  -4   79.46   13.56
   2 -10  -4   89.91   14.87
  -2  10  -4   66.00   10.56
  -2 -10  -4   52.42   12.46
  -2  10  -4   75.28   12.95
   2  10  -4   78.38   11.94
   2  10  -2   64.41    6.48
   2 -10  -2   53.91   12.92
  -2  10  -2   75.22   10.03
  -2 -10  -2   99.80   14.68
  -2  10  -2   83.12   12.94
   2  10  -2   98.53   14.17
   2  10  -2   81.18   11.54
  -2 -10  -2   77.05   13.33
  -2  10   0   67.11    9.38
  -2 -10   0   71.32   12.74
   2  10   0   88.03   10.75
   2 -10   0   74.27   13.25
   2  10   0   89.27   13.25
  -2  10   0  102.89    9.24
   2  10   0   74.23   11.85
  -2 -10   0   74.11   12.85
  -2 -10   0   74.86    8.18
  -2  10   0   77.48   12.37
  -2  10   2   66.59    7.05
   2 -10   2   66.75   13.43
  -2  10   2   81.96   12.41
  -2  10   2   79.36    9.87
  -2 -10   2   57.48   12.48
  -2  10   2   72.50    6.54
  -2 -10   2   82.69   13.33
   2  10   2   93.69   10.16
   2  10   2   75.31   12.65
   2  10   2   72.10   10.94
   2 -10   4   58.95   13.30
  -2 -10   4   38.22   10.74
   2  10   4   75.79   10.25
  -2 -10   4   75.83   12.68
  -2  10   4   77.34   12.74
   2  10   4   46.09   11.33
   2  10   4   73.34    8.46
   2 -10   6   55.05   12.57
  -2 -10   6   54.71   12.43
   2  10   6   45.80    8.18
  -2 -10   6   31.51   10.31
  -2  10   6   53.40   11.20
   2  10   6   50.11    9.76
   2  10   6   48.77   11.40
   2 -10   8   32.23   11.49
  -2 -10   8   29.14    9.44
  -2  11  -5   41.92   10.51
   2  11  -5   18.25    9.33
  -2 -11  -3   30.59   10.69
   2 -11  -3   47.04   13.09
  -2  11  -3   47.95    9.55
  -2 -11  -3   57.33   13.12
   2  11  -3   50.42   10.48
   2 -11  -1   47.07   13.32
  -2  11  -1   42.04    8.48
  -2 -11  -1   44.37   12.89
   2  11  -1   50.58   11.09
  -2  11  -1   70.08   12.89
   2  11  -1   56.00    9.31
  -2 -11  -1   53.70   12.72
  -2  11   1   47.44    8.81
   2  11   1   52.92   12.99
   2  11   1   37.92    7.96
   2  11   1   38.19   10.12
  -2 -11   3   51.08   11.99
   2  11   3   34.56   10.56
   2  11   3   36.91    8.82
   2  11   5   25.53    7.08
   2  11   5   41.55   10.36
  -2  12  -4    8.11    8.47
  -2  12  -2   20.57    7.40
   2  12  -2   33.40    9.71
   2  12   0   30.74    9.86
   2  12   2   16.94    8.37
   3   0 -12   63.46   11.01
  -3   0 -12   56.02    9.75
   3   0 -10  153.78   13.92
   3   0 -10  141.56   13.30
   3   0 -10  183.91   20.90
  -3   0 -10  136.94   11.41
   3   0 -10  161.95   16.58
  -3   0  -8  267.78   18.00
   3   0  -8  271.06   12.89
   3   0  -8  234.39   23.96
   3   0  -8  251.49   16.85
   3   0  -8  305.68   24.05
  -3   0  -8  309.98   14.36
   3   0  -8  269.53   19.32
   3   0  -8  278.24   13.57
   3   0  -8  319.93   33.72
  -3   0  -6  721.82   28.55
   3   0  -6  733.18   34.88
   3   0  -6  719.90   24.92
   3   0  -6  692.02   27.73
  -3   0  -6  710.93   20.81
  -3   0  -6  709.92   25.26
   3   0  -6  741.69   45.45
   3   0  -6  635.51   32.55
   3   0  -4 1286.79   40.57
  -3   0  -4 1349.47   37.99
  -3   0  -4 1394.74   40.82
   3   0  -4 1365.77   39.03
   3   0  -4 1369.57   41.26
  -3   0  -4 1381.98   39.64
   3   0  -4 1316.16   45.67
   3   0  -4 1411.78   42.18
   3   0  -4 1371.34   44.03
   3   0  -4 1352.86   56.29
   3   0  -2 2469.77   60.54
  -3   0  -2 2497.84   62.78
  -3   0  -2 2569.00   53.23
   3   0  -2 2551.97   65.06
   3   0  -2 2524.82   62.20
   3   0  -2 2473.87   62.37
   3   0  -2 2531.53   62.70
   3   0  -2 2404.21   71.28
  -3   0  -2 2507.19   60.19
  -3   0   0 1786.40   45.17
   3   0   0 1791.33   45.60
  -3   0   0 1707.13   46.60
  -3   0   0 1746.36   43.17
  -3   0   0 1684.55   44.25
  -3   0   0 1774.28   46.80
   3   0   0 1724.09   46.67
   3   0   0 1696.24   45.38
   3   0   2 2454.62   60.93
  -3   0   2 2336.27   63.67
   3   0   2 2237.65   59.11
   3   0   2 2436.98   51.80
   3   0   4 1332.25   33.05
   3   0   4 1336.47   41.07
  -3   0   4 1353.97   38.19
   3   0   4 1290.98   37.66
  -3   0   4 1429.12   55.76
   3   0   4 1256.52   40.00
   3   0   6  762.12   25.44
  -3   0   6  837.53   46.03
   3   0   6  736.26   34.48
  -3   0   6  750.42   25.51
   3   0   8  290.02   18.85
  -3   0   8  278.34   16.69
   3   0   8  281.88   12.58
   3   0   8  277.05   17.50
   3   0   8  298.86   12.97
   3   0   8  263.62   23.92
  -3   0  10  166.99   14.16
   3   0  10  149.93   26.08
   3   0  10  104.40   20.14
  -3   0  12   58.08   10.84
   3  -1 -11   96.33   24.70
   3   1 -11   78.63   15.73
   3  -1 -11   70.01   10.11
   3   1 -11   67.26   11.71
   3  -1 -11   71.81   16.17
  -3  -1 -11   68.84    9.76
  -3   1 -11   75.86    9.18
   3  -1 -11   78.54   13.24
   3   1 -11   65.79   12.07
   3  -1  -9  215.04   30.68
   3   1  -9  170.47   15.09
   3  -1  -9  203.07   11.83
   3  -1  -9  197.51    9.92
   3  -1  -9  212.05   10.09
   3  -1  -9  185.73   24.48
   3  -1  -9  175.00   14.13
   3  -1  -9  198.99   15.01
   3   1  -9  201.63   10.39
  -3  -1  -9  213.69   14.61
   3  -1  -9  204.17   17.77
   3   1  -9  185.59   16.59
   3  -1  -9  208.28   10.68
  -3  -1  -7  580.80   26.11
  -3   1  -7  660.41   28.02
   3  -1  -7  606.85   22.42
   3  -1  -7  634.53   22.63
   3  -1  -7  553.27   34.14
   3  -1  -7  601.45   26.12
   3  -1  -7  598.91   24.95
   3   1  -7  567.63   26.66
  -3  -1  -7  607.84   22.78
  -3  -1  -7  626.89   24.24
   3  -1  -7  656.82   35.40
   3   1  -7  588.93   32.30
   3   1  -7  605.08   22.01
   3   1  -7  603.80   27.87
   3   1  -7  604.13   22.54
   3  -1  -7  657.71   45.98
  -3  -1  -5  791.00   29.55
  -3   1  -5  799.88   27.63
  -3   1  -5  826.65   29.81
  -3  -1  -5  800.57   27.73
   3   1  -5  786.59   27.03
   3  -1  -5  767.46   33.01
   3   1  -5  764.50   30.92
   3  -1  -5  801.99   29.83
   3  -1  -5  776.99   27.69
   3  -1  -5  786.19   36.16
   3   1  -5  815.61   34.96
   3  -1  -5  824.18   32.02
   3  -1  -5  813.85   32.98
   3  -1  -5  791.27   26.99
   3  -1  -5  886.80   47.59
   3   1  -5  810.31   43.17
   3   1  -5  798.80   30.78
  -3  -1  -3 1622.86   41.54
  -3   1  -3 1630.02   43.65
   3  -1  -3 1627.58   45.09
   3  -1  -3 1630.62   40.80
  -3  -1  -3 1621.90   45.36
  -3  -1  -3 1622.31   45.73
   3   1  -3 1616.11   44.98
   3  -1  -3 1667.66   51.58
   3   1  -3 1667.21   48.00
   3  -1  -3 1649.22   44.51
   3   1  -3 1637.33   49.39
   3  -1  -3 1627.20   46.22
   3   1  -3 1680.77   46.59
   3  -1  -3 1577.86   48.64
  -3   1  -3 1595.69   45.10
   3   1  -3 1635.13   41.89
   3  -1  -3 1608.39   60.35
   3  -1  -3 1594.14   44.99
   3   1  -3 1652.83   56.13
  -3  -1  -1 2347.54   59.50
   3   1  -1 2409.87   59.41
  -3   1  -1 2401.06   57.07
   3  -1  -1 2304.59   59.38
   3  -1  -1 2391.15   55.55
   3  -1  -1 2382.38   57.70
   3   1  -1 2286.70   57.93
  -3   1  -1 2189.75   55.49
   3   1  -1 2315.19   59.16
   3  -1  -1 2463.53   60.31
  -3  -1  -1 2371.33   54.36
  -3   1  -1 2315.63   59.94
  -3   1  -1 2361.63   53.36
  -3  -1  -1 2374.93   57.86
   3  -1  -1 2366.82   57.01
   3   1  -1 2313.19   58.69
   3  -1  -1 2332.23   67.85
  -3  -1  -1 2331.80   56.50
   3  -1  -1 2277.02   59.40
  -3   1  -1 2389.13   58.22
   3   1   1 2318.57   54.62
  -3   1   1 2277.57   54.49
   3   1   1 2302.55   59.04
   3  -1   1 2295.97   57.25
   3  -1   1 2281.97   56.97
  -3  -1   1 2419.73   57.29
  -3  -1   1 2307.83   58.60
   3  -1   1 2286.85   50.82
  -3   1   1 2335.49   56.22
  -3   1   1 2358.77   60.82
  -3  -1   1 2333.15   61.84
   3  -1   3 1461.35   41.57
  -3  -1   3 1524.44   41.68
   3   1   3 1495.43   44.13
   3  -1   3 1448.06   42.76
   3  -1   3 1510.30   38.48
   3   1   3 1456.39   41.25
  -3  -1   3 1497.69   42.70
  -3   1   3 1397.11   41.30
  -3  -1   3 1481.78   53.22
  -3   1   5  866.27   28.38
  -3  -1   5  845.52   31.42
   3  -1   5  891.97   32.15
  -3  -1   5  847.37   27.78
   3  -1   5  846.23   30.02
   3   1   5  857.68   27.84
   3   1   5  858.35   21.06
   3  -1   5  828.06   22.35
   3  -1   5  849.86   27.95
  -3  -1   5  818.70   43.28
   3  -1   5  861.09   35.10
   3   1   7  680.43   26.88
   3  -1   7  627.24   22.80
   3   1   7  663.44   28.64
  -3  -1   7  641.90   24.17
  -3   1   7  631.53   26.97
  -3  -1   7  635.84   35.35
  -3  -1   7  621.39   21.99
   3  -1   7  628.05   22.05
   3   1   7  607.77   21.64
   3   1   7  613.47   21.77
  -3  -1   7  642.15   42.57
   3  -1   7  616.35   34.71
   3  -1   9  187.13    9.23
  -3  -1   9  184.54   13.44
  -3   1   9  228.36   16.29
   3  -1   9  214.18    9.78
   3   1   9  220.57   27.87
   3   1   9  207.81    9.30
   3  -1   9  196.98    9.57
  -3   1  11   80.55   11.96
  -3  -1  11   71.84   10.14
   3  -1  11   74.62   19.79
   3  -2 -10  113.63   25.57
   3  -2 -10  116.75   11.13
   3  -2 -10  130.27   13.26
  -3  -2 -10  141.55   14.33
   3   2 -10  106.86   13.51
  -3   2 -10  121.60    9.06
   3  -2 -10  162.21   17.03
   3   2 -10  113.66   13.91
  -3  -2  -8  237.73   16.94
   3  -2  -8  252.06   10.92
   3  -2  -8  239.51   12.85
   3  -2  -8  227.54   25.78
  -3  -2  -8  239.36   13.43
   3  -2  -8  230.12   14.13
   3  -2  -8  254.38   16.75
   3   2  -8  275.60   19.14
  -3  -2  -8  224.73   16.76
   3  -2  -8  222.44   22.52
   3   2  -8  246.72   13.26
  -3   2  -8  248.78   11.44
   3  -2  -8  238.18   12.81
   3   2  -8  222.19   17.26
   3  -2  -8  249.18   31.00
   3  -2  -6  611.18   23.70
   3  -2  -6  668.73   19.28
  -3  -2  -6  671.86   24.93
  -3  -2  -6  634.61   27.01
  -3   2  -6  600.16   26.34
   3   2  -6  638.71   24.00
   3  -2  -6  624.76   28.93
   3  -2  -6  626.38   24.31
   3  -2  -6  622.57   26.87
   3  -2  -6  612.13   23.04
   3   2  -6  614.15   28.23
   3  -2  -6  683.75   35.67
   3  -2  -6  699.20   35.43
   3   2  -6  630.88   24.38
   3  -2  -6  685.61   30.82
   3   2  -6  615.06   27.51
   3  -2  -6  586.98   43.20
  -3  -2  -4 1326.60   35.72
  -3   2  -4 1366.09   40.55
  -3  -2  -4 1326.41   41.65
   3  -2  -4 1384.45   32.63
   3  -2  -4 1327.04   40.25
   3  -2  -4 1326.46   44.37
   3   2  -4 1329.14   38.28
   3   2  -4 1384.00   40.64
   3  -2  -4 1392.77   43.01
   3   2  -4 1370.18   44.29
   3  -2  -4 1354.91   49.81
   3  -2  -4 1389.72   43.05
  -3   2  -4 1391.52   30.40
   3  -2  -4 1343.55   44.62
   3   2  -4 1340.74   40.72
   3  -2  -4 1336.46   60.71
  -3  -2  -4 1346.13   40.54
   3  -2  -4 1379.67   37.79
   3   2  -4 1321.32   39.74
  -3  -2  -4 1447.30   38.97
  -3   2  -2 1885.91   50.17
   3   2  -2 1860.20   51.74
  -3  -2  -2 1979.84   52.55
  -3   2  -2 1974.33   49.42
   3  -2  -2 1884.32   44.41
  -3   2  -2 1937.15   47.30
  -3   2  -2 1856.26   51.68
   3  -2  -2 1829.30   51.24
   3  -2  -2 1872.02   52.54
   3  -2  -2 1826.72   56.04
  -3   2  -2 2024.51   43.27
   3  -2  -2 1881.16   50.68
   3   2  -2 1985.72   52.21
   3   2  -2 1916.99   51.27
  -3  -2  -2 1880.94   51.72
  -3  -2  -2 1887.25   46.43
   3  -2  -2 1930.00   53.56
   3  -2   0 1099.67   33.54
   3   2   0 1026.03   34.09
  -3   2   0 1108.82   29.60
  -3   2   0 1031.86   33.75
   3  -2   0 1091.73   30.24
   3  -2   0 1097.95   34.24
   3  -2   0 1074.96   30.92
   3   2   0 1070.83   33.40
   3  -2   0 1011.55   32.43
  -3  -2   0 1048.28   31.66
  -3  -2   0 1092.11   34.01
   3  -2   0 1050.04   29.10
  -3   2   0 1056.69   33.25
   3   2   0 1068.06   29.97
  -3  -2   0 1091.22   31.01
   3   2   2 1833.10   49.76
   3   2   2 1835.07   51.76
   3  -2   2 1839.75   49.44
   3  -2   2 1816.92   50.54
   3  -2   2 1923.11   48.64
   3  -2   2 1892.25   40.72
  -3  -2   2 1887.32   52.24
  -3  -2   2 1858.37   48.86
  -3   2   2 1877.47   53.50
  -3  -2   2 1880.26   57.45
   3  -2   4 1358.11   39.98
   3  -2   4 1333.96   41.52
   3  -2   4 1349.50   40.03
   3   2   4 1320.91   38.63
   3  -2   4 1336.68   35.61
  -3  -2   4 1390.35   41.34
   3   2   4 1264.54   38.95
  -3  -2   4 1386.86   53.91
  -3  -2   4 1364.84   39.25
   3  -2   6  679.94   24.47
  -3  -2   6  718.10   24.61
   3   2   6  712.70   29.05
   3   2   6  660.01   23.74
   3  -2   6  657.80   24.92
   3   2   6  572.37   38.34
   3   2   6  638.78   25.55
   3  -2   6  712.16   27.75
  -3  -2   6  692.32   34.60
   3   2   6  638.02   23.88
  -3  -2   6  693.75   41.94
   3  -2   6  667.49   34.55
   3   2   8  248.36   17.35
  -3   2   8  256.29   17.70
  -3  -2   8  238.51   13.41
   3  -2   8  238.17   12.41
   3   2   8  275.40   28.79
   3   2   8  234.27   15.73
  -3  -2   8  226.51   12.04
   3   2   8  241.19   12.23
   3  -2   8  248.73   12.43
   3  -2   8  249.61   23.69
  -3  -2  10  116.84   10.76
   3  -2  10  123.72    6.36
   3   2  10  130.96   21.90
   3  -2  10  114.06    6.07
  -3   2  10  127.73   14.11
   3  -2  10  130.26    6.44
   3   2  10  121.74    5.58
  -3   2  12   43.90   11.15
  -3  -2  12   50.12    9.03
   3   3 -11   65.81   12.07
  -3  -3 -11   65.08   12.21
   3  -3 -11   73.03   13.96
   3   3 -11   52.58   11.07
   3  -3  -9  144.77   26.91
   3   3  -9  119.28   14.40
   3  -3  -9  128.81   10.16
   3  -3  -9  160.98   10.10
   3  -3  -9  148.49   14.23
  -3  -3  -9  130.97   10.04
  -3  -3  -9  125.03   15.39
   3  -3  -9  154.37   19.79
  -3   3  -9  135.63    5.98
   3   3  -9  128.02   13.95
   3  -3  -7  474.14   26.17
  -3  -3  -7  461.22   20.76
  -3  -3  -7  433.32   22.74
   3  -3  -7  450.35   19.84
  -3   3  -7  460.82   23.76
   3  -3  -7  449.01   17.96
   3  -3  -7  458.87   19.99
   3  -3  -7  455.76   32.04
  -3   3  -7  459.45   16.78
   3  -3  -7  512.87   24.15
   3   3  -7  449.04   25.22
   3  -3  -7  519.32   33.91
   3   3  -7  470.18   20.59
   3  -3  -7  461.31   25.63
   3   3  -7  507.80   25.43
   3  -3  -7  509.09   42.47
  -3  -3  -7  485.47   29.47
   3  -3  -5  781.30   28.18
   3  -3  -5  792.96   31.18
  -3  -3  -5  779.45   23.59
  -3  -3  -5  789.35   30.52
   3  -3  -5  784.63   39.53
   3  -3  -5  826.39   29.54
  -3   3  -5  746.09   25.48
   3  -3  -5  775.59   35.28
   3  -3  -5  763.24   23.55
   3   3  -5  742.38   32.49
   3   3  -5  833.26   28.97
   3  -3  -5  776.51   31.99
   3   3  -5  762.64   28.54
  -3  -3  -5  766.73   28.98
   3   3  -5  772.09   30.82
   3  -3  -5  809.18   33.03
   3  -3  -5  778.96   49.57
  -3  -3  -5  836.48   33.53
  -3   3  -3 1231.56   37.97
  -3  -3  -3 1266.92   40.05
  -3   3  -3 1229.83   37.07
   3  -3  -3 1263.74   40.13
   3  -3  -3 1240.67   27.79
   3   3  -3 1264.97   38.82
   3  -3  -3 1267.50   40.94
  -3   3  -3 1226.97   33.27
   3   3  -3 1239.89   37.02
  -3   3  -3 1198.80   36.50
   3  -3  -3 1258.67   40.50
   3  -3  -3 1248.62   38.85
   3  -3  -3 1281.94   47.58
   3   3  -3 1246.49   42.47
   3  -3  -3 1237.01   32.72
  -3  -3  -3 1247.17   39.43
   3  -3  -3 1268.35   39.70
   3   3  -3 1259.56   39.23
  -3  -3  -3 1382.30   38.81
   3  -3  -3 1287.28   41.50
  -3  -3  -3 1239.38   31.83
   3  -3  -1 1339.32   39.41
   3   3  -1 1248.64   39.71
  -3   3  -1 1246.71   34.24
   3  -3  -1 1259.79   39.82
   3  -3  -1 1214.67   31.60
   3   3  -1 1252.51   38.33
   3  -3  -1 1191.16   35.26
  -3   3  -1 1293.21   37.98
   3  -3  -1 1255.92   39.18
  -3  -3  -1 1285.44   39.46
   3  -3  -1 1244.23   38.99
   3  -3  -1 1245.34   35.53
   3   3  -1 1243.18   35.82
   3   3  -1 1241.11   38.87
  -3   3  -1 1266.59   37.68
   3   3   1 1363.25   32.52
   3   3   1 1324.23   41.05
   3  -3   1 1312.86   38.56
  -3   3   1 1332.92   32.96
   3  -3   1 1332.15   36.86
   3  -3   1 1243.75   35.26
  -3  -3   1 1311.91   37.53
   3  -3   1 1305.82   39.04
   3  -3   1 1311.12   32.25
  -3  -3   1 1349.68   38.79
   3  -3   3 1293.31   40.32
   3   3   3 1312.06   38.76
   3  -3   3 1267.33   37.52
   3  -3   3 1307.14   37.29
   3  -3   3 1281.58   39.80
  -3  -3   3 1297.04   39.40
   3   3   3 1255.95   38.95
  -3  -3   3 1225.39   37.74
  -3  -3   3 1307.35   49.72
   3   3   5  770.47   30.51
   3  -3   5  827.99   29.52
   3  -3   5  827.24   29.00
   3  -3   5  790.26   29.46
   3  -3   5  754.38   21.49
  -3  -3   5  862.59   35.90
   3   3   5  829.51   28.32
  -3  -3   5  807.11   30.37
  -3  -3   5  786.28   28.22
  -3  -3   5  842.85   43.41
   3   3   5  711.71   40.16
  -3  -3   7  417.23   18.60
   3  -3   7  466.66   19.78
   3  -3   7  433.32   19.20
   3   3   7  468.86   23.37
   3   3   7  480.14   34.22
   3  -3   7  452.05   23.19
  -3  -3   7  438.87   28.65
   3   3   7  437.02   18.59
   3   3   7  429.01   20.59
  -3  -3   7  485.64   36.90
   3  -3   7  459.07   31.01
   3  -3   9   97.83   18.35
   3   3   9  135.57   13.18
  -3   3   9  131.50   14.50
  -3  -3   9  126.54    9.74
   3   3   9  108.44   19.09
  -3  -3   9  132.83    8.77
   3  -3   9  119.58    8.56
   3   3   9  123.38    8.70
   3  -3   9  134.60    9.14
  -3   3  11   60.52   12.00
  -3  -3  11   55.33    7.93
  -3  -4 -10  101.02   16.06
   3   4 -10   70.95   12.73
   3  -4  -8  192.37   29.74
  -3  -4  -8  169.46   14.82
   3  -4  -8  177.01   12.30
   3  -4  -8  163.53    9.54
   3   4  -8  178.88   14.03
   3  -4  -8  167.59   12.30
  -3   4  -8  159.41   10.19
   3  -4  -8  198.47   15.87
   3   4  -8  176.27   16.96
   3   4  -8  173.34   12.66
   3  -4  -8  168.15   21.69
   3  -4  -8  192.72   17.49
  -3  -4  -8  184.89   20.95
  -3  -4  -8  169.07   12.55
  -3   4  -6  404.16   18.67
  -3  -4  -6  432.37   15.84
  -3  -4  -6  456.25   22.99
   3  -4  -6  439.74   24.54
   3  -4  -6  425.42   14.31
   3  -4  -6  499.80   31.29
   3  -4  -6  418.34   20.83
   3   4  -6  506.84   21.62
   3  -4  -6  460.55   20.83
   3  -4  -6  472.92   23.40
   3   4  -6  425.77   24.67
   3  -4  -6  439.21   31.32
  -3  -4  -6  458.59   21.79
   3   4  -6  449.53   20.98
   3  -4  -6  438.60   24.20
   3  -4  -6  428.10   39.43
  -3  -4  -6  478.02   28.72
  -3  -4  -4  937.63   33.93
  -3   4  -4  925.35   32.62
   3  -4  -4  950.13   38.30
  -3   4  -4  909.51   31.70
   3   4  -4  810.55   35.11
   3  -4  -4  962.71   33.91
  -3   4  -4  896.77   25.80
   3   4  -4  906.01   30.20
  -3   4  -4  863.09   29.92
   3  -4  -4  964.15   34.86
  -3  -4  -4  921.81   33.72
   3  -4  -4  895.00   22.81
   3   4  -4  919.18   32.85
   3  -4  -4  850.37   31.72
   3  -4  -4  858.48   33.48
  -3  -4  -4  997.56   38.99
   3  -4  -4  950.12   35.11
  -3  -4  -4  909.02   23.72
  -3   4  -2 1111.34   33.24
   3  -4  -2 1121.34   38.29
   3  -4  -2 1084.62   37.61
  -3   4  -2 1079.05   35.54
   3  -4  -2 1136.27   38.07
  -3  -4  -2 1186.68   38.65
   3  -4  -2 1100.10   35.29
   3   4  -2 1122.02   37.39
   3  -4  -2 1122.48   37.24
   3  -4  -2 1074.50   36.84
   3   4   0  642.78   26.96
   3  -4   0  652.49   25.04
  -3   4   0  630.30   20.21
   3  -4   0  638.91   26.91
   3   4   0  638.00   23.00
   3  -4   0  644.55   20.10
  -3  -4   0  629.01   23.26
  -3   4   0  665.02   25.89
  -3  -4   0  650.50   26.73
   3  -4   0  629.43   21.05
   3   4   0  624.17   25.93
   3  -4   0  619.73   21.36
   3   4   0  637.16   19.59
   3  -4   0  662.20   26.65
  -3   4   2 1087.84   26.55
   3   4   2 1084.75   41.38
   3  -4   2 1131.40   33.30
  -3   4   2 1071.46   37.04
   3  -4   2 1169.94   36.41
  -3  -4   2 1208.75   38.49
   3   4   2 1144.01   37.25
  -3  -4   2 1085.77   35.25
  -3   4   2 1151.39   38.81
   3  -4   2 1132.74   37.90
   3   4   4  910.55   31.67
   3   4   4  899.26   33.56
   3  -4   4  915.77   33.11
   3   4   4  807.40   40.42
   3  -4   4  915.03   31.46
   3  -4   4  881.01   29.67
  -3  -4   4  907.17   32.63
   3  -4   4  895.02   32.45
  -3  -4   4  903.63   31.84
  -3  -4   4  968.97   44.87
   3   4   6  442.24   22.84
   3   4   6  490.09   33.05
   3  -4   6  456.38   21.27
   3  -4   6  435.70   20.84
   3  -4   6  460.36   22.77
   3   4   6  465.81   15.89
   3  -4   6  423.27   17.44
   3   4   6  473.37   20.42
  -3  -4   6  493.15   27.98
  -3  -4   6  431.65   22.28
  -3  -4   6  500.55   21.57
  -3  -4   6  538.37   36.58
   3  -4   8  164.54   22.24
   3  -4   8  172.78   12.03
   3   4   8  162.57   13.97
   3   4   8  162.46   12.85
   3   4   8  150.83   20.73
   3   4   8  167.48   11.50
   3  -4   8  170.58   11.72
  -3  -4   8  169.97   11.61
  -3  -4  10   85.04    7.77
   3   4  10   85.76   11.30
  -3   4  10  114.46   14.29
   3   4  10   88.58   18.41
  -3  -4  10   86.83    7.15
   3  -4  10   81.59    7.67
  -3  -5 -11   34.91   11.78
   3  -5  -9   77.96   24.13
  -3  -5  -9   73.56   16.14
   3  -5  -9   85.36    9.82
  -3  -5  -9   80.01    9.38
   3  -5  -9   84.20   17.35
   3   5  -9   58.23   12.14
   3  -5  -9   77.10   12.92
  -3  -5  -7  222.39   10.49
  -3  -5  -7  230.77   16.82
   3   5  -7  243.55   14.96
   3  -5  -7  252.00   16.43
  -3   5  -7  239.64   14.50
   3  -5  -7  240.15   17.55
   3   5  -7  260.84   19.91
   3  -5  -7  192.62   14.02
   3   5  -7  250.82   16.18
   3  -5  -7  291.69   26.80
  -3  -5  -7  241.76   16.56
   3  -5  -7  259.21   18.92
  -3  -5  -7  264.60   24.05
   3  -5  -7  238.48   32.68
  -3  -5  -5  334.01   19.48
  -3   5  -5  371.23   19.50
   3  -5  -5  389.42   26.00
   3  -5  -5  392.87   21.04
   3   5  -5  375.00   17.67
  -3   5  -5  323.54   17.70
   3  -5  -5  356.77   20.73
   3   5  -5  323.50   21.60
  -3   5  -5  330.17   12.63
  -3  -5  -5  358.14   20.53
   3   5  -5  341.48   19.32
   3  -5  -5  341.63   19.06
   3  -5  -5  388.05   37.08
  -3  -5  -5  337.16   10.14
  -3  -5  -5  379.71   26.86
   3  -5  -5  364.21   20.99
  -3   5  -3  679.76   25.78
   3  -5  -3  709.98   31.34
   3  -5  -3  667.69   29.08
  -3   5  -3  634.90   26.57
  -3  -5  -3  663.22   29.04
   3  -5  -3  645.91   28.53
   3   5  -3  722.98   29.31
   3  -5  -3  729.20   29.06
   3  -5  -3  667.66   28.11
  -3   5  -1  971.98   34.05
   3   5  -1  942.85   35.57
   3  -5  -1  989.85   33.53
   3  -5  -1 1003.47   35.49
  -3   5  -1  939.54   28.76
   3  -5  -1  948.26   35.95
  -3  -5  -1  987.02   36.06
   3  -5  -1  948.66   34.90
   3   5  -1  935.95   36.79
   3   5  -1  976.81   34.85
   3  -5  -1  942.18   24.66
   3   5  -1  911.60   28.32
  -3   5  -1  909.39   32.58
   3   5   1  927.23   21.04
  -3   5   1  930.69   24.97
   3   5   1  906.48   31.41
  -3  -5   1  964.38   30.62
   3  -5   1  922.15   27.80
  -3   5   1  941.53   34.29
   3  -5   1  952.65   34.21
   3  -5   1  926.88   25.84
  -3   5   1  938.40   33.46
   3   5   3  668.50   28.39
   3  -5   3  613.91   27.79
   3   5   3  567.68   29.65
   3  -5   3  687.80   25.40
  -3  -5   3  685.71   28.59
   3  -5   3  683.66   26.87
   3   5   3  682.39   27.86
  -3   5   3  671.75   29.15
  -3  -5   3  652.75   26.21
   3  -5   3  696.89   28.71
   3   5   5  368.93   20.35
   3   5   5  345.23   24.95
   3  -5   5  386.37   20.73
   3  -5   5  365.70   19.93
   3   5   5  344.94   15.91
   3   5   5  378.60   19.28
  -3  -5   5  362.20   19.54
  -3  -5   5  388.16   23.72
   3  -5   5  346.43   15.56
   3  -5   5  358.38   19.71
  -3  -5   5  364.01   19.39
  -3  -5   5  434.22   31.79
   3   5   7  254.02   17.48
   3   5   7  217.21   23.03
   3   5   7  240.35   14.57
   3  -5   7  235.45   15.46
   3  -5   7  231.68   15.53
   3   5   7  245.37   11.15
   3   5   7  242.64   14.91
   3  -5   7  254.16   14.87
  -3  -5   7  246.43   17.33
  -3  -5   7  272.41   16.14
   3   5   9   67.11    9.93
   3   5   9  105.87    9.15
   3   5   9   70.93   15.71
   3  -5   9  100.75    9.93
   3  -5   9   70.22    8.47
  -3  -5   9   93.37    9.13
  -3  -6 -10   62.69   16.93
   3  -6  -8   77.05   23.15
  -3  -6  -8   94.90   11.61
  -3  -6  -8   87.74   18.52
   3   6  -8  106.43   10.69
  -3   6  -8   95.36   10.50
   3  -6  -8  118.39   12.05
  -3   6  -8   96.73    6.73
   3  -6  -8  140.55   21.31
   3   6  -8   89.18   13.85
  -3   6  -6  202.67   14.62
   3  -6  -6  216.97   17.70
   3   6  -6  202.22   16.03
   3  -6  -6  228.83   16.68
   3  -6  -6  233.05   15.95
  -3  -6  -6  198.58   16.23
   3  -6  -6  271.87   34.26
  -3  -6  -6  240.83   24.66
   3  -6  -6  195.32   16.28
   3  -6  -4  405.19   21.60
  -3   6  -4  400.51   21.31
  -3   6  -4  380.36   19.62
   3  -6  -4  389.85   22.49
  -3   6  -4  387.91   20.71
  -3  -6  -4  352.17   21.70
   3  -6  -4  411.77   23.16
   3   6  -4  404.34   22.05
   3  -6  -4  429.63   26.62
   3  -6  -4  381.11   21.23
  -3   6  -2  518.51   24.27
   3  -6  -2  612.67   25.44
   3  -6  -2  577.19   26.21
  -3   6  -2  548.11   21.63
   3  -6  -2  548.04   27.08
  -3  -6  -2  530.78   26.56
  -3   6  -2  532.38   25.10
   3  -6  -2  557.31   26.89
   3   6  -2  574.49   26.48
   3   6  -2  507.57   27.08
   3   6   0  454.30   24.32
  -3   6   0  485.37   17.52
   3  -6   0  515.27   24.70
   3   6   0  454.67   16.55
   3  -6   0  450.82   24.36
   3  -6   0  467.47   17.55
  -3  -6   0  470.38   20.43
  -3  -6   0  493.24   25.23
  -3   6   0  465.06   23.49
   3  -6   0  467.38   16.71
   3   6   0  457.25   23.39
   3   6   0  471.38   25.13
   3   6   0  487.95   14.09
  -3   6   0  468.35   22.16
   3   6   2  581.30   26.81
  -3   6   2  512.04   14.78
   3  -6   2  570.82   26.72
   3   6   2  534.81   24.90
   3  -6   2  550.88   27.03
  -3  -6   2  581.76   26.93
  -3   6   2  485.25   25.30
   3  -6   2  574.60   21.88
   3  -6   2  548.10   25.23
   3   6   2  579.45   26.40
   3  -6   2  520.13   15.03
  -3   6   2  555.88   25.70
  -3  -6   2  539.05   23.98
   3  -6   4  374.36   21.24
   3   6   4  376.57   20.83
   3   6   4  389.51   24.47
   3  -6   4  380.14   21.51
  -3   6   4  337.96   20.72
  -3  -6   4  377.77   21.35
   3  -6   4  379.29   19.76
   3   6   4  370.48   20.50
  -3  -6   4  372.16   23.26
  -3  -6   4  352.99   19.12
   3   6   6  230.38   16.53
   3   6   6  186.39   19.37
   3  -6   6  227.31   16.27
   3   6   6  264.88   16.63
   3   6   6  238.48   13.55
  -3  -6   6  232.60   16.45
   3  -6   6  215.68   13.57
  -3  -6   6  227.50   16.14
   3  -6   6  220.00   16.18
   3  -6   8   82.52   10.43
   3   6   8   98.05   11.59
   3   6   8   84.57   15.81
   3   6   8   84.34    9.31
   3   6   8   96.12   10.31
   3  -6   8  108.07   11.39
   3   6   8   88.76    7.24
  -3  -6   8  102.89   10.87
   3   6  10   52.88    9.55
  -3  -7  -9   61.67   17.41
  -3  -7  -7  140.25   22.32
  -3   7  -7  117.22   14.05
   3  -7  -7  125.34   13.75
  -3   7  -7  122.12   12.82
  -3  -7  -7  121.31   14.26
   3  -7  -7   89.02   24.73
   3  -7  -5  129.47   13.24
   3  -7  -5  161.28   14.19
  -3   7  -5  152.84   14.18
   3  -7  -5  145.77   14.57
  -3  -7  -5  164.64   15.63
  -3   7  -5  160.03   13.98
   3   7  -5  175.82   15.69
   3   7  -5  160.48   16.46
  -3   7  -3  283.84   17.70
   3  -7  -3  250.15   16.49
  -3   7  -3  234.95   14.87
   3  -7  -3  251.73   17.87
  -3   7  -3  239.57   17.25
   3  -7  -3  264.99   19.41
   3  -7  -3  263.96   19.39
   3   7  -3  253.53   19.46
   3   7  -3  283.21   19.33
  -3  -7  -3  258.34   19.32
   3   7  -1  399.18   23.65
  -3   7  -1  430.43   18.06
   3  -7  -1  397.48   17.34
   3  -7  -1  401.37   24.09
  -3  -7  -1  451.17   25.00
  -3   7  -1  401.65   22.93
   3  -7  -1  461.63   24.74
   3   7  -1  463.06   24.02
   3  -7  -1  419.15   13.02
   3   7  -1  411.76   23.82
   3   7  -1  429.42   15.91
   3  -7  -1  491.92   25.38
  -3   7  -1  406.83   21.19
   3   7   1  376.23   22.43
  -3   7   1  408.20   15.05
   3   7   1  434.26   18.68
  -3  -7   1  447.93   19.65
  -3   7   1  413.29   23.52
   3  -7   1  440.29   17.79
   3  -7   1  402.10   23.07
   3   7   1  438.96   23.97
  -3   7   1  404.35   21.51
   3   7   3  260.50   17.51
   3   7   3  243.32   17.37
   3  -7   3  244.37   18.04
   3  -7   3  227.90   18.13
  -3  -7   3  245.88   18.13
   3  -7   3  247.11   15.41
   3   7   3  273.70   18.23
  -3   7   3  257.75   17.66
  -3  -7   3  230.33   15.74
   3  -7   5  159.35   15.23
   3   7   5  158.37   13.79
   3   7   5  156.36   16.28
   3  -7   5  143.85   14.13
  -3   7   5  143.10   14.26
  -3  -7   5  158.02   14.54
   3   7   5  149.67   13.70
   3  -7   5  187.12   15.15
   3   7   5  139.34   11.89
  -3  -7   5  134.41   12.41
   3   7   7  130.17   12.98
   3   7   7  117.96   10.22
   3   7   7  127.77   17.33
   3  -7   7  124.02   13.32
   3   7   7  108.63    9.48
  -3  -7   7  118.46   12.57
  -3  -7   9   34.92    7.49
   3  -7   9   53.16    9.72
   3   7   9   53.77    9.28
   3   7   9   38.07   12.45
  -3  -8  -8   35.45   14.03
   3  -8  -8   42.19   10.84
  -3   8  -8   41.57   10.02
  -3  -8  -8   41.55   10.49
   3  -8  -6   76.22   13.45
  -3   8  -6   91.50   12.44
  -3   8  -6   87.14   11.82
  -3  -8  -6   92.99   13.07
   3   8  -6   86.72   13.60
  -3  -8  -6  130.51   21.57
  -3   8  -4  175.57   15.07
   3  -8  -4  170.77   14.35
  -3  -8  -4  175.09   17.17
   3  -8  -4  157.73   16.34
  -3   8  -4  162.67   15.34
   3   8  -4  180.19   17.36
  -3   8  -2  212.52   13.38
  -3  -8  -2  222.08   18.49
   3  -8  -2  215.29   18.33
  -3   8  -2  184.82   16.31
   3   8  -2  217.65   17.98
  -3   8  -2  192.36   15.43
   3   8   0  222.12   17.76
  -3   8   0  172.16   10.54
  -3  -8   0  185.97   16.85
  -3  -8   0  194.21   13.12
   3  -8   0  171.71    9.47
   3  -8   0  202.22   17.63
  -3   8   0  183.20   16.02
   3  -8   0  198.75   10.16
   3   8   0  200.09   16.52
  -3   8   0  199.97   15.46
   3   8   2  223.79   17.44
  -3   8   2  218.41    8.93
   3   8   2  226.26   14.71
  -3  -8   2  234.68   18.47
   3  -8   2  196.54   17.85
   3  -8   2  239.34   14.50
   3   8   2  225.12   16.81
   3  -8   2  221.02   10.16
  -3   8   2  232.61   16.79
   3   8   4  155.71   14.04
   3   8   4  190.51   16.63
  -3  -8   4  166.98   16.25
   3  -8   4  188.31   17.06
  -3   8   4  166.42   16.04
   3   8   4  182.61   15.04
   3  -8   4  179.46   14.24
   3  -8   6  111.57   14.25
   3   8   6   72.52   10.37
   3   8   6  108.72   14.62
   3   8   6   83.94   10.46
  -3  -8   6   86.51   11.74
   3  -8   8   27.79   10.11
   3   8   8   40.93    8.77
   3   8   8   25.18   11.17
  -3  -8   8   40.45    8.99
   3  -9  -7   44.32   12.10
  -3   9  -7   61.78   12.36
  -3  -9  -7   47.12   12.17
  -3  -9  -7   50.15   17.97
   3  -9  -5   66.61   13.72
  -3   9  -5   66.02   11.35
  -3   9  -5   36.23    9.77
  -3  -9  -5   72.52   12.97
   3   9  -5   87.43   13.41
   3  -9  -3   97.41   14.17
  -3   9  -3   90.84   11.78
  -3  -9  -3   79.30   13.23
  -3   9  -3   96.93   13.65
   3   9  -3   88.52   13.23
   3   9  -1  100.23    4.77
   3  -9  -1   98.60   14.87
  -3   9  -1   92.56    8.89
   3   9  -1  104.54   13.58
  -3  -9  -1  119.84   10.99
  -3  -9  -1  100.01   13.94
  -3   9  -1   66.07   11.88
   3   9  -1  121.72   13.55
   3   9  -1   97.89    5.39
  -3   9  -1  110.33   11.76
  -3   9   1  116.95    8.11
  -3  -9   1  106.83    9.92
  -3   9   1   98.71   13.52
   3   9   1  111.47   12.62
  -3   9   1  110.07   12.19
   3   9   1  103.09   13.19
   3  -9   3   98.30   14.59
   3   9   3  106.60   12.99
   3   9   3   87.18   10.56
  -3   9   3   94.01   13.10
  -3  -9   3  108.00   14.28
   3   9   3   70.12   11.80
   3   9   3   79.21   11.00
   3  -9   5   74.17   13.66
   3   9   5   70.73   10.35
   3   9   5   58.19   11.53
  -3   9   5   65.23   11.98
   3   9   5   64.61   11.08
  -3  -9   5   84.19   12.40
   3  -9   7   54.09   12.45
   3   9   7   49.88   12.59
   3   9   7   51.19    9.21
  -3  -9   7   43.14   10.01
   3   9   7   43.75    8.63
   3 -10  -6   27.34   10.91
  -3  10  -6   36.73   11.21
  -3 -10  -6   26.44   10.00
  -3 -10  -6   39.86   17.91
   3 -10  -4   38.28   13.22
  -3  10  -4   63.62   11.46
  -3  10  -4   46.00   12.32
  -3 -10  -4   45.99   12.25
   3  10  -4   44.62   11.46
   3  10  -2   56.75    5.45
   3 -10  -2   68.07   14.24
  -3  10  -2   69.28   11.19
  -3 -10  -2   51.95   12.33
  -3  10  -2   62.36   12.13
   3  10  -2   60.93   11.16
   3 -10   0   39.76   11.48
  -3  10   0   35.90    8.73
   3  10   0   46.97   11.06
  -3  10   0   53.46    6.98
  -3 -10   0   48.37    8.10
  -3 -10   0   39.66   10.89
  -3  10   0   33.36   10.26
   3  10   0   59.70   12.64
   3  10   0   62.51   10.51
   3 -10   2   57.31   13.61
  -3  10   2   80.01   11.26
   3  10   2   76.66   11.94
  -3 -10   2   71.55   12.93
   3  10   2   75.50   12.70
   3  10   2   61.03    9.70
   3 -10   4   53.41   14.04
   3  10   4   40.87    9.09
   3  10   4   62.41   10.42
  -3  10   4   36.67   10.28
   3  10   4   46.48   10.30
  -3 -10   4   57.28   12.16
   3  10   4   55.09    9.28
   3 -10   6   35.40   11.93
   3  10   6   25.27    8.23
   3  10   6   19.80    9.59
   3  10   6   25.69    8.50
  -3 -10   6   27.65    9.56
  -3  11  -3   31.56    8.65
   3  11  -3   33.72    9.64
  -3  11  -1   32.73    8.82
   3  11  -1   30.98   10.51
   3  11  -1   22.49    8.48
  -3  11   1   48.65   10.00
   3  11   1   29.71   10.45
   3  11   1   36.57    9.00
   3  11   3   27.88    9.51
   3  11   3   23.75   10.13
   3  11   3   21.33    7.16
   3  11   5   14.43    8.04
   3  11   5   18.90    9.76
  -3  12  -2   17.92    8.66
   3  12  -2   11.74    8.09
   4   0 -10   96.34   12.17
   4   0 -10   93.47   16.52
   4   0 -10   77.85   12.67
   4   0  -8  190.13   27.02
   4   0  -8  252.71   14.75
  -4   0  -8  257.88   16.98
  -4   0  -8  224.15   14.20
   4   0  -8  168.45   21.42
   4   0  -8  227.63   16.55
   4   0  -8  240.15   22.42
   4   0  -6  339.82   17.05
  -4   0  -6  307.34   17.22
  -4   0  -6  317.48   19.00
   4   0  -6  321.16   22.07
   4   0  -6  331.79   19.34
   4   0  -6  356.03   18.33
   4   0  -6  331.44   24.39
  -4   0  -6  363.01   18.92
   4   0  -6  293.40   19.71
   4   0  -6  352.56   22.49
   4   0  -6  359.94   32.26
  -4   0  -4  551.15   22.41
   4   0  -4  574.52   22.58
  -4   0  -4  532.48   23.91
   4   0  -4  488.70   22.63
   4   0  -4  557.37   24.32
  -4   0  -4  532.03   23.96
   4   0  -4  524.21   24.19
   4   0  -4  553.94   28.08
   4   0  -4  533.53   23.58
   4   0  -4  540.56   24.90
   4   0  -4  559.15   34.97
   4   0  -2 1113.52   34.42
  -4   0  -2 1093.36   27.82
   4   0  -2 1110.87   37.49
   4   0  -2 1074.70   36.31
  -4   0  -2 1067.83   31.15
   4   0  -2 1005.77   35.08
   4   0  -2 1041.88   36.88
   4   0  -2 1060.09   34.95
  -4   0  -2 1023.80   33.72
   4   0  -2 1135.03   43.47
  -4   0  -2 1117.33   37.13
   4   0   0 2142.83   55.58
  -4   0   0 2037.57   54.78
   4   0   0 2021.38   55.43
  -4   0   0 2117.95   57.79
  -4   0   0 2076.23   54.78
  -4   0   0 2014.43   52.15
   4   0   0 2135.38   57.62
  -4   0   0 2076.74   57.35
   4   0   0 1995.07   53.95
   4   0   2 1068.30   36.30
  -4   0   2 1028.37   35.42
  -4   0   2 1061.12   38.58
  -4   0   2 1103.34   34.65
   4   0   2 1044.56   35.46
   4   0   4  574.57   25.98
   4   0   4  547.83   20.01
  -4   0   4  538.81   23.33
  -4   0   4  515.77   28.75
   4   0   4  571.28   23.90
   4   0   4  499.35   18.84
   4   0   6  320.20   10.86
   4   0   6  323.84   16.95
  -4   0   6  328.81   17.31
   4   0   6  305.68   19.74
   4   0   8  273.56   19.72
   4   0   8  241.90   13.78
   4   0   8  238.30   21.83
   4   0  10   76.76    7.20
   4  -1 -11   46.54    9.20
   4   1 -11   52.23   10.76
  -4  -1  -9  151.25   11.31
   4  -1  -9  143.91   10.97
   4  -1  -9  131.69   22.37
   4  -1  -9  158.48   13.69
   4   1  -9  142.78   14.56
  -4  -1  -9  152.11    9.37
   4  -1  -9  115.26   17.45
   4   1  -9  136.47   18.19
   4   1  -9  158.74   16.54
   4  -1  -7  219.79   12.45
  -4  -1  -7  235.07   14.66
  -4   1  -7  234.01   15.91
   4  -1  -7  210.62   21.45
   4   1  -7  190.96   19.40
   4   1  -7  246.67   15.09
   4  -1  -7  238.62   17.05
   4  -1  -7  219.24   15.11
   4   1  -7  205.21   16.45
  -4  -1  -7  247.25   15.43
  -4  -1  -7  227.26   10.21
   4  -1  -7  247.25   15.31
   4  -1  -7  246.59   21.63
   4   1  -7  225.30   20.34
   4  -1  -7  224.24   17.69
   4   1  -7  221.60   14.93
   4  -1  -7  236.08   28.81
  -4   1  -5  550.89   24.58
  -4  -1  -5  524.72   21.83
  -4   1  -5  566.59   24.15
   4  -1  -5  593.23   21.12
  -4  -1  -5  591.16   26.15
  -4   1  -5  489.09   23.76
   4  -1  -5  557.24   27.45
   4   1  -5  508.77   24.33
  -4  -1  -5  495.17   23.67
   4   1  -5  595.51   25.67
   4  -1  -5  543.90   25.63
   4   1  -5  536.22   23.83
  -4  -1  -5  587.42   17.58
   4  -1  -5  575.49   24.46
   4   1  -5  561.79   26.86
   4  -1  -5  568.14   30.75
   4   1  -5  575.17   29.71
   4  -1  -5  574.05   26.81
   4   1  -5  589.06   28.75
   4   1  -5  509.85   25.61
   4  -1  -5  537.69   23.91
   4  -1  -5  597.44   29.16
   4  -1  -5  602.73   40.48
   4   1  -3  897.97   31.41
   4  -1  -3  860.05   31.23
  -4  -1  -3  901.57   32.33
   4  -1  -3  900.73   27.83
  -4   1  -3  831.05   30.16
  -4  -1  -3  840.98   31.91
   4   1  -3  908.93   27.45
  -4   1  -3  846.77   29.24
   4   1  -3  892.56   32.07
   4  -1  -3  836.39   34.76
   4   1  -3  872.01   33.86
  -4  -1  -3  851.04   23.13
   4  -1  -3  853.56   31.49
  -4   1  -3  882.96   32.40
  -4   1  -3  841.69   24.77
   4   1  -3  876.76   32.69
   4   1  -3  899.96   34.10
   4  -1  -3  846.17   33.66
   4  -1  -3  795.30   42.71
   4  -1  -3  819.34   31.01
  -4  -1  -3  813.99   28.62
   4   1  -3  906.83   40.50
   4  -1  -3  896.77   30.43
  -4   1  -3  846.49   30.19
   4  -1  -1 1173.53   38.62
   4   1  -1 1208.46   38.32
  -4   1  -1 1181.74   36.03
   4  -1  -1 1095.80   34.60
  -4  -1  -1 1156.13   38.75
  -4   1  -1 1198.74   35.81
   4  -1  -1 1162.87   36.74
   4   1  -1 1222.48   39.06
  -4  -1  -1 1113.85   33.15
   4  -1  -1 1165.44   37.04
  -4  -1  -1 1207.65   36.89
  -4   1  -1 1213.59   39.72
  -4   1  -1 1229.77   33.17
   4  -1  -1 1195.61   36.47
  -4  -1  -1 1189.07   34.92
  -4  -1  -1 1197.88   37.29
   4  -1  -1 1168.94   44.57
  -4   1  -1 1185.80   37.73
   4   1  -1 1192.98   37.57
   4   1   1 1178.66   34.58
  -4   1   1 1170.09   34.26
   4  -1   1 1100.90   35.80
   4   1   1 1096.57   37.31
   4  -1   1 1179.83   36.85
   4  -1   1 1162.67   36.64
  -4  -1   1 1146.99   37.46
  -4   1   1 1208.39   35.40
  -4  -1   1 1087.83   34.57
  -4   1   1 1175.06   39.61
   4   1   3  839.90   33.33
   4  -1   3  873.96   32.81
  -4  -1   3  909.49   32.26
   4  -1   3  904.92   29.58
   4   1   3  907.90   32.29
  -4  -1   3  907.40   36.34
  -4   1   3  887.08   32.43
  -4  -1   3  957.16   42.35
   4  -1   3  914.22   32.41
  -4   1   5  572.16   24.20
   4  -1   5  525.43   25.82
  -4  -1   5  560.25   23.67
   4  -1   5  592.25   25.21
   4   1   5  528.07   18.33
   4   1   5  543.38   23.32
   4  -1   5  535.08   18.82
  -4  -1   5  545.28   30.59
  -4  -1   5  514.69   24.67
   4  -1   5  519.38   22.98
   4  -1   5  558.06   25.93
   4   1   7  217.89   17.09
   4  -1   7  199.69   16.73
   4   1   7  252.34   14.43
  -4  -1   7  228.79   14.24
   4  -1   7  240.96   14.24
  -4  -1   7  243.43   27.66
   4   1   7  246.52   14.49
   4  -1   7  218.00   19.54
   4   1   9  142.63   15.10
   4  -1   9  151.34   11.20
   4  -1   9  147.43   10.51
   4   1   9  134.65   10.03
   4  -2 -10   54.80   22.76
  -4  -2 -10   77.33   10.34
   4  -2 -10   71.14    9.68
   4   2 -10   87.87   13.37
  -4  -2 -10   73.03    9.16
   4  -2 -10   72.28   16.02
   4   2 -10   58.87   12.04
   4  -2  -8  164.15   27.01
   4  -2  -8  181.57    9.70
  -4  -2  -8  190.77   13.44
  -4   2  -8  212.78   16.33
   4  -2  -8  201.48   13.68
   4  -2  -8  185.64   22.71
   4  -2  -8  197.18   13.59
  -4  -2  -8  210.57   14.24
   4   2  -8  174.65   16.36
  -4  -2  -8  192.10   13.57
   4  -2  -8  194.11   21.31
   4  -2  -8  192.09   13.57
   4   2  -8  193.96   13.93
   4  -2  -8  154.72   16.08
   4   2  -8  203.52   17.34
  -4  -2  -6  296.48   15.44
  -4   2  -6  302.01   18.57
   4  -2  -6  334.84   12.90
  -4  -2  -6  326.16   19.94
  -4  -2  -6  294.02   17.75
   4   2  -6  325.04   17.87
   4  -2  -6  313.28   23.02
   4   2  -6  286.76   19.37
   4   2  -6  315.42   18.88
   4  -2  -6  329.13   20.21
   4  -2  -6  310.38   16.50
   4   2  -6  322.91   21.13
   4  -2  -6  315.68   24.40
   4  -2  -6  302.20   20.20
  -4   2  -6  316.59   10.80
   4  -2  -6  366.02   23.26
   4   2  -6  330.50   18.62
   4  -2  -6  324.11   17.65
   4  -2  -6  307.27   32.05
  -4   2  -4  564.53   24.09
   4  -2  -4  529.04   24.10
  -4  -2  -4  560.45   25.09
  -4  -2  -4  549.63   25.37
   4  -2  -4  568.92   18.43
  -4   2  -4  544.97   23.90
   4   2  -4  541.73   20.84
   4   2  -4  552.01   24.09
  -4   2  -4  545.31   22.23
   4  -2  -4  602.08   26.84
   4  -2  -4  511.87   25.05
   4   2  -4  563.04   27.27
   4  -2  -4  549.59   22.43
   4  -2  -4  576.57   30.72
   4  -2  -4  516.79   24.79
  -4   2  -4  509.43   15.81
   4   2  -4  566.77   26.87
   4   2  -4  553.18   26.31
   4  -2  -4  650.68   29.19
   4  -2  -4  565.77   38.60
   4   2  -4  528.35   24.05
  -4  -2  -4  601.29   21.77
  -4  -2  -2  901.53   32.88
   4   2  -2  919.13   33.48
  -4   2  -2  871.19   32.95
  -4   2  -2  880.06   29.73
   4  -2  -2  895.33   27.00
   4  -2  -2  905.96   32.95
   4  -2  -2  826.83   30.43
  -4   2  -2  898.52   28.94
   4  -2  -2  881.93   33.11
   4   2  -2  919.26   32.66
   4  -2  -2  909.18   35.27
  -4   2  -2  899.92   25.23
   4  -2  -2  823.75   29.99
   4   2  -2  905.21   32.50
  -4  -2  -2  909.74   29.35
   4  -2  -2  870.36   43.71
   4  -2  -2  886.28   33.55
  -4   2  -2  878.07   31.41
  -4  -2  -2  852.69   32.44
  -4   2   0 1440.69   45.37
  -4   2   0 1507.17   40.37
   4   2   0 1505.67   46.04
   4  -2   0 1444.28   45.42
   4  -2   0 1492.71   41.45
  -4  -2   0 1382.56   41.89
   4  -2   0 1436.30   41.92
   4  -2   0 1461.48   44.83
   4   2   0 1456.52   44.96
   4  -2   0 1444.48   41.37
  -4  -2   0 1455.38   42.07
  -4   2   0 1446.45   39.70
  -4  -2   0 1456.03   42.15
   4  -2   0 1417.32   39.94
  -4   2   0 1378.12   44.12
   4   2   0 1455.07   40.85
  -4  -2   0 1481.38   45.38
  -4  -2   2  936.33   33.64
   4   2   2  911.23   33.94
  -4   2   2  921.47   33.75
   4  -2   2  958.96   34.18
   4  -2   2  897.19   32.09
   4   2   2  921.99   32.87
   4  -2   2  958.04   32.20
  -4  -2   2  913.27   34.27
  -4   2   2  997.03   36.66
  -4  -2   2  926.76   37.92
   4  -2   4  637.84   26.12
  -4  -2   4  590.72   25.33
   4  -2   4  545.04   25.82
   4  -2   4  607.38   25.55
   4   2   4  590.48   24.98
   4  -2   4  586.20   22.22
  -4  -2   4  600.79   29.77
  -4  -2   4  620.41   26.36
  -4  -2   4  626.47   35.84
   4   2   6  288.06   19.50
  -4  -2   6  298.11   16.86
   4  -2   6  288.69   19.44
   4   2   6  286.98   16.26
   4  -2   6  318.02   18.92
   4   2   6  303.95   11.06
  -4  -2   6  312.06   19.35
   4   2   6  295.89   16.65
  -4  -2   6  310.66   28.80
   4  -2   6  310.15   16.92
   4  -2   6  273.47   21.39
   4   2   8  179.39   16.31
   4  -2   8  214.93   14.13
   4   2   8  159.51   24.00
  -4  -2   8  189.54   12.54
   4  -2   8  185.88   12.74
   4   2   8  197.58   12.73
   4  -2   8  165.54   19.45
   4  -2  10   74.30    7.56
   4   2  10   81.06   12.75
   4   2  10   82.34   20.61
   4  -3  -9  109.99   26.53
  -4  -3  -9  110.94   10.81
   4  -3  -9  101.45   10.29
   4  -3  -9  101.80    9.35
  -4  -3  -9  122.33   11.22
  -4  -3  -9  119.67   13.44
   4  -3  -9  116.73   18.39
   4   3  -9  118.19   15.29
   4  -3  -9  109.75   14.74
   4   3  -9  108.93   14.24
   4  -3  -7  217.12   14.71
   4  -3  -7  213.05   30.12
  -4  -3  -7  218.86   12.98
  -4   3  -7  221.09   16.84
  -4  -3  -7  178.44   14.07
   4  -3  -7  178.50   20.82
   4  -3  -7  189.67   14.32
   4   3  -7  183.32   14.95
   4  -3  -7  201.54   16.75
   4  -3  -7  212.92   12.75
   4   3  -7  205.73   17.94
   4  -3  -7  249.99   23.57
   4   3  -7  204.59   14.83
   4  -3  -7  229.41   18.67
   4   3  -7  199.81   17.53
  -4   3  -5  479.39   23.75
  -4  -3  -5  519.06   25.43
  -4   3  -5  598.57   25.32
   4  -3  -5  494.93   23.55
   4  -3  -5  510.16   13.54
   4  -3  -5  570.14   25.78
   4   3  -5  527.49   23.82
   4  -3  -5  547.96   28.68
   4   3  -5  492.43   23.30
  -4   3  -5  506.24   21.03
   4  -3  -5  530.14   26.23
   4  -3  -5  510.04   20.13
   4   3  -5  512.03   27.61
   4  -3  -5  519.85   31.81
   4  -3  -5  488.73   25.59
   4   3  -5  535.80   24.81
   4  -3  -5  544.95   27.73
   4  -3  -5  560.30   42.78
  -4  -3  -5  536.96   25.13
  -4  -3  -5  502.57   19.54
  -4   3  -3  667.99   27.44
   4   3  -3  686.99   29.36
  -4  -3  -3  677.50   29.03
  -4   3  -3  667.96   25.89
   4  -3  -3  685.38   19.86
   4  -3  -3  669.05   28.56
   4  -3  -3  664.27   28.03
   4   3  -3  653.70   18.88
   4   3  -3  751.48   29.02
  -4   3  -3  676.69   23.70
   4   3  -3  662.09   26.77
   4  -3  -3  776.74   30.85
   4  -3  -3  692.50   34.02
   4   3  -3  675.47   31.27
   4  -3  -3  622.30   26.75
   4   3  -3  693.06   28.86
   4   3  -3  660.49   28.61
  -4  -3  -3  681.74   28.80
  -4  -3  -3  646.93   22.88
   4  -3  -3  698.71   42.83
   4  -3  -3  703.17   30.14
   4  -3  -1  645.73   27.26
   4   3  -1  617.81   27.42
  -4   3  -1  582.32   21.93
   4  -3  -1  634.77   21.36
   4   3  -1  572.19   25.51
   4  -3  -1  606.89   26.48
   4  -3  -1  622.56   24.35
  -4  -3  -1  612.96   24.93
   4  -3  -1  592.45   27.32
   4  -3  -1  613.14   23.19
  -4  -3  -1  669.50   27.84
   4   3  -1  592.64   23.32
   4   3  -1  630.38   27.20
  -4  -3  -1  604.72   18.50
  -4   3  -1  639.41   26.10
   4   3   1  650.01   21.30
  -4   3   1  699.63   21.98
   4  -3   1  620.35   25.81
   4   3   1  618.93   27.75
   4  -3   1  622.85   24.15
  -4  -3   1  637.33   25.26
   4  -3   1  648.98   26.66
   4  -3   1  628.70   23.16
  -4  -3   1  696.17   27.44
  -4   3   1  663.22   28.62
  -4  -3   1  619.91   27.46
   4  -3   3  732.67   28.91
   4  -3   3  702.79   29.31
   4   3   3  719.60   28.54
   4  -3   3  696.99   27.04
   4  -3   3  735.79   27.41
  -4  -3   3  785.39   32.30
  -4  -3   3  717.03   27.86
   4   3   3  755.79   29.88
  -4  -3   3  700.33   28.86
  -4  -3   3  741.17   36.68
   4  -3   5  578.99   25.18
   4   3   5  573.33   27.17
   4  -3   5  482.84   24.51
   4   3   5  538.36   23.55
   4   3   5  449.28   33.27
   4  -3   5  502.64   24.11
   4  -3   5  552.22   21.13
  -4  -3   5  529.23   25.01
   4   3   5  539.18   23.86
  -4  -3   5  512.61   34.85
  -4  -3   5  555.77   24.40
  -4  -3   7  185.18   13.24
   4   3   7  230.11   17.72
   4  -3   7  206.52   14.76
   4   3   7  200.48   24.93
   4   3   7  205.61   13.88
   4  -3   7  170.40   19.84
   4  -3   7  194.87   13.83
   4   3   9  105.68   13.48
   4  -3   9  104.39    9.99
   4   3   9  125.72   22.73
  -4  -3   9  109.57    9.64
   4   3   9  106.10    9.79
   4  -3   9   97.30    9.73
  -4  -4 -10   56.90   11.94
   4   4 -10   50.19   11.87
   4  -4  -8  139.92   27.45
  -4  -4  -8  127.31    9.79
   4  -4  -8  119.17   11.45
  -4   4  -8  120.67   13.51
  -4  -4  -8  117.04   11.85
   4  -4  -8  121.56   11.78
   4  -4  -8  105.78    8.01
   4   4  -8  113.88   12.33
   4  -4  -8   78.16   15.42
   4   4  -8  122.04   15.39
   4  -4  -8  126.91   15.35
  -4  -4  -6  176.19   15.67
  -4   4  -6  207.25   15.94
   4  -4  -6  230.51   15.79
   4  -4  -6  211.11   15.72
   4   4  -6  235.39   15.64
  -4   4  -6  200.01   12.28
   4  -4  -6  203.36   10.44
   4  -4  -6  207.98   17.14
   4   4  -6  193.62   17.74
   4  -4  -6  230.04   21.28
   4  -4  -6  219.16   22.31
   4   4  -6  227.57   16.32
   4  -4  -6  198.72   16.86
   4  -4  -6  216.05   29.96
  -4  -4  -6  209.84   15.83
  -4  -4  -6  240.46   16.09
  -4  -4  -6  199.50   11.27
  -4   4  -4  366.99   20.42
  -4  -4  -4  403.10   22.20
  -4   4  -4  370.13   19.28
   4  -4  -4  407.76   22.49
   4  -4  -4  392.40   23.39
   4  -4  -4  420.68   21.67
  -4   4  -4  371.17   16.37
   4   4  -4  361.71   19.40
  -4   4  -4  373.76   19.28
   4  -4  -4  423.84   23.13
   4  -4  -4  351.79   14.72
   4  -4  -4  376.74   26.89
   4   4  -4  406.23   24.69
   4  -4  -4  390.14   21.75
   4   4  -4  400.28   21.73
  -4  -4  -4  393.44   21.92
  -4  -4  -4  361.07   14.92
   4  -4  -4  422.50   36.68
  -4  -4  -4  384.56   16.89
   4  -4  -4  441.36   23.73
   4  -4  -2  613.34   27.91
   4   4  -2  624.23   28.58
  -4   4  -2  582.92   22.91
   4   4  -2  618.93   27.13
   4  -4  -2  636.56   28.94
   4  -4  -2  599.37   26.87
   4  -4  -2  609.16   24.64
  -4   4  -2  561.05   25.21
   4  -4  -2  661.15   28.50
   4  -4  -2  624.31   27.50
   4  -4  -2  543.52   30.06
   4   4  -2  578.49   29.71
  -4  -4  -2  613.09   27.91
   4  -4  -2  599.25   24.96
   4   4  -2  617.65   27.90
   4   4  -2  595.67   24.72
  -4   4  -2  537.19   25.21
   4  -4   0  960.63   34.59
   4   4   0  913.56   36.34
  -4   4   0  927.15   27.80
   4  -4   0  924.23   36.86
   4   4   0  897.12   33.97
   4  -4   0  895.63   28.63
   4   4   0  834.40   32.51
  -4  -4   0  887.87   31.90
   4  -4   0  871.26   30.08
   4  -4   0 1000.57   35.81
   4  -4   0  952.95   35.30
  -4  -4   0  981.83   36.60
   4  -4   0  847.20   27.79
   4   4   0  876.74   34.38
   4   4   0  984.60   28.21
  -4  -4   0  937.61   33.10
  -4   4   2  618.81   19.10
   4   4   2  636.13   27.43
   4  -4   2  640.73   29.48
   4   4   2  568.60   31.89
   4  -4   2  637.42   24.23
   4  -4   2  672.03   28.95
   4  -4   2  620.75   26.82
  -4  -4   2  652.97   28.88
  -4  -4   2  649.47   28.38
   4   4   2  628.69   27.83
  -4  -4   2  624.73   25.88
  -4  -4   2  678.03   33.21
   4   4   4  388.85   22.51
   4  -4   4  432.99   23.39
   4   4   4  376.69   28.88
   4  -4   4  380.82   21.29
   4  -4   4  379.47   20.03
   4  -4   4  423.27   19.97
  -4  -4   4  414.99   24.69
   4   4   4  443.04   22.13
  -4  -4   4  411.02   20.95
  -4  -4   4  433.27   22.33
  -4  -4   4  399.90   29.53
  -4  -4   6  166.22   22.15
   4   4   6  220.01   17.15
   4  -4   6  197.55   14.85
   4  -4   6  208.33   15.71
   4   4   6  192.96   23.75
   4   4   6  204.32   14.45
  -4  -4   6  204.04   14.66
   4  -4   8  113.33   11.37
   4  -4   8  112.72   18.89
  -4  -4   8  109.70   10.50
   4   4   8  106.67   13.12
   4  -4   8  118.69   11.62
   4   4   8   92.27   19.33
   4   4   8  101.38   10.42
   4   4  10   59.96   11.96
   4  -5  -9   49.17   19.38
  -4   5  -9   77.95   12.61
  -4   5  -9   55.51    7.68
   4  -5  -9   45.86   13.77
   4   5  -9   58.25   12.32
   4  -5  -9   51.91   11.90
   4  -5  -7   74.92   21.71
  -4  -5  -7  115.98   14.82
  -4   5  -7  127.98   13.64
   4  -5  -7  106.62   11.73
   4  -5  -7  121.41   13.06
  -4   5  -7  117.64    8.98
   4   5  -7  115.75   12.07
  -4   5  -7  124.28   10.92
   4   5  -7  118.74   12.79
   4  -5  -7  113.33   18.33
   4   5  -7  109.31   15.00
   4  -5  -7  120.55   14.12
  -4  -5  -7  120.23   12.91
  -4  -5  -7  124.19    8.13
  -4  -5  -5  281.73   19.50
  -4   5  -5  262.03   18.24
  -4   5  -5  289.10   18.01
   4  -5  -5  279.55   19.24
  -4   5  -5  285.59   13.19
  -4   5  -5  262.59   16.32
   4  -5  -5  280.93    9.10
   4  -5  -5  249.25   17.74
   4   5  -5  250.15   20.41
   4  -5  -5  250.56   23.92
   4   5  -5  279.64   18.67
   4  -5  -5  283.83   19.54
  -4  -5  -5  319.08   20.37
  -4  -5  -5  271.52   10.56
  -4  -5  -5  275.51   18.78
   4  -5  -5  302.23   20.32
   4  -5  -3  402.07   22.49
  -4   5  -3  372.84   18.55
   4  -5  -3  382.28   22.71
   4  -5  -3  392.00   22.86
  -4   5  -3  364.68   20.18
   4  -5  -3  371.81   21.88
   4  -5  -3  375.44   21.39
   4  -5  -3  368.77   13.39
  -4  -5  -3  385.53   22.60
   4   5  -3  343.38   20.82
   4  -5  -3  334.45   19.72
   4   5  -3  403.43   20.22
   4   5  -1  414.38   23.59
   4  -5  -1  434.68   22.32
  -4   5  -1  390.74   17.23
   4  -5  -1  425.16   24.07
   4  -5  -1  424.54   15.61
   4  -5  -1  388.88   18.48
  -4  -5  -1  384.88   20.12
  -4   5  -1  425.38   22.36
   4   5  -1  343.41   12.19
  -4  -5  -1  410.11   23.29
   4  -5  -1  442.63   23.19
   4   5  -1  445.01   23.43
   4  -5  -1  413.31   19.07
   4   5  -1  429.34   17.65
   4   5   1  410.48   13.36
  -4   5   1  409.74   15.20
   4   5   1  380.42   20.56
  -4  -5   1  424.23   20.41
   4  -5   1  411.62   17.60
  -4   5   1  405.03   22.35
   4  -5   1  414.36   22.63
   4  -5   1  368.69   14.76
  -4  -5   1  402.96   20.65
  -4   5   1  403.86   22.35
   4   5   3  392.54   22.87
   4   5   3  383.83   25.72
   4  -5   3  391.79   19.10
   4  -5   3  416.12   21.55
   4  -5   3  418.13   22.82
  -4  -5   3  413.62   22.79
  -4  -5   3  397.38   23.28
   4   5   3  391.66   21.65
  -4   5   3  415.26   23.81
  -4  -5   3  363.33   19.70
   4  -5   3  377.59   22.83
  -4  -5   3  448.58   29.00
   4   5   5  295.55   19.83
   4  -5   5  283.94   19.33
   4   5   5  289.78   24.88
   4  -5   5  283.55   18.65
   4  -5   5  284.70   17.92
   4  -5   5  260.05   10.43
   4   5   5  287.86   17.91
  -4  -5   5  268.09   17.89
  -4  -5   5  299.51   27.27
   4   5   7  117.11   13.42
   4  -5   7  131.33   12.83
   4  -5   7  131.02   13.27
   4   5   7  120.15   19.28
   4   5   7  115.49    7.96
   4   5   7  120.07   12.16
  -4  -5   7  103.69   11.53
   4  -5   9   63.96   10.08
   4   5   9   69.36   11.93
   4   5   9   47.45   15.71
  -4  -5   9   63.34    8.81
   4  -6  -8   44.20   21.00
  -4  -6  -8   77.56   15.03
   4  -6  -8   76.92   11.52
  -4  -6  -8   67.62   10.86
  -4   6  -8   81.06   12.69
  -4   6  -8   66.04    6.66
   4  -6  -8   67.32   16.49
   4   6  -8   76.05   13.46
   4  -6  -8   81.92   13.10
  -4  -6  -6  104.36   15.04
  -4  -6  -6   88.30   11.99
   4  -6  -6   93.61   12.76
  -4   6  -6   96.98   10.80
   4   6  -6  135.59   16.19
   4  -6  -6   83.71   16.34
   4  -6  -6   97.62   12.73
   4  -6  -6   89.63   22.71
   4  -6  -4  157.53   15.24
  -4   6  -4  148.70   12.83
   4  -6  -4  156.38   15.29
  -4   6  -4  138.30   13.03
   4   6  -4  179.57   16.01
  -4  -6  -4  155.20   15.19
   4  -6  -4  145.69   13.96
   4  -6  -4  163.58   14.43
  -4  -6  -4  204.32   18.56
   4   6  -2  326.91   21.68
   4  -6  -2  351.48   20.58
  -4   6  -2  325.09   16.22
   4  -6  -2  318.46   20.87
   4  -6  -2  279.37   20.26
   4  -6  -2  288.29   16.57
   4  -6  -2  303.01   10.74
  -4   6  -2  311.60   19.75
   4  -6  -2  278.88   20.10
  -4  -6  -2  316.66   21.21
   4   6  -2  296.15   21.74
   4   6  -2  316.14   20.40
   4  -6  -2  321.07   18.17
   4  -6  -2  348.45   21.33
   4   6  -2  336.51   16.82
  -4   6  -2  298.22   19.13
  -4   6   0  469.59   18.09
   4   6   0  471.36   17.58
   4  -6   0  511.48   27.45
  -4  -6   0  470.73   22.39
   4  -6   0  492.68   19.93
   4  -6   0  500.87   18.28
  -4   6   0  462.13   24.65
   4  -6   0  530.01   27.00
  -4  -6   0  469.05   26.04
   4   6   0  473.09   25.16
   4  -6   0  476.60   19.42
   4  -6   0  521.88   26.59
  -4   6   0  500.44   24.98
   4   6   0  492.14   15.91
  -4   6   2  300.76   10.76
   4   6   2  304.51   20.64
   4  -6   2  307.39   21.01
   4   6   2  279.30   18.76
  -4   6   2  289.31   19.58
   4  -6   2  310.35   15.95
   4  -6   2  269.81   19.02
  -4  -6   2  297.95   20.28
   4   6   2  287.22   19.26
   4  -6   2  268.46   19.06
  -4   6   2  297.21   20.43
  -4  -6   2  329.08   19.19
   4   6   4  158.49   15.12
   4   6   4  168.89   17.45
   4  -6   4  164.07   16.09
   4  -6   4  183.93   14.01
   4   6   4  181.67   15.43
  -4  -6   4  183.73   15.66
   4  -6   4  185.08   15.86
  -4  -6   4  175.37   20.74
   4   6   6  116.17   13.73
   4   6   6  122.54   17.25
   4  -6   6  110.60   13.60
   4   6   6  108.20    9.70
  -4  -6   6  109.69   12.37
   4  -6   8   89.17   11.71
  -4  -6   8   64.43    9.41
   4   6   8   77.03   11.63
   4   6   8   82.49   17.13
   4   6  10   26.95    8.89
  -4  -7  -7   36.92   13.19
  -4  -7  -7   44.87    9.97
   4  -7  -7   47.25   11.19
  -4   7  -7   43.37    8.93
   4  -7  -7   31.51   12.48
   4  -7  -7   70.23   12.22
   4  -7  -7   34.98   18.46
  -4   7  -5  121.44   13.54
   4  -7  -5  113.70   14.11
  -4   7  -5   83.65   11.46
   4  -7  -5  113.79   13.52
   4   7  -5  120.23   15.26
  -4  -7  -5  109.02   14.15
  -4  -7  -5   96.87   15.75
   4  -7  -3  183.57   15.58
  -4   7  -3  165.48   12.94
   4  -7  -3  154.62   16.52
  -4   7  -3  189.81   15.85
  -4  -7  -3  196.15   17.67
   4   7  -3  154.47   16.44
   4  -7  -3  175.73   14.68
   4   7  -3  162.54   12.89
  -4   7  -3  170.99   15.16
  -4   7  -1  208.20   12.41
   4  -7  -1  211.19   18.64
   4  -7  -1  221.17   13.39
  -4  -7  -1  220.25   15.67
  -4   7  -1  227.11   17.51
   4  -7  -1  231.97   10.01
  -4  -7  -1  239.79   19.14
   4   7  -1  236.41   19.30
   4  -7  -1  204.14   13.86
   4   7  -1  212.29   10.68
  -4   7  -1  207.54   16.23
   4   7   1  210.24   17.66
  -4   7   1  218.69   10.51
   4   7   1  186.89   12.12
  -4  -7   1  210.13   14.74
  -4   7   1  202.38   16.97
   4  -7   1  227.07   12.84
   4  -7   1  200.48   10.53
  -4   7   1  204.91   16.65
   4   7   3  187.51   16.49
   4   7   3  193.54   16.09
   4  -7   3  209.08   17.98
   4  -7   3  160.49   12.86
  -4  -7   3  188.28   17.13
  -4   7   3  202.79   17.11
   4   7   5  112.54   13.81
   4   7   5   94.00   14.45
   4  -7   5  117.30   14.19
   4   7   5   98.08   10.84
  -4  -7   5  107.83   13.83
  -4  -7   7   38.49    8.57
   4  -7   7   50.69   10.93
   4   7   7   51.34   10.08
   4   7   7   24.39   12.08
   4   7   7   59.30    8.11
   4  -7   9   25.03    8.70
  -4  -7   9   28.56    7.73
   4   7   9   33.78    9.43
   4  -8  -6   78.45   13.13
  -4   8  -6   66.48   11.80
  -4   8  -6   39.42    9.67
   4   8  -6   67.17   13.79
   4  -8  -6   68.82   12.25
  -4  -8  -6   52.81   11.46
   4  -8  -6   69.84   23.17
  -4  -8  -6   57.65   15.67
   4  -8  -4   54.01   12.16
  -4   8  -4   79.73   11.85
  -4   8  -4   98.09   12.64
   4   8  -4   94.75   14.32
  -4  -8  -4   77.72   12.78
   4  -8  -4   68.84   10.81
   4  -8  -2   74.22   13.07
  -4   8  -2   99.17   11.94
  -4   8  -2   94.97    9.87
   4  -8  -2  105.87   10.08
  -4  -8  -2   92.58   10.96
  -4  -8  -2  128.20   15.07
  -4   8  -2   93.25   12.44
   4  -8  -2  103.51   10.69
   4   8  -2  105.95   14.25
   4   8  -2   86.57    8.43
   4   8   0  135.85   15.22
  -4   8   0  130.89    9.13
   4  -8   0  142.93   16.32
  -4  -8   0  128.09   12.06
  -4   8   0  128.55   14.81
  -4  -8   0  128.42   15.10
   4   8   0  165.34   16.73
   4  -8   0  136.32   10.46
  -4   8   0  117.51   13.21
   4  -8   2  103.41   14.57
   4   8   2  125.02   14.15
  -4   8   2  102.11    5.52
  -4   8   2   97.47   12.73
   4   8   2   98.20   10.33
   4  -8   2  100.37    9.71
  -4   8   2   99.48   13.11
  -4  -8   2   83.88   12.98
   4   8   2   96.03   13.17
   4  -8   4   92.38   13.82
   4   8   4   54.75    9.95
   4   8   4   61.77   10.71
  -4   8   4   63.96   11.63
   4   8   4   65.10   10.03
   4  -8   4   72.38   10.42
  -4  -8   4   78.41   12.42
   4  -8   6   67.13   13.57
   4   8   6   57.21   11.09
   4   8   6   41.05   11.49
   4   8   6   64.84    9.57
  -4  -8   6   58.34   10.95
  -4  -8   8   34.83    9.39
   4  -8   8   30.62   10.71
   4   8   8   28.00    8.60
   4  -9  -7   18.06   11.66
  -4  -9  -7   20.82    9.31
   4  -9  -5   28.22   10.87
  -4   9  -5   43.79   10.79
  -4   9  -5   38.84   10.56
   4   9  -5   39.26   11.83
  -4  -9  -5   56.05   12.07
   4  -9  -5   46.32   10.20
   4  -9  -3   62.07   12.94
  -4   9  -3   48.18   10.41
  -4   9  -3   66.09   12.05
  -4  -9  -3   64.21   13.10
   4   9  -3   73.64   13.38
   4  -9  -3   59.06   10.09
   4  -9  -1   66.07   12.93
  -4   9  -1   77.23   11.52
   4   9  -1   71.01   12.57
  -4   9  -1   68.08    8.02
  -4  -9  -1   82.38   10.33
  -4   9  -1   66.32   12.21
  -4  -9  -1   57.60   11.45
   4   9  -1   58.39   11.84
   4  -9  -1   58.97    8.57
  -4   9   1   82.63   12.00
  -4   9   1   61.05    6.08
   4   9   1   52.48   11.71
  -4  -9   1   73.60    9.56
  -4   9   1   63.37   11.73
   4   9   1   93.38   13.14
   4  -9   3   72.60   13.55
   4   9   3   72.89   12.27
   4   9   3   64.85    9.85
   4   9   3   59.86   11.48
  -4  -9   3   58.74   11.85
   4   9   3   70.77   11.70
   4  -9   5   35.46   10.79
   4   9   5   44.77   10.31
   4   9   5   33.24    9.40
   4   9   5   47.54    9.57
  -4  -9   5   48.93   11.24
   4  -9   7   21.94   12.10
   4   9   7   17.15    9.04
   4   9   7   29.61   11.70
  -4  -9   7    6.89    8.55
   4 -10  -4   34.65    8.48
  -4  10  -2   28.21    8.88
   4  10  -2   36.59   11.39
  -4 -10  -2   31.76    8.23
  -4  10  -2   21.22    9.96
   4  10  -2   26.33   10.82
   4 -10   0   49.07   13.27
  -4  10   0   48.74   10.57
   4  10   0   36.18   10.25
  -4 -10   0   48.90    8.70
  -4  10   0   33.87   10.67
  -4 -10   0   51.29   12.07
   4  10   0   38.91   10.38
  -4  10   2   33.45   10.22
   4  10   2   33.59    9.92
   4  10   2   41.13   11.20
   4  10   2   45.48   10.38
   4  10   4   32.18   10.07
   4  10   4   37.15    9.90
   4  10   4   30.18    9.37
  -4  11  -1   15.90    8.70
   4  11  -1   22.14   10.11
  -4  11   1   13.19    8.94
   4  11   1   13.48    8.26
   4  11   3   16.06    7.38
  -5   0 -10   46.66   10.63
   5   0 -10   48.00   10.15
   5   0  -8   97.26   21.13
  -5   0  -8  100.73   11.77
   5   0  -8  111.67   10.80
  -5   0  -8   86.69   10.69
   5   0  -8  109.51   16.80
   5   0  -8   96.32   12.35
   5   0  -8  116.64   14.35
  -5   0  -6  177.31   14.02
   5   0  -6  193.57   13.41
   5   0  -6  180.09   17.29
   5   0  -6  203.09   15.75
   5   0  -6  154.50   14.56
   5   0  -6  167.80   18.18
   5   0  -6  173.06   15.71
  -5   0  -6  183.10   14.98
   5   0  -6  199.24   25.10
   5   0  -4  304.84   17.06
   5   0  -4  339.36   18.11
   5   0  -4  299.02   18.75
  -5   0  -4  265.66   17.13
  -5   0  -4  345.95   20.63
   5   0  -4  334.41   20.47
   5   0  -4  323.25   19.45
   5   0  -4  295.81   21.08
   5   0  -4  306.34   20.08
  -5   0  -4  318.85   14.99
   5   0  -4  333.32   21.28
   5   0  -4  312.87   27.17
  -5   0  -4  304.46   17.82
  -5   0  -2  534.55   25.06
   5   0  -2  621.00   25.59
  -5   0  -2  572.86   24.92
   5   0  -2  628.32   26.79
  -5   0  -2  560.95   26.96
   5   0  -2  574.09   26.93
  -5   0  -2  583.28   22.08
  -5   0  -2  573.87   25.64
   5   0  -2  587.99   27.25
   5   0  -2  564.84   30.71
   5   0   0  643.55   26.82
  -5   0   0  646.71   26.07
   5   0   0  646.24   27.33
  -5   0   0  593.26   27.70
  -5   0   0  582.58   25.36
   5   0   0  619.84   27.91
  -5   0   0  577.62   23.41
  -5   0   0  615.37   28.20
   5   0   0  608.70   23.57
   5   0   2  567.02   26.94
   5   0   2  562.00   24.31
  -5   0   2  571.74   26.73
  -5   0   2  580.53   28.74
   5   0   2  575.39   26.59
  -5   0   2  600.53   25.20
   5   0   4  309.92   20.21
   5   0   4  296.88   16.03
  -5   0   4  276.82   17.92
   5   0   4  308.67   18.85
  -5   0   4  309.63   19.01
   5   0   6  195.08   17.08
   5   0   6  190.22   10.24
   5   0   6  216.82   15.18
  -5   0   6  192.66   14.53
  -5   0   8  110.01   10.81
   5   0   8   95.67   10.72
   5  -1  -9   95.66   23.17
  -5  -1  -9   83.31   10.90
  -5   1  -9   84.53   11.67
   5   1  -9   71.76    9.66
   5  -1  -9   69.35   10.32
   5  -1  -9   54.28   13.85
   5   1  -9   69.93   11.58
   5  -1  -9   65.77   12.01
   5   1  -9   60.25   12.16
  -5  -1  -7  183.44   14.12
   5  -1  -7  198.62   27.43
  -5   1  -7  182.67   15.01
   5   1  -7  188.31   14.76
   5  -1  -7  195.39   12.16
   5  -1  -7  174.86   19.07
   5   1  -7  137.86   16.68
   5   1  -7  200.47   15.29
   5  -1  -7  179.63   14.73
   5   1  -7  167.32   15.85
   5  -1  -7  185.65   14.91
   5  -1  -7  178.73   20.21
  -5  -1  -7  172.25   14.64
   5  -1  -7  177.07   16.81
   5   1  -7  184.85   17.45
  -5   1  -5  238.09   16.43
   5   1  -5  241.36   16.03
   5  -1  -5  234.27   13.34
   5  -1  -5  227.81   17.46
   5   1  -5  203.89   15.25
   5  -1  -5  210.46   16.19
   5   1  -5  213.18   16.28
  -5  -1  -5  216.21   16.26
   5  -1  -5  242.73   17.77
   5   1  -5  187.15   15.15
   5  -1  -5  207.82   15.52
   5   1  -5  199.93   16.90
   5  -1  -5  205.38   19.07
   5  -1  -5  244.62   16.98
   5  -1  -5  234.83   17.61
  -5   1  -5  229.00   11.55
   5   1  -5  238.15   18.09
   5   1  -5  229.10   18.92
   5  -1  -5  198.69   24.66
  -5  -1  -5  223.93   14.89
  -5   1  -5  243.74   17.38
   5   1  -3  344.48   19.49
  -5   1  -3  357.08   19.48
   5  -1  -3  377.13   17.86
   5  -1  -3  347.96   18.62
   5   1  -3  362.09   17.00
  -5  -1  -3  364.48   21.13
   5  -1  -3  327.81   19.24
  -5   1  -3  360.92   19.19
   5  -1  -3  368.09   21.29
   5   1  -3  355.77   20.80
  -5  -1  -3  340.35   13.33
   5  -1  -3  304.36   20.55
   5   1  -3  388.61   22.86
  -5   1  -3  352.61   15.15
   5  -1  -3  329.68   19.88
  -5  -1  -3  393.19   18.10
  -5   1  -3  382.15   21.68
   5  -1  -3  356.73   20.67
   5   1  -3  387.04   22.25
  -5  -1  -3  367.19   19.01
   5  -1  -3  342.28   27.17
  -5   1  -3  340.98   19.34
  -5  -1  -1  530.53   25.20
  -5   1  -1  557.56   24.01
   5   1  -1  605.13   26.84
   5  -1  -1  589.08   24.48
  -5  -1  -1  555.28   26.93
  -5   1  -1  605.53   25.04
   5  -1  -1  534.86   24.95
   5  -1  -1  506.67   25.25
   5   1  -1  578.36   27.07
  -5  -1  -1  594.26   23.03
   5  -1  -1  530.19   24.02
  -5   1  -1  559.07   26.86
  -5   1  -1  618.20   22.41
  -5  -1  -1  600.88   23.25
  -5  -1  -1  555.00   25.48
  -5   1  -1  541.60   25.56
   5  -1  -1  589.19   27.09
   5  -1  -1  551.64   29.94
   5   1  -1  556.92   25.26
   5  -1  -1  569.82   26.61
  -5   1   1  615.96   23.93
   5   1   1  633.85   24.57
   5  -1   1  596.94   25.86
   5   1   1  592.13   27.26
   5  -1   1  611.18   26.62
   5  -1   1  618.61   26.72
  -5  -1   1  572.91   26.50
  -5   1   1  603.75   24.38
  -5  -1   1  604.67   24.63
  -5   1   1  506.83   26.87
   5  -1   1  537.90   23.97
   5   1   3  371.93   22.10
   5  -1   3  316.06   19.93
  -5  -1   3  345.72   20.05
   5  -1   3  350.75   18.48
   5   1   3  344.60   20.20
  -5  -1   3  353.57   22.87
  -5  -1   3  383.13   20.23
   5  -1   3  334.33   20.09
  -5   1   3  382.26   21.19
  -5   1   5  234.86   16.40
   5   1   5  221.67   17.87
   5  -1   5  223.94   17.54
   5  -1   5  239.48   16.81
  -5  -1   5  230.07   16.18
   5   1   5  206.45   12.33
   5  -1   5  201.36   12.45
   5   1   5  238.76   16.10
  -5  -1   5  184.44   18.91
   5  -1   5  244.06   16.57
   5  -1   5  206.59   13.38
   5   1   7  171.26   13.68
   5   1   7  154.54    5.85
   5  -1   7  186.58   14.39
  -5  -1   7  179.86   13.72
   5   1   9   68.90   12.63
   5  -1   9   74.91   10.21
  -5  -1   9   70.64    8.90
  -5   2 -10   30.53   10.46
   5   2 -10   40.32   10.84
   5  -2  -8  140.14   26.03
  -5  -2  -8   78.98    9.93
  -5   2  -8   67.14   11.05
   5  -2  -8   97.53   10.61
  -5  -2  -8   76.53    5.29
  -5  -2  -8   98.58   11.47
   5  -2  -8  118.60   18.06
   5   2  -8   83.21   12.39
  -5   2  -8   79.73    4.99
   5  -2  -8   86.99   12.86
   5   2  -8   91.28   13.27
   5  -2  -8   84.04   10.78
   5  -2  -6  166.59   25.60
  -5   2  -6  170.32   14.71
   5   2  -6  202.42   15.38
   5  -2  -6  177.68   10.07
   5  -2  -6  206.24   19.52
  -5  -2  -6  184.27   15.42
   5   2  -6  219.79   16.11
   5   2  -6  168.43   15.41
   5  -2  -6  189.74   13.91
   5   2  -6  186.94   16.97
   5  -2  -6  210.48   20.63
  -5   2  -6  192.08    8.37
   5  -2  -6  197.46   16.81
   5   2  -6  183.06   16.70
   5  -2  -6  191.92   15.49
   5   2  -6  167.40   15.55
  -5  -2  -6  206.49   13.91
   5   2  -4  309.91   19.40
  -5  -2  -4  315.79   20.23
  -5   2  -4  282.21   17.67
   5  -2  -4  298.41   14.31
  -5  -2  -4  335.77   20.75
  -5   2  -4  330.22   20.42
   5  -2  -4  308.04   19.58
   5   2  -4  290.89   15.62
   5  -2  -4  325.91   19.74
  -5   2  -4  342.72   18.15
   5   2  -4  292.33   19.23
   5   2  -4  351.21   20.14
   5  -2  -4  291.24   19.99
   5   2  -4  341.18   22.21
   5  -2  -4  344.39   18.55
   5  -2  -4  357.89   24.09
  -5  -2  -4  327.48   13.41
  -5   2  -4  317.80   12.88
   5  -2  -4  318.62   20.04
   5   2  -4  306.55   20.54
   5  -2  -4  375.90   32.28
   5  -2  -4  315.37   21.29
  -5  -2  -4  308.39   16.79
   5  -2  -4  324.61   19.94
  -5   2  -4  295.91   18.67
   5  -2  -2  428.80   23.17
  -5   2  -2  429.06   23.71
   5   2  -2  457.96   23.75
  -5   2  -2  459.51   21.55
  -5  -2  -2  439.21   23.79
   5  -2  -2  442.50   19.58
  -5   2  -2  467.77   21.01
   5  -2  -2  438.04   22.22
  -5  -2  -2  428.55   21.95
   5   2  -2  447.21   23.54
   5  -2  -2  428.63   23.70
  -5  -2  -2  454.37   18.61
  -5   2  -2  431.77   17.21
   5  -2  -2  414.14   21.61
  -5  -2  -2  426.92   20.30
  -5  -2  -2  443.83   21.64
   5  -2  -2  453.19   31.30
   5   2  -2  480.45   23.32
  -5   2  -2  428.46   22.49
   5   2   0  413.68   19.74
  -5   2   0  405.76   22.88
   5  -2   0  388.52   21.95
  -5   2   0  390.98   18.72
  -5  -2   0  452.53   23.79
   5   2   0  407.62   22.90
   5  -2   0  445.74   20.59
  -5  -2   0  424.88   21.32
   5  -2   0  436.21   23.03
   5   2   0  404.11   22.27
  -5  -2   0  414.68   20.49
   5  -2   0  367.79   17.74
  -5   2   0  428.26   18.92
  -5  -2   0  362.24   18.99
  -5   2   0  407.80   22.77
   5  -2   0  424.17   26.49
   5  -2   2  485.01   24.56
  -5   2   2  448.89   24.11
  -5  -2   2  473.81   24.44
   5   2   2  482.34   25.34
   5  -2   2  460.28   23.12
   5   2   2  478.61   24.05
   5  -2   2  497.17   23.47
  -5  -2   2  429.50   23.88
  -5  -2   2  450.51   21.72
  -5   2   2  468.47   26.01
   5   2   4  342.94   22.03
  -5  -2   4  318.51   19.36
   5  -2   4  305.62   20.02
  -5   2   4  319.60   19.77
   5  -2   4  299.68   18.27
   5   2   4  288.32   18.59
   5  -2   4  308.80   16.89
  -5  -2   4  352.74   23.63
  -5  -2   4  317.08   19.07
  -5  -2   4  288.75   25.14
   5  -2   4  313.51   19.39
   5  -2   6  169.55   15.86
   5   2   6  192.16   14.95
  -5  -2   6  201.26   14.97
   5   2   6  193.53   10.64
   5  -2   6  203.12   11.77
   5  -2   6  177.28   14.89
  -5  -2   6  204.22   24.68
   5   2   6  183.66   14.94
   5  -2   6  180.28   16.33
   5   2   8   87.70   10.64
   5   2   8   76.11   12.29
   5   2   8   74.96   10.13
   5   2   8   68.73   21.22
  -5  -2   8   78.68    9.55
   5  -2   8   67.54    9.55
   5  -2   8   84.85   11.08
   5  -3  -9   62.45   22.81
  -5   3  -9   57.10   11.09
   5  -3  -9   35.33   12.52
   5   3  -9   56.12   12.01
   5  -3  -9   35.15   10.30
   5  -3  -7  133.28   24.28
  -5   3  -7  137.48   14.14
   5  -3  -7  133.20   13.56
  -5  -3  -7  142.47   14.27
  -5   3  -7  138.67   12.40
   5  -3  -7  135.04   11.12
   5  -3  -7  160.32   19.65
   5   3  -7  111.24   14.72
   5   3  -7  116.08   13.35
   5  -3  -7  121.56   14.60
   5  -3  -7  139.44   13.52
  -5  -3  -7  114.96   10.72
   5  -3  -5  190.63   26.58
  -5   3  -5  195.32   15.78
   5  -3  -5  167.00   14.52
   5   3  -5  181.69   15.70
  -5  -3  -5  187.21   15.98
   5  -3  -5  172.66    8.28
   5  -3  -5  200.88   16.87
   5   3  -5  188.57   15.63
   5  -3  -5  181.61   17.08
   5   3  -5  160.35   10.80
  -5   3  -5  166.23   12.28
   5  -3  -5  167.01   12.00
   5   3  -5  181.56   17.35
   5  -3  -5  151.93   17.71
   5  -3  -5  204.57   16.60
   5   3  -5  211.66   17.66
   5   3  -5  179.50   15.78
  -5  -3  -5  179.12   12.27
  -5  -3  -3  296.54   19.91
  -5  -3  -3  265.30   18.53
   5   3  -3  291.74   19.76
   5  -3  -3  279.94   18.82
  -5   3  -3  286.28   16.83
   5  -3  -3  290.78   13.21
   5  -3  -3  278.48   18.35
   5   3  -3  277.02   11.95
   5   3  -3  293.59   19.09
  -5   3  -3  283.37   16.01
   5  -3  -3  303.87   18.41
   5  -3  -3  303.19   20.01
   5  -3  -3  234.01   19.46
   5   3  -3  279.26   20.62
   5  -3  -3  260.28   17.20
  -5  -3  -3  301.63   16.29
   5   3  -3  296.94   19.20
   5   3  -3  273.59   19.14
   5  -3  -3  302.66   29.13
  -5   3  -3  262.72   17.90
   5  -3  -3  285.89   20.23
   5  -3  -1  394.81   22.19
   5   3  -1  406.86   23.36
  -5   3  -1  375.88   18.21
   5  -3  -1  451.84   23.97
   5  -3  -1  374.96   17.60
   5   3  -1  393.33   21.96
  -5  -3  -1  393.74   20.83
   5  -3  -1  409.96   20.73
   5  -3  -1  410.44   23.03
   5  -3  -1  356.44   20.71
  -5  -3  -1  402.53   19.56
   5  -3  -1  372.63   19.23
  -5  -3  -1  417.71   20.52
  -5   3  -1  353.17   21.02
   5   3  -1  385.18   22.71
   5   3  -1  378.79   19.27
  -5  -3  -1  396.13   22.71
   5   3   1  442.88   18.55
  -5   3   1  459.90   18.68
   5   3   1  433.98   24.75
   5  -3   1  469.44   21.56
  -5  -3   1  459.77   22.51
   5  -3   1  420.16   23.16
   5  -3   1  416.50   17.56
  -5  -3   1  447.70   23.04
  -5  -3   1  396.75   20.69
  -5   3   1  447.42   25.27
  -5  -3   1  474.95   23.56
  -5  -3   3  306.29   19.64
   5  -3   3  306.17   19.63
   5   3   3  290.50   20.25
   5  -3   3  314.84   19.25
   5   3   3  301.58   19.06
   5  -3   3  300.42   17.68
   5  -3   3  318.65   18.15
  -5  -3   3  316.94   21.20
  -5  -3   3  296.97   18.13
   5   3   3  313.61   19.96
  -5  -3   3  271.65   22.73
   5  -3   5  184.96   15.19
  -5  -3   5  168.37   14.59
   5  -3   5  188.76   16.92
   5  -3   5  212.46   16.90
   5   3   5  177.00   14.81
   5  -3   5  196.21   13.49
   5   3   5  161.83   14.63
  -5  -3   5  204.84   23.00
   5  -3   7  121.56   13.40
  -5  -3   7  125.97   11.94
   5   3   7  103.42   14.11
   5   3   7  117.21   22.08
   5   3   7  121.87    6.69
   5   3   7   99.71   11.34
   5  -3   7  114.26   12.04
   5   3   9   60.50   12.32
   5   3   9   34.89   17.39
  -5  -3   9   47.65    7.87
   5  -3   9   39.13    8.65
   5  -4  -8   98.06   24.40
  -5   4  -8   46.55   10.76
  -5   4  -8   64.62    9.12
   5  -4  -8   44.01   14.05
   5   4  -8   65.25   12.59
   5  -4  -8   72.32   12.43
  -5  -4  -8   63.72   10.98
   5  -4  -8   64.46   10.67
   5  -4  -6  124.03   24.40
  -5   4  -6  173.25   15.50
  -5  -4  -6  134.99   14.15
   5  -4  -6  143.67   14.26
   5  -4  -6  143.13   14.48
  -5   4  -6  124.78   10.61
   5  -4  -6  120.90    9.56
   5   4  -6  132.69   15.92
   5  -4  -6  132.77   18.10
   5  -4  -6  144.86   15.18
  -5  -4  -6  145.35   10.41
   5   4  -4  237.73   18.41
  -5   4  -4  213.15   15.50
   5  -4  -4  243.55   18.04
   5   4  -4  239.22   17.69
   5  -4  -4  263.24   19.13
   5  -4  -4  256.96   17.78
  -5   4  -4  242.42   13.94
   5   4  -4  250.52   20.45
   5  -4  -4  217.78   20.71
   5  -4  -4  205.56   12.47
   5  -4  -4  203.41   16.40
   5   4  -4  235.55   18.39
  -5  -4  -4  230.61   13.37
   5   4  -4  278.94   19.02
   5  -4  -4  240.29   28.54
  -5  -4  -4  238.34   18.30
  -5   4  -4  207.04   16.39
   5  -4  -2  323.42   20.81
   5   4  -2  285.81   20.20
  -5   4  -2  262.05   15.48
   5  -4  -2  279.63   20.27
   5  -4  -2  270.23   12.95
   5   4  -2  293.85   19.58
   5  -4  -2  327.40   20.16
   5   4  -2  280.86   10.15
   5  -4  -2  298.71   19.62
   5  -4  -2  289.69   17.78
  -5  -4  -2  257.22   17.41
   5  -4  -2  269.52   20.31
   5   4  -2  291.28   21.82
   5  -4  -2  253.24   16.22
   5   4  -2  290.90   19.76
  -5  -4  -2  310.39   20.31
   5   4  -2  304.25   17.25
  -5   4  -2  305.33   19.36
   5   4   0  247.45   13.62
   5  -4   0  237.52   17.29
   5   4   0  255.81   18.83
  -5   4   0  236.11   13.23
   5  -4   0  297.72   20.96
   5  -4   0  270.78   14.79
   5   4   0  224.68   17.09
   5  -4   0  266.70   18.66
  -5  -4   0  241.31   16.25
   5  -4   0  262.28   18.44
   5  -4   0  223.04   15.86
  -5  -4   0  255.17   16.91
   5  -4   0  212.24   13.09
   5   4   0  242.53   18.10
  -5   4   0  243.49   17.95
  -5  -4   0  243.24   17.89
  -5  -4   0  258.31   14.79
  -5   4   2  292.99   13.04
   5   4   2  299.55   20.78
   5  -4   2  303.09   21.57
   5  -4   2  293.98   17.85
   5   4   2  276.71   18.93
   5  -4   2  285.38   19.43
   5  -4   2  311.12   17.07
   5  -4   2  289.69   18.88
   5  -4   2  270.76   12.49
  -5  -4   2  277.25   19.29
  -5  -4   2  286.43   17.77
   5   4   2  276.69   19.28
  -5  -4   2  297.15   19.70
  -5  -4   2  280.47   20.97
   5  -4   4  236.71   18.07
   5   4   4  258.17   17.81
   5  -4   4  263.39   19.97
   5   4   4  184.94   22.31
   5  -4   4  237.72   16.65
   5  -4   4  239.64   16.43
   5   4   4  231.92   17.34
  -5  -4   4  266.37   24.24
  -5  -4   4  255.07   18.29
  -5  -4   6  133.93   13.15
   5   4   6  137.13   15.30
   5  -4   6  132.08   14.30
   5   4   6  138.17   22.44
   5   4   6  139.15   13.94
  -5  -4   8   62.16    9.75
   5   4   8   58.91   12.40
   5   4   8   22.72   14.32
   5  -4   8   45.18    9.36
   5  -5  -7   82.70   12.32
   5  -5  -7   36.33   18.39
  -5   5  -7   94.82   13.34
  -5   5  -7   82.94    8.44
  -5  -5  -7   85.38   12.03
   5  -5  -7   89.39   16.68
   5   5  -7   71.18   13.62
   5  -5  -7   93.78   13.45
   5   5  -5  115.60   14.34
   5   5  -5   97.17   13.15
  -5   5  -5   93.58   12.34
   5  -5  -5   89.94    6.78
   5  -5  -5  109.06   16.91
   5   5  -5   95.97   14.71
  -5  -5  -5   94.69    7.44
   5  -5  -5   89.53   12.11
  -5  -5  -5  101.15   13.07
   5  -5  -5   69.64   11.71
   5  -5  -5   84.40   21.60
   5   5  -3  169.51   16.40
  -5   5  -3  161.08   12.63
   5  -5  -3  132.45   15.12
   5  -5  -3  152.60   13.59
   5  -5  -3  169.85   18.33
   5   5  -3  178.24   17.62
   5  -5  -3  158.73   10.21
   5  -5  -3  141.78   12.79
  -5  -5  -3  162.70   15.86
   5   5  -3  137.97   12.83
  -5   5  -3  147.21   14.33
   5   5  -1  279.98   20.33
  -5   5  -1  238.88   13.76
   5  -5  -1  250.10   20.03
   5   5  -1  237.66   11.82
   5  -5  -1  257.10   13.22
  -5  -5  -1  269.19   17.51
   5  -5  -1  227.08   15.49
   5  -5  -1  248.05   19.44
  -5  -5  -1  262.19   19.38
   5  -5  -1  233.06   14.39
   5   5  -1  268.30   14.71
  -5  -5  -1  270.35   14.64
  -5   5   1  262.71   12.71
   5   5   1  265.54   11.88
   5   5   1  299.89   20.99
   5   5   1  238.64   18.65
   5  -5   1  286.19   15.22
  -5  -5   1  243.85   16.69
   5  -5   1  221.42   18.04
   5  -5   1  237.69   16.20
  -5  -5   1  244.29   18.36
  -5  -5   1  239.04   18.33
   5  -5   3  192.73   17.47
   5   5   3  155.42   18.43
   5  -5   3  165.51   13.47
   5  -5   3  191.80   16.29
   5  -5   3  153.93    8.97
  -5  -5   3  144.50   14.56
  -5  -5   3  168.26   18.59
  -5  -5   5   93.05   16.81
  -5  -5   5   87.34   11.59
   5   5   5   94.57   13.24
   5   5   5   49.68   14.28
   5  -5   5  104.98   11.74
   5  -5   5   81.45   12.38
   5  -5   7   63.01   11.09
   5   5   7   71.07   11.92
   5   5   7   60.27   17.20
  -5  -5   7   77.63   10.48
   5   5   7   77.53    7.44
   5  -5   9   43.08   10.45
  -5  -5   9   43.58    8.34
   5  -6  -8   28.33    9.40
  -5  -6  -8   28.73    8.70
   5  -6  -6   45.69   11.00
  -5  -6  -6   46.85   10.51
  -5   6  -6   47.38   10.53
   5  -6  -6   41.68   12.71
   5   6  -6   66.43   13.14
   5  -6  -6   64.84   12.01
   5  -6  -6   48.25   19.48
   5   6  -4   99.98   12.17
   5   6  -4  105.34   14.08
   5  -6  -4  111.69   17.16
  -5  -6  -4  138.13   15.22
   5  -6  -4   96.93   12.42
  -5  -6  -4   88.00    8.34
   5  -6  -4   80.97   21.64
   5  -6  -4  110.06   14.47
   5   6  -2  173.13   16.72
  -5   6  -2  173.34   12.50
   5  -6  -2  188.56   17.88
   5  -6  -2  145.96    8.71
   5  -6  -2  152.26   12.98
  -5  -6  -2  171.31   14.84
   5  -6  -2  142.53   17.51
  -5  -6  -2  196.96   17.62
   5  -6  -2  162.66   13.29
   5   6  -2  167.04   12.25
   5   6   0  177.36    9.65
   5   6   0  183.02   17.09
  -5   6   0  167.93   10.72
   5  -6   0  171.39   17.45
   5   6   0  160.90   10.42
  -5  -6   0  160.48   13.73
   5  -6   0  181.57   11.29
  -5  -6   0  191.94   17.38
   5  -6   0  159.62   10.99
  -5   6   0  184.00   16.48
  -5  -6   0  159.63   15.17
   5  -6   2  130.96   16.18
  -5   6   2  159.09    8.44
   5   6   2  155.59   15.33
   5  -6   2  166.79   12.56
  -5  -6   2  179.80   16.74
  -5   6   2  163.00   16.48
  -5  -6   2  167.18   18.28
  -5  -6   4  115.09   18.20
  -5  -6   4   87.88   12.05
   5   6   4   69.33   12.29
   5   6   4  105.33   16.21
   5  -6   4  112.80   15.00
   5  -6   6   51.58   11.66
  -5  -6   6   57.41   10.53
   5   6   6   85.36   13.40
   5   6   6   53.07   13.15
   5  -6   8   35.59   10.16
   5   6   8   24.35    9.72
   5   6   8    9.38   11.58
  -5  -6   8   39.99    9.07
   5  -7  -7   42.89   11.16
  -5  -7  -7   49.44   10.98
   5  -7  -7   43.43   10.76
  -5  -7  -5   50.45    8.91
   5  -7  -5   35.43   11.38
  -5  -7  -5   76.37   13.17
   5   7  -5   41.35   11.03
  -5   7  -5   52.15    9.83
   5  -7  -5   49.11   14.87
   5  -7  -5   58.49   10.96
   5  -7  -5   28.05   18.21
   5  -7  -3   62.14   12.68
   5   7  -3   67.34    9.65
  -5   7  -3   74.00   11.85
   5   7  -3   60.62   12.10
   5  -7  -3   75.58   10.35
  -5  -7  -3   74.37   10.72
  -5   7  -3   68.54   11.06
   5  -7  -3   52.45   13.44
   5   7  -3   61.69   12.80
   5  -7  -3   46.87    9.04
  -5  -7  -3   79.87   12.93
   5  -7  -1   80.38   13.09
  -5   7  -1   86.00    8.69
   5   7  -1   82.02   13.11
  -5  -7  -1   96.10   11.49
   5  -7  -1   80.92    9.75
  -5   7  -1  103.31   13.13
  -5  -7  -1  123.88   15.23
   5   7  -1  101.57   14.98
   5  -7  -1   90.43    9.63
  -5   7  -1  101.65   13.53
   5   7  -1   94.72    7.79
  -5  -7   1   87.60   13.58
  -5   7   1   82.98    7.07
  -5   7   1   76.84   11.87
   5   7   1   98.96   13.75
   5   7   1   86.34    9.18
  -5  -7   1  101.03   11.20
   5  -7   1   94.87    9.22
   5  -7   1   91.96    7.36
   5  -7   3   62.65   12.53
  -5  -7   3   71.46   15.18
   5   7   3   56.57   11.82
   5   7   3   65.43   11.39
   5  -7   3   71.36    9.86
  -5  -7   3   79.49   12.66
   5  -7   5   46.16   11.83
  -5  -7   5   44.03   10.10
   5   7   5   42.80   10.37
   5   7   5   67.10   12.90
   5  -7   7   41.54   10.82
  -5  -7   7   33.44    9.50
   5   7   7   22.88    9.70
   5   7   7   19.91   12.20
   5  -8  -6   18.39   10.07
  -5  -8  -6   14.59    8.88
  -5   8  -6   29.31    9.46
   5  -8  -6   19.26    8.49
   5  -8  -4   48.00   12.12
  -5   8  -4   57.71   11.42
   5   8  -4   53.40   12.74
  -5   8  -4   37.79    9.96
   5  -8  -4   34.98   12.59
   5   8  -4   47.00   12.02
   5  -8  -4   28.62    8.97
  -5  -8  -4   34.67   10.38
   5  -8  -2   71.95   13.85
  -5   8  -2   58.84   11.20
  -5   8  -2   64.23    8.78
  -5  -8  -2   52.94    9.87
  -5   8  -2   76.90   12.24
   5   8  -2   62.17   12.57
   5  -8  -2   57.12    9.07
  -5  -8  -2   60.36   11.98
   5  -8   0   75.97   14.16
  -5   8   0   56.81   11.69
   5   8   0   61.74   12.31
  -5   8   0   48.82    6.78
  -5  -8   0   47.37    8.97
  -5   8   0   46.06   10.69
   5   8   0   70.99   13.32
  -5  -8   0   91.32   14.00
   5  -8   2   34.47   11.73
  -5  -8   2   45.77   13.36
  -5   8   2   72.59   12.37
   5   8   2   75.22   12.30
  -5  -8   2   70.47   12.82
   5  -8   4   49.87   13.14
   5   8   4   43.76   11.06
   5   8   4   43.36   11.33
  -5  -8   4   39.49    9.90
   5  -8   6   32.18   11.59
  -5  -8   6   17.12    9.06
   5   8   6   17.34    8.85
   5   8   6   35.75   12.34
   5   8   6   17.66    7.56
  -5   9  -5   15.13    9.13
   5  -9  -5   18.19    8.57
  -5   9  -3   29.99    9.29
  -5  -9  -3   25.53    8.58
  -5   9  -3   30.13   10.03
   5  -9  -3   30.93    8.24
   5  -9  -1   26.25   11.24
  -5   9  -1   15.34    9.06
   5   9  -1   20.28    9.12
  -5  -9  -1   27.40    8.43
  -5   9  -1   26.63    9.93
   5   9  -1   36.02   10.51
  -5  -9  -1   27.72   10.07
  -5   9   1   34.72   10.58
   5   9   1   33.89   10.95
  -5   9   1   22.61    9.13
   5   9   1   26.15   10.74
   5   9   3   47.95   11.89
   5   9   3   18.85    9.26
   5   9   5   34.66   10.29
  -5 -10  -2   17.08    8.10
   5  10   0   15.05    8.72
  -5  10   2   21.97    9.51
   5  10   2   14.17    8.35
   5  10   4    1.51    7.73
  -6   0  -8   57.74   10.82
  -6   0  -8   38.26    8.75
   6   0  -8   56.38   11.07
   6   0  -8   61.51   12.61
   6   0  -6  138.10   22.63
   6   0  -6  148.44   12.29
  -6   0  -6   97.19   11.52
   6   0  -6   84.33   12.69
  -6   0  -6   86.73   11.94
   6   0  -6  119.71   13.46
   6   0  -6  110.30   16.03
  -6   0  -6  127.74    9.93
   6   0  -6  113.68   14.39
  -6   0  -6  121.20   13.47
   6   0  -4  157.42   13.12
   6   0  -4  156.62   13.48
  -6   0  -4  161.64   14.02
   6   0  -4  154.43   15.26
  -6   0  -4  156.74   15.78
  -6   0  -4  158.38   11.30
   6   0  -4  148.15   15.16
  -6   0  -4  146.08   13.51
   6   0  -4  167.77   20.62
  -6   0  -2  213.07   15.90
   6   0  -2  194.85   14.88
  -6   0  -2  204.05   15.35
  -6   0  -2  174.08   16.09
  -6   0  -2  176.81   12.31
  -6   0  -2  171.44   15.33
   6   0  -2  186.71   16.23
   6   0  -2  187.02   17.58
   6   0   0  212.81   16.01
  -6   0   0  227.65   16.07
   6   0   0  225.36   16.68
   6   0   0  266.11   18.22
  -6   0   0  214.73   17.57
   6   0   0  224.80   18.19
  -6   0   0  231.06   14.90
  -6   0   0  199.99   17.31
   6   0   2  202.70   16.64
   6   0   2  185.83   14.96
  -6   0   2  169.96   15.62
  -6   0   2  170.77   14.05
   6   0   4  162.01   15.85
   6   0   4  153.26   12.72
  -6   0   4  142.61   14.44
   6   0   6  125.00   10.18
  -6   0   6  136.40   13.62
  -6   0   8   57.18    9.44
   6   0   8   35.91   11.65
   6  -1  -9   34.69   19.02
  -6  -1  -9   23.56    8.35
  -6   1  -9   24.29    9.83
   6   1  -9   22.85    8.42
   6  -1  -7   42.77   17.18
  -6  -1  -7   47.98    9.14
  -6   1  -7   61.48   10.84
  -6  -1  -7   61.17   10.66
   6   1  -7   52.05    8.95
  -6   1  -7   48.92    9.94
   6  -1  -7   56.96   13.21
   6  -1  -7   44.86    9.23
   6   1  -7   64.65   11.66
   6  -1  -7   42.81   10.30
   6   1  -7   40.16   10.36
   6  -1  -5  107.86   20.01
  -6   1  -5  136.71   14.73
   6   1  -5  112.27   12.79
   6  -1  -5  108.52    9.98
   6  -1  -5  104.49   12.93
   6   1  -5   96.26   11.41
  -6   1  -5   93.28   11.36
  -6  -1  -5  108.04   12.69
  -6  -1  -5  132.91   14.46
   6   1  -5  121.25   14.28
   6  -1  -5  127.68   13.21
   6  -1  -5  138.59   16.24
  -6   1  -5  117.78    8.64
  -6  -1  -5  105.68   10.26
   6  -1  -5  106.86   13.27
  -6  -1  -5  107.31   11.79
  -6   1  -5  127.30   13.11
   6   1  -3  176.96   14.82
   6  -1  -3  204.62   13.83
   6  -1  -3  165.07   13.88
   6   1  -3  177.85   12.54
  -6   1  -3  194.27   14.79
  -6  -1  -3  164.66   14.67
  -6  -1  -3  175.54   16.25
   6   1  -3  190.28   17.16
   6  -1  -3  182.41   16.35
  -6   1  -3  200.63   11.96
  -6  -1  -3  171.99   12.71
   6  -1  -3  157.75   15.26
  -6  -1  -3  167.83   14.49
  -6   1  -3  175.22   15.30
   6   1  -3  181.64   16.38
  -6   1  -3  185.83   16.64
   6  -1  -3  186.09   21.02
   6  -1  -1  256.10   18.40
  -6  -1  -1  229.15   16.97
  -6   1  -1  255.19   16.74
   6   1  -1  298.00   19.20
   6  -1  -1  228.15   15.84
  -6  -1  -1  224.86   17.82
   6  -1  -1  215.10   17.31
  -6  -1  -1  222.03   14.73
  -6   1  -1  241.99   14.67
  -6  -1  -1  242.37   15.12
  -6  -1  -1  231.60   17.56
  -6   1  -1  248.37   19.08
  -6   1  -1  229.19   17.88
   6  -1  -1  204.09   18.24
   6   1  -1  233.37   17.13
   6   1   1  236.35   15.79
   6  -1   1  245.72   17.38
   6   1   1  245.84   18.17
   6  -1   1  246.27   17.45
   6  -1   1  216.41   16.86
  -6  -1   1  229.96   17.61
  -6   1   1  232.55   15.45
  -6  -1   1  231.76   15.75
  -6   1   1  241.18   19.13
   6  -1   1  201.10   12.67
   6   1   3  169.43   16.24
   6  -1   3  176.41   15.83
  -6  -1   3  168.99   15.49
   6   1   3  174.13   14.11
   6  -1   3  190.30   15.04
  -6  -1   3  157.69   17.08
  -6   1   3  157.66   15.07
  -6   1   5  129.14   13.85
   6   1   5  117.72   14.68
   6  -1   5  129.71   15.10
   6   1   5  108.38   10.77
   6  -1   5  129.47   11.53
  -6  -1   5  124.69   13.47
  -6  -1   7   61.97   10.07
   6  -1   7   70.07   13.02
  -6  -1   9   40.41    8.29
   6  -1   9   30.01    9.30
   6  -2  -8   52.56   20.57
  -6  -2  -8   47.96    9.16
  -6   2  -8   40.58   10.48
   6   2  -8   47.73    9.83
  -6   2  -8   51.51   10.01
   6  -2  -8   23.53   10.79
   6   2  -8   41.08   10.95
   6  -2  -8   42.00   10.52
   6  -2  -8   51.26   10.16
  -6  -2  -8   37.48    9.23
   6  -2  -6  106.78   21.57
   6   2  -6  117.92   12.74
  -6  -2  -6   74.35    9.73
  -6   2  -6  102.11   12.96
  -6   2  -6   86.74   10.83
  -6  -2  -6  116.70   13.98
   6  -2  -6   89.87   15.38
   6  -2  -6   88.52   10.53
   6   2  -6  105.42   14.17
  -6   2  -6   92.12    6.54
   6  -2  -6   92.56   13.56
   6  -2  -4  125.12   20.40
   6   2  -4  111.88   13.17
   6  -2  -4  143.12   10.72
  -6   2  -4  119.91   13.91
   6  -2  -4  121.56   13.24
   6   2  -4  136.82   11.08
  -6  -2  -4  169.71   16.01
  -6   2  -4  143.49   12.67
  -6  -2  -4  142.80    8.47
   6   2  -4  131.19   15.40
   6  -2  -4  166.46   14.22
   6  -2  -4  171.39   17.15
  -6   2  -4  139.90    9.18
   6  -2  -4  109.68   13.15
  -6  -2  -4  128.23   11.88
  -6  -2  -4  135.20   12.67
  -6   2  -4  145.65   14.57
   6  -2  -2  110.60   17.44
  -6   2  -2  155.85   13.07
   6   2  -2  150.67   14.62
  -6   2  -2  172.75   16.09
   6  -2  -2  142.88   11.70
  -6  -2  -2  164.03   15.58
  -6  -2  -2  134.69   13.11
  -6  -2  -2  162.86   11.80
   6  -2  -2  157.86   14.21
  -6   2  -2  147.34   10.59
  -6  -2  -2  133.23   13.33
  -6  -2  -2  133.63   12.01
   6  -2  -2  139.48   13.28
  -6   2  -2  144.71   14.08
   6   2  -2  160.54   14.70
   6   2   0  181.78   13.84
  -6   2   0  189.65   13.68
  -6   2   0  158.22   15.21
   6   2   0  181.18   16.25
   6  -2   0  183.26   14.34
  -6  -2   0  171.27   15.78
  -6  -2   0  170.74   14.39
   6  -2   0  193.02   16.40
  -6  -2   0  172.43   14.19
  -6   2   0  191.19   13.18
  -6  -2   0  189.01   14.12
  -6   2   0  173.65   16.25
   6  -2   0  191.09   18.20
  -6   2   2  146.32   14.70
   6   2   2  182.21   16.81
   6  -2   2  178.22   15.17
  -6  -2   2  184.45   16.40
   6  -2   2  147.03   14.37
  -6  -2   2  175.32   16.45
   6  -2   2  135.77   13.12
   6   2   4  119.90   14.65
   6  -2   4  131.25   14.43
  -6   2   4  158.89   15.04
  -6  -2   4  139.85   14.08
   6  -2   4  122.31   12.20
   6  -2   4  131.86   11.02
   6  -2   6  115.64   14.64
   6   2   6   85.30    8.88
  -6  -2   6  107.34   12.34
   6  -2   6  101.26   10.16
  -6  -2   8   43.52    8.92
   6   2   8   50.73   11.88
   6  -2   8   44.36   10.73
   6   3  -9   19.64    8.42
  -6   3  -9   25.10    8.19
   6  -3  -7   29.16   15.80
  -6  -3  -7   43.76    8.30
  -6   3  -7   41.19   10.72
   6   3  -7   44.55   11.02
  -6  -3  -7   34.09    8.99
  -6   3  -7   45.03    8.43
   6  -3  -7   75.09   14.99
   6   3  -7   43.93   11.60
   6  -3  -7   45.28   10.57
   6  -3  -7   45.06   10.68
   6  -3  -5  124.05   23.34
   6   3  -5  116.74   13.91
  -6   3  -5   98.10   10.77
   6  -3  -5  101.96   10.86
   6   3  -5  123.09   16.29
   6  -3  -5  132.63   16.77
  -6  -3  -5  108.85    8.26
   6  -3  -5  108.77   13.29
  -6  -3  -5   91.20   10.64
  -6  -3  -5  106.01   14.06
  -6   3  -5  116.26   13.63
   6  -3  -3  125.23   21.32
   6   3  -3  159.07   15.58
  -6  -3  -3  128.87   14.71
   6  -3  -3  148.38   10.61
   6   3  -3  146.50    9.63
  -6  -3  -3  142.81   13.82
   6  -3  -3  181.92   17.33
  -6  -3  -3  130.83   10.49
   6   3  -3  179.34   18.29
  -6  -3  -3  145.78   13.37
   6  -3  -3  105.49   12.44
   6   3  -3  145.79   14.53
  -6   3  -3  164.35   15.37
  -6   3  -1  140.91   11.87
   6   3  -1  167.71   16.10
  -6  -3  -1  149.62   15.27
   6  -3  -1  154.31   11.94
  -6  -3  -1  140.49   13.37
  -6  -3  -1  129.40   11.72
   6  -3  -1  136.07   12.55
  -6   3  -1  161.42   15.74
   6   3  -1  138.53   12.82
   6  -3  -1  122.60   18.12
  -6   3   1  149.01   11.08
   6   3   1  133.88   11.12
   6   3   1  147.60   15.29
   6  -3   1  167.10   13.72
   6  -3   1  151.06   15.05
  -6  -3   1  137.94   13.86
  -6   3   1  118.87   14.24
   6   3   3  135.00   15.11
  -6  -3   3  134.63   14.66
   6  -3   3  171.80   15.30
  -6  -3   3  155.39   16.72
  -6  -3   5  104.29   13.12
   6  -3   5  109.35   13.71
   6  -3   5   82.74   11.08
  -6  -3   5   92.46   17.29
  -6  -3   7   41.11    8.99
   6   3   7   33.71   10.80
   6   3   7   53.24   18.71
   6  -3   7   62.54   11.50
  -6  -3   9   20.80    7.06
   6  -3   9   26.76    9.02
  -6  -4  -8   33.18    9.19
   6   4  -8   24.25    9.28
  -6   4  -8   23.04    6.81
   6  -4  -8   22.58    9.18
   6  -4  -6   54.09   19.78
  -6   4  -6   47.62   11.39
   6   4  -6   65.36   11.48
  -6   4  -6   62.89    8.70
   6  -4  -6   48.60   12.75
   6   4  -6   85.78   14.24
  -6  -4  -6   53.99   11.09
   6  -4  -6   64.29   11.13
   6  -4  -6   66.42   12.26
   6  -4  -4   67.95   18.26
  -6   4  -4   78.59   12.21
   6   4  -4   94.10   13.08
  -6  -4  -4   99.99   12.78
  -6  -4  -4  105.96   13.87
   6  -4  -4   77.48    9.11
   6  -4  -4   73.14   13.28
   6   4  -4   83.90   13.88
  -6  -4  -4   91.54    9.93
   6  -4  -4   99.18   12.17
   6  -4  -4   92.88   13.58
  -6  -4  -2  116.88   14.23
  -6   4  -2  106.93   11.00
   6   4  -2   95.34   11.39
   6  -4  -2  122.41   15.19
   6  -4  -2  112.52    9.20
   6   4  -2  113.69    7.31
   6   4  -2  109.28   13.59
  -6  -4  -2  116.42   12.61
  -6  -4  -2   96.83   10.69
   6  -4  -2   97.86   12.56
   6   4  -2  105.03   14.46
   6  -4  -2  119.78   11.94
  -6   4  -2  130.10   14.13
   6  -4  -2  127.10   21.11
  -6  -4   0  137.12   14.59
   6   4   0  138.84   11.26
  -6   4   0  131.01   10.94
   6   4   0  122.56   14.79
   6  -4   0  117.36   10.82
  -6  -4   0  116.72   12.45
   6  -4   0  109.65   10.87
  -6  -4   0  126.06   13.08
  -6   4   0  113.88   14.32
  -6   4   2  109.42   14.13
   6   4   2  118.77   14.48
   6  -4   2  103.90   11.80
   6  -4   2   99.55   11.18
  -6  -4   2  105.55   13.37
  -6  -4   2  122.76   14.15
   6  -4   2   99.26   14.04
  -6  -4   2  115.58   14.46
   6   4   4   91.71   18.43
  -6  -4   4   84.34   12.21
   6  -4   4   82.59   11.92
   6  -4   4   82.78   13.93
  -6  -4   4  117.00   17.78
   6   4   6   50.92   11.27
   6   4   6   77.35   20.04
   6  -4   6   62.81    9.57
  -6  -4   6   56.47   11.03
   6  -4   6   49.26   12.03
  -6  -4   8   45.12    9.52
   6  -4   8   24.85   10.15
   6  -5  -7    4.08   14.76
   6   5  -7   30.61   10.89
  -6   5  -7   18.97    5.58
  -6  -5  -7   21.12    9.01
   6  -5  -7   20.50   11.03
   6  -5  -7   15.27    8.37
   6  -5  -7   19.22    9.77
   6  -5  -5   61.12   18.76
  -6   5  -5   44.58   10.75
   6   5  -5   53.59   11.52
  -6  -5  -5   59.28   11.44
   6  -5  -5   37.46   11.80
   6   5  -5   52.46   12.42
   6  -5  -5   53.97   10.71
   6  -5  -5   57.46   11.71
   6   5  -3   75.13   10.86
  -6   5  -3   77.45   12.08
   6   5  -3   82.66   13.18
  -6  -5  -3   82.98   13.23
  -6  -5  -3   69.71   11.08
   6  -5  -3   82.12    8.70
   6  -5  -3   82.38   13.52
   6   5  -3   89.45   13.98
   6  -5  -3   71.64   10.23
   6  -5  -3   81.12   14.21
   6  -5  -3   93.44   21.16
  -6   5  -1   98.52    9.95
   6   5  -1  110.54   14.14
  -6  -5  -1   77.11   12.49
   6  -5  -1  114.26   10.11
   6   5  -1   84.69    9.27
  -6  -5  -1   90.56   11.50
  -6  -5  -1  103.32   12.08
   6  -5  -1   89.37   11.89
   6  -5  -1   81.12    9.55
  -6   5  -1  106.41   13.92
   6  -5  -1  101.29   14.11
   6   5  -1  102.86   10.18
  -6   5   1  107.38    9.26
   6   5   1   94.78    8.18
   6   5   1   88.16   13.04
   6  -5   1   97.21   10.29
   6   5   1   73.12   12.94
   6  -5   1   99.09    9.85
  -6  -5   1   84.90   11.16
  -6  -5   3   99.28   15.62
   6   5   3   82.08   16.08
  -6  -5   3   80.99   12.40
   6  -5   3   70.60   12.98
   6   5   5   46.11   11.15
   6   5   5   43.93   13.83
  -6  -5   5   69.91   11.98
   6  -5   5   51.93   12.84
   6   5   7   34.62   17.30
  -6  -5   7   38.84    9.65
   6  -5   7   29.95   11.15
   6  -6  -6   16.28   13.66
  -6  -6  -6   39.76    9.87
   6  -6  -6   31.60   12.17
   6  -6  -6   21.62    8.27
   6  -6  -6   26.69    9.85
  -6   6  -4   42.73   11.05
   6   6  -4   43.95   11.71
  -6  -6  -4   27.10    9.16
  -6  -6  -4   40.73   10.54
   6  -6  -4   43.44   12.11
   6   6  -4   50.36   12.91
   6  -6  -4   35.29    8.61
   6  -6  -4   50.27   11.99
   6  -6  -4   10.83   12.62
   6   6  -2   53.03    8.47
  -6  -6  -2   41.02   10.62
   6   6  -2   57.46   11.80
  -6  -6  -2   43.12    9.29
   6  -6  -2   63.05   11.95
   6  -6  -2   52.00    8.39
   6  -6  -2   43.57   11.73
  -6  -6   0   60.76    9.02
   6   6   0   77.77    7.72
  -6   6   0   71.09   12.55
  -6  -6   0   52.70   11.50
  -6   6   0   69.23    8.20
   6   6   0   58.67   11.66
  -6  -6   0   70.57   10.76
   6  -6   0   64.26   10.38
   6  -6   0   59.37    7.88
   6  -6   0   81.62   13.92
  -6  -6   2   53.90   11.78
  -6   6   2   53.51   11.97
  -6  -6   2   59.14   11.60
   6   6   2   45.13   10.49
   6  -6   2   56.92    8.67
   6  -6   2   49.09   12.41
  -6  -6   4   25.20   10.98
   6   6   4   52.40   11.33
  -6  -6   4   55.89   11.51
   6   6   4   46.53   13.22
   6  -6   4   46.79   11.61
   6   6   6   24.44   14.27
  -6  -6   6   26.59    8.89
   6  -6   6   18.39   10.29
   6  -6   8   21.23   10.16
  -6  -6   8   19.34    8.29
   6  -7  -5   17.84   10.42
  -6  -7  -5   30.22   10.28
   6  -7  -5   15.82   11.16
   6  -7  -5   18.87    8.76
   6  -7  -5   12.23   15.29
  -6  -7  -3   52.16   12.32
  -6   7  -3   36.70   10.75
   6   7  -3   47.52   12.09
  -6  -7  -3   34.62    9.67
   6  -7  -3   38.54   11.96
   6   7  -3   30.53   12.13
   6  -7  -3   33.18    8.66
   6  -7  -3   52.97   12.64
  -6  -7  -1   61.35   12.67
  -6   7  -1   44.49   10.87
   6   7  -1   63.49   12.56
  -6   7  -1   50.20    7.74
  -6  -7  -1   36.92    9.35
   6  -7  -1   52.33   10.78
   6   7  -1   33.48   11.42
   6  -7  -1   42.42   12.10
  -6   7   1   37.24   11.06
  -6  -7   3   44.34   10.85
   6   7   3   12.91    8.71
   6  -7   3   47.20   12.44
   6  -7   5   16.67   10.70
  -6  -7   5   13.62    8.16
   6  -8  -4   13.23   10.46
   6  -8  -4   27.32    8.16
  -6  -8  -2   19.65    8.42
   6  -8  -2   25.21   12.32
  -6   8   0   33.06   10.78
  -6  -8   0   22.32    7.88
   6   8   0    7.51    8.91
  -6   8   2   11.17    9.26
  -6  -9  -1   12.87    7.88
  -7   0  -8    8.97    7.85
   7   0  -8    5.49    8.41
  -7   0  -6   33.36    9.64
  -7   0  -6   28.38    9.35
  -7   0  -6   31.05    9.13
   7   0  -6   34.05    9.82
  -7   0  -4   60.73   10.90
   7   0  -4   49.65    8.95
  -7   0  -4   45.91   10.31
  -7   0  -4   59.33   10.26
   7   0  -4   38.71    9.96
  -7   0  -4   48.39    7.56
  -7   0  -2   85.95   13.06
  -7   0  -2   82.95   12.51
   7   0  -2   80.44   11.39
  -7   0  -2   66.93   10.71
  -7   0  -2   83.28    9.99
  -7   0   0   98.78   13.79
   7   0   0  105.92   13.34
  -7   0   0   94.68   13.42
  -7   0   2   76.91   12.50
   7   0   2   86.49   12.91
   7   0   4   49.13   11.15
  -7   0   4   46.65   10.64
   7   0   4   43.14    9.78
  -7   0   6   29.60    9.04
   7   0   6   31.87   10.54
   7  -1  -7    9.68   13.62
  -7  -1  -7   21.22    8.77
  -7   1  -7   41.15    9.79
  -7   1  -7   26.75    8.73
  -7  -1  -7   25.74    9.04
   7  -1  -7   11.35    7.63
   7   1  -7   22.84    9.10
   7  -1  -5   52.11   15.77
  -7  -1  -5   41.17    9.29
  -7   1  -5   54.16   10.98
   7   1  -5   35.97    8.74
   7  -1  -5   48.01    8.09
  -7   1  -5   45.79   10.89
  -7   1  -5   40.45    8.81
  -7  -1  -5   39.15    9.49
   7   1  -5   42.93   11.33
   7  -1  -5   39.01    9.62
  -7  -1  -5   52.36   11.28
   7  -1  -5   43.16   11.29
   7  -1  -3   46.98   13.18
  -7  -1  -3   56.15   11.13
  -7   1  -3   62.11   11.43
   7   1  -3   62.25   10.49
   7  -1  -3   59.55    9.24
  -7   1  -3   57.45   10.14
  -7  -1  -3   67.38   10.80
  -7  -1  -3   50.25   10.89
   7   1  -3   74.02   12.72
  -7   1  -3   61.66    7.93
  -7   1  -3   71.39   12.53
   7  -1  -1   57.20   10.37
  -7  -1  -1   63.38   11.09
  -7   1  -1   90.89   13.05
   7   1  -1   95.69   12.86
   7  -1  -1   79.59   10.42
  -7  -1  -1   74.82   12.55
  -7   1  -1   83.41    9.81
  -7   1  -1   71.82   12.38
   7   1   1   73.55   11.95
   7  -1   1   80.64   11.97
  -7  -1   1   70.15   11.48
  -7   1   3   60.35   11.53
   7   1   3   78.58   13.14
   7  -1   3   71.78   12.24
  -7  -1   3   55.98   11.35
   7   1   3   54.31   10.26
   7   1   5   49.37   12.06
   7  -1   5   64.34   13.01
  -7   1   5   38.79    9.71
   7  -1   5   45.24    9.11
  -7  -1   5   45.90   10.20
  -7  -1   7   27.35    8.28
   7  -2  -6   37.66   16.92
  -7  -2  -6   18.75    7.71
  -7   2  -6   20.49    8.88
   7   2  -6   20.20    7.84
  -7   2  -6   26.68    8.26
  -7  -2  -6   21.20    9.39
  -7  -2  -6   24.84    8.64
   7  -2  -6   17.10    9.74
   7  -2  -6   27.66    8.29
   7   2  -6   47.73   12.14
   7  -2  -6   33.49   10.92
   7  -2  -4   53.04   15.49
  -7  -2  -4   52.23    9.90
  -7   2  -4   36.37    9.27
   7   2  -4   37.94   10.17
   7  -2  -4   60.32    8.36
  -7  -2  -4   29.55    9.45
  -7   2  -4   50.26    9.28
  -7  -2  -4   52.02   10.80
   7  -2  -4   45.21   10.16
   7   2  -4   62.49   12.77
   7  -2  -4   54.41   10.11
   7  -2  -4   68.40   11.98
   7  -2  -2   45.99   12.36
  -7  -2  -2   43.85    9.65
  -7   2  -2   67.15   11.88
  -7   2  -2   59.00   11.36
  -7  -2  -2   78.01   12.45
   7   2  -2   74.23   12.17
   7  -2  -2   70.50    9.40
  -7  -2  -2   63.76    8.35
  -7   2  -2   68.78    8.56
   7  -2   0   41.95    9.59
  -7   2   0   49.49   11.20
  -7  -2   0   61.57   11.12
   7   2   0   74.58   11.77
   7  -2   0   63.66    9.80
  -7  -2   0   66.43   10.40
  -7   2   0   48.04   10.44
  -7  -2   2   55.88   10.80
   7   2   2   42.32   10.19
   7  -2   2   72.31   11.44
  -7   2   2   48.54   10.71
  -7  -2   2   67.75   11.89
   7   2   4   35.68   10.45
   7  -2   4   55.14   11.18
  -7  -2   4   44.49   10.05
   7   2   4   42.24    8.69
   7  -2   6   32.49   10.91
  -7  -2   6   21.90    9.10
  -7  -2   8   12.58    7.21
   7  -2   8   16.39   10.20
   7  -3  -7   36.10   17.47
   7   3  -7   13.84    7.93
  -7   3  -7   21.06    8.11
  -7  -3  -7   17.23    8.97
   7  -3  -7   13.22    8.77
   7  -3  -5   21.56   14.31
  -7   3  -5   32.51    9.79
  -7  -3  -5   36.54   10.22
   7   3  -5   37.93   10.73
  -7   3  -5   47.28    9.39
   7  -3  -5   19.24    9.30
   7  -3  -5   41.75    8.72
   7   3  -5   40.35   11.54
   7  -3  -5   38.63   10.59
   7  -3  -3   35.38   14.91
  -7  -3  -3   55.38   11.29
  -7  -3  -3   41.57    9.81
  -7   3  -3   43.76   10.45
   7   3  -3   70.37   12.07
   7  -3  -3   47.34    7.43
  -7  -3  -3   50.61   10.32
   7  -3  -3   43.28    9.60
   7   3  -3   50.99   12.07
   7  -3  -3   48.06   10.26
   7  -3  -1   39.62   12.33
  -7   3  -1   64.28   12.07
   7   3  -1   73.69   12.89
   7  -3  -1   63.15    9.41
  -7  -3  -1   57.96   10.04
  -7  -3  -1   58.14    9.61
   7  -3  -1   51.19    8.80
  -7  -3  -1   56.50   11.01
  -7   3   1   34.53   10.26
   7   3   1   74.12   10.09
   7   3   1   76.21   12.83
   7  -3   1   64.76   10.26
  -7  -3   1   57.16   11.24
  -7  -3   3   55.19   11.49
   7   3   3   53.41   11.65
   7  -3   3   36.66    9.78
  -7  -3   5   28.67    9.11
   7   3   5   13.79    8.35
   7  -3   5   23.95    9.40
  -7  -3   7   22.89    8.15
   7  -3   7   14.20    9.66
   7  -4  -6   21.40   16.56
  -7  -4  -6   37.58   11.08
   7   4  -6   24.19    9.49
   7  -4  -6   11.92    9.43
   7  -4  -6   20.32    9.08
   7  -4  -4   36.88   15.47
  -7   4  -4   38.11   10.54
   7   4  -4   44.26   10.97
  -7  -4  -4   30.65    9.36
   7  -4  -4   34.63   10.85
   7   4  -4   35.11   11.61
   7  -4  -4   28.35    8.98
  -7  -4  -4   26.41   10.62
   7  -4  -4   41.15   11.94
   7  -4  -2   43.83   15.20
  -7   4  -2   22.38    9.05
   7   4  -2   48.27   11.30
   7  -4  -2   44.67    7.51
  -7  -4  -2   49.79   10.41
  -7  -4  -2   41.78    8.37
  -7  -4  -2   47.64   11.04
   7  -4  -2   31.35    9.36
   7   4  -2   40.35   11.93
   7  -4  -2   44.05    9.22
   7  -4  -2   36.95   10.56
  -7   4   0   23.68    9.20
   7   4   0   51.03    8.83
  -7   4   0   39.71    8.08
   7   4   0   31.69    9.85
   7  -4   0   39.98    8.12
  -7  -4   0   33.85   10.37
  -7  -4   0   44.31    9.92
   7  -4   0   40.31   13.01
   7   4   2   50.55   11.42
   7  -4   2   49.77    9.81
  -7  -4   2   37.93   10.07
   7  -4   2   54.98   12.59
   7   4   4   37.83   11.55
   7   4   4   30.92   15.79
  -7  -4   4   47.21   10.86
   7  -4   4   29.25   11.56
  -7  -4   6   25.80    9.32
   7   4   6    6.09   16.41
   7  -4   6   19.92   11.25
   7  -5  -5   14.28   14.66
   7  -5  -5   13.40    9.80
   7  -5  -5   15.75    8.20
  -7   5  -3   33.48   10.00
   7   5  -3   30.96   10.36
  -7  -5  -3   22.17    8.50
  -7  -5  -3   44.41   11.10
   7  -5  -3   17.15    8.94
   7   5  -3   25.14   10.93
   7  -5  -3   29.77    8.51
   7  -5  -3   32.63   11.53
   7  -5  -3   34.23   14.46
  -7   5  -1   18.89    9.29
   7   5  -1   26.04    7.39
   7   5  -1   36.57   11.16
  -7  -5  -1   35.78    8.81
  -7  -5  -1   47.12   11.30
   7   5  -1   36.33   11.86
   7  -5  -1   19.29   10.20
   7  -5  -1   34.84   15.13
  -7   5   1   31.41   10.63
   7   5   1   38.28   11.18
   7   5   3   30.82   10.87
   7   5   3   12.84   12.61
  -7  -5   3   19.33    8.55
   7  -5   3   35.42   12.13
   7   5   5   25.77   15.17
  -7  -5   5   15.52    8.64
   7  -6  -4   21.91    9.53
   7  -6  -4   22.33    8.44
   7  -6  -4   21.61   15.60
   7  -6  -2    9.57   13.46
   7  -7  -3    7.33   14.63
  -8   0  -4   17.55   10.11
   8   0  -4   14.96    7.64
   8   0  -4   14.18    8.21
  -8   0  -2   21.27    9.98
   8   0  -2   21.62    8.72
  -8   0  -2   25.82    9.72
   8   0   0   35.18   10.48
  -8   0   0   35.57   10.39
   8   0   2   34.40   10.50
  -8   0   2   19.88    9.63
  -8  -1  -5    6.90    8.45
   8  -1  -5   25.72    9.38
  -8  -1  -3   25.72   10.08
  -8   1  -3   44.55   11.81
   8   1  -3   13.18    7.87
   8  -1  -3   24.09    8.01
   8   1  -3   13.72    8.94
   8  -1  -3   22.40    8.92
  -8   1  -1   20.71    9.88
   8   1  -1   25.70    9.27
   8  -1  -1   28.71    9.67
  -8   1  -1    1.70    7.19
  -8  -1  -1   17.15    9.25
   8   1   1   26.45   10.22
   8  -1   1   25.20    8.90
   8   1   3   17.00    9.17
   8  -1   3   20.31    9.20
   8   2  -4    4.17    7.11
   8  -2  -4    5.37    6.88
  -8   2  -2   16.20   10.41
   8   2  -2   27.95    9.77
   8  -2  -2   28.55    8.20
  -8   2   0   18.37   10.73
   8   2   0   36.12   11.18
   8  -2   0   24.64    8.86
  -8  -2   0   34.28   10.24
  -8   2   0   28.84    9.86
   8   2   2   21.94    9.81
   8  -2   2   32.38   10.03
   8   3  -3   26.31    9.49
   8   3  -1   12.73    8.44
   8  -3   1   11.21    7.34
   8  -3   3   18.69    8.47
   8  -4   2    5.07    6.61
   0   0   0    0.00    0.00

;
_shelx_hkl_checksum              86471
loop_
_space_group_symop_operation_xyz
'x, y, z'
'-x, -y, z'
'x, -y, z'
'-x, y, z'
'x, y+1/2, z+1/2'
'-x, -y+1/2, z+1/2'
'x, -y+1/2, z+1/2'
'-x, y+1/2, z+1/2'
loop_
_atom_site_label
_atom_site_type_symbol
_atom_site_fract_x
_atom_site_fract_y
_atom_site_fract_z
_atom_site_U_iso_or_equiv
_atom_site_adp_type
_atom_site_occupancy
_atom_site_site_symmetry_order
_atom_site_calc_flag
_atom_site_refinement_flags_posn
_atom_site_refinement_flags_adp
_atom_site_refinement_flags_occupancy
_atom_site_disorder_assembly
_atom_site_disorder_group
F1 F 0.5000 0.5000 0.3064(6) 0.085(2) Uani 1 4 d DS T P . .
Re1 Re 1.0000 0.0000 0.0315(4) 0.05232(11) Uani 1 4 d S T P . .
O2 O 1.0000 0.1574(8) -0.0753(9) 0.0895(19) Uani 1 2 d S T P . .
O1 O 0.7743(15) 0.0000 0.1348(9) 0.112(3) Uani 1 2 d S T P . .
N1 N 0.5000 0.5000 -0.1064(14) 0.070(5) Uani 1 4 d DS TU P . .
H1A H 0.5000 0.5000 -0.2024 0.085 Uiso 1 4 d R U P . .
C1 C 0.411(3) 0.6389(15) 0.1037(15) 0.083(5) Uani 0.5 1 d D U P . .
H1B H 0.2680 0.6558 0.1378 0.100 Uiso 0.5 1 d R U P . .
H1C H 0.5000 0.7176 0.1414 0.100 Uiso 1 2 d R U P . .
C2 C 0.423(4) 0.6447(18) -0.0602(17) 0.092(6) Uani 0.5 1 d D U P . .
H2A H 0.2817 0.6665 -0.0957 0.111 Uiso 0.5 1 d R U P . .
H2B H 0.5193 0.7224 -0.0923 0.111 Uiso 0.5 1 d R U P . .
C3 C 0.253(3) 0.5000 0.111(2) 0.099(6) Uani 0.5 2 d DS TU P . .
H3A H 0.1805 0.4117 0.1462 0.119 Uiso 0.25 1 d R U P . .
H3B H 0.1805 0.5883 0.1462 0.119 Uiso 0.25 1 d R U P . .
C4 C 0.254(3) 0.5000 -0.052(2) 0.097(6) Uani 0.5 2 d DS TU P . .
H4A H 0.1817 0.4119 -0.0878 0.116 Uiso 0.25 1 d R U P . .
H4B H 0.1817 0.5881 -0.0878 0.116 Uiso 0.25 1 d R U P . .
C5 C 0.5000 0.5000 0.1592(14) 0.062(5) Uani 1 4 d DS TU P . .
loop_
_atom_site_aniso_label
_atom_site_aniso_U_11
_atom_site_aniso_U_22
_atom_site_aniso_U_33
_atom_site_aniso_U_23
_atom_site_aniso_U_13
_atom_site_aniso_U_12
F1 0.129(6) 0.093(5) 0.034(3) 0.000 0.000 0.000
Re1 0.06192(18) 0.05118(15) 0.04387(15) 0.000 0.000 0.000
O2 0.107(5) 0.065(3) 0.096(5) 0.020(3) 0.000 0.000
O1 0.115(6) 0.128(7) 0.091(5) 0.000 0.043(5) 0.000
N1 0.122(15) 0.056(9) 0.034(7) 0.000 0.000 0.000
C1 0.135(12) 0.056(7) 0.058(6) -0.020(6) 0.004(8) 0.050(6)
C2 0.147(19) 0.075(9) 0.055(6) -0.001(6) -0.008(8) 0.012(8)
C3 0.074(13) 0.153(17) 0.070(8) 0.000 0.015(11) 0.000
C4 0.086(13) 0.132(16) 0.072(9) 0.000 -0.025(12) 0.000
C5 0.097(14) 0.049(9) 0.038(8) 0.000 0.000 0.000
loop_
_atom_type_symbol
_atom_type_description
_atom_type_scat_dispersion_real
_atom_type_scat_dispersion_imag
_atom_type_scat_source
C C 0.0033 0.0016 'International Tables Vol C Tables 4.2.6.8 and 6.1.1.4'
H H 0.0000 0.0000 'International Tables Vol C Tables 4.2.6.8 and 6.1.1.4'
N N 0.0061 0.0033 'International Tables Vol C Tables 4.2.6.8 and 6.1.1.4'
O O 0.0106 0.0060 'International Tables Vol C Tables 4.2.6.8 and 6.1.1.4'
F F 0.0171 0.0103 'International Tables Vol C Tables 4.2.6.8 and 6.1.1.4'
Re Re -1.0185 7.2310 'International Tables Vol C Tables 4.2.6.8 and 6.1.1.4'
loop_
_geom_angle_atom_site_label_1
_geom_angle_atom_site_label_2
_geom_angle_atom_site_label_3
_geom_angle
_geom_angle_site_symmetry_1
_geom_angle_site_symmetry_3
_geom_angle_publ_flag
O1 Re1 O1 110.9(7) . 2_755 ?
O1 Re1 O2 109.4(2) . . ?
O1 Re1 O2 109.4(2) 2_755 . ?
O1 Re1 O2 109.4(2) . 2_755 ?
O1 Re1 O2 109.4(2) 2_755 2_755 ?
O2 Re1 O2 108.5(5) . 2_755 ?
C2 N1 C2 144.8(15) 4_655 3_565 ?
C2 N1 C2 126.3(17) 4_655 2_665 ?
C2 N1 C2 39(2) 3_565 2_665 ?
C2 N1 C2 39(2) 4_655 . ?
C2 N1 C2 126.3(17) 3_565 . ?
C2 N1 C2 144.8(15) 2_665 . ?
C2 N1 C4 102.8(10) 4_655 . ?
C2 N1 C4 65.6(10) 3_565 . ?
C2 N1 C4 102.8(10) 2_665 . ?
C2 N1 C4 65.6(10) . . ?
C2 N1 C4 65.6(10) 4_655 2_665 ?
C2 N1 C4 102.8(10) 3_565 2_665 ?
C2 N1 C4 65.6(10) 2_665 2_665 ?
C2 N1 C4 102.8(10) . 2_665 ?
C4 N1 C4 143.1(15) . 2_665 ?
C1 C1 C5 67.5(9) 4_655 . ?
C1 C1 C2 87.3(16) 4_655 . ?
C5 C1 C2 111.7(13) . . ?
C1 C1 C3 128.7(7) 4_655 . ?
C5 C1 C3 63.9(9) . . ?
C2 C1 C3 95.8(16) . . ?
C1 C1 C2 56.1(6) 4_655 4_655 ?
C5 C1 C2 96.3(9) . 4_655 ?
C2 C1 C2 31.2(18) . 4_655 ?
C3 C1 C2 114.0(12) . 4_655 ?
C2 C2 N1 70.4(10) 4_655 . ?
C2 C2 C1 92.7(16) 4_655 . ?
N1 C2 C1 106.7(13) . . ?
C2 C2 C4 129.4(8) 4_655 . ?
N1 C2 C4 62.5(10) . . ?
C1 C2 C4 84.1(16) . . ?
C2 C2 C1 56.1(5) 4_655 4_655 ?
N1 C2 C1 92.3(12) . 4_655 ?
C1 C2 C1 36.6(16) . 4_655 ?
C4 C2 C1 107.1(12) . 4_655 ?
C4 C3 C1 87.3(12) . 3_565 ?
C4 C3 C1 87.3(12) . . ?
C1 C3 C1 102.4(14) 3_565 . ?
C4 C3 C5 106.2(15) . . ?
C1 C3 C5 54.1(7) 3_565 . ?
C1 C3 C5 54.1(7) . . ?
C3 C4 N1 108.6(15) . . ?
C3 C4 C2 92.8(12) . 3_565 ?
N1 C4 C2 51.9(8) . 3_565 ?
C3 C4 C2 92.8(12) . . ?
N1 C4 C2 51.9(8) . . ?
C2 C4 C2 100.9(17) 3_565 . ?
F1 C5 C1 111.2(7) . 3_565 ?
F1 C5 C1 111.2(7) . 4_655 ?
C1 C5 C1 137.7(13) 3_565 4_655 ?
F1 C5 C1 111.2(7) . 2_665 ?
C1 C5 C1 45.0(17) 3_565 2_665 ?
C1 C5 C1 116.5(16) 4_655 2_665 ?
F1 C5 C1 111.2(7) . . ?
C1 C5 C1 116.5(16) 3_565 . ?
C1 C5 C1 45.0(18) 4_655 . ?
C1 C5 C1 137.7(13) 2_665 . ?
F1 C5 C3 106.3(8) . 2_665 ?
C1 C5 C3 105.4(10) 3_565 2_665 ?
C1 C5 C3 62.1(9) 4_655 2_665 ?
C1 C5 C3 62.1(9) 2_665 2_665 ?
C1 C5 C3 105.4(10) . 2_665 ?
F1 C5 C3 106.3(8) . . ?
C1 C5 C3 62.1(9) 3_565 . ?
C1 C5 C3 105.4(10) 4_655 . ?
C1 C5 C3 105.4(10) 2_665 . ?
C1 C5 C3 62.1(9) . . ?
C3 C5 C3 147.4(16) 2_665 . ?
loop_
_geom_bond_atom_site_label_1
_geom_bond_atom_site_label_2
_geom_bond_distance
_geom_bond_site_symmetry_2
_geom_bond_publ_flag
F1 C5 1.378(16) . ?
Re1 O1 1.706(8) . ?
Re1 O1 1.706(8) 2_755 ?
Re1 O2 1.712(7) . ?
Re1 O2 1.712(7) 2_755 ?
N1 C2 1.431(17) 4_655 ?
N1 C2 1.431(17) 3_565 ?
N1 C2 1.431(18) 2_665 ?
N1 C2 1.432(17) . ?
N1 C4 1.61(2) . ?
N1 C4 1.61(2) 2_665 ?
C1 C1 1.10(4) 4_655 ?
C1 C5 1.442(13) . ?
C1 C2 1.539(13) . ?
C1 C3 1.573(19) . ?
C1 C2 1.851(15) 4_655 ?
C2 C2 0.96(5) 4_655 ?
C2 C4 1.66(2) . ?
C2 C1 1.851(15) 4_655 ?
C3 C4 1.530(16) . ?
C3 C1 1.573(19) 3_565 ?
C3 C5 1.599(18) . ?
C4 C2 1.66(2) 3_565 ?
C5 C1 1.442(13) 3_565 ?
C5 C1 1.442(13) 4_655 ?
C5 C1 1.442(13) 2_665 ?
C5 C3 1.599(18) 2_665 ?
loop_
_geom_torsion_atom_site_label_1
_geom_torsion_atom_site_label_2
_geom_torsion_atom_site_label_3
_geom_torsion_atom_site_label_4
_geom_torsion
_geom_torsion_site_symmetry_1
_geom_torsion_site_symmetry_2
_geom_torsion_site_symmetry_3
_geom_torsion_site_symmetry_4
_geom_torsion_publ_flag
C2 N1 C2 C2 134.7(19) 3_565 . . 4_655 ?
C2 N1 C2 C2 83.5(4) 2_665 . . 4_655 ?
C4 N1 C2 C2 160.8(8) . . . 4_655 ?
C4 N1 C2 C2 17.9(7) 2_665 . . 4_655 ?
C2 N1 C2 C1 -87(2) 4_655 . . . ?
C2 N1 C2 C1 48(3) 3_565 . . . ?
C2 N1 C2 C1 -3.3(16) 2_665 . . . ?
C4 N1 C2 C1 74(2) . . . . ?
C4 N1 C2 C1 -69(2) 2_665 . . . ?
C2 N1 C2 C4 -160.8(8) 4_655 . . . ?
C2 N1 C2 C4 -26(2) 3_565 . . . ?
C2 N1 C2 C4 -77.3(9) 2_665 . . . ?
C4 N1 C2 C4 -142.9(15) 2_665 . . . ?
C2 N1 C2 C1 -52.7(7) 4_655 . . 4_655 ?
C2 N1 C2 C1 82(2) 3_565 . . 4_655 ?
C2 N1 C2 C1 30.8(5) 2_665 . . 4_655 ?
C4 N1 C2 C1 108.1(11) . . . 4_655 ?
C4 N1 C2 C1 -34.8(10) 2_665 . . 4_655 ?
C1 C1 C2 C2 0.001(1) 4_655 . . 4_655 ?
C5 C1 C2 C2 -64.5(15) . . . 4_655 ?
C3 C1 C2 C2 -128.6(8) . . . 4_655 ?
C1 C1 C2 N1 70.3(15) 4_655 . . . ?
C5 C1 C2 N1 6(3) . . . . ?
C3 C1 C2 N1 -58.3(19) . . . . ?
C2 C1 C2 N1 70.3(15) 4_655 . . . ?
C1 C1 C2 C4 129.4(8) 4_655 . . . ?
C5 C1 C2 C4 64.9(18) . . . . ?
C3 C1 C2 C4 0.8(14) . . . . ?
C2 C1 C2 C4 129.3(8) 4_655 . . . ?
C5 C1 C2 C1 -64.5(15) . . . 4_655 ?
C3 C1 C2 C1 -128.6(8) . . . 4_655 ?
C2 C1 C2 C1 -0.001(1) 4_655 . . 4_655 ?
C1 C1 C3 C4 -92.0(12) 4_655 . . . ?
C5 C1 C3 C4 -112.2(12) . . . . ?
C2 C1 C3 C4 -0.8(15) . . . . ?
C2 C1 C3 C4 -27.1(14) 4_655 . . . ?
C1 C1 C3 C1 -5.3(19) 4_655 . . 3_565 ?
C5 C1 C3 C1 -25.6(13) . . . 3_565 ?
C2 C1 C3 C1 85.8(18) . . . 3_565 ?
C2 C1 C3 C1 59.5(16) 4_655 . . 3_565 ?
C1 C1 C3 C5 20.2(10) 4_655 . . . ?
C2 C1 C3 C5 111.4(16) . . . . ?
C2 C1 C3 C5 85.1(10) 4_655 . . . ?
C1 C3 C4 N1 -51.3(7) 3_565 . . . ?
C1 C3 C4 N1 51.3(7) . . . . ?
C5 C3 C4 N1 0.000(1) . . . . ?
C1 C3 C4 C2 -0.8(13) 3_565 . . 3_565 ?
C1 C3 C4 C2 101.8(7) . . . 3_565 ?
C5 C3 C4 C2 50.5(9) . . . 3_565 ?
C1 C3 C4 C2 -101.8(7) 3_565 . . . ?
C1 C3 C4 C2 0.8(13) . . . . ?
C5 C3 C4 C2 -50.5(9) . . . . ?
C2 N1 C4 C3 -66.2(8) 4_655 . . . ?
C2 N1 C4 C3 78.5(9) 3_565 . . . ?
C2 N1 C4 C3 66.2(8) 2_665 . . . ?
C2 N1 C4 C3 -78.5(9) . . . . ?
C4 N1 C4 C3 0.000(1) 2_665 . . . ?
C2 N1 C4 C2 -144.8(15) 4_655 . . 3_565 ?
C2 N1 C4 C2 -12.3(8) 2_665 . . 3_565 ?
C2 N1 C4 C2 -157.1(18) . . . 3_565 ?
C4 N1 C4 C2 -78.5(9) 2_665 . . 3_565 ?
C2 N1 C4 C2 12.3(8) 4_655 . . . ?
C2 N1 C4 C2 157.1(18) 3_565 . . . ?
C2 N1 C4 C2 144.8(15) 2_665 . . . ?
C4 N1 C4 C2 78.5(9) 2_665 . . . ?
C2 C2 C4 C3 87.9(12) 4_655 . . . ?
N1 C2 C4 C3 111.5(12) . . . . ?
C1 C2 C4 C3 -0.8(14) . . . . ?
C1 C2 C4 C3 28.0(14) 4_655 . . . ?
C2 C2 C4 N1 -23.7(10) 4_655 . . . ?
C1 C2 C4 N1 -112.3(16) . . . . ?
C1 C2 C4 N1 -83.5(12) 4_655 . . . ?
C2 C2 C4 C2 -5.5(19) 4_655 . . 3_565 ?
N1 C2 C4 C2 18.2(14) . . . 3_565 ?
C1 C2 C4 C2 -94.1(17) . . . 3_565 ?
C1 C2 C4 C2 -65.3(16) 4_655 . . 3_565 ?
C1 C1 C5 F1 99.2(5) 4_655 . . . ?
C2 C1 C5 F1 176.5(17) . . . . ?
C3 C1 C5 F1 -97.8(9) . . . . ?
C2 C1 C5 F1 148.5(6) 4_655 . . . ?
C1 C1 C5 C1 -132.0(14) 4_655 . . 3_565 ?
C2 C1 C5 C1 -55(3) . . . 3_565 ?
C3 C1 C5 C1 30.9(16) . . . 3_565 ?
C2 C1 C5 C1 -82.8(16) 4_655 . . 3_565 ?
C2 C1 C5 C1 77(2) . . . 4_655 ?
C3 C1 C5 C1 163.0(8) . . . 4_655 ?
C2 C1 C5 C1 49.3(8) 4_655 . . 4_655 ?
C1 C1 C5 C1 -80.8(5) 4_655 . . 2_665 ?
C2 C1 C5 C1 -3.5(17) . . . 2_665 ?
C3 C1 C5 C1 82.2(9) . . . 2_665 ?
C2 C1 C5 C1 -31.5(6) 4_655 . . 2_665 ?
C1 C1 C5 C3 -15.5(7) 4_655 . . 2_665 ?
C2 C1 C5 C3 62(2) . . . 2_665 ?
C3 C1 C5 C3 147.5(15) . . . 2_665 ?
C2 C1 C5 C3 33.7(11) 4_655 . . 2_665 ?
C1 C1 C5 C3 -163.0(8) 4_655 . . . ?
C2 C1 C5 C3 -86(2) . . . . ?
C2 C1 C5 C3 -113.7(12) 4_655 . . . ?
C4 C3 C5 F1 180.000(0) . . . . ?
C1 C3 C5 F1 -105.7(8) 3_565 . . . ?
C1 C3 C5 F1 105.7(8) . . . . ?
C4 C3 C5 C1 -74.3(8) . . . 3_565 ?
C1 C3 C5 C1 -148.6(16) . . . 3_565 ?
C4 C3 C5 C1 61.9(8) . . . 4_655 ?
C1 C3 C5 C1 136.2(14) 3_565 . . 4_655 ?
C1 C3 C5 C1 -12.4(7) . . . 4_655 ?
C4 C3 C5 C1 -61.9(8) . . . 2_665 ?
C1 C3 C5 C1 12.4(7) 3_565 . . 2_665 ?
C1 C3 C5 C1 -136.2(14) . . . 2_665 ?
C4 C3 C5 C1 74.3(8) . . . . ?
C1 C3 C5 C1 148.6(16) 3_565 . . . ?
C4 C3 C5 C3 0.000(2) . . . 2_665 ?
C1 C3 C5 C3 74.3(8) 3_565 . . 2_665 ?
C1 C3 C5 C3 -74.3(8) . . . 2_665 ?
