#------------------------------------------------------------------------------
#$Date: 2020-12-31 02:01:32 +0200 (Thu, 31 Dec 2020) $
#$Revision: 260263 $
#$URL: file:///home/coder/svn-repositories/cod/cif/4/13/54/4135446.cif $
#------------------------------------------------------------------------------
#
# This file is available in the Crystallography Open Database (COD),
# http://www.crystallography.net/
#
# All data on this site have been placed in the public domain by the
# contributors.
#
data_4135446
loop_
_publ_author_name
'Bhowal, Rohit'
'Balaraman, Anina Anju'
'Ghosh, Manasi'
'Dutta, Soma'
'Dey, Krishna Kishor'
'Chopra, Deepak'
_publ_section_title
;
 Probing Atomistic Behavior To Unravel Dielectric Phenomena in Charge
 Transfer Cocrystals
;
_journal_name_full               'Journal of the American Chemical Society'
_journal_paper_doi               10.1021/jacs.0c11459
_journal_year                    2020
_chemical_formula_moiety         'C16 H20 N2, C10 H2 N4'
_chemical_formula_sum            'C26 H22 N6'
_chemical_formula_weight         418.49
_space_group_crystal_system      triclinic
_space_group_IT_number           2
_space_group_name_Hall           '-P 1'
_space_group_name_H-M_alt        'P -1'
_atom_sites_solution_hydrogens   difmap
_audit_creation_date             2020-10-21
_audit_creation_method
;
Olex2 1.3
(compiled 2020.02.04 svn.rd84adfe8 for OlexSys, GUI svn.r6032)
;
_cell_angle_alpha                73.803(4)
_cell_angle_beta                 88.590(4)
_cell_angle_gamma                80.599(4)
_cell_formula_units_Z            1
_cell_length_a                   7.1148(4)
_cell_length_b                   8.2264(6)
_cell_length_c                   9.7166(6)
_cell_measurement_reflns_used    2050
_cell_measurement_temperature    100.15
_cell_measurement_theta_max      30.12
_cell_measurement_theta_min      2.61
_cell_volume                     538.67(6)
_computing_cell_refinement       'SAINT v8.37A (Bruker, 2015)'
_computing_data_reduction        'SAINT v8.37A (Bruker, 2015)'
_computing_molecular_graphics    'Olex2 1.3 (Dolomanov et al., 2009)'
_computing_publication_material  'Olex2 1.3 (Dolomanov et al., 2009)'
_computing_structure_refinement  'XL  (Sheldrick, 2008)'
_diffrn_ambient_temperature      100.15
_diffrn_measured_fraction_theta_full 0.961
_diffrn_measured_fraction_theta_max 0.881
_diffrn_measurement_device_type  'Bruker APEX-II CCD'
_diffrn_measurement_method       '\f and \w scans'
_diffrn_radiation_type           MoK\a
_diffrn_radiation_wavelength     0.71073
_diffrn_reflns_av_R_equivalents  0.0253
_diffrn_reflns_av_unetI/netI     0.0465
_diffrn_reflns_Laue_measured_fraction_full 0.961
_diffrn_reflns_Laue_measured_fraction_max 0.881
_diffrn_reflns_limit_h_max       9
_diffrn_reflns_limit_h_min       -9
_diffrn_reflns_limit_k_max       11
_diffrn_reflns_limit_k_min       -5
_diffrn_reflns_limit_l_max       13
_diffrn_reflns_limit_l_min       -12
_diffrn_reflns_number            5767
_diffrn_reflns_point_group_measured_fraction_full 0.961
_diffrn_reflns_point_group_measured_fraction_max 0.881
_diffrn_reflns_theta_full        25.242
_diffrn_reflns_theta_max         29.709
_diffrn_reflns_theta_min         2.183
_diffrn_source_current           30.0
_diffrn_source_power             1.5
_diffrn_source_voltage           50.0
_diffrn_standards_number         0
_exptl_absorpt_coefficient_mu    0.080
_exptl_absorpt_correction_T_max  0.7459
_exptl_absorpt_correction_T_min  0.6264
_exptl_absorpt_correction_type   multi-scan
_exptl_absorpt_process_details
;
SADABS-2014/5 (Bruker,2014/5) was used for absorption correction.
wR2(int) was 0.1389 before and 0.0344 after correction.
The Ratio of minimum to maximum transmission is 0.8398.
The \l/2 correction factor is 0.00150.
;
_exptl_crystal_colour            'clear dark orange'
_exptl_crystal_colour_lustre     clear
_exptl_crystal_colour_modifier   dark
_exptl_crystal_colour_primary    orange
_exptl_crystal_density_diffrn    1.290
_exptl_crystal_description       needle
_exptl_crystal_F_000             220
_exptl_crystal_size_max          0.41
_exptl_crystal_size_mid          0.12
_exptl_crystal_size_min          0.03
_refine_diff_density_max         0.327
_refine_diff_density_min         -0.201
_refine_diff_density_rms         0.049
_refine_ls_extinction_method     none
_refine_ls_goodness_of_fit_ref   1.048
_refine_ls_hydrogen_treatment    refall
_refine_ls_matrix_type           full
_refine_ls_number_parameters     189
_refine_ls_number_reflns         2700
_refine_ls_number_restraints     0
_refine_ls_restrained_S_all      1.048
_refine_ls_R_factor_all          0.0702
_refine_ls_R_factor_gt           0.0493
_refine_ls_shift/su_max          0.000
_refine_ls_shift/su_mean         0.000
_refine_ls_structure_factor_coef Fsqd
_refine_ls_weighting_details
'w=1/[\s^2^(Fo^2^)+(0.0611P)^2^+0.1225P] where P=(Fo^2^+2Fc^2^)/3'
_refine_ls_weighting_scheme      calc
_refine_ls_wR_factor_gt          0.1162
_refine_ls_wR_factor_ref         0.1278
_reflns_Friedel_coverage         0.000
_reflns_number_gt                2021
_reflns_number_total             2700
_reflns_threshold_expression     'I > 2\s(I)'
_cod_data_source_file            CC6_100K.cif
_cod_data_source_block           cc6_100k
_cod_database_code               4135446
_shelx_shelxl_version_number     2018/3
_shelx_space_group_comment
;
The symmetry employed for this shelxl refinement is uniquely defined
by the following loop, which should always be used as a source of
symmetry information in preference to the above space-group names.
They are only intended as comments.
;
_shelx_estimated_absorpt_t_max   0.998
_shelx_estimated_absorpt_t_min   0.968
_olex2_refinement_description
;
;
_shelx_res_file
;
TITL SIR2014 run in space group P -1
    cc6_100k.res
    created by SHELXL-2018/3 at 11:23:32 on 21-Oct-2020
CELL 0.71073 7.1148 8.2264 9.7166 73.803 88.59 80.599
ZERR 1 0.0004 0.0006 0.0006 0.004 0.004 0.004
LATT 1
SFAC C H N
UNIT 26 22 6

L.S. 10
PLAN  5
SIZE 0.03 0.12 0.41
TEMP -173
CONF
BOND $H
MORE -1
fmap 2
acta
MERG 2
OMIT -2 0 1
REM <olex2.extras>
REM <HklSrc "%.\\CC6_100K.hkl">
REM </olex2.extras>

WGHT    0.061100    0.122500
FVAR       0.51228
N1    3    0.241218    0.914120    0.543672    11.00000    0.04136    0.01942 =
         0.02122    0.00162   -0.01079   -0.00511
H1A   2    0.204755    0.875022    0.472814    11.00000    0.05514
H1B   2    0.245229    1.025056    0.528902    11.00000    0.04803
N2    3   -0.230955    0.709283    0.610709    11.00000    0.03327    0.02046 =
         0.01920   -0.00403   -0.00278   -0.00539
N3    3   -0.124451    1.007154    0.840719    11.00000    0.03200    0.01843 =
         0.02966   -0.00315   -0.00438   -0.00232
C1    1    0.312667    0.799066    0.670665    11.00000    0.01846    0.01673 =
         0.01665   -0.00075   -0.00047   -0.00245
C2    1    0.328314    0.621853    0.688901    11.00000    0.01678    0.01837 =
         0.01662   -0.00469   -0.00038   -0.00234
C3    1    0.402363    0.507850    0.817351    11.00000    0.01823    0.01376 =
         0.01762   -0.00370   -0.00005   -0.00226
H3    2    0.415312    0.383653    0.825075    11.00000    0.01505
C4    1    0.461259    0.561848    0.931558    11.00000    0.01685    0.01427 =
         0.01442   -0.00247   -0.00032   -0.00246
C5    1    0.442079    0.739453    0.909663    11.00000    0.02209    0.01388 =
         0.01730   -0.00397   -0.00100   -0.00322
H5    2    0.480363    0.785170    0.984755    11.00000    0.01883
C6    1    0.370796    0.858422    0.782781    11.00000    0.02119    0.01355 =
         0.01918   -0.00225   -0.00117   -0.00230
C7    1    0.268883    0.557786    0.568819    11.00000    0.02808    0.02222 =
         0.01888   -0.00682   -0.00320   -0.00209
H7A   2    0.345503    0.599482    0.479734    11.00000    0.02622
H7B   2    0.128787    0.599888    0.539380    11.00000    0.03835
H7C   2    0.290301    0.429561    0.592658    11.00000    0.03360
C8    1    0.358018    1.047382    0.763798    11.00000    0.03600    0.01336 =
         0.02530   -0.00137   -0.00667   -0.00402
H8A   2    0.438052    1.100982    0.684186    11.00000    0.03239
H8B   2    0.225367    1.110986    0.736221    11.00000    0.04486
H8C   2    0.403340    1.072438    0.852162    11.00000    0.04853
C9    1   -0.047858    0.392692    0.920746    11.00000    0.02041    0.01602 =
         0.01631   -0.00448   -0.00038   -0.00352
H9    2   -0.078480    0.317224    0.866561    11.00000    0.01980
C10   1   -0.086226    0.570437    0.865415    11.00000    0.01752    0.01599 =
         0.01434   -0.00280    0.00012   -0.00269
C11   1   -0.039414    0.677666    0.944782    11.00000    0.01753    0.01472 =
         0.01657   -0.00327    0.00150   -0.00300
C12   1   -0.170503    0.645987    0.724268    11.00000    0.02262    0.01554 =
         0.01805   -0.00488    0.00033   -0.00336
C13   1   -0.083770    0.861810    0.886364    11.00000    0.02140    0.01801 =
         0.01678   -0.00282   -0.00187   -0.00340
HKLF 4




REM  SIR2014 run in space group P -1
REM wR2 = 0.127821, GooF = S = 1.04816, Restrained GooF = 1.04816 for all data
REM R1 = 0.049304 for 2021 Fo > 4sig(Fo) and 0.070192 for all 2700 data
REM 189 parameters refined using 0 restraints

END

WGHT      0.0611      0.1220

REM Highest difference peak  0.327,  deepest hole -0.201,  1-sigma level  0.049
Q1    1   0.5000  0.5000  1.0000  10.50000  0.05    0.33
Q2    1   0.3560  0.5729  0.7555  11.00000  0.05    0.33
Q3    1   0.0002  0.6418  1.0132  11.00000  0.05    0.30
Q4    1   0.3174  0.5762  0.6412  11.00000  0.05    0.28
Q5    1   0.4072  0.7983  0.8443  11.00000  0.05    0.28
;
_shelx_res_checksum              16022
_shelx_hkl_file
;
  -1   0   0    2.85    0.27
  -1   0   0    2.25    0.25
  -1   0   0    1.99    0.20
   1   0   0    2.53    0.23
   1   0   0    1.89    0.21
   1   0   0    2.72    0.26
  -2   0   0   15.12    0.70
  -2   0   0   14.15    0.61
  -2   0   0   14.91    0.70
  -2   0   0   13.62    0.58
  -2   0   0   14.49    0.57
   2   0   0   14.33    0.66
   2   0   0   14.67    0.67
   2   0   0   14.00    0.59
   2   0   0   13.87    0.59
  -3   0   0   28.46    1.14
  -3   0   0   26.56    0.93
  -3   0   0   25.35    0.92
  -3   0   0   26.46    0.91
  -3   0   0   26.96    1.09
   3   0   0   27.43    0.96
   3   0   0   26.78    0.98
   3   0   0   27.50    0.96
   3   0   0   26.10    1.06
  -4   0   0    8.98    0.73
  -4   0   0    7.37    0.67
  -4   0   0    6.56    0.50
  -4   0   0    7.14    0.55
  -4   0   0    7.18    0.52
   4   0   0    7.02    0.55
   4   0   0    7.33    0.61
   4   0   0    6.83    0.63
  -5   0   0    4.87    0.56
  -5   0   0    4.15    0.49
  -5   0   0    4.92    0.75
   5   0   0    4.25    0.55
   5   0   0    4.10    0.72
   5   0   0    3.85    0.56
  -6   0   0   15.32    1.18
  -6   0   0   14.39    0.84
  -6   0   0   13.88    0.92
   6   0   0   14.71    0.95
   6   0   0   12.72    0.98
   6   0   0   14.25    1.10
  -7   0   0    3.89    0.86
  -7   0   0    5.11    0.71
   7   0   0    3.07    0.77
  -8   0   0    1.42    0.75
  -8   0   0    3.79    0.74
  -9   0   0   -0.26    0.63
  -9   0   0   -0.11    0.72
   9  -1   0    1.30    0.70
  -9   1   0    0.25    0.72
  -9   1   0    1.05    0.73
   8  -1   0   14.33    1.17
  -8   1   0   14.66    1.24
  -8   1   0    9.19    1.28
   7  -1   0    7.73    0.86
  -7   1   0    9.91    0.98
  -7   1   0    8.26    1.16
   6  -1   0   20.84    1.15
  -6   1   0   21.24    1.42
  -6   1   0   20.41    1.14
  -6   1   0   20.19    1.39
   5  -1   0    0.36    0.38
   5  -1   0    0.20    0.17
   5  -1   0    0.33    0.32
  -5   1   0    0.57    0.38
  -5   1   0    0.29    0.35
  -5   1   0    0.02    0.34
  -5   1   0   -0.38    0.33
   4  -1   0   31.00    1.17
   4  -1   0   31.93    1.20
  -4   1   0   30.83    1.41
  -4   1   0   30.56    1.19
  -4   1   0   30.80    1.40
  -4   1   0   30.90    1.21
  -4   1   0   31.46    1.17
   3  -1   0    2.96    0.35
   3  -1   0    3.09    0.38
   3  -1   0    1.82    0.34
   3  -1   0    2.70    0.33
  -3   1   0    3.35    0.48
  -3   1   0    3.16    0.41
  -3   1   0    2.48    0.36
  -3   1   0    3.67    0.51
  -3   1   0    3.24    0.38
   2  -1   0   84.38    2.25
   2  -1   0   86.07    2.16
   2  -1   0   86.88    2.14
  -2   1   0   85.25    2.33
  -2   1   0   88.42    2.18
  -2   1   0   87.17    2.17
  -2   1   0   89.59    2.34
   1  -1   0   12.05    0.40
   1  -1   0   12.03    0.37
  -1   1   0   12.10    0.40
  -1   1   0   11.63    0.47
  -1   1   0   11.98    0.51
  -1   1   0   11.74    0.42
   0   1   0   97.98    2.20
   1   1   0   25.01    0.65
  -2  -1   0  730.50   16.10
   2   1   0  731.47   16.02
  -3  -1   0    0.53    0.19
  -3  -1   0    0.67    0.28
   3   1   0    0.35    0.24
   3   1   0    0.08    0.17
   3   1   0    0.31    0.17
   3   1   0    0.27    0.20
  -4  -1   0   11.09    0.59
  -4  -1   0   11.62    0.80
   4   1   0   10.93    0.83
   4   1   0   10.59    0.76
   4   1   0   11.50    0.65
  -5  -1   0    1.25    0.47
  -5  -1   0    1.15    0.36
   5   1   0    0.90    0.34
   5   1   0    0.94    0.42
  -6  -1   0    8.95    1.08
  -6  -1   0    8.18    0.68
   6   1   0    6.86    0.93
   6   1   0    6.46    0.72
  -7  -1   0    0.73    0.43
  -7  -1   0    0.24    0.57
   7   1   0    0.36    0.53
  -8  -1   0    7.49    1.13
  -8  -1   0    8.49    0.78
  -9  -1   0    2.86    0.91
   9  -2   0    0.05    0.55
  -9   2   0    1.19    0.90
  -9   2   0    2.35    0.81
   8  -2   0    1.43    0.60
  -8   2   0    2.67    0.77
  -8   2   0    2.51    0.91
   7  -2   0    1.95    0.56
  -7   2   0    3.69    0.73
  -7   2   0    2.82    0.85
   6  -2   0   20.76    1.11
  -6   2   0   19.78    1.65
  -6   2   0   20.15    1.18
  -6   2   0   19.51    1.40
   5  -2   0   -0.40    0.32
   5  -2   0    0.10    0.28
  -5   2   0   -0.09    0.31
  -5   2   0   -0.57    0.57
  -5   2   0   -0.15    0.32
  -5   2   0   -0.04    0.32
   4  -2   0    1.30    0.29
   4  -2   0    1.65    0.36
   4  -2   0    0.78    0.36
   4  -2   0    0.78    0.33
  -4   2   0    1.93    0.50
  -4   2   0    1.06    0.38
  -4   2   0    0.64    0.32
  -4   2   0    1.08    0.39
   3  -2   0   20.24    0.72
   3  -2   0   19.23    0.90
   3  -2   0   18.92    0.77
   3  -2   0   19.37    0.77
  -3   2   0   20.12    0.87
  -3   2   0   19.25    0.99
  -3   2   0   19.04    1.00
  -3   2   0   22.16    0.87
   2  -2   0   20.59    0.67
   2  -2   0   21.22    0.62
   2  -2   0   20.62    0.69
  -2   2   0   20.71    0.92
  -2   2   0   20.41    0.89
  -2   2   0   20.26    0.76
  -2   2   0   21.27    0.74
   1  -2   0   30.56    0.75
  -1   2   0   30.63    0.79
  -1   2   0   32.30    0.85
  -1   2   0   31.85    0.98
   0   2   0   95.43    2.25
   2   2   0   30.72    0.90
  -3  -2   0   50.60    1.62
   3   2   0   47.88    1.51
  -4  -2   0   98.60    2.87
   4   2   0   99.20    2.79
   4   2   0   95.36    2.51
  -5  -2   0   12.65    0.97
   5   2   0   11.21    0.91
  -6  -2   0    1.03    0.54
   6   2   0   -0.35    0.37
  -7  -2   0    1.56    0.62
   7   2   0    3.00    0.82
   8   2   0   18.78    1.54
  -9  -2   0    1.26    0.73
   8  -3   0    1.40    0.57
  -8   3   0    1.08    0.71
  -8   3   0    0.23    0.71
   7  -3   0   -0.40    0.38
  -7   3   0    0.04    0.49
  -7   3   0    0.42    0.60
   6  -3   0    2.51    0.49
  -6   3   0    1.62    0.55
  -6   3   0    1.08    0.55
   5  -3   0    4.43    0.51
  -5   3   0    4.05    0.63
  -5   3   0    4.19    0.75
  -5   3   0    4.90    0.80
  -5   3   0    4.73    0.65
   4  -3   0    0.76    0.30
   4  -3   0    0.55    0.25
  -4   3   0    0.94    0.36
  -4   3   0    0.95    0.43
  -4   3   0    0.58    0.39
  -4   3   0    0.54    0.36
   3  -3   0   16.89    0.67
   3  -3   0   19.18    0.61
  -3   3   0   19.31    0.90
  -3   3   0   19.73    0.85
  -3   3   0   19.07    1.06
  -3   3   0   19.98    1.05
   2  -3   0    0.63    0.14
  -2   3   0    0.52    0.18
  -2   3   0    0.60    0.26
  -2   3   0    0.32    0.26
  -1   3   0   23.64    0.63
  -1   3   0   23.91    0.89
   0   3   0   24.43    0.78
   0   3   0   22.88    0.63
   2   3   0    4.26    0.28
   3   3   0  156.46    3.79
   4   3   0    1.32    0.36
   5   3   0   32.49    1.45
  -6  -3   0   34.70    1.71
   6   3   0   35.25    1.69
  -7  -3   0   -0.06    0.48
   7   3   0    0.65    0.52
  -8  -3   0   -0.68    0.50
   8   3   0    0.11    0.63
   9   3   0   17.69    1.72
   8  -4   0    7.11    0.81
  -8   4   0    6.91    1.11
  -8   4   0    9.23    1.63
   7  -4   0   46.21    1.63
  -7   4   0   44.99    2.08
  -7   4   0   45.47    2.52
   6  -4   0    0.11    0.32
  -6   4   0    1.06    0.63
  -6   4   0    0.55    0.51
   5  -4   0    1.30    0.34
  -5   4   0    1.93    0.47
  -5   4   0    2.96    0.76
   4  -4   0    0.00    0.22
  -4   4   0    0.52    0.42
  -4   4   0    0.25    0.35
  -4   4   0    0.96    0.42
   3  -4   0   16.86    0.58
  -3   4   0   18.23    0.85
  -3   4   0   17.51    1.11
  -3   4   0   19.01    1.09
  -2   4   0   34.97    1.45
  -2   4   0   35.79    1.38
  -2   4   0   33.28    1.04
  -1   4   0    4.64    0.44
   0   4   0   22.34    0.67
   0   4   0   23.39    0.86
   1   4   0  259.74    5.76
   1   4   0  231.22    5.49
   1   4   0  259.75    5.60
   2   4   0   79.32    1.92
   3   4   0   15.10    0.66
   4   4   0   -0.02    0.29
   5   4   0    0.02    0.35
   6   4   0   13.51    1.06
   7   4   0    0.24    0.52
   8   4   0    0.46    0.63
   9   4   0    1.55    0.81
   7  -5   0    0.79    0.40
  -7   5   0    0.76    0.68
   6  -5   0   49.53    1.46
  -6   5   0   44.75    2.43
   5  -5   0  120.36    2.88
  -5   5   0  117.24    4.04
  -4   5   0    1.44    0.67
  -4   5   0    1.16    0.55
  -3   5   0    0.55    0.40
  -3   5   0    1.70    0.50
  -2   5   0    7.33    0.81
  -2   5   0    7.86    0.71
  -1   5   0    0.30    0.24
   0   5   0    0.81    0.26
   1   5   0   14.28    0.58
   1   5   0   14.25    0.69
   2   5   0   34.68    0.94
   3   5   0    6.21    0.45
   4   5   0   82.39    2.35
   5   5   0    0.66    0.44
   6   5   0   -0.14    0.40
   7   5   0    8.41    1.07
   8   5   0    0.48    0.63
   9   5   0    0.52    0.73
  -7   6   0    0.68    0.75
  -6   6   0    1.91    0.83
  -5   6   0    0.14    0.50
  -4   6   0   99.79    3.52
  -3   6   0    0.73    0.48
  -3   6   0    2.43    0.63
  -2   6   0   15.15    1.04
  -2   6   0   16.41    1.13
  -1   6   0    4.08    0.62
   0   6   0    0.84    0.33
   1   6   0   16.57    0.71
   1   6   0   18.13    0.87
   2   6   0   33.03    1.04
   2   6   0   34.08    1.26
   3   6   0    0.01    0.24
   4   6   0    1.87    0.41
   5   6   0   15.47    0.98
   6   6   0    9.89    1.04
   7   6   0    3.06    0.80
   8   6   0    0.55    0.65
  -6   7   0    0.03    0.66
  -5   7   0    0.97    0.63
  -4   7   0    1.89    0.73
  -3   7   0    1.36    0.55
  -2   7   0    4.47    0.78
  -2   7   0    4.53    0.77
  -1   7   0   18.67    1.12
   0   7   0   10.59    0.78
   0   7   0   10.48    0.70
   1   7   0   -0.12    0.24
   1   7   0   -0.11    0.19
   2   7   0    9.67    0.71
   2   7   0    8.22    0.53
   3   7   0   16.92    0.95
   3   7   0   15.32    0.74
   4   7   0    3.14    0.52
   5   7   0   25.85    1.28
   6   7   0   61.74    2.31
   7   7   0   16.51    1.29
   8   7   0    2.95    0.84
  -5   8   0    5.53    1.23
  -5   8   0    5.31    1.01
  -4   8   0    8.20    1.25
  -3   8   0   10.33    1.29
  -2   8   0    0.67    0.50
  -2   8   0    0.88    0.44
  -1   8   0    2.94    0.66
  -1   8   0    2.41    0.55
   0   8   0    0.15    0.28
   0   8   0   -0.13    0.30
   1   8   0    5.24    0.75
   1   8   0    4.18    0.52
   2   8   0    8.15    0.88
   2   8   0    6.20    0.55
   3   8   0    2.68    0.44
   3   8   0    3.41    0.61
   4   8   0   31.11    1.46
   4   8   0   31.94    1.27
   5   8   0   -0.22    0.44
   6   8   0   -0.06    0.54
   7   8   0   13.05    1.20
  -4   9   0    3.38    0.82
  -3   9   0   22.99    1.68
  -3   9   0   26.64    1.63
  -2   9   0    3.48    0.72
  -2   9   0    2.51    0.70
  -1   9   0   10.02    1.23
  -1   9   0    8.89    0.94
   0   9   0   -0.06    0.31
   0   9   0    0.05    0.41
   1   9   0    5.06    0.79
   1   9   0    5.45    0.63
   2   9   0    1.50    0.52
   2   9   0    0.93    0.38
   3   9   0    0.08    0.35
   3   9   0    0.00    0.35
   4   9   0    0.30    0.41
   4   9   0    0.60    0.41
   5   9   0    6.47    0.93
   5   9   0    7.34    0.86
   6   9   0    0.46    0.55
  -2  10   0    0.37    0.58
  -1  10   0   10.88    0.98
  -1  10   0    7.72    1.09
   0  10   0    0.44    0.48
   0  10   0    0.68    0.44
   1  10   0    0.30    0.43
   1  10   0    0.98    0.41
   2  10   0    3.46    0.74
   2  10   0    3.91    0.57
   3  10   0    1.32    0.46
   3  10   0    2.30    0.65
   4  10   0    2.73    0.67
   4  10   0    1.60    0.52
   5  10   0    3.53    0.71
   5  10   0    3.75    0.76
   4  10  -1    4.82    0.81
   4  10  -1    2.72    0.64
   3  10  -1    0.09    0.44
   3  10  -1    0.01    0.36
   2  10  -1    0.35    0.40
   2  10  -1    0.39    0.46
   1  10  -1   11.33    0.93
   1  10  -1   11.81    1.11
   0  10  -1    3.56    0.74
   0  10  -1    2.28    0.58
  -1  10  -1   12.12    1.60
  -1  10  -1   11.41    1.07
   6   9  -1    2.25    0.67
   5   9  -1    1.13    0.58
   5   9  -1    0.97    0.50
   4   9  -1    2.33    0.56
   4   9  -1    5.37    0.87
   3   9  -1    2.65    0.53
   3   9  -1    3.50    0.69
   2   9  -1   -0.19    0.35
   2   9  -1   -0.34    0.31
   1   9  -1   12.84    0.90
   1   9  -1   13.15    1.05
   0   9  -1    0.98    0.46
   0   9  -1    2.43    0.54
  -1   9  -1   14.87    1.10
  -1   9  -1   14.27    1.20
  -2   9  -1    9.59    1.30
  -2   9  -1   10.93    1.04
  -3   9  -1   17.39    1.36
  -3   9  -1   15.82    1.43
   7   8  -1    1.73    0.78
   6   8  -1   24.22    1.47
   5   8  -1    1.74    0.60
   4   8  -1    0.49    0.43
   3   8  -1    6.83    0.66
   3   8  -1    8.75    0.96
   2   8  -1    0.99    0.36
   2   8  -1    0.51    0.36
   1   8  -1    7.14    0.64
   1   8  -1    7.87    0.92
   0   8  -1    1.36    0.42
   0   8  -1    1.08    0.46
  -1   8  -1   12.61    1.03
  -1   8  -1   12.85    0.95
  -2   8  -1   13.13    1.06
  -2   8  -1   13.31    1.13
  -3   8  -1    6.33    0.92
  -3   8  -1    6.12    1.08
  -4   8  -1    0.22    0.51
  -4   8  -1    0.13    0.50
  -5   8  -1    2.54    0.77
   8   7  -1   26.23    1.83
   7   7  -1   16.91    1.43
   6   7  -1    7.59    0.96
   5   7  -1   16.05    1.09
   4   7  -1    3.02    0.52
   3   7  -1    5.16    0.68
   3   7  -1    4.67    0.54
   2   7  -1   10.35    0.77
   2   7  -1   11.67    0.69
   1   7  -1   29.71    1.29
   1   7  -1   27.93    1.14
   0   7  -1    9.82    0.71
   0   7  -1    8.48    0.73
  -1   7  -1    1.85    0.46
  -1   7  -1    1.02    0.37
  -1   7  -1    1.18    0.44
  -2   7  -1    3.46    0.67
  -2   7  -1    5.71    0.90
  -2   7  -1    4.42    0.69
  -3   7  -1    0.79    0.47
  -3   7  -1    0.53    0.44
  -4   7  -1    1.20    0.56
  -4   7  -1    1.45    0.68
  -5   7  -1   -0.62    0.49
  -5   7  -1   -0.38    0.43
  -6   7  -1   -0.29    0.70
   8   6  -1    1.35    0.76
   7   6  -1    8.53    1.07
   6   6  -1    4.52    0.80
   5   6  -1    1.61    0.51
   4   6  -1    9.80    0.75
   3   6  -1    3.20    0.43
   2   6  -1    3.27    0.52
   2   6  -1    1.92    0.32
   1   6  -1   16.16    0.76
   1   6  -1   15.98    0.85
   0   6  -1    5.11    0.62
   0   6  -1    5.38    0.55
  -1   6  -1    2.00    0.42
  -1   6  -1    2.53    0.47
  -1   6  -1    1.65    0.42
  -2   6  -1  146.00    4.08
  -2   6  -1  141.29    4.26
  -2   6  -1  147.10    4.14
  -3   6  -1    0.57    0.42
  -3   6  -1    0.12    0.40
  -4   6  -1    0.07    0.39
  -5   6  -1    2.54    0.77
  -6   6  -1   12.75    1.70
   9   5  -1    1.38    0.84
   8   5  -1    1.59    0.79
   7   5  -1   -0.14    0.52
   6   5  -1   40.96    1.86
   5   5  -1    1.61    0.50
   4   5  -1    7.84    0.67
   3   5  -1    9.21    0.60
   2   5  -1    5.89    0.43
   1   5  -1    1.03    0.24
   1   5  -1    1.65    0.33
   0   5  -1    1.22    0.30
   0   5  -1    1.08    0.29
  -1   5  -1    8.35    0.71
  -1   5  -1    9.50    0.67
  -1   5  -1    7.78    0.63
  -2   5  -1    0.62    0.35
  -2   5  -1    1.45    0.43
  -3   5  -1  191.61    5.15
  -3   5  -1  183.98    5.25
  -4   5  -1  101.58    3.44
  -5   5  -1    9.43    1.36
   5  -5   1    7.12    0.51
  -6   5  -1   17.25    1.53
   6  -5   1   18.64    0.81
  -7   5  -1    1.29    0.78
   7  -5   1    0.78    0.38
   9   4  -1    0.41    0.71
   8   4  -1    3.32    0.85
   7   4  -1    0.45    0.55
   6   4  -1    3.63    0.71
   5   4  -1    0.49    0.38
   4   4  -1   39.33    1.47
   3   4  -1  182.35    4.38
   2   4  -1    8.64    0.39
   2   4  -1    8.00    0.45
   1   4  -1    4.06    0.32
   1   4  -1    3.57    0.24
   1   4  -1    4.20    0.37
   0   4  -1   24.93    0.91
   0   4  -1   23.70    0.89
  -1   4  -1   24.11    0.71
  -1   4  -1   23.63    1.06
  -1   4  -1   25.04    0.99
  -2   4  -1    6.42    0.69
  -2   4  -1    4.64    0.39
  -2   4  -1    5.06    0.61
  -3   4  -1    0.94    0.36
  -3   4  -1    0.94    0.42
  -3   4  -1    1.14    0.33
   3  -4   1    1.05    0.23
  -4   4  -1   -0.10    0.32
  -4   4  -1    0.32    0.36
  -4   4  -1    0.13    0.37
   4  -4   1    0.43    0.25
  -5   4  -1   64.09    2.62
   5  -4   1   64.26    1.81
  -6   4  -1    9.69    1.32
  -6   4  -1    6.98    0.90
   6  -4   1    8.23    0.68
  -7   4  -1   35.30    2.21
  -7   4  -1   36.62    1.89
   7  -4   1   37.99    1.46
  -8   4  -1    5.16    1.03
  -8   4  -1    6.80    1.40
   8  -4   1    7.47    0.80
   9   3  -1    0.58    0.72
   8   3  -1   15.58    1.43
   7   3  -1   21.69    1.51
   6   3  -1    6.45    0.91
   5   3  -1   31.69    1.47
   4   3  -1    9.57    0.73
   3   3  -1   59.99    1.75
   2   3  -1    5.06    0.33
   2   3  -1    5.20    0.36
   1   3  -1   52.91    1.43
   1   3  -1   56.73    1.37
   0   3  -1    2.90    0.33
   0   3  -1    2.87    0.32
  -1   3  -1   60.43    1.71
  -1   3  -1   60.52    1.84
  -1   3  -1   60.69    1.48
  -2   3  -1    0.29    0.18
  -2   3  -1    0.80    0.29
  -2   3  -1    0.42    0.25
   2  -3   1    0.72    0.17
  -3   3  -1   13.98    0.79
  -3   3  -1   13.79    0.73
  -3   3  -1   14.09    0.95
  -3   3  -1   15.51    0.92
   3  -3   1   12.51    0.63
   3  -3   1   13.12    0.57
  -4   3  -1    4.08    0.54
  -4   3  -1    3.84    0.65
  -4   3  -1    3.88    0.56
  -4   3  -1    4.15    0.69
   4  -3   1    2.93    0.43
   4  -3   1    3.64    0.40
  -5   3  -1   -0.05    0.38
  -5   3  -1    0.51    0.42
  -5   3  -1   -0.17    0.35
  -5   3  -1   -0.05    0.32
   5  -3   1    0.50    0.33
  -6   3  -1    0.06    0.46
  -6   3  -1    0.58    0.45
   6  -3   1    0.27    0.35
  -7   3  -1    3.68    0.92
  -7   3  -1    3.43    0.72
   7  -3   1    3.09    0.57
  -8   3  -1   13.49    1.76
  -8   3  -1   13.61    1.34
   8  -3   1   12.15    1.03
  -9  -2   1    0.69    0.73
   8   2  -1    3.09    0.82
  -8  -2   1    3.61    0.90
   7   2  -1    0.94    0.57
  -7  -2   1    1.38    0.64
   6   2  -1   30.69    1.62
  -6  -2   1   29.52    1.64
   5   2  -1   39.10    1.66
  -5  -2   1   35.33    1.66
   4   2  -1    2.77    0.50
   4   2  -1    2.43    0.35
   4   2  -1    2.74    0.36
  -4  -2   1    2.76    0.52
   3   2  -1   26.76    1.05
   3   2  -1   26.87    0.90
   3   2  -1   28.38    0.88
   2   2  -1   53.39    1.46
   1   2  -1   49.38    1.27
   0   2  -1   33.29    0.95
   0   2  -1   33.94    1.00
   0   2  -1   36.07    1.00
  -1   2  -1   93.67    2.45
  -1   2  -1   93.22    2.33
  -1   2  -1   93.61    2.27
  -1   2  -1   93.59    2.16
   1  -2   1   93.08    2.12
  -2   2  -1    0.06    0.17
  -2   2  -1    0.25    0.22
  -2   2  -1   -0.18    0.15
  -2   2  -1    0.16    0.17
   2  -2   1    0.19    0.15
   2  -2   1    0.05    0.18
   2  -2   1    0.00    0.11
  -3   2  -1    2.79    0.41
  -3   2  -1    4.26    0.48
  -3   2  -1    3.54    0.53
  -3   2  -1    3.46    0.54
   3  -2   1    3.23    0.41
   3  -2   1    3.29    0.35
   3  -2   1    3.49    0.48
   3  -2   1    3.78    0.33
  -4   2  -1   70.00    2.48
  -4   2  -1   70.49    2.16
  -4   2  -1   69.95    2.15
  -4   2  -1   69.81    2.39
   4  -2   1   69.66    2.10
   4  -2   1   72.65    1.97
   4  -2   1   72.84    2.01
  -5   2  -1   13.57    0.91
  -5   2  -1   15.81    1.11
  -5   2  -1   13.45    0.91
  -5   2  -1   15.88    1.20
   5  -2   1   13.12    0.84
   5  -2   1   14.05    0.86
  -6   2  -1    5.41    0.90
  -6   2  -1    5.50    0.75
   6  -2   1    5.23    0.66
  -7   2  -1    4.72    1.01
  -7   2  -1    4.86    0.81
   7  -2   1    3.30    0.59
  -8   2  -1   -0.22    0.61
  -8   2  -1    0.70    0.69
   8  -2   1   -0.47    0.45
  -9   2  -1   -0.47    0.70
  -9   2  -1    0.49    0.78
   9  -2   1    0.16    0.53
  -9  -1   1    0.62    0.74
  -8  -1   1    0.33    0.49
  -8  -1   1   -0.14    0.60
   7   1  -1    0.28    0.52
  -7  -1   1    0.26    0.52
  -7  -1   1   -0.29    0.40
   6   1  -1    5.94    0.85
   6   1  -1    7.55    0.82
  -6  -1   1    6.81    0.66
  -6  -1   1    7.62    1.03
   5   1  -1    0.91    0.36
   5   1  -1    1.63    0.51
   5   1  -1    1.19    0.47
  -5  -1   1    0.90    0.46
  -5  -1   1    1.26    0.35
   4   1  -1  211.75    5.01
   4   1  -1  204.39    5.29
  -4  -1   1  214.86    5.41
  -4  -1   1  207.85    4.91
  -4  -1   1  211.78    4.83
  -4  -1   1  207.43    4.83
   3   1  -1   20.09    0.76
   3   1  -1   20.27    0.91
   3   1  -1   20.24    0.79
  -3  -1   1   20.10    0.74
  -3  -1   1   20.98    0.67
  -3  -1   1   19.95    0.96
   2   1  -1  322.70    7.13
   2   1  -1  319.25    7.12
   2   1  -1  322.75    7.16
   2   1  -1  322.86    7.29
  -2  -1   1  320.80    7.10
  -2  -1   1  322.34    7.40
   1   1  -1   45.24    1.13
   1   1  -1   47.52    1.11
   1   1  -1   46.16    1.19
   0   1  -1  339.84    7.45
  -1   1  -1   14.15    0.66
  -1   1  -1   15.20    0.49
  -1   1  -1   13.97    0.54
  -1   1  -1   16.00    0.57
   1  -1   1   14.82    0.68
   1  -1   1   15.79    0.57
   1  -1   1   15.38    0.46
  -2   1  -1   99.37    2.51
  -2   1  -1  100.82    2.51
  -2   1  -1  100.32    2.59
  -2   1  -1  101.28    2.46
  -2   1  -1  100.82    2.70
   2  -1   1  104.41    2.51
   2  -1   1   96.17    2.39
   2  -1   1   97.96    2.52
   2  -1   1  103.96    2.95
   2  -1   1  100.12    2.42
  -3   1  -1    1.10    0.29
  -3   1  -1    0.76    0.29
  -3   1  -1    0.57    0.25
  -3   1  -1    0.65    0.30
  -3   1  -1    0.93    0.26
   3  -1   1    0.20    0.18
   3  -1   1    0.44    0.25
   3  -1   1    0.56    0.25
   3  -1   1    0.69    0.22
  -4   1  -1   15.98    0.83
  -4   1  -1   14.40    0.75
  -4   1  -1   14.88    0.93
  -4   1  -1   16.46    0.83
  -4   1  -1   18.00    1.07
   4  -1   1   15.50    0.80
   4  -1   1   15.94    0.82
  -5   1  -1   25.42    1.38
  -5   1  -1   25.25    1.16
  -5   1  -1   24.32    1.15
   5  -1   1   23.62    1.15
   5  -1   1   25.23    1.13
  -6   1  -1   42.31    2.01
  -6   1  -1   44.02    1.69
   6  -1   1   44.58    1.68
  -7   1  -1    2.77    0.60
  -7   1  -1    2.26    0.73
   7  -1   1    1.21    0.51
  -8   1  -1    0.76    0.59
  -8   1  -1   -0.58    0.55
   8  -1   1   -0.10    0.49
  -9   1  -1    0.90    0.78
  -9   1  -1    0.00    0.67
   9  -1   1   -0.32    0.59
  -9   0   1   -0.38    0.62
  -9   0   1    0.17    0.77
  -8   0   1    3.23    0.74
  -8   0   1    3.36    0.94
   7   0  -1    1.55    0.59
  -7   0   1    2.63    0.60
  -7   0   1    2.15    0.74
   6   0  -1    1.67    0.44
   6   0  -1    1.33    0.50
   6   0  -1    1.42    0.52
  -6   0   1    1.47    0.46
  -6   0   1    2.00    0.51
  -6   0   1    2.68    0.69
   5   0  -1    2.65    0.58
   5   0  -1    3.11    0.49
   5   0  -1    3.40    0.57
  -5   0   1    3.09    0.45
  -5   0   1    3.52    0.60
  -5   0   1    3.21    0.65
  -5   0   1    3.00    0.50
   4   0  -1   40.93    1.36
   4   0  -1   41.76    1.45
   4   0  -1   41.91    1.59
  -4   0   1   39.30    1.32
  -4   0   1   41.43    1.34
  -4   0   1   39.12    1.34
  -4   0   1   40.68    1.53
  -4   0   1   39.84    1.62
   3   0  -1    0.38    0.20
   3   0  -1    0.65    0.24
   3   0  -1    0.37    0.27
   3   0  -1    0.26    0.29
  -3   0   1    0.64    0.22
  -3   0   1    0.33    0.28
  -3   0   1    0.65    0.24
  -3   0   1    0.28    0.23
  -3   0   1    0.60    0.25
  -2   0   1  134.63    3.18
   1   0  -1    7.75    0.43
   1   0  -1    8.13    0.32
   1   0  -1    8.12    0.35
  -1   0   1    8.09    0.35
  -1   0   1    8.33    0.41
  -1   0   1    6.31    0.30
   0   0  -1  122.90    2.71
   0   0   1  125.67    2.77
  -1   0  -1  240.82    5.44
  -1   0  -1  247.79    5.41
   1   0   1  250.72    5.44
   1   0   1  242.49    5.40
   1   0   1  245.02    5.45
  -2   0  -1   12.86    0.54
  -2   0  -1   13.68    0.55
  -2   0  -1   12.86    0.53
  -2   0  -1   13.67    0.61
   2   0   1   13.64    0.67
   2   0   1   13.51    0.59
   2   0   1   13.70    0.54
   2   0   1   12.81    0.56
  -3   0  -1    7.53    0.49
  -3   0  -1    6.88    0.47
  -3   0  -1    7.62    0.46
  -3   0  -1    7.07    0.56
   3   0   1    7.92    0.48
   3   0   1    8.04    0.56
   3   0   1    7.73    0.51
   3   0   1    7.55    0.51
  -4   0  -1   55.11    1.60
  -4   0  -1   55.82    1.90
  -4   0  -1   52.95    1.61
  -4   0  -1   50.86    1.60
   4   0   1   52.00    1.79
   4   0   1   52.40    1.67
   4   0   1   53.32    1.67
  -5   0  -1   13.37    0.99
  -5   0  -1   15.20    0.79
  -5   0  -1   14.57    0.85
   5   0   1   13.67    0.86
   5   0   1   15.04    1.00
   5   0   1   14.95    0.91
  -6   0  -1    3.29    0.73
  -6   0  -1    3.30    0.53
  -6   0  -1    2.71    0.48
   6   0   1    3.46    0.60
   6   0   1    4.19    0.79
   6   0   1    3.02    0.54
  -7   0  -1   -0.17    0.40
  -7   0  -1    0.26    0.56
  -8   0  -1    8.27    0.91
  -8   0  -1    6.52    1.11
  -9   0  -1    0.20    0.73
  -9   0  -1    0.05    0.63
   9  -1  -1    3.19    0.76
  -9   1   1    2.59    0.85
  -9   1   1    1.69    0.88
   8  -1  -1   16.45    1.26
  -8   1   1   10.49    1.37
  -8   1   1   16.82    1.31
   7  -1  -1   -0.69    0.39
  -7   1   1    0.32    0.46
  -7   1   1    0.27    0.53
   6  -1  -1    5.62    0.69
  -6   1   1    7.37    0.93
  -6   1   1    6.18    0.75
  -6   1   1    6.90    1.02
   5  -1  -1    2.51    0.54
   5  -1  -1    3.00    0.48
  -5   1   1    2.94    0.63
  -5   1   1    2.63    0.57
  -5   1   1    3.61    0.56
  -5   1   1    2.70    0.52
   4  -1  -1    7.77    0.56
   4  -1  -1    7.66    0.66
  -4   1   1    7.87    0.62
  -4   1   1    7.21    0.70
  -4   1   1    7.53    0.62
  -4   1   1    8.51    0.76
  -4   1   1    7.86    0.58
   3  -1  -1   -0.12    0.18
   3  -1  -1    0.10    0.20
   3  -1  -1   -0.03    0.16
   3  -1  -1   -0.16    0.20
  -3   1   1    0.26    0.23
  -3   1   1    0.08    0.21
  -3   1   1    0.31    0.23
  -3   1   1    0.35    0.24
  -3   1   1   -0.03    0.17
   2  -1  -1    0.14    0.07
  -2   1   1    0.12    0.20
  -2   1   1    0.39    0.20
  -2   1   1    0.19    0.16
   1  -1  -1   12.62    0.38
   1  -1  -1   12.28    0.41
  -1   1   1   13.15    0.54
  -1   1   1   12.86    0.41
  -1   1   1   12.45    0.45
   1   1   1    4.16    0.22
  -2  -1  -1   34.53    1.06
   2   1   1   32.86    1.02
   2   1   1   32.56    0.91
   2   1   1   34.03    0.91
  -3  -1  -1    2.52    0.28
  -3  -1  -1    3.37    0.42
   3   1   1    3.01    0.40
   3   1   1    2.21    0.28
   3   1   1    2.95    0.34
  -4  -1  -1   88.18    2.63
  -4  -1  -1   88.25    2.25
   4   1   1   87.77    2.58
   4   1   1   88.52    2.39
  -5  -1  -1   -0.48    0.26
  -5  -1  -1    0.49    0.41
   5   1   1    0.32    0.32
   5   1   1    0.53    0.41
  -6  -1  -1   23.98    1.04
  -6  -1  -1   25.71    1.45
   6   1   1   20.90    1.16
   6   1   1   25.19    1.40
  -7  -1  -1   11.55    0.84
  -7  -1  -1    9.48    1.15
   7   1   1   13.17    1.16
  -8  -1  -1    2.60    0.80
  -8  -1  -1    2.66    0.58
  -9  -1  -1    1.08    0.75
   9  -2  -1   -0.19    0.58
  -9   2   1    0.13    0.74
  -9   2   1    0.07    0.77
   8  -2  -1    4.50    0.75
  -8   2   1    7.19    0.98
  -8   2   1    7.23    1.30
   7  -2  -1    0.81    0.50
  -7   2   1    1.24    0.68
  -7   2   1    1.03    0.60
   6  -2  -1    1.13    0.46
  -6   2   1    0.47    0.42
  -6   2   1    0.78    0.50
  -6   2   1    1.05    0.55
   5  -2  -1    1.01    0.32
   5  -2  -1    1.28    0.44
  -5   2   1    0.71    0.43
  -5   2   1    0.48    0.55
  -5   2   1    1.17    0.44
  -5   2   1    1.10    0.38
   4  -2  -1    4.93    0.47
   4  -2  -1    5.34    0.54
   4  -2  -1    4.37    0.63
   4  -2  -1    5.83    0.48
  -4   2   1    6.85    0.71
  -4   2   1    6.51    0.79
  -4   2   1    6.20    0.72
  -4   2   1    5.33    0.60
   3  -2  -1   16.92    0.68
   3  -2  -1   17.72    0.69
   3  -2  -1   17.06    0.87
   3  -2  -1   17.51    0.74
  -3   2   1   18.75    0.97
  -3   2   1   17.72    0.80
  -3   2   1   18.28    0.82
  -3   2   1   18.18    0.95
   2  -2  -1   26.02    0.80
   2  -2  -1   25.03    0.74
   2  -2  -1   26.77    0.75
  -2   2   1   27.54    1.06
  -2   2   1   26.02    0.87
  -2   2   1   25.37    0.85
  -1   2   1    1.96    0.29
  -1   2   1    1.61    0.15
  -1   2   1    1.69    0.16
   0   2   1  100.24    2.34
   2   2   1  194.82    4.43
  -3  -2  -1   71.56    2.04
   3   2   1   69.45    1.96
  -4  -2  -1   17.56    0.94
   4   2   1   17.15    0.74
   4   2   1   18.19    0.90
  -5  -2  -1    7.93    0.78
   5   2   1    8.41    0.80
  -6  -2  -1   44.60    1.95
   6   2   1   44.89    1.92
  -7  -2  -1    3.11    0.73
   7   2   1    2.23    0.67
  -8  -2  -1   -0.27    0.59
   8   2   1    2.42    0.75
   9  -3  -1   -0.28    0.56
  -9   3   1    1.42    0.79
   8  -3  -1    0.21    0.49
  -8   3   1    0.89    0.69
  -8   3   1    1.10    0.70
   7  -3  -1    1.78    0.56
  -7   3   1    0.68    0.62
  -7   3   1    2.33    0.65
   6  -3  -1    1.51    0.43
  -6   3   1    1.68    0.62
  -6   3   1    1.95    0.59
   5  -3  -1    4.95    0.56
  -5   3   1    4.84    0.65
  -5   3   1    4.96    0.83
  -5   3   1    5.07    0.81
  -5   3   1    6.44    0.78
   4  -3  -1    0.62    0.24
   4  -3  -1    0.91    0.33
  -4   3   1    0.87    0.41
  -4   3   1    0.75    0.36
  -4   3   1    0.47    0.33
  -4   3   1    0.97    0.42
   3  -3  -1    1.85    0.20
   3  -3  -1    1.39    0.23
   3  -3  -1    1.48    0.27
  -3   3   1    1.29    0.38
  -3   3   1    1.39    0.32
  -3   3   1    2.28    0.38
  -3   3   1    1.54    0.39
  -2   3   1   15.91    0.62
  -2   3   1   15.30    0.81
  -1   3   1  529.51   11.82
   0   3   1    0.00    0.08
   0   3   1   -0.12    0.10
   3   3   1   63.03    1.75
   4   3   1   56.36    1.80
  -5  -3  -1    0.43    0.40
   5   3   1   -0.25    0.32
  -6  -3  -1    3.79    0.73
   6   3   1    4.39    0.78
   7   3   1   48.28    2.16
  -8  -3  -1    2.00    0.73
   8   3   1    3.01    0.78
  -9  -3  -1    1.00    0.76
   9   3   1    0.75    0.77
   8  -4  -1   -0.34    0.46
  -8   4   1    1.02    0.80
  -8   4   1    0.58    0.72
   7  -4  -1    9.76    0.83
  -7   4   1    9.80    1.48
  -7   4   1    6.29    0.92
   6  -4  -1    2.05    0.42
  -6   4   1    1.80    0.65
   5  -4  -1    9.54    0.63
  -5   4   1   11.26    1.08
  -5   4   1    9.14    0.84
   4  -4  -1   23.51    0.83
  -4   4   1   23.14    1.37
  -4   4   1   23.24    1.38
  -4   4   1   23.88    1.14
  -3   4   1   -0.14    0.21
  -3   4   1    0.27    0.30
  -3   4   1   -0.09    0.29
  -2   4   1   12.73    0.78
  -2   4   1   11.64    0.52
  -1   4   1  154.89    3.88
   0   4   1   83.01    2.18
   0   4   1   83.39    1.97
   1   4   1   92.32    2.32
   3   4   1    4.76    0.39
   4   4   1   38.33    1.36
   5   4   1    3.48    0.57
   6   4   1   -0.15    0.38
   7   4   1   -0.02    0.50
   8   4   1    3.37    0.83
   9   4   1    4.04    0.96
   8  -5  -1   15.51    0.96
   7  -5  -1   55.16    1.70
  -7   5   1   51.86    2.79
   6  -5  -1    9.71    0.62
  -6   5   1    8.42    1.25
   5  -5  -1   -0.20    0.20
  -5   5   1    0.37    0.52
  -4   5   1   11.60    1.04
  -4   5   1    8.80    1.01
  -3   5   1   -0.03    0.33
  -3   5   1   -0.41    0.24
  -2   5   1   -0.55    0.22
  -1   5   1    8.25    0.62
   0   5   1   54.11    1.61
   0   5   1   50.30    1.37
   1   5   1   13.89    0.65
   4   5   1    4.66    0.53
   5   5   1   12.14    0.84
   6   5   1    0.75    0.46
   7   5   1    3.92    0.80
   8   5   1    0.15    0.62
   9   5   1    0.03    0.75
  -7   6   1    1.28    0.79
  -6   6   1   43.27    2.44
  -5   6   1    0.90    0.65
  -4   6   1   21.10    1.45
  -3   6   1    0.33    0.41
  -3   6   1    0.08    0.37
  -2   6   1    6.48    0.82
  -1   6   1   24.28    1.17
   0   6   1   54.68    1.78
   1   6   1    0.21    0.21
   2   6   1   -0.02    0.19
   4   6   1   25.34    1.01
   5   6   1   11.05    0.80
   6   6   1    2.21    0.59
   7   6   1   26.60    1.55
   8   6   1   51.33    2.39
   9   6   1    6.96    1.72
  -6   7   1    0.86    0.70
  -5   7   1    0.63    0.58
  -4   7   1    1.60    0.70
  -3   7   1    5.50    0.93
  -2   7   1    6.12    0.89
  -1   7   1    4.15    0.67
   0   7   1   14.61    0.91
   1   7   1   11.84    0.78
   2   7   1    0.76    0.32
   3   7   1   24.43    1.10
   4   7   1   93.40    2.50
   5   7   1   41.74    1.57
   6   7   1    0.66    0.45
   7   7   1    1.39    0.66
   8   7   1    1.64    0.78
  -5   8   1    3.16    0.87
  -4   8   1   -0.18    0.51
  -3   8   1   -0.21    0.48
  -2   8   1    0.07    0.43
  -1   8   1    2.09    0.57
   0   8   1   14.77    1.03
   1   8   1    6.29    0.80
   1   8   1    5.96    0.57
   2   8   1   28.79    1.32
   3   8   1    0.17    0.31
   4   8   1    0.93    0.39
   5   8   1   13.80    0.91
   6   8   1    7.13    0.88
   7   8   1    2.86    0.65
  -4   9   1    3.05    0.93
  -3   9   1    1.74    0.71
  -2   9   1   -0.06    0.46
  -1   9   1    5.55    0.94
   0   9   1    0.52    0.36
   0   9   1    0.33    0.46
   1   9   1    1.35    0.39
   1   9   1    1.52    0.54
   2   9   1    0.35    0.35
   3   9   1   15.21    1.04
   4   9   1    1.70    0.50
   5   9   1    0.91    0.44
   6   9   1    0.53    0.49
  -2  10   1    1.57    0.66
  -2  10   1    0.24    0.47
  -1  10   1    1.14    0.51
  -1  10   1    3.28    0.83
   0  10   1    2.21    0.68
   0  10   1    1.78    0.49
   1  10   1    0.40    0.37
   1  10   1    0.36    0.48
   2  10   1    2.73    0.45
   2  10   1    4.14    0.78
   3  10   1    5.81    0.93
   4  10   1    3.95    0.76
   5  10   1    0.86    0.50
   1  11   1    0.21    0.65
   1  11   1    0.59    0.40
   2  11   1   43.79    2.22
   3  11   1   26.58    1.96
   3  10  -2    4.88    0.76
   2  10  -2    6.36    0.82
   2  10  -2    6.58    1.08
   1  10  -2   11.30    1.49
   1  10  -2   13.48    1.07
   0  10  -2   16.28    1.36
   5   9  -2    1.62    0.59
   5   9  -2    1.13    0.56
   4   9  -2   -0.03    0.34
   4   9  -2   -0.20    0.44
   3   9  -2    6.86    0.81
   3   9  -2   11.46    0.96
   2   9  -2    0.48    0.44
   2   9  -2    0.39    0.39
   1   9  -2    4.04    0.65
   1   9  -2    2.78    0.63
   0   9  -2   23.48    1.30
   0   9  -2   21.13    1.39
  -1   9  -2   32.74    1.65
  -1   9  -2   33.06    1.81
  -2   9  -2    5.79    0.90
  -2   9  -2    4.35    0.96
  -3   9  -2    4.13    0.86
   6   8  -2    0.85    0.60
   5   8  -2    4.95    0.75
   4   8  -2    0.77    0.47
   3   8  -2    4.11    0.65
   3   8  -2    4.97    0.75
   2   8  -2    0.73    0.38
   2   8  -2    0.66    0.43
   1   8  -2    6.77    0.86
   1   8  -2    6.31    0.72
   0   8  -2    8.78    0.80
   0   8  -2    8.21    0.99
  -1   8  -2    3.29    0.64
  -1   8  -2    3.37    0.72
  -2   8  -2    1.10    0.51
  -2   8  -2    0.87    0.48
  -3   8  -2    2.98    0.79
  -3   8  -2    1.30    0.56
  -4   8  -2    6.70    1.11
  -4   8  -2    4.96    1.11
   7   7  -2    9.35    1.19
   6   7  -2    0.52    0.53
   5   7  -2   10.63    0.99
   4   7  -2    7.47    0.79
   3   7  -2   20.00    1.04
   2   7  -2   12.34    0.86
   2   7  -2   11.88    0.78
   1   7  -2    0.29    0.27
   1   7  -2    0.29    0.30
   0   7  -2   10.70    0.82
   0   7  -2   11.27    0.82
  -1   7  -2   -0.12    0.28
  -1   7  -2   -0.15    0.30
  -2   7  -2    1.28    0.52
  -2   7  -2    0.78    0.43
  -3   7  -2    2.95    0.71
  -3   7  -2    3.24    0.72
  -4   7  -2    0.56    0.53
  -4   7  -2    0.04    0.41
  -5   7  -2   12.41    1.66
   8   6  -2    5.10    1.07
   7   6  -2    0.79    0.67
   6   6  -2    2.16    0.66
   5   6  -2   -0.64    0.37
   4   6  -2    6.28    0.71
   3   6  -2   18.52    0.94
   2   6  -2    1.40    0.36
   2   6  -2    1.55    0.39
   1   6  -2    2.47    0.40
   1   6  -2    2.76    0.45
   0   6  -2  133.46    3.61
   0   6  -2  131.75    3.56
  -1   6  -2    7.56    0.83
  -1   6  -2    6.48    0.75
  -1   6  -2    4.69    0.60
  -2   6  -2    8.06    0.91
  -2   6  -2    8.01    0.79
  -2   6  -2    9.69    0.95
  -3   6  -2   17.19    1.19
  -3   6  -2   19.41    1.27
  -4   6  -2   21.47    1.47
  -4   6  -2   21.84    1.42
  -5   6  -2    6.57    1.19
  -6   6  -2    1.41    0.80
   9   5  -2    1.40    0.88
   8   5  -2   11.33    1.40
   7   5  -2    0.11    0.56
   6   5  -2   -0.22    0.50
   5   5  -2    7.36    0.89
   4   5  -2    7.59    0.71
   3   5  -2    0.01    0.27
   2   5  -2    0.41    0.27
   1   5  -2   25.15    1.17
   1   5  -2   24.73    0.98
   1   5  -2   22.97    0.99
   0   5  -2    6.78    0.55
   0   5  -2    7.66    0.58
   0   5  -2    6.83    0.57
  -1   5  -2  188.23    4.89
  -1   5  -2  197.98    5.07
  -1   5  -2  196.26    4.90
  -2   5  -2  125.58    3.65
  -2   5  -2  133.50    3.68
  -2   5  -2  129.60    3.83
  -3   5  -2   31.87    1.52
  -3   5  -2   29.50    1.50
  -3   5  -2   32.26    1.66
  -4   5  -2   22.97    1.45
  -4   5  -2   22.29    1.37
   4  -5   2   22.67    0.77
  -5   5  -2   -0.17    0.44
   5  -5   2    1.06    0.30
  -6   5  -2    1.12    0.67
   6  -5   2   -0.18    0.28
  -7   5  -2    2.03    0.88
   7  -5   2    1.66    0.41
   9   4  -2    0.64    0.77
   8   4  -2    4.59    1.01
   7   4  -2    1.57    0.69
   6   4  -2   20.61    1.35
   5   4  -2   95.77    3.03
   4   4  -2    2.51    0.50
   3   4  -2    0.50    0.30
   2   4  -2   10.08    0.59
   1   4  -2   10.64    0.52
   1   4  -2   10.99    0.59
   0   4  -2   20.07    0.85
   0   4  -2   20.05    0.82
   0   4  -2   19.03    0.61
   0   4  -2   19.92    0.86
  -1   4  -2   10.85    0.68
  -1   4  -2   10.29    0.46
  -1   4  -2   10.42    0.73
  -1   4  -2   10.28    0.63
  -2   4  -2    0.09    0.28
  -2   4  -2   -0.30    0.20
  -2   4  -2   -0.03    0.19
  -2   4  -2    0.12    0.24
   2  -4   2   -0.09    0.15
  -3   4  -2   55.54    1.74
  -3   4  -2   49.27    2.08
  -3   4  -2   53.26    2.02
  -3   4  -2   55.61    2.02
   3  -4   2   54.67    1.42
  -4   4  -2    2.67    0.60
  -4   4  -2    2.86    0.50
  -4   4  -2    2.97    0.67
  -4   4  -2    3.55    0.69
   4  -4   2    4.33    0.41
  -5   4  -2   63.86    2.67
   5  -4   2   67.94    1.86
  -6   4  -2   23.47    1.45
  -6   4  -2   23.37    1.67
   6  -4   2   25.37    1.05
  -7   4  -2   10.29    1.48
  -7   4  -2   10.90    1.13
   7  -4   2   12.40    0.86
  -8   4  -2    3.11    1.01
  -8   4  -2    2.49    0.90
   8  -4   2    3.76    0.63
   9   3  -2    5.16    1.09
   8   3  -2    4.35    0.94
   7   3  -2    2.45    0.71
   6   3  -2    2.81    0.67
   5   3  -2    3.16    0.63
   4   3  -2    1.09    0.40
   3   3  -2   44.72    1.49
   3   3  -2   45.14    1.29
   2   3  -2   25.53    0.94
   1   3  -2   49.31    1.44
   1   3  -2   48.80    1.33
   1   3  -2   51.16    1.25
   0   3  -2   -0.11    0.15
   0   3  -2    0.08    0.15
   0   3  -2   -0.02    0.12
   0   3  -2    0.00    0.09
  -1   3  -2   24.64    1.04
  -1   3  -2   24.58    0.99
  -1   3  -2   25.61    0.76
  -1   3  -2   24.99    0.91
   1  -3   2   24.40    0.69
  -2   3  -2    9.68    0.64
  -2   3  -2   10.21    0.75
  -2   3  -2    9.86    0.64
  -2   3  -2    9.99    0.69
   2  -3   2    9.63    0.37
   2  -3   2   10.38    0.43
  -3   3  -2    0.54    0.32
  -3   3  -2    0.19    0.29
  -3   3  -2   -0.08    0.26
  -3   3  -2    0.03    0.29
  -3   3  -2    0.06    0.27
   3  -3   2    0.55    0.26
   3  -3   2   -0.28    0.20
  -4   3  -2    0.93    0.44
  -4   3  -2   -0.12    0.28
  -4   3  -2    0.48    0.35
  -4   3  -2    0.12    0.35
  -4   3  -2    0.01    0.35
   4  -3   2   -0.06    0.24
   4  -3   2    0.33    0.29
  -5   3  -2    1.02    0.44
  -5   3  -2    1.14    0.74
  -5   3  -2    1.57    0.55
   5  -3   2    1.34    0.36
  -6   3  -2   14.04    1.12
  -6   3  -2   15.70    1.30
   6  -3   2   16.00    0.90
  -7   3  -2    8.38    1.22
  -7   3  -2    9.12    1.05
   7  -3   2   10.24    0.83
  -8   3  -2    0.76    0.73
  -8   3  -2    0.69    0.68
   8  -3   2    1.66    0.56
  -9  -2   2    0.80    0.75
   8   2  -2    6.57    1.13
  -8  -2   2    3.16    0.84
   7   2  -2   14.72    1.33
  -7  -2   2   17.19    1.42
   6   2  -2    0.14    0.42
  -6  -2   2    0.84    0.56
   5   2  -2    3.13    0.63
  -5  -2   2    1.71    0.54
   4   2  -2   10.24    0.63
   4   2  -2   11.70    0.83
  -4  -2   2   10.86    0.86
   3   2  -2   32.67    1.24
   3   2  -2   33.74    1.05
   2   2  -2    3.23    0.28
   2   2  -2    2.90    0.34
   2   2  -2    3.54    0.28
   1   2  -2  115.02    2.82
   1   2  -2  114.24    2.73
   1   2  -2  117.80    2.66
   0   2  -2    3.12    0.29
   0   2  -2    3.10    0.30
   0   2  -2    3.42    0.30
   0   2  -2    3.31    0.21
   0   2  -2    3.33    0.26
   0  -2   2    3.42    0.21
  -1   2  -2    9.04    0.53
  -1   2  -2    9.15    0.39
  -1   2  -2    9.38    0.50
  -1   2  -2    9.35    0.47
  -1   2  -2    8.72    0.57
   1  -2   2    9.28    0.37
   1  -2   2    9.69    0.48
   1  -2   2    8.98    0.34
   1  -2   2   10.00    0.61
  -2   2  -2  176.13    4.31
  -2   2  -2  182.49    4.20
  -2   2  -2  178.61    4.57
  -2   2  -2  178.43    4.46
  -2   2  -2  178.90    4.37
   2  -2   2  180.08    4.05
   2  -2   2  177.73    4.25
   2  -2   2  182.00    4.22
   2  -2   2  173.26    4.05
  -3   2  -2   41.56    1.53
  -3   2  -2   41.34    1.65
  -3   2  -2   42.36    1.58
  -3   2  -2   41.74    1.37
  -3   2  -2   41.05    1.42
   3  -2   2   40.54    1.22
   3  -2   2   42.58    1.39
   3  -2   2   43.04    1.19
   3  -2   2   39.61    1.38
  -4   2  -2    6.52    0.79
  -4   2  -2    6.36    0.77
  -4   2  -2    6.65    0.67
  -4   2  -2    6.79    0.64
   4  -2   2    5.02    0.57
   4  -2   2    6.70    0.58
  -5   2  -2   19.36    1.08
  -5   2  -2   18.69    1.23
  -5   2  -2   19.24    1.10
   5  -2   2   23.04    1.52
   5  -2   2   21.70    1.00
  -6   2  -2    1.16    0.48
  -6   2  -2    0.59    0.54
   6  -2   2    0.64    0.39
  -7   2  -2    3.34    0.71
  -7   2  -2    2.63    0.75
   7  -2   2    3.02    0.59
  -8   2  -2    3.11    0.82
  -8   2  -2    3.28    1.01
   8  -2   2    1.61    0.59
  -9   2  -2    2.04    0.83
  -9   2  -2    3.91    1.31
   9  -2   2    2.94    0.74
  -9  -1   2    0.21    0.70
  -8  -1   2    2.48    0.61
  -8  -1   2    1.52    0.70
   7   1  -2    1.24    0.63
  -7  -1   2    1.09    0.67
  -7  -1   2    0.07    0.42
   6   1  -2   51.11    2.18
   6   1  -2   50.58    1.80
  -6  -1   2   48.71    2.23
  -6  -1   2   49.38    1.70
   5   1  -2    7.72    0.89
   5   1  -2   10.01    0.71
  -5  -1   2   10.02    0.95
  -5  -1   2   11.26    0.61
  -5  -1   2    9.14    0.70
   4   1  -2  251.72    6.32
   4   1  -2  264.92    5.99
  -4  -1   2  247.74    5.85
  -4  -1   2  249.94    5.92
  -4  -1   2  256.83    5.84
  -4  -1   2  254.04    6.43
   3   1  -2   33.96    1.09
   3   1  -2   32.30    1.26
  -3  -1   2   32.47    1.02
  -3  -1   2   33.36    1.07
  -3  -1   2   33.89    1.03
  -3  -1   2   33.02    1.33
  -3  -1   2   36.54    1.15
   2   1  -2  229.48    5.03
   2   1  -2  223.24    5.22
   2   1  -2  200.39    5.09
  -2  -1   2  227.01    5.00
  -2  -1   2  224.71    5.03
  -2  -1   2  226.88    5.01
   1   1  -2   28.41    0.78
   1   1  -2   29.58    0.91
   1   1  -2   27.67    0.85
  -1  -1   2   28.42    0.79
  -1  -1   2   29.16    0.82
  -1  -1   2   27.18    0.79
   0   1  -2  110.32    2.64
   0   1  -2  107.45    2.47
   0   1  -2  108.09    2.59
   0  -1   2  108.50    2.57
   0  -1   2  109.68    2.47
   0  -1   2  111.02    2.60
   0  -1   2  107.70    2.47
  -1   1  -2   13.02    0.59
  -1   1  -2   13.25    0.49
  -1   1  -2   13.02    0.56
  -1   1  -2   13.03    0.47
   1  -1   2   13.88    0.51
   1  -1   2   14.08    0.66
   1  -1   2   13.06    0.44
   1  -1   2   13.65    0.58
  -2   1  -2   17.97    0.68
  -2   1  -2   17.60    0.73
  -2   1  -2   17.83    0.73
  -2   1  -2   16.71    0.71
   2  -1   2   17.45    0.70
   2  -1   2   16.84    0.62
   2  -1   2   17.08    0.75
   2  -1   2   16.71    0.59
  -3   1  -2   44.94    1.58
  -3   1  -2   44.93    1.42
  -3   1  -2   44.76    1.54
  -3   1  -2   45.99    1.44
  -3   1  -2   43.16    1.42
   3  -1   2   47.33    1.47
   3  -1   2   44.89    1.32
   3  -1   2   44.58    1.34
  -4   1  -2  110.11    3.24
  -4   1  -2  112.63    3.03
  -4   1  -2  110.85    3.00
  -4   1  -2  113.40    3.26
   4  -1   2  112.42    3.06
   4  -1   2  114.89    2.94
  -5   1  -2    0.53    0.41
  -5   1  -2    0.48    0.39
  -5   1  -2    0.65    0.37
   5  -1   2    0.10    0.32
   5  -1   2    0.71    0.41
   5  -1   2    0.03    0.24
  -6   1  -2    0.13    0.36
  -6   1  -2    0.81    0.45
   6  -1   2    0.32    0.42
  -7   1  -2    3.53    0.66
  -7   1  -2    3.41    0.84
   7  -1   2    3.50    0.65
  -8   1  -2    1.38    0.70
  -8   1  -2    1.90    0.70
   8  -1   2    0.55    0.53
  -9   1  -2   -0.64    0.65
   9  -1   2   -1.16    0.50
  -9   0   2    1.07    0.77
  -9   0   2    0.95    0.69
  -8   0   2    0.13    0.69
  -8   0   2    0.16    0.56
   7   0  -2    0.85    0.52
  -7   0   2    0.32    0.48
  -7   0   2    1.34    0.67
   6   0  -2   31.87    1.69
   6   0  -2   29.81    1.31
   6   0  -2   32.75    1.53
  -6   0   2   31.14    1.39
  -6   0   2   31.76    1.60
  -6   0   2   31.27    1.76
   5   0  -2    1.22    0.46
   5   0  -2    1.25    0.36
   5   0  -2    1.51    0.48
  -5   0   2    1.52    0.41
  -5   0   2    0.77    0.35
  -5   0   2    0.30    0.34
  -5   0   2    0.73    0.48
   4   0  -2 1000.00   21.38
   4   0  -2  974.13   21.79
   4   0  -2  979.00   21.52
  -4   0   2  957.83   21.87
  -4   0   2  953.68   21.40
  -4   0   2  944.07   21.37
  -4   0   2  986.78   21.41
  -4   0   2  982.99   21.63
   3   0  -2    2.17    0.34
   3   0  -2    2.75    0.37
   3   0  -2    1.53    0.38
  -3   0   2    2.04    0.37
  -3   0   2    2.28    0.35
  -3   0   2    2.22    0.35
  -3   0   2    2.47    0.47
  -3   0   2    2.85    0.36
   2   0  -2  482.33   10.46
   2   0  -2  464.37   10.56
   2   0  -2  483.73   10.72
  -2   0   2  473.53   10.76
  -2   0   2  477.46   10.54
  -2   0   2  473.48   10.50
   1   0  -2  362.79    8.10
  -1   0   2  369.25    8.19
  -1   0   2  365.19    8.10
   0   0  -2    8.03    0.29
   0   0  -2    7.51    0.35
   0   0   2    8.03    0.29
   0   0   2    9.08    0.32
   0   0   2    8.15    0.38
  -1   0  -2    3.88    0.27
  -1   0  -2    3.88    0.22
   1   0   2    4.01    0.25
   1   0   2    3.92    0.34
   1   0   2    3.91    0.28
  -2   0  -2  145.12    3.72
  -2   0  -2  137.85    3.29
  -2   0  -2  138.15    3.30
  -2   0  -2  137.35    3.28
  -2   0  -2  137.60    3.34
   2   0   2  141.58    3.35
   2   0   2  137.45    3.26
   2   0   2  141.78    3.83
   2   0   2  138.29    3.35
  -3   0  -2   49.39    1.57
  -3   0  -2   48.34    1.57
  -3   0  -2   50.11    1.43
  -3   0  -2   46.49    1.41
  -3   0  -2   48.03    1.44
   3   0   2   49.24    1.53
   3   0   2   48.00    1.50
   3   0   2   48.72    1.42
  -4   0  -2   11.92    0.82
  -4   0  -2   11.75    0.79
  -4   0  -2   11.61    0.68
  -4   0  -2   11.02    0.66
  -4   0  -2   12.66    0.66
   4   0   2   12.43    0.75
   4   0   2   11.54    0.71
   4   0   2   12.33    0.78
  -5   0  -2    2.89    0.48
  -5   0  -2    1.97    0.38
  -5   0  -2    1.89    0.54
   5   0   2    3.02    0.50
   5   0   2    2.36    0.50
   5   0   2    2.67    0.56
  -6   0  -2   13.79    1.10
  -6   0  -2   13.23    0.91
   6   0   2   12.82    0.93
   6   0   2   14.02    0.96
   6   0   2   12.60    1.03
  -7   0  -2   -0.21    0.44
  -7   0  -2    0.19    0.49
  -8   0  -2    0.31    0.57
  -8   0  -2    0.35    0.62
  -9   0  -2    1.99    0.71
   9  -1  -2    0.12    0.60
  -9   1   2   -0.70    0.68
  -9   1   2    0.18    0.69
   8  -1  -2    0.28    0.54
  -8   1   2    1.22    0.71
  -8   1   2    0.00    0.63
   7  -1  -2    0.48    0.49
  -7   1   2   -0.34    0.42
  -7   1   2   -0.02    0.50
   6  -1  -2    0.24    0.48
  -6   1   2    0.14    0.37
  -6   1   2   -0.12    0.39
  -6   1   2    0.83    0.52
   5  -1  -2    0.60    0.43
   5  -1  -2    0.28    0.36
   5  -1  -2    0.23    0.26
  -5   1   2   -0.12    0.35
  -5   1   2    0.41    0.35
  -5   1   2   -0.09    0.32
  -5   1   2   -0.45    0.32
   4  -1  -2    8.34    0.55
   4  -1  -2    7.81    0.72
   4  -1  -2    8.35    0.69
  -4   1   2    7.51    0.62
  -4   1   2    7.63    0.62
  -4   1   2    6.71    0.72
  -4   1   2    5.92    0.74
   3  -1  -2    2.42    0.30
   3  -1  -2    2.74    0.47
   3  -1  -2    2.05    0.31
   3  -1  -2    2.63    0.40
  -3   1   2    1.86    0.33
  -3   1   2    2.49    0.39
  -3   1   2    2.08    0.45
  -3   1   2    2.94    0.40
   2  -1  -2  568.61   12.41
   2  -1  -2  568.99   12.57
   2  -1  -2  562.92   12.73
  -2   1   2  581.73   12.60
  -2   1   2  560.93   12.51
  -2   1   2  566.65   12.80
  -2   1   2  571.19   12.51
   1  -1  -2   12.24    0.48
   1  -1  -2   12.01    0.39
  -1   1   2   12.10    0.43
  -1   1   2   12.04    0.59
  -1   1   2   12.38    0.53
  -1   1   2   11.80    0.52
   0   1   2   19.11    0.53
   0   1   2   18.94    0.48
   0   1   2   18.84    0.55
   1   1   2    2.28    0.21
  -2  -1  -2  329.56    7.35
  -2  -1  -2  318.27    7.21
   2   1   2  336.75    7.30
   2   1   2  325.61    7.38
   2   1   2  334.50    7.30
  -3  -1  -2   17.42    0.77
  -3  -1  -2   16.45    0.61
   3   1   2   16.21    0.74
   3   1   2   16.01    0.69
  -4  -1  -2   40.07    1.20
  -4  -1  -2   38.76    1.47
   4   1   2   37.50    1.42
   4   1   2   39.22    1.35
   4   1   2   41.33    1.36
  -5  -1  -2   21.09    1.16
  -5  -1  -2   19.89    0.87
   5   1   2   20.24    1.12
   5   1   2   19.36    1.00
  -6  -1  -2    5.99    0.85
  -6  -1  -2    5.48    0.56
   6   1   2    2.99    0.60
   6   1   2    7.05    0.88
  -7  -1  -2    3.21    0.53
  -7  -1  -2    3.48    0.80
   7   1   2    3.19    0.76
  -8  -1  -2   -0.26    0.57
   9  -2  -2    1.32    0.69
  -9   2   2    0.05    0.74
  -9   2   2    0.85    0.84
   8  -2  -2    0.19    0.48
  -8   2   2    0.28    0.67
  -8   2   2    1.18    0.66
   7  -2  -2    0.48    0.48
  -7   2   2    0.26    0.50
  -7   2   2   -0.11    0.50
   6  -2  -2    1.15    0.43
  -6   2   2    1.06    0.54
  -6   2   2    1.55    0.61
  -6   2   2    1.44    0.54
   5  -2  -2    2.07    0.37
   5  -2  -2    1.66    0.45
  -5   2   2    1.70    0.57
  -5   2   2    2.28    0.45
  -5   2   2    1.93    0.47
  -5   2   2    2.16    0.64
   4  -2  -2    2.75    0.37
   4  -2  -2    2.02    0.33
   4  -2  -2    2.77    0.45
  -4   2   2    3.17    0.60
  -4   2   2    2.84    0.53
  -4   2   2    2.82    0.47
  -4   2   2    3.06    0.51
   3  -2  -2    0.93    0.28
   3  -2  -2    0.90    0.22
   3  -2  -2    1.12    0.23
   3  -2  -2    1.22    0.33
  -3   2   2    1.15    0.33
  -3   2   2    0.98    0.34
  -3   2   2    1.00    0.26
   2  -2  -2   45.62    1.29
   2  -2  -2   45.83    1.22
   2  -2  -2   46.83    1.16
  -2   2   2   46.56    1.29
  -2   2   2   47.16    1.56
  -2   2   2   47.44    1.38
  -1   2   2   43.78    1.31
  -1   2   2   42.57    1.22
  -1   2   2   43.51    1.05
  -1   2   2   43.17    1.12
   0   2   2   80.12    1.82
   0   2   2   79.22    1.93
   1   2   2  176.98    3.81
   1   2   2  167.45    3.81
   2   2   2  226.75    5.14
  -3  -2  -2   27.63    1.00
   3   2   2   26.25    0.98
  -4  -2  -2   99.29    2.76
   4   2   2   98.81    2.73
   4   2   2   93.73    2.51
  -5  -2  -2   11.49    0.88
   5   2   2   12.30    0.89
  -6  -2  -2   12.27    1.01
   6   2   2   12.54    1.02
  -7  -2  -2   11.65    1.14
   7   2   2   13.08    1.17
  -8  -2  -2    0.37    0.63
   8   2   2    0.45    0.57
   8  -3  -2    1.79    0.61
  -8   3   2    0.39    0.75
  -8   3   2    0.94    0.76
   7  -3  -2    2.27    0.63
  -7   3   2    1.06    0.60
  -7   3   2    1.30    0.76
   6  -3  -2   -0.07    0.35
  -6   3   2    0.48    0.52
  -6   3   2   -0.27    0.43
   5  -3  -2    0.43    0.37
  -5   3   2    0.21    0.41
  -5   3   2    0.11    0.39
  -5   3   2    0.28    0.37
  -5   3   2    0.12    0.39
   4  -3  -2    2.38    0.32
   4  -3  -2    2.04    0.40
  -4   3   2    2.83    0.58
  -4   3   2    2.98    0.52
  -4   3   2    2.50    0.47
  -4   3   2    2.66    0.59
   3  -3  -2  237.30    5.42
  -3   3   2  238.17    6.01
  -3   3   2  240.04    5.65
  -3   3   2  230.24    5.62
   2  -3  -2    0.40    0.14
  -2   3   2    0.09    0.15
  -2   3   2    0.29    0.26
  -1   3   2  170.34    4.13
   0   3   2    0.07    0.11
   0   3   2    0.38    0.10
   0   3   2    0.29    0.13
   1   3   2   75.21    1.82
   3   3   2    3.88    0.42
   4   3   2   13.26    0.77
  -5  -3  -2   97.93    2.91
   5   3   2   94.31    2.86
  -6  -3  -2    1.47    0.56
   6   3   2    2.73    0.67
  -7  -3  -2    1.16    0.59
   7   3   2    1.84    0.61
  -8  -3  -2    1.31    0.71
   8   3   2    1.30    0.67
   9   3   2    3.49    0.85
   8  -4  -2    2.90    0.62
  -8   4   2    2.81    0.94
  -8   4   2    1.07    0.81
   7  -4  -2    3.01    0.56
  -7   4   2    4.99    1.22
  -7   4   2    3.23    0.83
   6  -4  -2    6.18    0.63
  -6   4   2    7.19    1.18
   5  -4  -2    0.11    0.27
  -5   4   2    0.34    0.46
  -5   4   2    0.16    0.40
   4  -4  -2    6.51    0.47
  -4   4   2    7.38    0.91
  -4   4   2    7.06    0.91
  -4   4   2    5.77    0.68
  -3   4   2   54.43    1.72
  -3   4   2   55.47    2.06
  -2   4   2   15.16    0.88
  -2   4   2   15.19    0.62
  -1   4   2  144.94    3.77
  -1   4   2  152.72    3.76
   0   4   2   35.46    1.12
   0   4   2   34.84    0.97
   0   4   2   34.78    0.97
   1   4   2   23.81    0.79
   3   4   2   27.53    0.91
   4   4   2    3.68    0.49
   5   4   2    3.48    0.59
   6   4   2   10.52    0.95
   7   4   2   10.14    1.11
   8   4   2    1.40    0.68
   9   4   2   -0.83    0.67
   7  -5  -2    1.07    0.35
  -7   5   2    2.18    0.91
   6  -5  -2    7.89    0.58
  -6   5   2    6.97    1.19
   5  -5  -2    0.30    0.22
  -5   5   2   -0.28    0.47
  -4   5   2    1.17    0.54
  -4   5   2    0.45    0.38
  -3   5   2    1.06    0.50
  -2   5   2   26.24    1.26
  -1   5   2   23.13    1.05
   0   5   2   13.68    0.70
   0   5   2   14.11    0.55
   1   5   2    3.61    0.40
   2   5   2   44.61    1.34
   4   5   2    0.34    0.30
   5   5   2   18.63    1.01
   6   5   2    0.99    0.50
   7   5   2    0.63    0.59
   8   5   2    0.98    0.69
   9   5   2    0.53    0.69
  -7   6   2    0.70    0.69
  -6   6   2   18.06    1.62
  -5   6   2    2.49    0.87
  -4   6   2   11.05    1.37
  -3   6   2   10.84    1.03
  -2   6   2   38.22    1.66
  -1   6   2    0.16    0.29
   0   6   2    0.07    0.26
   1   6   2   20.22    0.90
   2   6   2   50.04    1.57
   5   6   2   33.31    1.35
   6   6   2   93.41    2.91
   7   6   2   25.73    1.51
   8   6   2    2.69    0.83
   9   6   2    1.62    1.14
  -6   7   2    0.35    0.65
  -5   7   2    0.61    0.65
  -4   7   2    1.29    0.70
  -3   7   2    7.17    1.06
  -2   7   2   19.71    1.25
  -1   7   2    8.95    0.82
   0   7   2    9.00    0.75
   1   7   2   18.50    0.95
   2   7   2   89.03    2.54
   3   7   2   61.68    1.95
   5   7   2   10.94    0.79
   6   7   2    0.21    0.42
   7   7   2   33.66    1.69
   8   7   2   23.82    1.63
  -5   8   2    1.32    0.76
  -4   8   2    0.76    0.61
  -3   8   2    0.53    0.56
  -2   8   2   15.86    1.24
  -1   8   2    3.92    0.74
   0   8   2   14.67    1.02
   1   8   2   -0.15    0.26
   2   8   2    6.47    0.76
   3   8   2    8.26    0.70
   4   8   2    5.23    0.69
   6   8   2    1.39    0.50
   7   8   2    0.79    0.57
  -4   9   2    0.72    0.61
  -3   9   2    4.48    0.96
  -2   9   2    0.67    0.54
  -1   9   2    5.59    0.96
   0   9   2   -0.10    0.37
   1   9   2   20.07    0.93
   1   9   2   21.29    1.26
   2   9   2    3.62    0.67
   3   9   2    1.50    0.47
   4   9   2    1.41    0.46
   5   9   2    1.00    0.47
   6   9   2    2.69    0.60
   7   9   2   21.70    1.38
  -2  10   2    0.28    0.53
  -1  10   2   -0.05    0.51
   0  10   2    6.86    1.05
   0  10   2    5.19    0.72
   1  10   2    5.03    0.62
   1  10   2    5.61    0.92
   2  10   2    4.86    0.80
   3  10   2    4.80    0.83
   4  10   2    2.09    0.59
   5  10   2    5.96    1.11
   0  11   2   33.69    2.05
   0  11   2   37.87    1.77
   1  11   2   35.35    1.95
   1  11   2   34.51    1.41
   2  11   2    9.74    1.19
   3  11   2    8.21    1.07
   4   9  -3    0.13    0.35
   4   9  -3    0.27    0.50
   3   9  -3    0.15    0.46
   3   9  -3   -0.14    0.29
   2   9  -3   29.90    1.62
   2   9  -3   32.31    1.57
   1   9  -3   34.53    1.63
   1   9  -3   33.09    1.74
   0   9  -3    6.92    1.04
   0   9  -3    6.76    0.89
  -1   9  -3    1.54    0.54
  -1   9  -3    1.01    0.49
  -2   9  -3    1.55    0.69
  -2   9  -3    0.61    0.54
   6   8  -3    1.30    0.69
   5   8  -3    0.65    0.54
   4   8  -3    0.15    0.34
   4   8  -3    0.40    0.49
   3   8  -3    1.47    0.53
   3   8  -3    1.18    0.45
   2   8  -3    2.91    0.58
   2   8  -3    2.59    0.60
   1   8  -3    0.79    0.41
   1   8  -3    1.95    0.57
   0   8  -3    1.74    0.51
   0   8  -3    2.57    0.61
  -1   8  -3    1.26    0.49
  -1   8  -3    1.11    0.51
  -2   8  -3    3.03    0.66
  -2   8  -3    3.21    0.75
  -3   8  -3    3.34    0.84
  -3   8  -3    2.37    0.68
  -4   8  -3    1.21    0.69
  -4   8  -3    1.03    0.67
   7   7  -3    9.66    1.29
   6   7  -3    2.09    0.72
   5   7  -3    7.24    0.93
   4   7  -3    9.26    0.90
   3   7  -3    0.30    0.34
   3   7  -3   -0.21    0.34
   2   7  -3   18.49    1.06
   2   7  -3   17.23    1.01
   1   7  -3    1.74    0.46
   1   7  -3    1.42    0.44
   0   7  -3    0.42    0.36
   0   7  -3    0.31    0.29
  -1   7  -3    7.37    0.86
  -1   7  -3    5.84    0.85
  -2   7  -3    3.56    0.67
  -2   7  -3    4.91    0.83
  -3   7  -3   13.23    1.19
  -3   7  -3   13.32    1.15
  -4   7  -3    9.21    1.12
  -4   7  -3    8.74    1.27
  -5   7  -3   11.67    1.70
   8   6  -3    1.66    0.83
   7   6  -3    0.24    0.59
   6   6  -3    3.01    0.78
   5   6  -3   10.60    1.00
   4   6  -3    0.14    0.41
   3   6  -3    4.31    0.61
   2   6  -3   81.46    2.50
   2   6  -3   80.21    2.44
   1   6  -3   21.96    1.08
   1   6  -3   23.01    1.09
   0   6  -3   35.24    1.44
   0   6  -3   36.64    1.46
  -1   6  -3   43.39    1.73
  -1   6  -3   45.58    1.77
  -2   6  -3   26.97    1.89
  -2   6  -3   27.41    1.41
  -2   6  -3   26.36    1.40
  -3   6  -3    9.33    1.04
  -3   6  -3   11.23    1.30
  -4   6  -3    0.21    0.39
  -4   6  -3    1.27    0.58
  -5   6  -3    1.63    0.70
  -6   6  -3    2.57    0.92
   8   5  -3    1.41    0.77
   7   5  -3    3.52    0.85
   6   5  -3    6.24    0.97
   5   5  -3    0.83    0.49
   4   5  -3    2.10    0.50
   3   5  -3   26.59    1.19
   2   5  -3    8.99    0.68
   1   5  -3  120.80    3.20
   1   5  -3  116.98    3.20
   0   5  -3  118.09    3.21
   0   5  -3  121.01    3.28
  -1   5  -3   73.49    2.35
  -1   5  -3   70.96    2.39
  -1   5  -3   75.30    2.29
  -2   5  -3   17.16    1.15
  -2   5  -3   18.36    1.05
  -2   5  -3   18.59    1.09
  -3   5  -3    0.57    0.37
  -3   5  -3    0.56    0.40
  -3   5  -3   -0.07    0.34
  -4   5  -3    1.29    0.56
  -4   5  -3    1.99    0.57
   4  -5   3    1.56    0.30
  -5   5  -3    3.45    0.81
   5  -5   3    3.81    0.45
  -6   5  -3    0.56    0.68
   6  -5   3    0.72    0.33
  -7   5  -3    0.81    0.73
   7  -5   3    0.15    0.34
   9   4  -3    0.93    0.87
   8   4  -3    6.49    1.13
   7   4  -3   41.54    2.18
   6   4  -3   -0.08    0.44
   5   4  -3    3.71    0.71
   4   4  -3    5.71    0.70
   3   4  -3    1.72    0.41
   2   4  -3   17.56    0.87
   1   4  -3   13.47    0.73
   0   4  -3    0.20    0.18
   0   4  -3    0.18    0.20
   0   4  -3    0.13    0.20
   0   4  -3    0.24    0.16
  -1   4  -3   27.42    1.23
  -1   4  -3   26.69    0.91
  -1   4  -3   29.70    1.22
  -1   4  -3   28.19    1.11
  -2   4  -3    0.79    0.35
  -2   4  -3    0.36    0.26
  -2   4  -3    0.40    0.34
  -2   4  -3    0.49    0.30
   2  -4   3    0.57    0.21
  -3   4  -3   84.19    2.77
  -3   4  -3   86.50    2.78
  -3   4  -3   86.08    2.95
  -3   4  -3   86.08    2.50
   3  -4   3   86.21    2.14
  -4   4  -3   56.83    2.30
  -4   4  -3   59.33    2.47
  -4   4  -3   55.78    2.24
  -4   4  -3   57.64    2.02
   4  -4   3   59.87    1.62
  -5   4  -3   44.83    2.20
  -5   4  -3   50.56    2.42
   5  -4   3   51.06    1.51
  -6   4  -3    2.84    0.76
  -6   4  -3    2.05    0.65
   6  -4   3    1.36    0.42
  -7   4  -3    0.98    0.74
  -7   4  -3    3.17    0.91
   7  -4   3    1.88    0.46
   8   3  -3    0.69    0.68
   7   3  -3    1.04    0.59
   6   3  -3    5.43    0.91
   5   3  -3   20.55    1.27
   4   3  -3   21.29    1.16
   3   3  -3   10.21    0.55
   3   3  -3   10.13    0.71
   2   3  -3    0.76    0.19
   2   3  -3    0.96    0.30
   1   3  -3    2.72    0.25
   1   3  -3    2.74    0.39
   0   3  -3   28.82    1.06
   0   3  -3   27.81    0.96
   0   3  -3   27.94    0.83
   0  -3   3   27.33    0.79
  -1   3  -3    1.81    0.26
  -1   3  -3    1.81    0.37
  -1   3  -3    1.85    0.31
  -1   3  -3    2.06    0.36
  -1   3  -3    2.37    0.43
   1  -3   3    1.81    0.24
  -2   3  -3    5.10    0.64
  -2   3  -3    4.48    0.55
  -2   3  -3    6.01    0.62
  -2   3  -3    4.93    0.58
  -2   3  -3    4.66    0.44
   2  -3   3    5.05    0.46
   2  -3   3    4.62    0.36
  -3   3  -3    0.45    0.35
  -3   3  -3    0.26    0.29
  -3   3  -3   -0.20    0.28
  -3   3  -3   -0.04    0.30
  -3   3  -3   -0.25    0.30
   3  -3   3   -0.02    0.28
   3  -3   3   -0.22    0.23
  -4   3  -3    9.96    0.79
  -4   3  -3    9.19    0.80
  -4   3  -3    9.57    0.88
  -4   3  -3   10.16    0.88
   4  -3   3   10.08    0.61
  -5   3  -3    8.55    1.01
  -5   3  -3    8.79    0.87
   5  -3   3   10.51    0.66
  -6   3  -3   11.52    1.41
  -6   3  -3   12.56    1.07
   6  -3   3   11.82    0.81
  -7   3  -3   15.92    1.32
  -7   3  -3   16.94    1.51
   7  -3   3   14.44    0.98
  -8   3  -3    7.77    1.11
   8  -3   3    5.83    0.76
  -9  -2   3    3.16    0.93
  -8  -2   3    0.51    0.75
   7   2  -3    0.51    0.58
  -7  -2   3    0.78    0.61
   6   2  -3    5.42    0.89
  -6  -2   3    4.88    0.86
   5   2  -3    5.88    0.81
  -5  -2   3    6.72    0.59
  -5  -2   3    5.03    0.79
   4   2  -3   -0.01    0.33
   4   2  -3    0.32    0.27
  -4  -2   3    0.53    0.28
   3   2  -3   29.47    1.22
   3   2  -3   29.76    1.00
  -3  -2   3   29.42    0.96
   2   2  -3    3.89    0.43
   2   2  -3    3.62    0.31
  -2  -2   3    3.81    0.35
   1   2  -3    0.77    0.16
   1   2  -3    1.06    0.25
  -1  -2   3    0.77    0.19
   0   2  -3  181.94    4.40
   0   2  -3  178.89    4.23
   0   2  -3  184.63    4.14
   0  -2   3  178.00    4.10
   0  -2   3  188.00    4.34
   0  -2   3  184.96    4.22
   0  -2   3  182.21    4.10
  -1   2  -3   60.13    1.84
  -1   2  -3   62.66    1.68
  -1   2  -3   61.46    1.76
  -1   2  -3   60.95    1.59
   1  -2   3   60.56    1.54
   1  -2   3   64.57    1.72
   1  -2   3   60.70    1.51
   1  -2   3   63.51    1.77
  -2   2  -3    0.16    0.26
  -2   2  -3    0.03    0.18
  -2   2  -3   -0.06    0.19
  -2   2  -3    0.04    0.17
   2  -2   3    0.30    0.18
   2  -2   3    0.38    0.14
   2  -2   3    0.11    0.17
   2  -2   3   -0.23    0.20
  -3   2  -3   45.12    1.48
  -3   2  -3   45.57    1.61
  -3   2  -3   43.74    1.64
  -3   2  -3   43.17    1.51
   3  -2   3   43.05    1.27
   3  -2   3   43.11    1.48
   3  -2   3   43.18    1.50
   3  -2   3   44.79    1.26
  -4   2  -3    1.77    0.46
  -4   2  -3    1.91    0.54
  -4   2  -3    1.71    0.44
   4  -2   3    1.20    0.41
   4  -2   3    1.34    0.36
  -5   2  -3   11.04    0.88
  -5   2  -3   10.23    0.95
   5  -2   3   11.16    0.75
  -6   2  -3    6.23    0.81
  -6   2  -3    4.78    0.89
   6  -2   3    5.24    0.61
  -7   2  -3    6.43    0.90
  -7   2  -3    6.84    1.16
  -8   2  -3   11.91    1.22
   8  -2   3   11.94    1.05
  -9  -1   3   -0.42    0.70
  -8  -1   3    8.64    1.31
  -8  -1   3   11.51    1.02
   7   1  -3    6.10    1.54
  -7  -1   3    5.22    0.98
  -7  -1   3    6.03    0.76
   6   1  -3  157.51    4.67
   6   1  -3  152.13    4.05
  -6  -1   3  155.48    4.03
  -6  -1   3  150.85    4.71
   5   1  -3   19.12    0.93
   5   1  -3   18.73    1.22
  -5  -1   3   19.32    0.87
  -5  -1   3   17.97    0.95
  -5  -1   3   21.43    1.34
   4   1  -3   50.26    1.54
   4   1  -3   49.87    1.87
  -4  -1   3   49.49    1.93
  -4  -1   3   48.26    1.49
  -4  -1   3   49.42    1.56
  -4  -1   3   48.02    1.56
   3   1  -3    3.68    0.52
   3   1  -3    4.06    0.38
   3   1  -3    3.45    0.41
  -3  -1   3    3.60    0.36
  -3  -1   3    4.12    0.40
  -3  -1   3    4.78    0.46
  -3  -1   3    4.55    0.40
  -3  -1   3    3.45    0.53
   2   1  -3    6.56    0.49
   2   1  -3    4.83    0.59
   2   1  -3    6.07    0.36
  -2  -1   3    6.29    0.39
  -2  -1   3    6.25    0.42
  -2  -1   3    5.74    0.41
   1   1  -3    1.30    0.25
   1   1  -3    1.21    0.18
   1   1  -3    1.58    0.25
  -1  -1   3    1.48    0.24
  -1  -1   3    1.46    0.20
  -1  -1   3    1.30    0.21
   0   1  -3    7.12    0.42
   0   1  -3    6.81    0.43
   0   1  -3    7.05    0.33
   0  -1   3    6.47    0.33
   0  -1   3    7.28    0.32
   0  -1   3    7.05    0.36
   0  -1   3    6.48    0.43
  -1   1  -3   52.79    1.38
  -1   1  -3   52.06    1.55
  -1   1  -3   51.52    1.48
  -1   1  -3   52.58    1.37
  -1   1  -3   51.16    1.50
   1  -1   3   51.16    1.32
   1  -1   3   53.81    1.42
   1  -1   3   54.78    1.64
   1  -1   3   52.69    1.51
  -2   1  -3  170.77    4.06
  -2   1  -3  171.01    4.16
  -2   1  -3  171.45    4.14
  -2   1  -3  169.69    4.11
   2  -1   3  171.84    3.94
   2  -1   3  173.68    4.07
   2  -1   3  170.41    3.94
   2  -1   3  174.03    4.19
  -3   1  -3   12.91    0.73
  -3   1  -3   12.31    0.69
  -3   1  -3   12.09    0.75
  -3   1  -3   12.52    0.71
  -3   1  -3   11.96    0.67
   3  -1   3   12.70    0.62
   3  -1   3   12.66    0.76
  -4   1  -3    6.85    0.62
  -4   1  -3    5.45    0.63
  -4   1  -3    6.96    0.77
  -4   1  -3    7.02    0.66
   4  -1   3    6.49    0.59
   4  -1   3    5.86    0.62
  -5   1  -3   23.57    1.14
  -5   1  -3   22.34    1.27
  -5   1  -3   24.02    1.15
   5  -1   3   22.57    1.06
   5  -1   3   21.91    1.16
  -6   1  -3    1.74    0.58
  -6   1  -3    0.99    0.47
   6  -1   3    1.07    0.44
  -7   1  -3    0.38    0.57
  -7   1  -3    0.80    0.58
   7  -1   3    0.88    0.45
  -8   1  -3    1.74    0.71
   8  -1   3    0.50    0.50
  -9   1  -3    1.35    0.77
   9  -1   3    1.52    0.65
  -9   0   3    0.42    0.68
  -9   0   3   -0.36    0.64
   8   0  -3   12.98    1.73
  -8   0   3    9.96    1.40
  -8   0   3   14.46    1.20
   7   0  -3    0.47    0.48
  -7   0   3   -0.40    0.53
  -7   0   3    0.02    0.48
   6   0  -3  202.42    5.39
   6   0  -3  213.31    5.37
  -6   0   3  202.61    5.20
  -6   0   3  193.60    5.81
   5   0  -3    6.19    0.63
   5   0  -3    5.28    0.69
   5   0  -3    5.92    0.85
  -5   0   3    5.45    0.61
  -5   0   3    4.55    0.64
  -5   0   3    6.60    0.70
  -5   0   3    3.32    0.67
   4   0  -3  309.95    7.19
   4   0  -3  311.58    7.68
  -4   0   3  315.30    7.78
  -4   0   3  308.55    7.28
  -4   0   3  317.28    7.41
  -4   0   3  307.10    7.27
  -4   0   3  315.83    7.30
   3   0  -3  147.56    3.47
   3   0  -3  144.09    3.84
  -3   0   3  138.52    3.54
  -3   0   3  144.49    3.90
  -3   0   3  147.71    3.61
  -3   0   3  143.15    3.56
   2   0  -3    0.85    0.26
   2   0  -3    0.58    0.18
   2   0  -3    0.48    0.21
  -2   0   3    0.51    0.26
  -2   0   3    0.63    0.20
  -2   0   3    0.85    0.24
  -2   0   3    0.52    0.21
  -2   0   3    0.61    0.26
   1   0  -3    0.53    0.13
   1   0  -3    0.55    0.19
   1   0  -3    0.77    0.23
  -1   0   3    0.42    0.21
  -1   0   3    0.58    0.21
  -1   0   3    0.47    0.15
  -1   0   3    0.75    0.16
   0   0  -3   96.93    2.20
   0   0  -3   91.38    2.38
   0   0  -3   91.30    2.34
   0   0  -3   96.76    2.34
   0   0   3   94.28    2.34
   0   0   3   96.44    2.19
   0   0   3   94.16    2.26
  -1   0  -3   66.75    1.74
  -1   0  -3   68.60    1.82
  -1   0  -3   67.09    1.67
  -1   0  -3   65.65    1.59
   1   0   3   67.62    1.69
   1   0   3   66.90    1.78
   1   0   3   67.08    1.62
  -2   0  -3   31.43    0.98
  -2   0  -3   30.51    1.08
  -2   0  -3   30.08    1.00
  -2   0  -3   32.01    0.99
  -2   0  -3   31.59    1.01
   2   0   3   30.26    0.94
   2   0   3   32.28    1.09
   2   0   3   30.33    0.93
   2   0   3   31.07    0.99
  -3   0  -3   30.69    1.05
  -3   0  -3   30.71    1.12
  -3   0  -3   30.27    1.05
  -3   0  -3   29.02    1.15
  -3   0  -3   29.21    1.05
   3   0   3   30.10    1.11
   3   0   3   30.40    1.02
   3   0   3   29.74    1.14
  -4   0  -3   20.13    0.92
  -4   0  -3   19.75    1.02
  -4   0  -3   20.02    0.91
   4   0   3   19.26    1.00
   4   0   3   21.75    1.01
   4   0   3   21.07    0.92
  -5   0  -3    0.93    0.45
  -5   0  -3    1.41    0.43
  -5   0  -3    0.79    0.31
   5   0   3    1.57    0.44
   5   0   3    0.69    0.41
   5   0   3    1.17    0.41
  -6   0  -3    1.22    0.51
  -6   0  -3    1.91    0.49
   6   0   3    2.45    0.61
   6   0   3    0.58    0.40
   6   0   3    1.73    0.51
  -7   0  -3    4.47    0.67
  -7   0  -3    3.29    0.72
  -8   0  -3    5.99    0.80
  -9   0  -3    1.42    0.64
   9  -1  -3   -0.01    0.57
  -9   1   3    0.01    0.71
  -9   1   3    0.45    0.72
   8  -1  -3    0.05    0.54
  -8   1   3   -0.03    0.63
  -8   1   3    0.43    0.66
   7  -1  -3   -0.12    0.45
  -7   1   3    0.61    0.55
  -7   1   3    0.78    0.63
   6  -1  -3    3.56    0.63
  -6   1   3    2.52    0.72
  -6   1   3    3.87    0.66
  -6   1   3    2.43    0.62
   5  -1  -3    0.73    0.46
   5  -1  -3    0.70    0.30
  -5   1   3    0.73    0.41
  -5   1   3    1.40    0.44
  -5   1   3    0.67    0.46
  -5   1   3    0.24    0.36
   4  -1  -3  159.53    4.11
   4  -1  -3  157.14    3.85
   4  -1  -3  154.80    4.36
  -4   1   3  159.91    4.21
  -4   1   3  155.90    4.02
  -4   1   3  162.13    4.09
  -4   1   3  160.63    4.46
   3  -1  -3    8.46    0.46
   3  -1  -3    8.78    0.56
   3  -1  -3    9.76    0.65
   3  -1  -3    8.82    0.69
  -3   1   3    8.62    0.61
  -3   1   3    7.66    0.55
  -3   1   3    8.81    0.56
  -3   1   3    8.81    0.72
   2  -1  -3    0.56    0.31
   2  -1  -3    0.67    0.17
   2  -1  -3    0.37    0.17
  -2   1   3    0.89    0.22
  -2   1   3    0.85    0.27
  -2   1   3    0.53    0.23
  -2   1   3    0.77    0.20
  -2   1   3    0.68    0.27
   1  -1  -3    5.13    0.25
   1  -1  -3    5.68    0.36
  -1   1   3    4.90    0.39
  -1   1   3    5.24    0.27
  -1   1   3    5.09    0.38
  -1   1   3    5.21    0.34
   0  -1  -3  405.23    9.08
   0   1   3  423.25    9.15
  -1  -1  -3   84.71    2.07
   1   1   3   92.53    2.15
   1   1   3   83.93    2.07
   1   1   3   87.13    2.04
  -2  -1  -3   24.54    0.77
   2   1   3   24.66    0.85
   2   1   3   23.05    0.82
   2   1   3   24.06    0.77
  -3  -1  -3   30.04    0.94
  -3  -1  -3   29.42    1.05
   3   1   3   30.09    1.07
   3   1   3   29.88    1.07
  -4  -1  -3    6.39    0.50
  -4  -1  -3    7.10    0.59
   4   1   3    7.76    0.62
   4   1   3    6.64    0.56
   4   1   3    7.74    0.62
  -5  -1  -3    9.60    0.66
  -5  -1  -3    9.62    0.82
   5   1   3   10.52    0.82
   5   1   3    9.65    0.79
  -6  -1  -3    4.25    0.70
  -6  -1  -3    5.11    0.54
   6   1   3    5.79    0.82
  -7  -1  -3    5.15    0.59
  -7  -1  -3    3.42    0.73
   7   1   3    4.79    0.82
   9  -2  -3   -0.20    0.59
  -9   2   3    1.46    0.79
   8  -2  -3    0.12    0.55
  -8   2   3   -0.19    0.61
  -8   2   3    0.99    0.69
   7  -2  -3    0.26    0.47
  -7   2   3   -0.36    0.49
  -7   2   3    0.75    0.59
   6  -2  -3    0.24    0.40
  -6   2   3    0.20    0.42
  -6   2   3   -0.77    0.36
  -6   2   3    0.07    0.38
   5  -2  -3    8.41    0.58
   5  -2  -3    9.50    0.83
  -5   2   3    9.76    1.14
  -5   2   3   10.51    0.81
  -5   2   3   10.41    0.83
  -5   2   3    9.30    0.89
   4  -2  -3    9.69    0.54
   4  -2  -3    8.71    0.72
  -4   2   3   10.24    0.72
  -4   2   3    9.08    0.87
  -4   2   3   10.55    0.78
   3  -2  -3   45.01    1.25
   3  -2  -3   47.44    1.47
   3  -2  -3   44.91    1.67
   3  -2  -3   44.36    1.39
  -3   2   3   46.93    1.76
  -3   2   3   48.61    1.57
  -3   2   3   46.23    1.47
   2  -2  -3   -0.13    0.18
   2  -2  -3    0.08    0.12
   2  -2  -3   -0.03    0.13
  -2   2   3    0.06    0.22
  -2   2   3    0.23    0.21
   1  -2  -3  116.78    2.77
  -1   2   3  117.25    2.72
  -1   2   3  123.14    2.88
  -1   2   3  117.44    3.01
  -1   2   3  123.39    2.90
   0   2   3  467.84   10.29
   1   2   3   41.39    1.05
   2   2   3  178.12    4.12
  -3  -2  -3   91.02    2.31
   3   2   3   85.13    2.34
   3   2   3   89.13    2.23
  -4  -2  -3   30.36    1.17
   4   2   3   29.38    1.18
   4   2   3   28.67    1.08
  -5  -2  -3   29.48    1.34
   5   2   3   30.00    1.35
  -6  -2  -3    0.29    0.43
   6   2   3    0.18    0.40
   7   2   3    0.71    0.56
   8   2   3    4.94    0.88
   8  -3  -3   -0.10    0.50
  -8   3   3   -0.55    0.65
  -8   3   3    0.20    0.64
   7  -3  -3    0.29    0.47
  -7   3   3    0.68    0.57
  -7   3   3    0.40    0.58
   6  -3  -3    0.07    0.37
  -6   3   3    0.48    0.56
  -6   3   3    0.37    0.44
   5  -3  -3   81.83    2.42
  -5   3   3   82.15    3.05
  -5   3   3   80.43    2.92
  -5   3   3   83.48    2.63
  -5   3   3   83.06    2.67
   4  -3  -3   -0.16    0.26
   4  -3  -3   -0.03    0.16
  -4   3   3    0.50    0.35
  -4   3   3    0.04    0.30
  -4   3   3   -0.34    0.28
   3  -3  -3   10.87    0.58
  -3   3   3   11.23    0.84
  -3   3   3   10.58    0.65
  -3   3   3   11.15    0.72
   2  -3  -3    0.76    0.17
  -2   3   3    0.48    0.28
  -2   3   3    0.31    0.22
  -1   3   3    6.74    0.49
  -1   3   3    6.89    0.27
  -1   3   3    7.58    0.45
   0   3   3   13.75    0.58
   0   3   3   14.19    0.47
   0   3   3   13.72    0.57
   1   3   3    6.69    0.26
   1   3   3    6.56    0.32
   1   3   3    5.86    0.29
   2   3   3   44.47    1.20
   3   3   3  132.54    3.18
   3   3   3  124.27    3.17
   4   3   3    3.74    0.50
  -5  -3  -3   24.13    1.16
   5   3   3   22.61    1.16
  -6  -3  -3   -0.06    0.38
   6   3   3    0.53    0.43
   7   3   3    4.68    0.76
   8   3   3   18.49    1.47
   9   3   3   19.04    1.65
   8  -4  -3    0.36    0.50
  -8   4   3    0.07    0.76
  -8   4   3    0.03    0.67
   7  -4  -3   -0.86    0.36
  -7   4   3   -0.26    0.65
  -7   4   3    0.40    0.56
   6  -4  -3    5.25    0.60
  -6   4   3    8.78    1.38
   5  -4  -3   19.59    0.90
  -5   4   3   19.79    1.17
  -5   4   3   21.02    1.48
   4  -4  -3    1.45    0.30
  -4   4   3    2.30    0.60
  -4   4   3    1.42    0.46
  -3   4   3   87.03    2.84
  -3   4   3   88.33    2.50
  -2   4   3   38.09    1.19
  -2   4   3   37.10    1.48
  -1   4   3   30.63    1.17
   0   4   3   50.69    1.41
   0   4   3   51.65    1.49
   0   4   3   50.42    1.29
   1   4   3   42.10    1.19
   2   4   3   26.27    0.81
   3   4   3    4.58    0.40
   3   4   3    4.42    0.33
   4   4   3   21.35    0.97
   5   4   3   19.78    1.05
   6   4   3    1.27    0.50
   7   4   3   -0.37    0.47
   8   4   3    0.90    0.61
   9   4   3   -0.93    0.64
   8  -5  -3    1.25    0.42
   7  -5  -3   -0.04    0.29
  -7   5   3    0.73    0.76
   6  -5  -3    0.13    0.24
  -6   5   3    0.71    0.65
  -5   5   3    0.06    0.45
  -4   5   3    5.76    0.91
  -3   5   3   12.03    1.02
  -2   5   3   -0.35    0.24
  -1   5   3   -0.02    0.19
   0   5   3   84.21    2.17
   0   5   3   82.89    2.11
   0   5   3   85.25    2.34
   1   5   3    1.02    0.24
   2   5   3    0.77    0.20
   4   5   3    5.70    0.55
   5   5   3    0.72    0.42
   6   5   3    4.78    0.73
   7   5   3    0.63    0.53
   8   5   3    1.14    0.71
   9   5   3    1.13    0.75
  -7   6   3    3.09    1.00
  -6   6   3    6.64    1.18
  -5   6   3    2.26    0.82
  -4   6   3   12.88    1.23
  -3   6   3    2.48    0.65
  -2   6   3    1.02    0.45
  -1   6   3   15.09    0.94
   0   6   3   60.24    1.92
   1   6   3   47.78    1.53
   2   6   3   18.48    0.80
   3   6   3   23.70    0.93
   5   6   3   52.67    1.77
   6   6   3   -0.07    0.45
   7   6   3    0.96    0.59
   8   6   3   11.06    1.26
  -6   7   3    0.92    0.74
  -5   7   3    6.43    1.31
  -4   7   3   11.52    1.45
  -3   7   3    8.86    1.23
  -2   7   3   15.72    1.15
  -1   7   3    5.23    0.80
   0   7   3   47.82    1.75
   1   7   3   68.57    2.12
   2   7   3   47.14    1.59
   3   7   3   33.85    1.27
   5   7   3   35.30    1.34
   6   7   3   44.11    1.74
   7   7   3   16.81    1.22
   8   7   3    1.86    0.74
  -5   8   3    1.19    0.72
  -4   8   3    9.72    1.47
  -3   8   3    2.06    0.75
  -2   8   3    7.00    1.08
  -1   8   3    2.10    0.61
   0   8   3   11.00    0.89
   1   8   3    0.12    0.31
   2   8   3    1.94    0.46
   3   8   3   14.66    0.87
   4   8   3    2.80    0.50
   6   8   3    6.85    0.77
   7   8   3    0.62    0.56
  -4   9   3   -0.17    0.57
  -3   9   3    5.10    1.11
  -2   9   3    0.41    0.51
  -1   9   3   11.99    1.14
   0   9   3    3.84    0.76
   1   9   3    1.14    0.49
   2   9   3    4.66    0.71
   3   9   3    5.93    0.77
   4   9   3    1.68    0.65
   7   9   3    0.10    0.52
  -3  10   3    0.02    0.81
  -2  10   3    4.48    1.02
  -1  10   3    1.45    0.66
   0  10   3    3.74    0.82
   1  10   3   13.06    1.11
   2  10   3    9.87    0.97
   3  10   3    3.79    0.73
   0  11   3   20.68    1.57
   0  11   3   20.48    1.19
   1  11   3    2.97    0.79
   2  11   3   -0.35    0.40
   3   9  -4   20.14    1.52
   3   9  -4   22.83    1.45
   2   9  -4    3.02    0.68
   2   9  -4    3.27    0.74
   1   9  -4    0.12    0.36
   1   9  -4    0.30    0.49
   0   9  -4    0.52    0.47
   0   9  -4    0.32    0.50
  -1   9  -4    4.45    0.80
   5   8  -4    1.06    0.60
   4   8  -4    0.00    0.51
   4   8  -4    0.03    0.37
   3   8  -4    0.40    0.52
   3   8  -4    0.66    0.42
   2   8  -4    2.12    0.60
   2   8  -4    2.66    0.58
   1   8  -4    0.54    0.47
   1   8  -4    0.22    0.34
   0   8  -4    1.38    0.50
   0   8  -4    0.94    0.41
  -1   8  -4    3.70    0.69
  -1   8  -4    3.58    0.77
  -2   8  -4    4.14    0.82
  -2   8  -4    4.22    0.77
  -3   8  -4    5.22    0.89
  -3   8  -4    5.20    0.97
   7   7  -4    1.09    1.26
   6   7  -4    6.55    1.11
   5   7  -4    1.40    0.58
   4   7  -4   20.03    1.30
   3   7  -4    1.49    0.53
   3   7  -4    2.51    0.56
   2   7  -4    0.54    0.37
   2   7  -4    0.75    0.44
   1   7  -4    6.27    0.82
   1   7  -4    5.50    0.75
   0   7  -4   10.19    0.91
   0   7  -4    8.83    0.83
  -1   7  -4    5.05    0.75
  -1   7  -4    5.27    0.82
  -2   7  -4    9.19    1.13
  -2   7  -4    7.93    0.99
  -3   7  -4   21.04    1.42
  -3   7  -4   22.65    1.54
  -4   7  -4    2.56    0.78
  -5   7  -4    1.28    0.82
   7   6  -4    4.51    1.01
   6   6  -4    1.04    0.60
   5   6  -4    1.88    0.64
   4   6  -4   34.54    1.63
   3   6  -4   33.41    1.51
   2   6  -4   53.76    1.94
   2   6  -4   57.69    2.03
   1   6  -4   54.82    1.93
   1   6  -4   55.46    1.98
   0   6  -4   23.93    1.24
   0   6  -4   24.04    1.19
  -1   6  -4    7.77    0.90
  -1   6  -4    7.77    0.82
  -2   6  -4    0.43    0.38
  -2   6  -4    0.44    0.40
  -3   6  -4    1.12    0.51
  -3   6  -4    0.67    0.46
  -4   6  -4    1.87    0.77
  -4   6  -4    2.38    0.74
  -5   6  -4    2.63    0.86
  -6   6  -4    5.42    1.26
   8   5  -4    2.49    0.88
   7   5  -4    0.43    0.62
   6   5  -4    0.56    0.58
   5   5  -4   16.52    1.24
   4   5  -4    4.05    0.71
   3   5  -4   34.00    1.48
   2   5  -4   82.01    2.53
   1   5  -4  115.79    3.26
   1   5  -4  115.88    3.18
   0   5  -4    6.81    0.67
   0   5  -4    7.21    0.61
  -1   5  -4    0.40    0.31
  -1   5  -4    0.39    0.31
  -2   5  -4    7.56    0.88
  -2   5  -4    8.22    0.80
  -3   5  -4    2.40    0.54
  -3   5  -4    2.81    0.65
  -4   5  -4    2.04    0.62
   4  -5   4    1.91    0.34
  -5   5  -4    0.26    0.51
   5  -5   4    0.32    0.29
  -6   5  -4    1.17    0.75
   6  -5   4    0.21    0.32
   8   4  -4    1.13    0.80
   7   4  -4    4.15    0.84
   6   4  -4    4.18    0.84
   5   4  -4    0.17    0.44
   4   4  -4    8.46    0.91
   3   4  -4    5.73    0.70
   2   4  -4    0.23    0.29
   1   4  -4    7.33    0.64
   0   4  -4    8.12    0.58
   0   4  -4    7.83    0.65
  -1   4  -4   75.24    2.37
  -1   4  -4   74.13    2.22
  -1   4  -4   77.99    2.51
   1  -4   4   71.19    1.82
  -2   4  -4   87.19    2.77
  -2   4  -4   86.55    2.43
  -2   4  -4   87.08    2.66
   2  -4   4   88.21    2.16
  -3   4  -4  105.85    3.00
  -3   4  -4  106.13    3.32
  -3   4  -4  104.51    3.27
   3  -4   4  106.90    2.62
  -4   4  -4    0.12    0.40
   4  -4   4   -0.02    0.27
  -5   4  -4    0.41    0.51
  -5   4  -4    1.80    0.65
   5  -4   4    0.87    0.34
  -6   4  -4    0.33    0.56
  -6   4  -4    1.12    0.60
   6  -4   4    1.02    0.40
  -7   4  -4    0.52    0.73
   7  -4   4    1.14    0.43
   8   3  -4    4.69    1.13
   7   3  -4    8.42    1.23
   6   3  -4    7.12    0.97
   5   3  -4    1.91    0.56
   4   3  -4   -0.08    0.34
   3   3  -4    2.43    0.50
   2   3  -4   27.85    1.17
   2   3  -4   26.81    0.89
   1   3  -4   11.38    0.71
   1   3  -4   10.17    0.49
  -1  -3   4   10.92    0.52
   0   3  -4   16.34    1.13
   0   3  -4   14.90    0.80
   0   3  -4   14.22    0.59
   0   3  -4   14.45    0.68
   0  -3   4   14.19    0.56
  -1   3  -4    0.52    0.24
  -1   3  -4    0.78    0.34
  -1   3  -4    1.09    0.24
  -1   3  -4    1.51    0.38
   1  -3   4    0.80    0.26
   1  -3   4    1.30    0.25
  -2   3  -4    1.39    0.33
  -2   3  -4    2.10    0.49
  -2   3  -4    2.37    0.42
  -2   3  -4    1.69    0.43
   2  -3   4    1.40    0.34
   2  -3   4    2.24    0.32
  -3   3  -4    7.18    0.65
  -3   3  -4    8.48    0.81
  -3   3  -4    7.65    0.74
  -3   3  -4    7.30    0.69
   3  -3   4    8.51    0.66
   3  -3   4    7.79    0.52
  -4   3  -4   31.19    1.43
  -4   3  -4   31.90    1.56
   4  -3   4   32.93    1.11
  -5   3  -4   18.92    1.20
  -5   3  -4   19.59    1.32
   5  -3   4   19.54    0.90
  -6   3  -4   17.36    1.28
  -6   3  -4   18.55    1.43
   6  -3   4   18.16    0.97
  -7   3  -4   18.01    1.42
   7  -3   4   17.08    1.03
  -8   3  -4    1.17    0.81
   8  -3   4    1.81    0.55
  -8  -2   4    2.16    0.86
   7   2  -4    1.15    0.66
  -7  -2   4    2.74    0.86
   6   2  -4    0.85    0.52
  -6  -2   4    1.86    0.44
  -6  -2   4    1.50    0.72
   5   2  -4    2.91    0.70
  -5  -2   4    3.07    0.49
   4   2  -4    2.61    0.56
   4   2  -4    2.25    0.37
  -4  -2   4    2.05    0.40
   3   2  -4    0.81    0.35
   3   2  -4    0.86    0.32
   3   2  -4    1.55    0.28
  -3  -2   4    1.71    0.34
   2   2  -4   70.53    2.14
   2   2  -4   69.95    2.04
   2   2  -4   71.87    1.84
  -2  -2   4   70.81    1.89
   1   2  -4   54.84    1.72
   1   2  -4   53.38    1.62
   1   2  -4   54.18    1.43
  -1  -2   4   52.63    1.45
  -1  -2   4   52.36    1.42
  -1  -2   4   56.02    1.45
  -1  -2   4   53.33    1.50
   0   2  -4    8.05    0.45
   0   2  -4    8.15    0.55
   0   2  -4    8.77    0.56
   0   2  -4    9.01    0.43
   0  -2   4    8.26    0.42
   0  -2   4    7.64    0.56
   0  -2   4    8.84    0.52
   0  -2   4    8.68    0.40
   0  -2   4    8.45    0.54
  -1   2  -4   48.92    1.42
  -1   2  -4   51.10    1.64
  -1   2  -4   49.05    1.54
  -1   2  -4   46.25    1.36
   1  -2   4   49.50    1.43
   1  -2   4   49.27    1.51
   1  -2   4   48.37    1.31
   1  -2   4   48.50    1.29
  -2   2  -4    3.50    0.53
  -2   2  -4    3.05    0.42
  -2   2  -4    4.23    0.51
  -2   2  -4    3.29    0.44
   2  -2   4    2.91    0.48
   2  -2   4    2.72    0.45
   2  -2   4    3.02    0.34
   2  -2   4    3.25    0.31
  -3   2  -4   12.50    0.76
  -3   2  -4   11.56    0.82
  -3   2  -4   12.51    0.82
  -3   2  -4   12.10    0.80
   3  -2   4   12.35    0.64
   3  -2   4   12.65    0.82
  -4   2  -4   10.91    0.83
  -4   2  -4   10.30    0.84
  -4   2  -4    9.59    0.77
   4  -2   4   10.69    0.65
   4  -2   4    9.24    0.79
  -5   2  -4    6.00    0.85
  -5   2  -4    7.11    0.80
   5  -2   4    5.71    0.55
  -6   2  -4   11.64    1.08
  -6   2  -4   10.33    1.00
   6  -2   4   13.11    0.87
  -7   2  -4   -0.13    0.61
   7  -2   4   -0.06    0.41
  -8   2  -4    4.88    0.94
   8  -2   4    3.35    0.64
  -9  -1   4    2.16    1.02
  -8  -1   4   84.60    2.65
  -8  -1   4   81.43    3.52
  -7  -1   4    5.61    1.03
  -7  -1   4    9.56    0.91
   6   1  -4    3.84    0.80
   6   1  -4    4.96    0.66
  -6  -1   4    3.78    0.87
  -6  -1   4    4.83    0.67
   5   1  -4    0.27    0.25
   5   1  -4    0.02    0.44
  -5  -1   4    0.44    0.38
  -5  -1   4    0.30    0.31
  -5  -1   4   -0.31    0.44
   4   1  -4    1.09    0.43
   4   1  -4    0.68    0.27
  -4  -1   4    0.98    0.36
  -4  -1   4    1.19    0.34
  -4  -1   4    0.67    0.44
   3   1  -4    0.88    0.33
   3   1  -4    1.54    0.42
   3   1  -4    1.71    0.28
  -3  -1   4    1.78    0.34
  -3  -1   4    1.95    0.45
  -3  -1   4    2.19    0.35
  -3  -1   4    1.20    0.32
   2   1  -4    0.65    0.27
   2   1  -4    0.36    0.18
   2   1  -4    0.15    0.21
  -2  -1   4    0.64    0.26
  -2  -1   4    0.16    0.20
  -2  -1   4    0.25    0.21
  -2  -1   4    0.16    0.19
   1   1  -4   18.72    0.64
   1   1  -4   18.86    0.82
   1   1  -4   18.19    0.83
  -1  -1   4   18.45    0.67
  -1  -1   4   19.61    0.67
  -1  -1   4   18.43    0.78
  -1  -1   4   18.47    0.72
   0   1  -4  135.41    3.31
   0   1  -4  137.97    3.40
   0   1  -4  133.65    3.10
   0   1  -4  136.92    3.34
   0  -1   4  112.84    3.06
   0  -1   4  137.32    3.10
   0  -1   4  131.23    3.29
   0  -1   4  138.28    3.21
  -1   1  -4   58.31    1.69
  -1   1  -4   56.68    1.51
  -1   1  -4   55.82    1.48
  -1   1  -4   56.70    1.65
   1  -1   4   55.73    1.44
   1  -1   4   56.66    1.68
   1  -1   4   54.50    1.55
   1  -1   4   55.07    1.45
  -2   1  -4   20.92    0.90
  -2   1  -4   20.57    0.82
  -2   1  -4   21.10    0.92
  -2   1  -4   21.53    0.97
  -2   1  -4   21.47    0.85
   2  -1   4   21.33    0.82
   2  -1   4   21.64    0.98
   2  -1   4   21.39    0.74
   2  -1   4   21.86    0.73
  -3   1  -4   67.15    2.04
  -3   1  -4   69.25    1.99
  -3   1  -4   64.78    2.48
  -3   1  -4   67.23    2.01
  -3   1  -4   65.41    2.15
   3  -1   4   66.85    1.82
   3  -1   4   69.50    2.12
  -4   1  -4    0.05    0.31
  -4   1  -4    0.26    0.33
  -4   1  -4    0.05    0.32
   4  -1   4   -0.01    0.16
   4  -1   4    0.54    0.40
   4  -1   4    0.32    0.30
  -5   1  -4    2.30    0.54
  -5   1  -4    2.96    0.57
   5  -1   4    2.76    0.48
  -6   1  -4   -0.58    0.55
  -6   1  -4   -0.06    0.44
   6  -1   4    0.11    0.38
  -7   1  -4    3.83    0.75
   7  -1   4    3.28    0.60
  -8   1  -4   15.21    1.29
   8  -1   4   14.66    1.13
   9   0  -4   -0.43    1.51
  -9   0   4    0.72    0.67
  -9   0   4    0.68    0.78
   8   0  -4   41.56    2.08
  -8   0   4   44.37    1.93
   7   0  -4    7.48    1.01
  -7   0   4    6.47    1.09
  -7   0   4    9.43    1.03
   6   0  -4  170.89    4.70
  -6   0   4  162.76    4.48
  -6   0   4  171.71    5.19
   5   0  -4   58.32    2.29
   5   0  -4   53.99    1.74
  -5   0   4   58.30    1.90
  -5   0   4   56.88    2.35
  -5   0   4   54.05    1.90
   4   0  -4    0.59    0.39
   4   0  -4    0.66    0.28
  -4   0   4    0.36    0.34
  -4   0   4    0.28    0.23
  -4   0   4    0.53    0.32
  -4   0   4    0.41    0.38
   3   0  -4    5.21    0.41
   3   0  -4    5.59    0.65
  -3   0   4    4.80    0.57
  -3   0   4    5.41    0.55
  -3   0   4    5.08    0.44
  -3   0   4    4.95    0.61
  -3   0   4    4.57    0.49
   2   0  -4    3.77    0.44
   2   0  -4    4.16    0.32
   2   0  -4    3.80    0.45
  -2   0   4    4.29    0.50
  -2   0   4    4.45    0.47
  -2   0   4    3.64    0.38
  -2   0   4    4.55    0.40
  -2   0   4    4.00    0.44
   1   0  -4   10.80    0.58
   1   0  -4   10.08    0.60
   1   0  -4   10.26    0.43
  -1   0   4    9.47    0.44
  -1   0   4    9.91    0.44
  -1   0   4    9.92    0.59
   0   0  -4   63.61    1.80
   0   0  -4   61.87    1.72
   0   0  -4   63.33    1.55
   0   0  -4   56.10    1.70
   0   0   4   61.67    1.54
   0   0   4   62.33    1.63
   0   0   4   62.16    1.74
   0   0   4   61.93    1.54
  -1   0  -4  128.57    3.09
  -1   0  -4  129.31    2.98
  -1   0  -4  129.90    3.19
  -1   0  -4  106.51    3.05
  -1   0  -4  124.68    2.86
   1   0   4  128.43    3.15
   1   0   4  127.13    2.92
   1   0   4  126.78    2.92
   1   0   4  125.72    3.01
  -2   0  -4   50.78    1.51
  -2   0  -4   49.11    1.49
  -2   0  -4   52.11    1.47
  -2   0  -4   49.85    1.59
  -2   0  -4   49.72    1.40
   2   0   4   50.95    1.45
   2   0   4   51.64    1.38
   2   0   4   52.75    1.61
  -3   0  -4    7.07    0.56
  -3   0  -4    6.62    0.49
  -3   0  -4    6.99    0.51
  -3   0  -4    6.54    0.51
  -3   0  -4    7.41    0.58
   3   0   4    6.39    0.50
   3   0   4    6.83    0.64
   3   0   4    6.90    0.51
  -4   0  -4    6.66    0.57
  -4   0  -4    6.28    0.69
  -4   0  -4    5.39    0.58
   4   0   4    6.84    0.63
   4   0   4    7.09    0.72
   4   0   4    6.67    0.60
  -5   0  -4    2.79    0.51
  -5   0  -4    2.13    0.41
  -5   0  -4    2.81    0.55
   5   0   4    3.09    0.55
   5   0   4    1.42    0.48
   5   0   4    2.80    0.49
  -6   0  -4    5.35    0.65
   6   0   4    5.48    1.01
   6   0   4    7.10    0.97
  -7   0  -4    9.86    0.90
  -8   0  -4    8.23    0.89
  -9   0  -4    8.13    0.93
   9  -1  -4    0.22    0.61
  -9   1   4    1.14    0.82
   8  -1  -4    1.25    0.64
  -8   1   4    1.79    0.86
  -8   1   4    1.65    0.75
   7  -1  -4    0.68    0.55
  -7   1   4    1.10    0.60
  -7   1   4    0.46    0.74
   6  -1  -4   44.76    1.87
  -6   1   4   44.04    1.81
  -6   1   4   44.12    2.23
   5  -1  -4    1.18    0.30
   5  -1  -4    1.65    0.53
  -5   1   4    1.61    0.44
  -5   1   4    1.40    0.61
  -5   1   4    1.25    0.44
  -5   1   4    1.33    0.45
   4  -1  -4   -0.09    0.36
   4  -1  -4    0.64    0.40
   4  -1  -4   -0.02    0.21
  -4   1   4    0.64    0.42
  -4   1   4    0.31    0.28
  -4   1   4    0.18    0.34
   3  -1  -4    1.38    0.26
   3  -1  -4    1.13    0.41
  -3   1   4    2.31    0.48
  -3   1   4    1.66    0.35
  -3   1   4    1.92    0.39
   2  -1  -4  135.18    3.44
   2  -1  -4  139.83    3.21
   2  -1  -4  138.02    3.66
  -2   1   4  136.98    3.48
  -2   1   4  137.56    3.50
  -2   1   4  141.40    3.34
  -2   1   4  137.79    3.63
   1  -1  -4   32.34    0.88
   1  -1  -4   31.76    1.04
   1  -1  -4   31.95    1.16
  -1   1   4   31.10    1.00
  -1   1   4   32.13    0.92
  -1   1   4   33.44    1.11
  -1   1   4   31.50    1.09
  -1   1   4   32.68    0.92
   0  -1  -4    0.46    0.14
   0  -1  -4    0.82    0.19
   0  -1  -4    0.57    0.24
   0   1   4    0.58    0.13
   0   1   4    0.66    0.26
  -1  -1  -4   12.62    0.51
  -1  -1  -4   13.31    0.50
  -1  -1  -4   13.06    0.58
   1   1   4   12.85    0.53
   1   1   4   12.76    0.61
   1   1   4   12.28    0.47
  -2  -1  -4    5.00    0.32
  -2  -1  -4    5.83    0.44
   2   1   4    5.44    0.39
   2   1   4    5.32    0.50
  -3  -1  -4   17.40    0.74
  -3  -1  -4   18.06    0.73
   3   1   4   18.11    0.86
   3   1   4   17.88    0.74
   3   1   4   18.27    0.80
  -4  -1  -4   27.33    1.11
  -4  -1  -4   26.07    0.99
   4   1   4   24.87    1.12
   4   1   4   26.56    1.16
  -5  -1  -4   23.83    1.19
  -5  -1  -4   24.69    1.02
   5   1   4   24.55    1.22
   5   1   4   23.90    1.21
  -6  -1  -4    6.58    0.61
   6   1   4    6.21    0.80
  -7  -1  -4   77.32    2.25
   7   1   4   74.34    2.73
   9  -2  -4   -0.48    0.55
  -9   2   4    0.65    0.81
   8  -2  -4   -0.20    0.48
  -8   2   4   -0.45    0.70
  -8   2   4    1.44    0.74
   7  -2  -4    9.14    1.01
  -7   2   4    9.98    1.41
  -7   2   4    9.80    1.13
   6  -2  -4    2.16    0.59
  -6   2   4    3.53    0.86
  -6   2   4    2.29    0.59
  -6   2   4    1.65    0.55
   5  -2  -4   22.40    1.18
  -5   2   4   22.39    1.48
  -5   2   4   21.66    1.17
  -5   2   4   22.15    1.18
  -5   2   4   21.64    1.29
   4  -2  -4    5.67    0.64
   4  -2  -4    5.78    0.42
  -4   2   4    5.14    0.80
  -4   2   4    6.04    0.67
  -4   2   4    5.35    0.62
   3  -2  -4   21.60    0.98
   3  -2  -4   24.05    0.76
   3  -2  -4   21.27    0.89
  -3   2   4   24.00    1.04
  -3   2   4   22.17    0.96
  -3   2   4   21.47    1.17
   2  -2  -4  205.57    4.94
   2  -2  -4  213.82    5.04
   2  -2  -4  220.69    4.79
  -2   2   4  213.46    5.18
  -2   2   4  218.50    4.98
  -2   2   4  215.98    5.14
  -2   2   4  211.28    5.33
   1  -2  -4   33.60    1.02
  -1   2   4   34.81    1.07
  -1   2   4   34.05    1.17
  -1   2   4   34.03    1.11
   0   2   4   84.79    2.13
   0   2   4   85.09    2.15
   0   2   4   88.13    2.12
   0   2   4   86.14    2.00
   1   2   4  270.04    6.17
   1   2   4  280.98    6.11
   1   2   4  278.06    6.20
   2   2   4   43.29    1.22
   2   2   4   40.50    1.19
   3   2   4   67.53    1.90
   3   2   4   67.28    1.87
  -4  -2  -4    5.85    0.52
   4   2   4    6.52    0.66
   4   2   4    3.73    0.54
   5   2   4    9.01    0.76
   6   2   4    6.97    0.77
   7   2   4    1.43    0.56
   8   2   4   -0.07    0.56
   8  -3  -4    0.14    0.52
  -8   3   4    0.29    0.74
  -8   3   4   -0.03    0.66
   7  -3  -4   27.31    1.42
  -7   3   4   25.64    1.91
  -7   3   4   29.22    1.67
   6  -3  -4   -0.06    0.37
  -6   3   4    0.39    0.57
  -6   3   4    0.31    0.44
   5  -3  -4   -0.08    0.31
  -5   3   4    0.16    0.36
  -5   3   4    0.26    0.37
  -5   3   4   -0.15    0.46
  -5   3   4   -0.31    0.32
   4  -3  -4    0.96    0.22
   4  -3  -4    0.67    0.32
  -4   3   4    2.15    0.60
  -4   3   4    1.61    0.48
  -4   3   4    0.85    0.36
   3  -3  -4    1.99    0.33
  -3   3   4    2.29    0.45
  -3   3   4    1.98    0.37
  -3   3   4    0.90    0.39
   2  -3  -4    6.65    0.39
  -2   3   4    6.74    0.59
  -2   3   4    8.03    0.55
  -2   3   4    6.12    0.55
  -1   3   4   -0.13    0.17
  -1   3   4    0.17    0.16
  -1   3   4   -0.20    0.13
   0   3   4   53.91    1.52
   0   3   4   55.51    1.42
   1   3   4   80.10    1.90
   1   3   4   77.82    2.01
   2   3   4   12.53    0.56
   2   3   4   12.84    0.51
   3   3   4   89.00    2.34
   4   3   4    4.50    0.54
   5   3   4    3.75    0.57
   6   3   4   29.74    1.45
   7   3   4   28.40    1.56
   8   3   4   13.52    1.28
   9   3   4   20.66    1.64
   8  -4  -4    3.55    0.72
  -8   4   4    1.27    0.86
  -8   4   4    2.20    0.87
   7  -4  -4    5.19    0.72
  -7   4   4    5.02    1.01
  -7   4   4    7.50    1.34
   6  -4  -4   -0.12    0.37
  -6   4   4   -0.47    0.52
   5  -4  -4   57.02    1.78
  -5   4   4   60.25    2.19
  -5   4   4   56.54    2.53
   4  -4  -4   14.60    0.71
  -4   4   4   15.13    1.18
  -4   4   4   15.56    1.30
  -3   4   4   14.28    1.02
  -2   4   4    8.67    0.63
  -2   4   4    8.38    0.70
  -1   4   4   29.31    1.17
  -1   4   4   29.96    1.06
   0   4   4   55.68    1.42
   0   4   4   53.84    1.60
   0   4   4   54.90    1.60
   1   4   4    0.21    0.14
   1   4   4    0.07    0.14
   1   4   4    0.12    0.10
   2   4   4   35.47    0.95
   2   4   4   33.13    1.00
   2   4   4   32.92    0.94
   3   4   4   18.69    0.74
   4   4   4   -0.26    0.26
   5   4   4    0.61    0.35
   6   4   4    0.34    0.42
   7   4   4   -0.01    0.52
   8   4   4    0.04    0.60
   9   4   4   19.19    1.59
   7  -5  -4    0.12    0.32
  -7   5   4   -0.17    0.74
   6  -5  -4    0.05    0.26
  -6   5   4    0.18    0.59
  -5   5   4    5.05    0.98
  -4   5   4    4.00    0.80
  -3   5   4    3.39    0.68
  -2   5   4   54.95    2.02
  -1   5   4    2.68    0.49
  -1   5   4    3.25    0.45
   0   5   4    0.21    0.18
   0   5   4    0.22    0.20
   1   5   4   62.86    1.66
   1   5   4   63.08    1.77
   2   5   4   12.43    0.55
   3   5   4    1.65    0.28
   4   5   4   15.85    0.78
   5   5   4    0.16    0.31
   6   5   4    4.30    0.66
   7   5   4    0.27    0.51
   8   5   4    0.79    0.66
   9   5   4    4.13    0.96
  -7   6   4   -0.07    0.73
  -6   6   4    0.63    0.71
  -5   6   4    1.60    0.72
  -4   6   4    2.28    0.73
  -3   6   4    9.22    1.12
  -2   6   4   39.07    1.72
  -1   6   4   55.11    1.96
   0   6   4   10.38    0.60
   0   6   4   11.92    0.75
   1   6   4    9.33    0.61
   2   6   4  117.24    2.99
   3   6   4   88.86    2.35
   4   6   4    9.52    0.60
   5   6   4    3.22    0.53
   6   6   4   21.48    1.19
   7   6   4    1.67    0.61
   8   6   4   -0.15    0.60
  -6   7   4    3.53    1.03
  -5   7   4    0.89    0.80
  -4   7   4   19.29    1.55
  -3   7   4    0.30    0.57
  -2   7   4   15.47    1.16
  -1   7   4   44.00    1.80
   0   7   4   83.65    2.61
   1   7   4   67.96    2.13
   2   7   4    2.87    0.44
   3   7   4   25.95    1.13
   5   7   4   30.05    1.22
   6   7   4    0.45    0.46
   7   7   4    4.42    0.77
   8   7   4    0.35    0.63
  -5   8   4    0.18    0.65
  -4   8   4    0.78    0.68
  -3   8   4   10.54    1.39
  -2   8   4   11.85    1.36
  -1   8   4    0.13    0.40
   0   8   4    0.19    0.32
   1   8   4   21.05    1.12
   2   8   4    2.87    0.49
   6   8   4    2.31    0.55
   7   8   4    2.28    0.63
  -4   9   4    0.58    0.66
  -3   9   4    7.31    1.27
  -2   9   4    4.77    0.94
  -1   9   4    1.60    0.58
   0   9   4    3.93    0.77
   1   9   4    8.88    0.84
   2   9   4    0.10    0.32
   7   9   4    0.40    0.50
  -3  10   4   -0.04    0.60
  -2  10   4    0.98    0.69
  -1  10   4   12.20    1.41
   0  10   4   15.37    1.30
   1  10   4    0.46    0.44
  -1  11   4    0.61    0.58
   0  11   4   -0.02    0.54
   4   8  -5    2.68    0.67
   4   8  -5    2.80    0.78
   3   8  -5   -0.24    0.29
   3   8  -5    0.47    0.51
   2   8  -5   -0.12    0.32
   2   8  -5   -0.04    0.46
   1   8  -5    4.34    0.76
   1   8  -5    4.15    0.76
   0   8  -5   13.78    1.13
   0   8  -5   14.30    1.18
  -1   8  -5    9.85    1.26
  -1   8  -5   11.08    1.10
  -2   8  -5    5.92    1.00
  -2   8  -5    4.48    0.83
   6   7  -5   17.93    1.60
   5   7  -5    2.07    0.69
   4   7  -5    1.90    0.73
   3   7  -5    0.61    0.39
   3   7  -5    0.93    0.50
   2   7  -5   11.89    1.03
   2   7  -5   10.17    0.89
   1   7  -5    0.39    0.35
   1   7  -5    0.30    0.41
   0   7  -5    4.52    0.73
   0   7  -5    2.53    0.62
  -1   7  -5   28.18    1.56
  -1   7  -5   27.11    1.51
  -2   7  -5    0.82    0.46
  -2   7  -5    1.26    0.54
  -3   7  -5    6.56    1.16
  -3   7  -5    5.26    0.85
  -4   7  -5    2.78    0.86
   7   6  -5    0.47    0.75
   6   6  -5   11.77    1.40
   5   6  -5   33.34    1.82
   4   6  -5   48.10    2.07
   3   6  -5   33.84    1.62
   2   6  -5   14.80    1.05
   2   6  -5   13.08    0.90
   1   6  -5    0.84    0.41
   1   6  -5    1.40    0.39
   0   6  -5    0.29    0.36
   0   6  -5    0.15    0.26
  -1   6  -5    0.50    0.39
  -1   6  -5    0.23    0.30
  -2   6  -5    1.76    0.57
  -2   6  -5    1.12    0.51
  -3   6  -5    0.54    0.51
  -3   6  -5    0.80    0.51
  -4   6  -5   10.38    1.33
  -5   6  -5    5.39    1.61
   8   5  -5    1.91    0.88
   7   5  -5    5.89    1.14
   6   5  -5    1.72    0.71
   5   5  -5    5.40    0.90
   4   5  -5   40.00    1.82
   3   5  -5  104.42    3.22
   2   5  -5   -0.03    0.32
   1   5  -5    1.59    0.45
   1   5  -5    1.99    0.44
   0   5  -5   22.90    1.10
   0   5  -5   23.05    1.22
  -1   5  -5   -0.29    0.28
  -1   5  -5    0.14    0.27
  -2   5  -5    2.56    0.55
  -2   5  -5    3.33    0.65
  -3   5  -5    5.39    0.85
  -3   5  -5    4.00    0.69
   3  -5   5    4.86    0.44
  -4   5  -5    0.64    0.51
   4  -5   5    0.00    0.26
  -5   5  -5    4.51    1.50
   5  -5   5    3.93    0.47
   6  -5   5    2.67    0.45
   8   4  -5    4.23    1.11
   7   4  -5   -0.26    0.57
   6   4  -5    2.34    0.76
   5   4  -5    4.20    0.79
   4   4  -5    0.03    0.39
   3   4  -5    1.63    0.46
   2   4  -5    7.41    0.73
   1   4  -5   31.83    1.38
   1   4  -5   32.41    1.26
   0   4  -5   67.10    2.24
   0   4  -5   67.22    2.05
  -1   4  -5  130.07    3.70
  -1   4  -5  128.26    3.48
   1  -4   5  128.49    3.05
  -2   4  -5    2.32    0.47
  -2   4  -5    3.75    0.59
  -2   4  -5    4.44    0.67
   2  -4   5    3.68    0.39
  -3   4  -5    2.28    0.57
  -3   4  -5    1.96    0.49
   3  -4   5    2.45    0.37
  -4   4  -5    0.34    0.41
   4  -4   5    0.78    0.30
  -5   4  -5    0.35    0.50
   5  -4   5    1.61    0.40
  -6   4  -5    0.01    0.63
   6  -4   5    0.62    0.40
  -7   4  -5    6.07    1.05
   7  -4   5    5.80    0.70
   7   3  -5    0.97    0.65
   6   3  -5    0.39    0.53
   5   3  -5    1.86    0.62
   4   3  -5   19.87    1.25
   3   3  -5    8.51    0.80
   2   3  -5    8.26    0.50
   2   3  -5    7.36    0.70
  -2  -3   5    8.15    0.56
   1   3  -5    2.83    0.52
   1   3  -5    2.59    0.32
  -1  -3   5    3.12    0.38
   0   3  -5    0.20    0.21
   0   3  -5    0.26    0.20
   0   3  -5   -0.08    0.25
   0  -3   5   -0.11    0.19
  -1   3  -5    5.88    0.66
  -1   3  -5    6.47    0.73
  -1   3  -5    6.08    0.51
  -1   3  -5    5.74    0.47
   1  -3   5    4.16    0.45
   1  -3   5    5.88    0.44
  -2   3  -5   54.74    1.88
  -2   3  -5   53.27    1.72
  -2   3  -5   55.18    1.84
  -2   3  -5   55.48    2.00
   2  -3   5   54.59    1.52
   2  -3   5   54.85    1.74
  -3   3  -5   18.31    1.06
  -3   3  -5   16.85    0.95
  -3   3  -5   18.60    1.14
  -3   3  -5   16.97    1.07
   3  -3   5   18.39    0.77
  -4   3  -5   28.86    1.50
  -4   3  -5   29.91    1.44
   4  -3   5   29.33    1.08
  -5   3  -5   33.13    1.62
   5  -3   5   32.42    1.23
  -6   3  -5    4.03    0.81
   6  -3   5    4.79    0.62
  -7   3  -5    2.46    0.81
   7  -3   5    1.05    0.46
   6   2  -5   -0.03    0.52
  -6  -2   5    1.18    0.48
   5   2  -5    1.97    0.57
  -5  -2   5    2.76    0.51
   4   2  -5   17.95    1.18
   4   2  -5   16.32    0.79
  -4  -2   5   17.15    0.88
   3   2  -5   30.39    1.04
   3   2  -5   31.11    1.42
  -3  -2   5   29.16    1.13
   2   2  -5   19.42    1.02
   2   2  -5   19.97    0.74
   2   2  -5   17.41    0.91
  -2  -2   5   17.59    0.80
  -2  -2   5   18.38    0.80
   1   2  -5   36.56    1.41
   1   2  -5   36.18    1.10
   1   2  -5   36.75    1.34
  -1  -2   5   37.47    1.16
  -1  -2   5   36.22    1.22
   0   2  -5    3.81    0.36
   0   2  -5    3.96    0.53
   0   2  -5    4.02    0.36
   0   2  -5    3.99    0.50
   0  -2   5    4.54    0.50
   0  -2   5    4.39    0.38
  -1   2  -5    3.61    0.52
  -1   2  -5    2.72    0.35
  -1   2  -5    2.71    0.36
  -1   2  -5    3.46    0.52
   1  -2   5    2.48    0.33
   1  -2   5    2.67    0.46
  -2   2  -5   12.75    0.84
  -2   2  -5   13.79    0.83
  -2   2  -5   12.25    0.70
  -2   2  -5   12.15    0.69
   2  -2   5   11.91    0.61
   2  -2   5   11.53    0.82
  -3   2  -5    0.71    0.35
  -3   2  -5    1.14    0.43
  -3   2  -5    0.85    0.34
   3  -2   5    1.01    0.30
   3  -2   5    1.41    0.42
  -4   2  -5    3.48    0.63
  -4   2  -5    3.33    0.57
   4  -2   5    3.72    0.46
  -5   2  -5    1.22    0.48
   5  -2   5    0.32    0.33
  -6   2  -5   24.33    1.43
   6  -2   5   22.58    1.10
  -7   2  -5    0.93    0.69
   7  -2   5    0.09    0.43
  -8   2  -5    1.81    0.79
   8  -2   5    1.27    0.53
  -8  -1   5    0.47    0.61
  -8  -1   5   -1.06    0.72
  -7  -1   5    4.24    0.79
  -7  -1   5    3.71    0.97
  -6  -1   5    1.12    0.53
  -6  -1   5    0.90    0.68
   5   1  -5    3.22    0.44
   5   1  -5    4.16    0.79
  -5  -1   5    3.91    0.60
  -5  -1   5    3.43    0.75
   4   1  -5    0.45    0.25
   4   1  -5   -0.15    0.34
  -4  -1   5   -0.12    0.34
  -4  -1   5    0.41    0.31
  -4  -1   5   -0.19    0.38
   3   1  -5    1.30    0.41
   3   1  -5    1.78    0.30
   3   1  -5    2.25    0.55
  -3  -1   5    2.78    0.47
  -3  -1   5    2.29    0.41
   2   1  -5   59.93    1.88
   2   1  -5   59.87    1.98
   2   1  -5   58.93    1.59
  -2  -1   5   57.52    1.68
  -2  -1   5   59.39    2.05
  -2  -1   5   59.22    1.77
  -2  -1   5   56.92    1.67
   1   1  -5   65.54    1.70
   1   1  -5   65.42    1.95
   1   1  -5   64.16    2.03
  -1  -1   5   63.33    1.88
  -1  -1   5   68.04    1.74
  -1  -1   5   64.04    1.83
  -1  -1   5   64.41    1.72
   0   1  -5   23.38    1.04
   0   1  -5   24.99    1.01
   0   1  -5   24.31    0.82
   0  -1   5   24.68    0.82
   0  -1   5   24.75    1.00
   0  -1   5   25.47    0.92
  -1   1  -5   78.73    2.03
  -1   1  -5   78.39    2.08
  -1   1  -5   79.98    2.26
   1  -1   5   79.93    2.01
   1  -1   5   78.80    1.99
   1  -1   5   79.85    2.29
   1  -1   5   81.44    2.14
  -2   1  -5    1.01    0.35
  -2   1  -5    1.04    0.26
  -2   1  -5    1.68    0.40
  -2   1  -5    1.56    0.35
   2  -1   5    0.83    0.37
   2  -1   5    1.28    0.30
   2  -1   5    1.45    0.28
  -3   1  -5    3.89    0.53
  -3   1  -5    4.30    0.57
  -3   1  -5    4.93    0.54
   3  -1   5    4.68    0.45
   3  -1   5    3.02    0.53
  -4   1  -5    0.41    0.41
  -4   1  -5    0.79    0.38
  -4   1  -5    0.77    0.42
   4  -1   5    0.64    0.44
   4  -1   5    0.44    0.32
  -5   1  -5    1.65    0.53
   5  -1   5    2.52    0.47
  -6   1  -5   26.94    1.41
   6  -1   5   28.73    1.26
  -7   1  -5    1.38    0.63
   7  -1   5    0.14    0.45
  -8   1  -5    0.34    0.65
   8  -1   5   -0.50    0.45
   9   0  -5    5.10    1.14
  -9   0   5    5.73    0.96
   8   0  -5   79.30    3.05
  -8   0   5   78.58    2.79
   7   0  -5   20.05    1.44
  -7   0   5   19.88    1.70
  -7   0   5   19.96    1.32
   6   0  -5    1.42    0.57
  -6   0   5    2.23    0.78
  -6   0   5    2.73    0.62
   5   0  -5    7.65    0.67
  -5   0   5    7.64    1.02
  -5   0   5    9.03    0.82
   4   0  -5    1.72    0.50
   4   0  -5    1.79    0.33
  -4   0   5    1.19    0.41
  -4   0   5    2.08    0.62
  -4   0   5    2.43    0.49
   3   0  -5    0.01    0.18
   3   0  -5    0.11    0.16
  -3   0   5   -0.12    0.27
  -3   0   5   -0.17    0.27
  -3   0   5    0.13    0.31
  -3   0   5    0.06    0.19
  -3   0   5   -0.17    0.22
   2   0  -5   54.36    1.75
   2   0  -5   55.14    1.47
  -2   0   5   53.94    1.73
  -2   0   5   53.25    1.57
  -2   0   5   53.77    1.58
  -2   0   5   56.41    1.74
  -2   0   5   52.86    1.78
   1   0  -5  133.02    3.47
   1   0  -5  134.95    3.59
   1   0  -5  137.79    3.21
   1   0  -5  138.48    3.49
  -1   0   5  140.93    3.26
  -1   0   5  135.83    3.45
  -1   0   5  135.11    3.23
   0   0  -5   40.97    1.16
   0   0  -5   42.19    1.36
   0   0  -5   41.21    1.42
   0   0   5   40.61    1.15
   0   0   5   41.11    1.25
   0   0   5   40.64    1.37
  -1   0  -5   10.31    0.41
  -1   0  -5   12.20    0.67
  -1   0  -5   11.07    0.61
  -1   0  -5    9.78    0.52
  -1   0  -5    9.32    0.63
   1   0   5   11.41    0.69
   1   0   5   10.26    0.48
   1   0   5   10.74    0.55
  -2   0  -5   14.62    0.72
  -2   0  -5   13.46    0.74
  -2   0  -5   13.17    0.66
  -2   0  -5   12.49    0.73
   2   0   5   13.46    0.81
   2   0   5   13.06    0.59
   2   0   5   13.39    0.66
  -3   0  -5   -0.15    0.24
  -3   0  -5    0.07    0.23
  -3   0  -5    0.49    0.36
   3   0   5    0.25    0.39
   3   0   5    0.21    0.27
   3   0   5    0.04    0.27
  -4   0  -5    3.61    0.47
  -4   0  -5    4.03    0.57
   4   0   5    3.74    0.61
   4   0   5    4.13    0.50
   4   0   5    4.29    0.48
  -5   0  -5   40.72    1.53
   5   0   5   39.97    1.71
   5   0   5   39.78    1.57
   5   0   5   41.81    1.49
  -6   0  -5   18.68    1.14
  -7   0  -5   28.27    1.44
  -8   0  -5    0.53    0.64
   9  -1  -5    0.27    0.67
  -9   1   5    0.79    0.80
   8  -1  -5   11.72    1.31
  -8   1   5   14.99    1.36
  -8   1   5   10.44    1.53
   7  -1  -5   -0.43    0.47
  -7   1   5   -0.56    0.61
  -7   1   5   -0.49    0.56
   6  -1  -5    2.33    0.65
  -6   1   5    3.22    0.67
  -6   1   5    1.25    0.72
   5  -1  -5    2.30    0.58
  -5   1   5    3.44    0.81
  -5   1   5    2.20    0.67
  -5   1   5    2.21    0.52
   4  -1  -5   17.00    0.74
  -4   1   5   17.84    1.20
  -4   1   5   17.51    1.02
  -4   1   5   18.39    0.99
   3  -1  -5    1.60    0.29
   3  -1  -5    0.78    0.27
   3  -1  -5    0.82    0.38
  -3   1   5    1.74    0.38
  -3   1   5    0.97    0.40
  -3   1   5    1.29    0.40
  -3   1   5    0.28    0.18
   2  -1  -5   18.67    1.00
   2  -1  -5   18.29    0.65
   2  -1  -5   18.58    0.84
  -2   1   5   18.73    0.77
  -2   1   5   18.76    0.92
  -2   1   5   17.26    0.92
  -2   1   5   18.33    0.87
   1  -1  -5    0.41    0.21
   1  -1  -5    0.43    0.16
   1  -1  -5    0.33    0.22
  -1   1   5    0.38    0.17
  -1   1   5    0.26    0.26
  -1   1   5    0.30    0.20
  -1   1   5    0.56    0.20
   0  -1  -5    0.64    0.22
   0  -1  -5    0.83    0.28
   0  -1  -5    0.81    0.18
   0  -1  -5    0.58    0.26
   0   1   5    0.82    0.18
   0   1   5    0.70    0.20
   0   1   5    0.58    0.28
  -1  -1  -5   13.48    0.56
  -1  -1  -5   13.74    0.67
  -1  -1  -5   13.40    0.59
   1   1   5   13.50    0.60
   1   1   5   13.85    0.71
   1   1   5   13.93    0.54
  -2  -1  -5   38.35    1.17
  -2  -1  -5   39.76    1.25
  -2  -1  -5   41.40    1.20
   2   1   5   40.84    1.38
   2   1   5   40.12    1.23
   2   1   5   40.30    1.16
  -3  -1  -5   61.07    1.76
   3   1   5   62.11    1.74
   3   1   5   63.22    1.96
   3   1   5   62.39    1.82
  -4  -1  -5    9.79    0.67
   4   1   5   10.34    0.72
   4   1   5   10.02    0.85
  -5  -1  -5   83.02    2.27
   5   1   5   74.71    2.60
   5   1   5   80.89    2.52
  -6  -1  -5   74.47    2.20
   6   1   5   75.38    2.57
  -7  -1  -5   31.21    1.31
   7   1   5   37.51    2.47
   8  -2  -5    0.34    0.59
  -8   2   5   -0.14    0.71
  -8   2   5    0.72    0.82
   7  -2  -5    7.75    1.05
  -7   2   5    4.85    1.14
  -7   2   5    6.90    1.03
   6  -2  -5    3.39    0.64
  -6   2   5    4.38    0.73
  -6   2   5    3.30    0.85
   5  -2  -5    1.43    0.45
  -5   2   5    1.25    0.46
  -5   2   5    1.49    0.59
   4  -2  -5   57.27    1.96
   4  -2  -5   58.23    1.62
  -4   2   5   55.91    2.25
  -4   2   5   59.02    1.95
  -4   2   5   57.30    2.00
   3  -2  -5   15.58    0.88
   3  -2  -5   17.49    0.63
  -3   2   5   15.62    0.93
  -3   2   5   14.94    0.90
  -3   2   5   15.72    1.01
  -3   2   5   16.02    0.83
   2  -2  -5    7.03    0.47
   2  -2  -5    7.12    0.37
   2  -2  -5    6.64    0.56
  -2   2   5    6.28    0.55
  -2   2   5    5.92    0.46
  -2   2   5    8.50    0.65
  -1   2   5  204.83    4.75
  -1   2   5  207.84    4.86
  -1   2   5  210.08    4.97
  -1   2   5  205.19    4.98
   0   2   5   34.74    1.06
   0   2   5   33.06    1.13
   1   2   5   47.02    1.36
   1   2   5   51.08    1.47
   2   2   5   10.73    0.52
   2   2   5    9.35    0.56
   3   2   5   29.88    1.14
   3   2   5   29.70    1.06
   4   2   5    8.81    0.67
   5   2   5    0.34    0.38
   6   2   5    2.90    0.63
   7   2   5   35.87    1.78
   8   2   5   26.78    1.73
   8  -3  -5    0.78    0.57
  -8   3   5   -0.37    0.68
  -8   3   5    0.61    0.76
   7  -3  -5    2.12    0.62
  -7   3   5    3.06    0.78
  -7   3   5    3.57    1.00
   6  -3  -5    1.34    0.48
  -6   3   5    1.78    0.57
  -6   3   5    1.52    0.71
   5  -3  -5    2.94    0.51
  -5   3   5    3.60    0.66
  -5   3   5    2.78    0.74
   4  -3  -5    1.78    0.27
   4  -3  -5    1.09    0.36
  -4   3   5    2.46    0.51
  -4   3   5    1.13    0.53
  -4   3   5    1.73    0.44
   3  -3  -5    2.11    0.37
  -3   3   5    3.69    0.55
  -3   3   5    2.04    0.50
   2  -3  -5   29.53    0.99
  -2   3   5   30.59    1.23
  -2   3   5   30.51    1.20
  -2   3   5   31.11    1.33
  -1   3   5   14.36    0.67
  -1   3   5   13.91    0.69
  -1   3   5   13.64    0.73
   0   3   5   24.26    0.85
   0   3   5   23.69    0.80
   0   3   5   24.53    0.86
   1   3   5  141.67    3.32
   2   3   5   23.24    0.79
   3   3   5    0.38    0.23
   4   3   5   33.85    1.28
   5   3   5   26.23    1.24
   6   3   5   21.53    1.24
   7   3   5   59.65    2.35
   8   3   5    4.66    0.92
   9   3   5   -1.13    0.69
   8  -4  -5    0.17    0.56
  -8   4   5    0.08    0.76
   7  -4  -5   28.73    1.35
  -7   4   5   29.91    2.13
   6  -4  -5    2.06    0.46
  -6   4   5    4.63    1.05
   5  -4  -5    2.12    0.42
  -5   4   5    2.41    0.80
   4  -4  -5    0.11    0.25
  -4   4   5    0.06    0.38
  -3   4   5    7.61    0.89
  -2   4   5   29.75    1.34
  -2   4   5   30.62    1.27
  -1   4   5    1.67    0.36
  -1   4   5    1.90    0.34
   0   4   5   16.56    0.64
   0   4   5   16.80    0.75
   1   4   5   13.27    0.52
   2   4   5    0.10    0.16
   3   4   5    3.55    0.37
   4   4   5    0.92    0.33
   5   4   5    5.03    0.62
   6   4   5    2.45    0.56
   7   4   5   26.21    1.47
   8   4   5    8.16    1.12
   9   4   5   -1.22    0.68
   7  -5  -5   -0.06    0.31
  -7   5   5    0.67    0.75
   6  -5  -5    1.54    0.32
  -6   5   5    2.08    0.86
  -5   5   5    3.08    0.87
  -4   5   5   19.78    1.40
  -3   5   5    4.56    0.75
  -2   5   5    0.08    0.28
  -1   5   5   49.88    1.59
  -1   5   5   48.51    1.74
   0   5   5   24.27    1.01
   0   5   5   24.46    0.84
   1   5   5    1.32    0.27
   1   5   5    1.01    0.20
   2   5   5   28.39    0.85
   3   5   5    0.88    0.23
   4   5   5    4.36    0.49
   5   5   5    0.43    0.32
   6   5   5    0.59    0.42
   7   5   5    6.04    0.85
   8   5   5    7.43    1.04
   9   5   5    1.56    1.11
  -6   6   5    1.13    0.89
  -5   6   5    4.40    1.04
  -4   6   5   23.48    1.59
  -3   6   5   43.78    2.01
  -2   6   5   -0.07    0.31
  -1   6   5    0.13    0.27
  -1   6   5    0.12    0.27
   0   6   5   57.94    1.68
   0   6   5   58.76    1.92
   1   6   5  149.08    3.75
   1   6   5  145.00    3.41
   3   6   5    7.45    0.43
   4   6   5   34.29    1.18
   5   6   5    1.70    0.41
   6   6   5    3.51    0.59
   7   6   5    0.21    0.50
   8   6   5    0.54    0.62
  -6   7   5   12.52    1.84
  -5   7   5    0.28    0.67
  -4   7   5    1.87    0.72
  -3   7   5   12.94    1.19
  -2   7   5   65.69    2.52
  -1   7   5   79.43    2.67
   0   7   5    0.44    0.31
   0   7   5    0.02    0.27
   1   7   5   12.02    0.79
   5   7   5    9.42    0.70
   6   7   5    0.39    0.42
   7   7   5    1.05    0.57
   8   7   5    4.30    0.80
  -5   8   5    9.12    1.50
  -4   8   5    6.66    1.26
  -3   8   5    1.64    0.72
  -2   8   5    0.07    0.49
  -1   8   5   14.56    1.11
   0   8   5    3.07    0.60
   6   8   5    3.07    0.55
   7   8   5    2.70    0.65
  -4   9   5    3.54    1.07
  -3   9   5    0.39    0.69
  -2   9   5    0.51    0.60
  -1   9   5    6.86    1.06
   0   9   5    1.99    0.58
  -3  10   5    8.70    1.43
  -2  10   5   12.81    1.52
  -1  10   5    1.65    0.72
   3   8  -6    5.81    1.54
   3   8  -6    3.15    0.86
   2   8  -6   12.96    1.24
   2   8  -6   13.45    1.11
   1   8  -6   10.69    1.18
   1   8  -6   12.07    1.09
   0   8  -6    4.49    0.82
   0   8  -6    4.56    0.85
  -1   8  -6    0.24    0.52
  -1   8  -6    0.42    0.50
   5   7  -6    0.60    0.60
   4   7  -6    5.91    1.06
   3   7  -6    1.13    0.42
   3   7  -6    0.42    0.60
   2   7  -6    0.72    0.38
   2   7  -6    0.13    0.49
   1   7  -6   21.31    1.28
   1   7  -6   22.47    1.43
   0   7  -6    0.38    0.46
   0   7  -6    0.09    0.33
  -1   7  -6   12.76    1.17
  -1   7  -6   12.96    1.12
  -2   7  -6    0.99    0.55
  -2   7  -6    1.91    0.66
  -3   7  -6    0.62    0.59
   6   6  -6   36.57    2.20
   5   6  -6   11.39    1.41
   4   6  -6    3.30    0.75
   3   6  -6    0.51    0.48
   2   6  -6    0.17    0.29
   2   6  -6   -0.25    0.40
   1   6  -6   -0.35    0.37
   1   6  -6   -0.11    0.27
   0   6  -6    0.44    0.43
   0   6  -6   -0.23    0.28
  -1   6  -6    0.35    0.37
  -1   6  -6    0.16    0.42
  -2   6  -6   20.00    1.37
  -2   6  -6   18.69    1.29
  -3   6  -6    5.89    0.96
   7   5  -6    0.56    0.75
   6   5  -6   18.56    1.60
   5   5  -6   69.34    2.84
   4   5  -6    0.81    0.53
   3   5  -6    2.79    0.62
   2   5  -6   32.85    1.59
   1   5  -6    4.06    0.69
   1   5  -6    5.24    0.68
   0   5  -6    1.66    0.45
   0   5  -6    2.06    0.56
  -1   5  -6   14.26    1.08
  -1   5  -6   14.07    0.94
  -2   5  -6    0.80    0.46
  -2   5  -6    1.06    0.45
  -3   5  -6    8.23    1.06
   3  -5   6    8.79    0.54
   4  -5   6    4.51    0.47
   5  -5   6    4.88    0.52
   7   4  -6    0.83    0.71
   6   4  -6    0.17    0.57
   5   4  -6    0.45    0.52
   4   4  -6    3.42    0.69
   3   4  -6    9.89    1.07
   2   4  -6   24.76    1.33
   1   4  -6  110.17    3.04
   1   4  -6  108.80    3.31
   0   4  -6   15.18    1.00
   0   4  -6   14.82    0.83
   0  -4   6   14.52    0.68
  -1   4  -6   18.63    0.98
  -1   4  -6   18.17    1.13
   1  -4   6   18.94    0.74
  -2   4  -6    0.20    0.31
  -2   4  -6    0.16    0.32
   2  -4   6   -0.03    0.24
  -3   4  -6    1.13    0.51
   3  -4   6    1.19    0.31
  -4   4  -6   -0.83    0.75
   4  -4   6   -0.12    0.27
  -5   4  -6    7.98    1.07
   5  -4   6    8.02    0.66
  -6   4  -6   10.75    1.24
   6  -4   6   10.89    0.80
   6   3  -6   13.29    1.51
   5   3  -6    4.67    0.93
   4   3  -6    1.79    0.58
   3   3  -6    2.34    0.57
  -3  -3   6    2.98    0.47
   2   3  -6    0.05    0.21
   2   3  -6   -0.31    0.30
  -2  -3   6    0.36    0.30
   1   3  -6    3.94    0.61
   1   3  -6    3.94    0.41
  -1  -3   6    3.84    0.46
   0   3  -6   61.39    1.85
   0   3  -6   58.66    1.75
   0   3  -6   60.64    2.12
   0  -3   6   63.18    1.69
   0  -3   6   60.40    1.80
  -1   3  -6   10.78    0.86
  -1   3  -6   12.56    0.73
  -1   3  -6   11.91    0.88
  -1   3  -6   12.60    0.69
   1  -3   6   11.89    0.75
   1  -3   6   12.74    0.63
  -2   3  -6   28.53    1.42
  -2   3  -6   31.02    1.38
  -2   3  -6   28.52    1.26
   2  -3   6   30.99    1.03
  -3   3  -6   35.66    1.58
   3  -3   6   36.64    1.22
  -4   3  -6    3.15    0.64
   4  -3   6    4.58    0.54
  -5   3  -6    0.44    0.53
   5  -3   6    0.52    0.38
  -6   3  -6    0.28    0.66
   6  -3   6    0.22    0.40
  -7   3  -6    9.05    1.14
   7  -3   6    7.58    0.80
  -6  -2   6    2.83    0.61
   5   2  -6   12.61    1.19
  -5  -2   6   13.13    0.91
   4   2  -6   15.38    1.17
   4   2  -6   14.64    0.75
  -4  -2   6   14.53    0.88
   3   2  -6   11.74    0.63
   3   2  -6   11.60    0.96
  -3  -2   6   11.07    0.69
  -3  -2   6   12.02    0.75
   2   2  -6    4.86    0.42
   2   2  -6    5.02    0.66
   2   2  -6    4.77    0.66
  -2  -2   6    4.70    0.53
  -2  -2   6    3.69    0.49
   1   2  -6    1.32    0.41
   1   2  -6    0.71    0.30
   1   2  -6    0.54    0.23
  -1  -2   6    0.51    0.33
  -1  -2   6    0.76    0.31
   0   2  -6    3.41    0.56
   0   2  -6    5.43    0.67
   0   2  -6    2.83    0.36
   0   2  -6    4.37    0.46
   0  -2   6    4.41    0.44
   0  -2   6    3.32    0.49
  -1   2  -6    0.43    0.31
  -1   2  -6    0.57    0.28
  -1   2  -6    0.89    0.38
  -1   2  -6    0.92    0.26
   1  -2   6    1.01    0.30
   1  -2   6    0.41    0.36
  -2   2  -6    1.44    0.34
  -2   2  -6    0.72    0.31
  -2   2  -6    0.53    0.31
  -2   2  -6    0.64    0.38
   2  -2   6    0.51    0.37
   2  -2   6    1.04    0.30
  -3   2  -6    2.17    0.49
   3  -2   6    2.52    0.40
  -4   2  -6   52.17    1.96
   4  -2   6   54.81    1.66
  -5   2  -6    0.58    0.52
   5  -2   6    0.07    0.35
  -6   2  -6    2.90    0.75
   6  -2   6    2.93    0.55
  -7   2  -6    1.48    0.74
   7  -2   6    2.37    0.57
  -8  -1   6    0.39    0.88
  -8  -1   6    1.24    0.66
  -7  -1   6    2.68    0.92
  -7  -1   6    3.63    0.74
  -6  -1   6    0.17    0.61
  -6  -1   6   -0.10    0.45
  -5  -1   6   -0.07    0.37
   4   1  -6   23.66    1.44
   4   1  -6   22.94    0.92
  -4  -1   6   20.94    1.10
   3   1  -6   30.83    1.50
   3   1  -6   30.11    1.03
   3   1  -6   29.75    1.37
  -3  -1   6   30.32    1.21
  -3  -1   6   27.32    1.19
   2   1  -6   14.04    0.95
   2   1  -6   15.70    0.93
   2   1  -6   15.08    0.66
  -2  -1   6   14.15    0.83
  -2  -1   6   13.95    0.76
   1   1  -6   31.67    1.02
   1   1  -6   29.92    1.26
   1   1  -6   31.29    1.34
  -1  -1   6   31.14    1.22
  -1  -1   6   30.66    1.05
  -1  -1   6   30.17    1.03
   0   1  -6    3.44    0.37
   0   1  -6    3.66    0.54
   0  -1   6    4.06    0.49
   0  -1   6    1.96    0.29
   0  -1   6    4.32    0.45
   0  -1   6    2.71    0.48
  -1   1  -6    0.55    0.26
  -1   1  -6    0.77    0.35
  -1   1  -6    0.97    0.23
  -1   1  -6    0.37    0.27
   1  -1   6    1.43    0.29
   1  -1   6    0.76    0.40
   1  -1   6    0.60    0.27
  -2   1  -6    0.40    0.37
  -2   1  -6    0.23    0.30
   2  -1   6    0.51    0.34
   2  -1   6    1.15    0.43
   2  -1   6    0.50    0.25
  -3   1  -6    0.11    0.39
  -3   1  -6    0.48    0.35
   3  -1   6    0.85    0.31
   3  -1   6    0.53    0.42
  -4   1  -6   27.30    1.31
   4  -1   6   28.71    1.08
  -5   1  -6    1.13    0.52
   5  -1   6    1.34    0.40
  -6   1  -6    0.01    0.55
   6  -1   6   -0.26    0.37
  -7   1  -6    1.59    0.76
   7  -1   6    1.06    0.51
  -8   1  -6    0.82    0.74
   8  -1   6    0.42    0.55
   8   0  -6    2.94    0.93
  -8   0   6    2.04    0.94
  -8   0   6    1.48    0.72
   7   0  -6    5.25    1.00
  -7   0   6    5.16    0.90
  -7   0   6    5.70    1.17
  -6   0   6    1.90    0.76
  -6   0   6    3.30    0.69
  -5   0   6    1.84    0.56
  -5   0   6    2.48    0.71
   4   0  -6   13.78    0.69
  -4   0   6   11.71    1.03
  -4   0   6   14.12    0.91
   3   0  -6   55.55    1.57
  -3   0   6   55.46    1.78
  -3   0   6   52.94    1.83
  -3   0   6   54.93    2.02
   2   0  -6   15.10    0.89
   2   0  -6   14.92    0.63
   2   0  -6   13.48    0.92
  -2   0   6   13.77    0.81
  -2   0   6   15.03    0.75
  -2   0   6   14.28    0.83
   1   0  -6    0.87    0.35
   1   0  -6    0.45    0.30
   1   0  -6    0.59    0.20
  -1   0   6    0.37    0.19
  -1   0   6    0.77    0.24
  -1   0   6    0.21    0.31
   0   0  -6   29.77    1.19
   0   0  -6   32.02    1.00
   0   0  -6   31.79    1.28
   0   0   6   26.47    1.04
   0   0   6   32.46    1.25
   0   0   6   31.46    0.99
  -1   0  -6    1.83    0.34
  -1   0  -6    2.44    0.36
  -1   0  -6    3.44    0.54
  -1   0  -6    3.34    0.50
   1   0   6    2.64    0.33
   1   0   6    3.49    0.42
   1   0   6    2.41    0.49
  -2   0  -6    1.99    0.37
  -2   0  -6    1.49    0.43
   2   0   6    1.37    0.28
   2   0   6    1.81    0.37
   2   0   6    2.45    0.53
  -3   0  -6  100.99    2.81
  -3   0  -6  102.41    2.76
   3   0   6  102.28    2.76
   3   0   6   97.59    2.59
   3   0   6  105.54    3.02
  -4   0  -6   28.24    1.27
   4   0   6   26.72    1.19
   4   0   6   30.12    1.44
   4   0   6   27.57    1.10
  -5   0  -6   43.84    1.63
   5   0   6   39.26    1.47
  -6   0  -6    1.72    0.56
  -7   0  -6    0.00    0.56
  -8   0  -6    0.21    0.64
   8  -1  -6    5.08    1.05
  -8   1   6    2.33    1.01
  -8   1   6    3.98    0.94
   7  -1  -6    0.52    0.61
  -7   1   6    1.33    0.67
  -7   1   6    0.16    0.72
   6  -1  -6    0.65    0.52
  -6   1   6    1.22    0.71
  -6   1   6    1.71    0.58
   5  -1  -6   -0.63    0.36
  -5   1   6   -0.13    0.46
  -5   1   6    0.09    0.33
   4  -1  -6   15.09    0.98
  -4   1   6   17.15    1.05
  -4   1   6   17.78    1.23
  -4   1   6   16.08    0.98
   3  -1  -6    2.07    0.32
  -3   1   6    1.94    0.50
  -3   1   6    2.64    0.53
  -3   1   6    3.32    0.50
   2  -1  -6    0.15    0.21
   2  -1  -6   -0.09    0.17
  -2   1   6   -0.05    0.28
  -2   1   6    0.51    0.28
  -2   1   6    0.27    0.22
  -2   1   6    0.11    0.24
   1  -1  -6    1.74    0.26
   1  -1  -6    2.27    0.38
  -1   1   6    2.45    0.43
  -1   1   6    2.98    0.34
  -1   1   6    2.20    0.34
   0  -1  -6   25.57    0.99
   0  -1  -6   25.48    1.05
   0  -1  -6   27.47    0.87
   0   1   6   28.11    0.99
   0   1   6   27.19    0.88
   0   1   6   26.99    1.09
  -1  -1  -6   75.79    2.08
  -1  -1  -6   76.94    2.14
  -1  -1  -6   77.75    2.00
   1   1   6   78.11    2.24
   1   1   6   75.20    1.94
   1   1   6   75.01    2.06
  -2  -1  -6    1.42    0.28
  -2  -1  -6    2.62    0.42
   2   1   6    1.94    0.44
   2   1   6    1.38    0.27
   2   1   6    2.10    0.37
  -3  -1  -6   48.93    1.59
   3   1   6   51.47    1.61
   3   1   6   51.00    1.80
  -4  -1  -6   73.87    2.14
   4   1   6   74.58    2.23
   4   1   6   73.29    2.42
  -5  -1  -6  101.00    2.76
   5   1   6  101.76    2.97
  -6  -1  -6    2.85    0.55
   6   1   6    3.00    0.62
   8  -2  -6    1.15    0.67
  -8   2   6    2.19    0.83
  -8   2   6    0.62    0.77
   7  -2  -6    0.39    0.52
  -7   2   6   -0.66    0.58
  -7   2   6   -0.24    0.61
   6  -2  -6   13.14    1.09
  -6   2   6   11.82    1.08
  -6   2   6   10.41    1.33
   5  -2  -6    3.18    0.65
  -5   2   6    3.44    0.81
  -5   2   6    3.56    0.63
   4  -2  -6    0.18    0.39
  -4   2   6   -0.18    0.35
  -4   2   6    0.53    0.43
  -4   2   6    0.62    0.38
   3  -2  -6   89.23    2.64
   3  -2  -6   94.17    2.30
  -3   2   6   92.19    2.76
  -3   2   6   89.67    2.92
  -3   2   6   91.88    2.59
  -3   2   6   91.11    2.83
   2  -2  -6   14.41    0.56
  -2   2   6   14.40    0.88
  -2   2   6   15.01    0.71
  -2   2   6   13.16    0.84
  -2   2   6   13.89    0.83
   1  -2  -6    1.11    0.20
  -1   2   6    1.24    0.30
  -1   2   6    1.12    0.26
  -1   2   6    1.41    0.30
  -1   2   6    0.79    0.34
   0   2   6    5.43    0.37
   0   2   6    5.59    0.44
   0   2   6    6.67    0.61
   1   2   6   51.38    1.50
   1   2   6   53.30    1.67
   2   2   6   13.82    0.68
   2   2   6   14.54    0.78
   3   2   6    2.55    0.40
   4   2   6   13.27    0.79
   5   2   6   46.21    1.69
   6   2   6   35.10    1.59
   7   2   6    0.76    0.63
   8  -3  -6    0.62    0.59
  -8   3   6    0.53    0.75
  -8   3   6    1.15    0.95
   7  -3  -6    3.10    0.69
  -7   3   6    1.44    0.88
  -7   3   6    0.98    0.76
   6  -3  -6    0.63    0.48
  -6   3   6    0.18    0.64
  -6   3   6    0.65    0.49
   5  -3  -6    1.59    0.48
  -5   3   6    1.72    0.67
  -5   3   6    1.16    0.49
   4  -3  -6   19.72    1.00
  -4   3   6   18.88    1.31
  -4   3   6   19.46    1.12
   3  -3  -6    1.11    0.35
  -3   3   6    1.10    0.38
  -3   3   6    1.22    0.46
  -3   3   6    1.91    0.50
   2  -3  -6   17.59    0.77
  -2   3   6   16.83    0.99
  -2   3   6   18.16    0.96
  -2   3   6   17.86    0.96
  -1   3   6  107.58    2.80
  -1   3   6  107.69    2.90
  -1   3   6  107.27    2.93
   0   3   6   29.57    1.10
   0   3   6   29.65    1.00
   1   3   6    3.44    0.48
   1   3   6    3.47    0.37
   2   3   6   25.70    0.92
   3   3   6   12.81    0.67
   4   3   6   14.31    0.81
   5   3   6  117.77    3.28
   6   3   6   30.71    1.49
   7   3   6    1.77    0.68
   8   3   6    4.42    0.90
   9   3   6   -0.81    0.90
   7  -4  -6    0.35    0.41
  -7   4   6    0.86    0.78
   6  -4  -6    0.83    0.39
  -6   4   6    1.49    0.78
   5  -4  -6   -0.15    0.28
  -5   4   6    0.01    0.50
   4  -4  -6   11.93    0.67
  -4   4   6   12.16    1.12
  -3   4   6    4.28    0.71
  -2   4   6    0.83    0.36
  -2   4   6    0.85    0.36
  -1   4   6    7.72    0.61
  -1   4   6    7.03    0.57
   0   4   6    2.34    0.33
   1   4   6    2.37    0.30
   2   4   6   -0.16    0.18
   3   4   6    4.31    0.42
   4   4   6    5.99    0.55
   5   4   6   19.91    1.04
   6   4   6    6.91    0.85
   7   4   6   -0.10    0.58
   8   4   6    3.83    0.93
   7  -5  -6    1.38    0.37
  -7   5   6    1.32    0.89
  -6   5   6    7.58    1.31
  -5   5   6    2.77    0.82
  -4   5   6    0.82    0.55
  -3   5   6   23.16    1.38
  -2   5   6   21.77    1.20
  -2   5   6   23.35    1.17
  -1   5   6    0.72    0.31
  -1   5   6    0.82    0.31
   0   5   6   19.86    0.79
   1   5   6   -0.01    0.17
   2   5   6    1.57    0.26
   3   5   6   -0.08    0.20
   4   5   6    0.34    0.25
   5   5   6    5.26    0.65
   6   5   6   11.34    0.94
   7   5   6   10.71    1.06
   8   5   6    1.62    0.78
  -6   6   6   10.73    1.60
  -5   6   6   24.34    1.80
  -4   6   6    1.91    0.69
  -3   6   6    4.96    0.85
  -2   6   6   17.70    1.16
  -1   6   6  133.42    3.58
  -1   6   6  133.85    3.80
   0   6   6   77.97    2.16
   1   6   6    4.20    0.38
   2   6   6   31.17    0.96
   3   6   6    0.61    0.23
   4   6   6    5.47    0.49
   5   6   6    1.37    0.41
   6   6   6    1.41    0.53
   7   6   6    0.08    0.55
   8   6   6    0.38    0.61
  -6   7   6    0.74    0.82
  -5   7   6    1.40    0.78
  -4   7   6   35.78    2.06
  -3   7   6   63.38    2.65
  -2   7   6    1.44    0.55
  -1   7   6    1.15    0.46
   0   7   6   47.23    1.56
   1   7   6   34.20    1.08
   2   7   6    0.50    0.21
   3   7   6   15.71    0.65
   4   7   6    0.07    0.24
   5   7   6    1.79    0.43
   6   7   6    8.11    0.82
   7   7   6    0.16    0.50
  -5   8   6    1.45    0.81
  -4   8   6    0.57    0.61
  -3   8   6    9.89    1.40
  -2   8   6    1.61    0.67
   1   8   6    0.65    0.33
   5   8   6    1.61    0.36
   6   8   6    1.74    0.50
   7   8   6    6.82    0.83
  -4   9   6    0.61    0.70
  -3   9   6    3.01    0.92
  -2   9   6    3.42    1.12
   6   9   6   -0.37    0.33
   4   7  -7    0.39    0.59
   3   7  -7   10.89    0.99
   3   7  -7   11.14    1.39
   2   7  -7   -0.06    0.49
   2   7  -7    0.32    0.33
   1   7  -7   14.69    1.30
   1   7  -7   14.17    1.10
   0   7  -7    0.03    0.37
   0   7  -7    0.64    0.53
  -1   7  -7    0.69    0.56
  -1   7  -7    0.41    0.45
   5   6  -7    2.55    0.89
   4   6  -7   -0.44    0.55
   3   6  -7    0.47    0.53
   2   6  -7    0.68    0.37
   2   6  -7   -0.48    0.42
   1   6  -7    0.41    0.48
   1   6  -7    0.90    0.44
   0   6  -7   15.76    1.23
   0   6  -7   17.14    1.13
  -1   6  -7    3.36    0.67
  -1   6  -7    2.79    0.68
   6   5  -7    4.12    1.00
   5   5  -7    2.19    0.76
   4   5  -7   25.89    1.63
   3   5  -7   10.94    1.28
   2   5  -7   -0.10    0.28
   2   5  -7    0.28    0.44
   1   5  -7   14.72    0.95
   1   5  -7   17.48    1.23
   0   5  -7    3.78    0.69
   0   5  -7    4.88    0.69
  -1   5  -7    5.98    0.85
  -1   5  -7    6.57    0.82
   3  -5   7    6.03    0.52
   4  -5   7   -0.15    0.29
   5  -5   7    1.63    0.41
   6   4  -7    1.08    0.68
   5   4  -7    2.17    0.78
   4   4  -7    4.74    0.88
   3   4  -7   53.54    2.25
   2   4  -7   22.56    1.35
   1   4  -7   39.29    1.50
   1   4  -7   39.43    1.78
  -1  -4   7   38.91    1.29
   0   4  -7    0.39    0.35
   0   4  -7   -0.12    0.23
   0  -4   7   -0.17    0.29
  -1   4  -7    0.12    0.33
  -1   4  -7    0.20    0.28
   1  -4   7    0.58    0.30
   2  -4   7    0.30    0.28
   3  -4   7    8.28    0.61
  -4   4  -7   16.67    1.31
   4  -4   7   14.87    0.82
  -5   4  -7    1.99    0.76
   5  -4   7    0.54    0.40
   5   3  -7    1.11    0.64
   4   3  -7    0.19    0.44
  -4  -3   7    0.30    0.38
   3   3  -7    2.08    0.60
  -3  -3   7    2.34    0.50
   2   3  -7   41.68    1.48
   2   3  -7   43.93    1.88
  -2  -3   7   43.92    1.48
   1   3  -7    5.89    0.79
   1   3  -7    6.07    0.49
  -1  -3   7    7.84    0.60
   0   3  -7   18.12    1.15
   0   3  -7   19.82    0.92
   0   3  -7   19.91    0.88
   0  -3   7   20.39    0.84
  -1   3  -7   30.62    1.67
  -1   3  -7   30.90    1.47
  -1   3  -7   31.37    2.25
   1  -3   7   33.37    1.10
  -2   3  -7    0.65    0.49
   2  -3   7    0.33    0.28
  -3   3  -7    3.33    0.68
   3  -3   7    3.84    0.51
  -4   3  -7    3.79    0.71
   4  -3   7    3.58    0.52
  -5   3  -7    7.45    1.02
   5  -3   7    7.60    0.74
  -6   3  -7    7.89    1.12
   6  -3   7    8.70    0.79
  -7  -2   7    5.57    0.76
  -6  -2   7    8.88    0.90
  -5  -2   7    1.63    0.54
   4   2  -7    1.24    0.55
  -4  -2   7    1.66    0.50
   3   2  -7    5.38    0.47
   3   2  -7    5.23    0.80
  -3  -2   7    7.13    0.77
   2   2  -7    0.25    0.38
   2   2  -7    0.03    0.31
   2   2  -7   -0.11    0.19
  -2  -2   7    0.28    0.29
   1   2  -7    3.57    0.41
   1   2  -7    4.02    0.65
   1   2  -7    5.45    0.70
  -1  -2   7    4.85    0.55
   0   2  -7   11.75    0.90
   0   2  -7   11.16    0.64
   0   2  -7   12.42    0.66
   0   2  -7   11.83    0.90
   0  -2   7   11.78    0.65
  -1   2  -7    1.03    0.43
  -1   2  -7    1.78    0.38
   1  -2   7    1.43    0.35
  -2   2  -7   72.88    2.41
   2  -2   7   74.54    2.04
  -3   2  -7    0.23    0.42
   3  -2   7    0.34    0.32
  -4   2  -7    2.82    0.67
   4  -2   7    3.39    0.49
  -5   2  -7    1.77    0.69
   5  -2   7    3.09    0.52
  -6   2  -7    0.27    0.71
   6  -2   7    0.36    0.43
  -7   2  -7    0.07    0.72
   7  -2   7    0.50    0.44
  -8  -1   7    0.41    0.64
  -7  -1   7    0.14    0.61
  -6  -1   7    8.21    0.95
  -5  -1   7    8.85    0.96
  -4  -1   7    8.88    0.81
   3   1  -7    4.07    0.72
   3   1  -7    3.58    0.42
  -3  -1   7    4.00    0.60
   2   1  -7    2.91    0.58
   2   1  -7    3.80    0.42
   2   1  -7    3.32    0.59
  -2  -1   7    3.11    0.52
  -2  -1   7    3.21    0.49
   1   1  -7    0.96    0.26
   1   1  -7    1.59    0.46
  -1  -1   7    1.40    0.43
  -1  -1   7    1.30    0.33
   0   1  -7   -0.18    0.21
   0   1  -7    0.52    0.38
   0  -1   7    0.23    0.26
   0  -1   7    0.39    0.39
  -1   1  -7    0.31    0.28
  -1   1  -7   -0.51    0.31
   1  -1   7    0.05    0.39
   1  -1   7    0.18    0.25
  -2   1  -7   19.43    1.07
   2  -1   7   19.71    1.34
   2  -1   7   19.99    0.85
  -3   1  -7    3.05    0.59
   3  -1   7    3.35    0.45
  -4   1  -7    0.73    0.49
   4  -1   7    0.99    0.36
  -5   1  -7    1.61    0.60
   5  -1   7    1.65    0.43
  -6   1  -7    1.77    0.68
   6  -1   7    1.73    0.45
  -7   1  -7    3.69    0.85
   7  -1   7    4.65    0.69
   8   0  -7    1.03    0.71
  -8   0   7    1.76    0.97
  -8   0   7    1.46    0.78
   7   0  -7    2.81    0.82
  -7   0   7    2.57    0.75
  -7   0   7    1.75    0.85
  -6   0   7    2.01    0.65
  -6   0   7    0.67    0.71
  -5   0   7   17.32    1.13
  -5   0   7   13.82    1.26
  -4   0   7    5.80    0.82
  -4   0   7    8.68    0.90
   3   0  -7    2.56    0.41
  -3   0   7    2.20    0.47
   2   0  -7   33.47    1.10
   2   0  -7   33.18    1.44
  -2   0   7   33.56    1.37
  -2   0   7   32.94    1.23
   1   0  -7    5.02    0.44
   1   0  -7    5.95    0.72
  -1   0   7    5.37    0.57
  -1   0   7    5.06    0.63
  -1   0   7    5.80    0.53
   0   0  -7    0.89    0.29
   0   0  -7    0.87    0.42
   0   0   7    0.67    0.42
   0   0   7    1.01    0.28
   0   0   7    0.45    0.21
  -1   0  -7  135.13    3.42
  -1   0  -7  134.78    3.62
   1   0   7  134.88    3.48
   1   0   7  137.91    3.71
   1   0   7  137.71    3.33
  -2   0  -7   29.82    1.15
  -2   0  -7   29.84    1.28
   2   0   7   29.33    1.05
   2   0   7   29.69    1.37
   2   0   7   29.27    1.17
  -3   0  -7   34.71    1.41
   3   0   7   34.93    1.55
   3   0   7   33.68    1.33
   3   0   7   33.75    1.18
  -4   0  -7    0.55    0.42
   4   0   7    0.63    0.33
  -5   0  -7    1.21    0.49
   5   0   7    0.37    0.53
  -6   0  -7    0.58    0.54
  -7   0  -7   -0.06    0.59
  -8   0  -7   -0.12    0.65
   8  -1  -7    0.29    0.64
  -8   1   7    1.13    0.86
  -8   1   7    0.45    0.69
   7  -1  -7    0.92    0.62
  -7   1   7   -0.26    0.73
  -7   1   7    0.87    0.73
   6  -1  -7    8.85    1.09
  -6   1   7    4.88    0.98
  -6   1   7   10.40    1.16
  -5   1   7    0.32    0.58
  -5   1   7    0.69    0.48
  -4   1   7    0.40    0.37
  -4   1   7   -0.45    0.39
   3  -1  -7   -0.09    0.26
  -3   1   7    0.02    0.34
  -3   1   7    0.02    0.29
  -3   1   7    0.28    0.33
   2  -1  -7    9.19    0.50
  -2   1   7    8.60    0.71
  -2   1   7    8.34    0.62
  -2   1   7    9.34    0.73
  -2   1   7    9.17    0.79
   1  -1  -7   35.01    1.10
  -1   1   7   36.62    1.29
  -1   1   7   35.24    1.42
  -1   1   7   36.56    1.17
   0  -1  -7    0.30    0.33
   0  -1  -7    0.31    0.24
   0   1   7    0.20    0.32
   0   1   7    0.16    0.23
   0   1   7    0.25    0.26
  -1  -1  -7    9.09    0.77
  -1  -1  -7    7.78    0.55
   1   1   7    8.46    0.52
   1   1   7    8.26    0.72
   1   1   7    8.05    0.59
  -2  -1  -7   58.80    1.70
  -2  -1  -7   58.69    1.84
   2   1   7   57.84    1.99
   2   1   7   60.35    1.81
   2   1   7   57.94    1.66
  -3  -1  -7  190.42    4.67
   3   1   7  188.06    4.70
   3   1   7  189.93    4.96
  -4  -1  -7   12.40    0.82
   4   1   7   12.44    0.81
   4   1   7   12.18    1.01
  -5  -1  -7   22.44    1.13
   5   1   7   24.67    1.19
  -6  -1  -7    9.50    0.82
   8  -2  -7    1.61    0.75
  -8   2   7    0.92    0.88
   7  -2  -7    2.60    0.81
  -7   2   7    0.43    0.74
  -7   2   7    0.63    0.68
   6  -2  -7    2.13    0.69
  -6   2   7    2.32    0.69
  -6   2   7    1.82    0.83
   5  -2  -7   40.20    1.79
  -5   2   7   43.14    1.84
  -5   2   7   44.70    2.20
   4  -2  -7    7.69    0.83
  -4   2   7    6.61    0.95
  -4   2   7    9.68    0.98
   3  -2  -7    5.93    0.44
  -3   2   7    5.16    0.75
  -3   2   7    7.29    0.84
  -3   2   7    4.60    0.66
  -3   2   7    6.07    0.68
   2  -2  -7    0.98    0.24
  -2   2   7    0.87    0.35
  -2   2   7    0.67    0.36
  -2   2   7    1.03    0.40
  -2   2   7    0.94    0.31
   1  -2  -7   43.91    1.21
  -1   2   7   41.61    1.30
  -1   2   7   43.69    1.61
  -1   2   7   42.94    1.44
   0   2   7   14.90    0.89
   0   2   7   15.72    0.75
   1   2   7    5.45    0.48
   1   2   7    5.92    0.63
  -2  -2  -7   25.05    0.96
   2   2   7   26.17    1.03
   2   2   7   26.13    1.21
   3   2   7   48.68    1.59
   4   2   7   33.71    1.32
   5   2   7    2.43    0.56
   6   2   7    3.14    0.63
   7   2   7    2.60    0.71
   7  -3  -7    0.39    0.52
  -7   3   7    1.76    0.75
  -7   3   7    0.79    0.78
   6  -3  -7   12.64    1.04
  -6   3   7   10.59    1.44
  -6   3   7   12.42    1.30
   5  -3  -7    1.28    0.48
  -5   3   7    0.40    0.46
  -5   3   7    0.13    0.55
   4  -3  -7    6.66    0.68
  -4   3   7    6.82    1.00
   3  -3  -7   44.97    1.57
  -3   3   7   46.28    1.87
  -3   3   7   45.66    1.80
  -3   3   7   47.24    1.93
   2  -3  -7    9.73    0.64
  -2   3   7   10.79    0.79
  -2   3   7   10.21    0.80
  -2   3   7    9.23    0.79
  -1   3   7    1.71    0.54
  -1   3   7    1.99    0.38
   0   3   7    6.72    0.52
   1   3   7    0.29    0.23
   2   3   7    4.08    0.48
   3   3   7  155.75    3.89
   4   3   7   73.05    2.17
   5   3   7   10.89    0.81
   6   3   7    3.49    0.66
   7   3   7    0.67    0.54
   8   3   7    0.33    0.58
   7  -4  -7   -0.40    0.35
  -7   4   7    0.94    0.88
   6  -4  -7    2.77    0.49
  -6   4   7    3.53    0.96
   5  -4  -7    2.79    0.46
  -5   4   7    4.18    0.88
   4  -4  -7    0.37    0.29
  -4   4   7    0.03    0.44
  -3   4   7    3.94    0.68
  -3   4   7    2.98    0.63
  -2   4   7    1.72    0.44
  -2   4   7    2.35    0.51
  -1   4   7    0.17    0.24
   0   4   7   -0.06    0.20
   1   4   7    0.25    0.22
   2   4   7    5.46    0.46
   3   4   7    6.81    0.54
   4   4   7    0.74    0.32
   5   4   7    2.90    0.56
   6   4   7   13.60    0.97
   7   4   7    0.34    0.47
   8   4   7   -0.29    0.54
  -7   5   7   -0.10    0.73
  -6   5   7    0.49    0.71
  -5   5   7    8.79    1.31
  -4   5   7   14.89    1.30
  -3   5   7    3.31    0.72
  -2   5   7    4.26    0.68
  -2   5   7    3.00    0.68
  -1   5   7    1.12    0.36
   0   5   7    0.56    0.26
   1   5   7    2.56    0.37
   2   5   7    0.28    0.20
   3   5   7    5.12    0.48
   4   5   7   10.85    0.68
   5   5   7   23.10    1.09
   6   5   7    0.58    0.44
   7   5   7   16.38    1.16
   8   5   7    0.94    0.70
  -6   6   7    2.66    1.06
  -5   6   7   15.10    1.73
  -4   6   7    8.22    1.22
  -3   6   7   85.67    3.11
  -2   6   7   65.89    2.32
  -1   6   7    0.02    0.29
   0   6   7   22.33    0.95
   1   6   7   -0.05    0.18
   2   6   7    4.07    0.41
   3   6   7    0.72    0.28
   4   6   7    7.55    0.59
   5   6   7    0.65    0.37
   6   6   7   -0.29    0.39
   7   6   7    5.49    0.76
  -5   7   7   34.94    2.24
  -4   7   7    4.68    1.03
  -3   7   7    1.34    0.65
  -1   7   7   23.19    1.22
   0   7   7    4.48    0.59
   1   7   7   16.78    0.75
   2   7   7    0.57    0.28
   3   7   7    5.26    0.49
   4   7   7    7.75    0.57
   5   7   7   -0.31    0.30
   6   7   7    0.45    0.42
   7   7   7    0.14    0.45
  -5   8   7    3.85    1.07
  -4   8   7    1.07    0.69
   0   8   7   12.28    0.88
   1   8   7    0.03    0.30
   2   8   7    2.82    0.40
   3   8   7    1.00    0.30
   4   8   7    1.27    0.34
   6   8   7    2.49    0.48
   1   9   7    1.23    0.43
   1   7  -8    0.22    0.58
   4   6  -8    0.56    0.72
   3   6  -8    0.38    0.53
   3   6  -8    1.25    0.47
   2   6  -8   10.08    0.92
   2   6  -8   10.78    1.40
   1   6  -8    0.95    0.60
   1   6  -8    0.95    0.44
   5   5  -8    9.67    1.43
   4   5  -8    1.55    0.68
   3   5  -8    4.71    1.02
   2   5  -8    4.55    0.70
   2   5  -8    4.68    0.89
   1   5  -8    2.50    0.69
   1   5  -8    2.47    0.53
   2  -5   8    0.46    0.34
   3  -5   8    1.23    0.36
   4  -5   8   10.64    0.69
   4   4  -8   16.85    1.50
   3   4  -8   42.89    2.09
   2   4  -8   -0.31    0.42
   1   4  -8   -0.08    0.23
   1   4  -8    0.07    0.46
  -1  -4   8    0.33    0.36
   0  -4   8    1.83    0.45
   1  -4   8    4.22    0.53
   2  -4   8   13.11    0.73
   3  -4   8    3.83    0.50
  -4   4  -8    7.54    1.12
   4  -4   8    7.81    0.68
  -5   4  -8   12.11    1.41
   5  -4   8   14.05    0.87
  -4  -3   8   18.19    1.01
  -3  -3   8    5.12    0.68
  -2  -3   8    5.10    0.67
   1   3  -8   26.48    1.54
  -1  -3   8   26.21    1.10
   0  -3   8    3.17    0.47
  -1   3  -8    5.26    0.75
   1  -3   8    5.87    0.57
  -2   3  -8   10.25    1.02
   2  -3   8   10.49    0.69
  -3   3  -8    2.56    0.69
   3  -3   8    4.14    0.55
  -4   3  -8    5.91    0.92
   4  -3   8    6.73    0.70
  -5   3  -8    5.18    0.99
   5  -3   8    6.07    0.68
  -6   3  -8    0.57    0.81
  -6  -2   8    0.27    0.53
  -5  -2   8    5.60    0.77
  -4  -2   8    0.30    0.44
   3   2  -8    1.30    0.90
  -3  -2   8    3.05    0.62
   2   2  -8   16.18    1.16
  -2  -2   8   17.60    0.94
   1   2  -8    0.48    0.42
  -1  -2   8    0.30    0.34
   0   2  -8   64.76    2.29
   0  -2   8   65.21    1.87
  -1   2  -8    1.88    0.55
   1  -2   8    1.28    0.37
  -2   2  -8    1.71    0.51
   2  -2   8    1.13    0.36
  -3   2  -8    0.81    0.52
   3  -2   8    0.95    0.39
  -4   2  -8    4.32    0.84
   4  -2   8    3.18    0.51
  -5   2  -8   -0.30    0.64
   5  -2   8    0.08    0.39
  -6   2  -8   16.58    1.45
   6  -2   8   16.55    1.02
  -7  -1   8    0.85    0.65
  -6  -1   8    5.28    0.88
  -5  -1   8   -0.15    0.47
  -4  -1   8    2.50    0.60
   3   1  -8    3.42    0.69
  -3  -1   8    2.74    0.54
   2   1  -8   -0.62    0.40
  -2  -1   8    0.18    0.32
   1   1  -8    2.45    0.60
  -1  -1   8    2.35    0.43
   0   1  -8   13.12    0.97
   0  -1   8   14.38    0.73
  -1   1  -8    8.63    0.89
   1  -1   8    8.36    0.61
  -2   1  -8    5.35    0.75
   2  -1   8    6.20    0.59
  -3   1  -8    0.74    0.54
   3  -1   8    1.33    0.38
  -4   1  -8    0.43    0.52
   4  -1   8    0.13    0.33
  -5   1  -8    8.20    0.96
   5  -1   8    6.78    0.71
  -6   1  -8    2.03    0.72
   6  -1   8    1.15    0.47
  -7   1  -8    0.89    0.71
   7  -1   8    0.91    0.54
   7   0  -8    2.71    0.88
  -7   0   8    1.03    0.77
  -7   0   8    2.81    0.82
  -6   0   8    4.69    0.90
  -5   0   8    2.70    0.72
  -4   0   8   18.82    1.15
  -3   0   8    7.23    0.81
   2   0  -8    3.12    0.64
  -2   0   8    4.27    0.59
   1   0  -8   98.58    2.92
  -1   0   8   81.16    3.49
  -1   0   8  100.31    2.54
   0   0  -8   23.92    1.24
   0   0   8   25.59    0.97
   0   0   8   25.53    1.25
  -1   0  -8    9.79    0.85
   1   0   8   10.91    0.64
   1   0   8   10.68    0.90
  -2   0  -8    0.81    0.42
   2   0   8    0.39    0.32
  -3   0  -8    9.60    0.86
   3   0   8   10.04    0.68
  -4   0  -8    0.07    0.47
   4   0   8    0.17    0.32
  -5   0  -8    1.01    0.54
  -6   0  -8    0.45    0.61
  -7   0  -8    7.90    0.95
   7  -1  -8    0.48    0.63
  -7   1   8    0.96    0.75
  -7   1   8    0.63    0.73
   6  -1  -8    0.22    0.54
  -6   1   8    2.28    0.76
  -6   1   8    0.48    0.62
  -5   1   8    1.43    0.65
  -5   1   8    1.14    0.57
  -4   1   8    2.20    0.62
  -4   1   8    0.94    0.54
  -3   1   8    9.69    0.80
  -2   1   8   -0.01    0.27
  -2   1   8   -0.14    0.35
   1  -1  -8    2.05    0.34
  -1   1   8    2.55    0.41
  -1   1   8    1.68    0.47
  -1   1   8    2.23    0.41
   0  -1  -8   39.73    1.53
   0  -1  -8   41.77    1.31
   0   1   8   38.64    1.40
   0   1   8   37.90    1.56
   0   1   8   39.90    1.28
  -1  -1  -8  228.13    5.63
  -1  -1  -8  234.76    5.42
   1   1   8  228.68    5.37
   1   1   8  222.01    5.53
   1   1   8  232.46    5.82
  -2  -1  -8   27.80    1.23
  -2  -1  -8   27.09    1.05
   2   1   8   26.77    1.34
   2   1   8   28.32    1.15
  -3  -1  -8   20.51    1.05
   3   1   8   19.54    1.21
   3   1   8   19.97    0.99
  -4  -1  -8   15.39    0.97
   4   1   8   13.72    0.91
  -5  -1  -8    0.95    0.52
  -6  -1  -8    0.92    0.53
   7  -2  -8   15.01    1.35
  -7   2   8   15.43    1.62
  -7   2   8   13.14    1.72
   6  -2  -8    4.34    0.88
  -6   2   8    3.94    0.99
  -6   2   8    4.57    0.91
   5  -2  -8   10.60    1.11
  -5   2   8   10.34    1.25
  -5   2   8   10.09    1.10
   4  -2  -8   -0.46    0.37
  -4   2   8    0.19    0.47
  -4   2   8    0.08    0.37
  -3   2   8   14.82    0.93
  -3   2   8   14.63    1.06
   2  -2  -8    9.41    0.58
  -2   2   8    9.30    0.84
  -2   2   8    9.00    0.65
  -2   2   8    8.89    0.77
   1  -2  -8    4.98    0.44
  -1   2   8    6.07    0.65
  -1   2   8    4.67    0.64
   0   2   8   25.49    1.06
   0   2   8   24.92    1.22
   1   2   8   50.78    1.82
   1   2   8   51.69    1.65
  -2  -2  -8   12.01    0.72
   2   2   8   11.51    0.72
   3   2   8    6.61    0.69
   4   2   8   12.18    0.85
   5   2   8    1.28    0.48
   6   2   8   -0.09    0.40
   7  -3  -8    0.28    0.52
  -7   3   8    1.47    0.79
  -7   3   8    0.86    0.79
   6  -3  -8    1.67    0.56
  -6   3   8    1.79    0.67
  -6   3   8    0.76    0.66
   5  -3  -8   16.99    1.08
  -5   3   8   16.49    1.33
  -5   3   8   17.02    1.47
   4  -3  -8    1.60    0.43
  -4   3   8    1.77    0.67
   3  -3  -8    1.21    0.39
  -3   3   8    0.98    0.44
  -3   3   8    0.58    0.41
   2  -3  -8    0.33    0.29
  -2   3   8    0.50    0.37
   1  -3  -8    3.82    0.45
  -1   3   8    5.56    0.63
   0   3   8    0.20    0.25
   1   3   8  120.85    3.14
   2   3   8   91.34    2.51
   3   3   8   25.99    1.10
   4   3   8    0.39    0.35
   5   3   8    0.89    0.43
   6   3   8    0.59    0.47
   7   3   8   -0.10    0.50
   8   3   8   19.73    1.61
   7  -4  -8    1.02    0.43
  -7   4   8    0.70    0.76
   6  -4  -8    0.50    0.39
  -6   4   8   -0.51    0.62
   5  -4  -8    1.80    0.43
  -5   4   8    1.84    0.75
   4  -4  -8    0.65    0.30
  -4   4   8   -0.15    0.46
  -3   4   8    0.03    0.36
  -2   4   8   -0.16    0.29
  -1   4   8    0.24    0.26
   0   4   8    2.53    0.43
   1   4   8    3.73    0.48
   2   4   8    0.34    0.27
   3   4   8    5.08    0.60
   4   4   8   24.74    1.11
   5   4   8    0.03    0.37
   6   4   8    0.20    0.42
   7   4   8    0.07    0.48
   8   4   8    2.40    0.75
  -6   5   8    9.60    1.48
  -5   5   8    8.12    1.24
  -3   5   8    3.23    0.73
  -2   5   8    4.59    0.72
  -1   5   8    5.33    0.70
   0   5   8    1.13    0.33
   1   5   8    3.27    0.43
   2   5   8    8.48    0.58
   3   5   8   27.62    1.08
   4   5   8    1.46    0.41
   5   5   8   11.44    0.81
   6   5   8    5.75    0.75
   7   5   8    9.26    1.03
  -6   6   8    3.23    1.03
  -5   6   8   38.07    2.38
  -2   6   8   10.49    0.96
  -1   6   8    0.00    0.33
   0   6   8    3.52    0.53
   1   6   8   -0.06    0.24
   2   6   8   11.47    0.66
   3   6   8    5.31    0.53
   4   6   8    0.93    0.36
   5   6   8   16.07    0.92
   6   6   8    5.78    0.71
   7   6   8    5.46    0.77
  -1   7   8    9.98    0.91
   0   7   8    0.68    0.39
   1   7   8    7.48    0.59
   2   7   8    5.21    0.55
   3   7   8   -0.06    0.28
   4   7   8    1.42    0.40
   5   7   8    0.36    0.36
   6   7   8   -0.16    0.36
   7   7   8    1.12    0.78
   0   8   8    0.14    0.36
   1   8   8    0.25    0.32
   2   8   8    0.53    0.31
   3   8   8   22.01    0.92
   4   8   8    5.03    0.56
   5   8   8   -0.39    0.33
   6   8   8    0.52    0.42
   1   9   8    0.28    0.39
   2   9   8    2.62    0.46
   3   9   8    7.87    0.59
   4   9   8   24.92    0.99
   5   9   8    0.85    0.39
   2  10   8   13.49    0.84
  -1  -4   9    0.91    0.44
   0  -4   9    5.55    0.63
   1  -4   9    5.99    0.64
   2  -4   9   19.08    0.92
  -3   4  -9   15.49    1.50
   3  -4   9   10.71    0.75
  -4   4  -9   39.22    2.18
   4  -4   9   38.54    1.43
  -4  -3   9   -0.43    0.46
  -3  -3   9   18.82    1.07
  -2  -3   9   13.43    0.92
  -1  -3   9    5.19    0.69
   0   3  -9   16.35    1.50
   0  -3   9   16.95    0.90
  -1   3  -9    0.51    0.56
   1  -3   9    0.07    0.32
  -2   3  -9    2.36    0.70
   2  -3   9    4.27    0.59
  -3   3  -9    8.43    1.05
   3  -3   9    6.77    0.71
  -4   3  -9    2.44    0.82
   4  -3   9    2.19    0.51
  -5   3  -9   10.50    1.31
   5  -3   9    7.66    0.78
  -6  -2   9    1.50    0.61
  -5  -2   9    0.58    0.58
  -4  -2   9   10.57    1.11
   3   2  -9    0.60    0.57
  -3  -2   9    0.51    0.48
   2   2  -9   33.52    1.73
  -2  -2   9   36.86    1.45
   1   2  -9    1.72    0.59
  -1  -2   9    2.13    0.48
   0   2  -9    0.33    0.46
   0  -2   9    0.17    0.31
  -1   2  -9    0.53    0.49
   1  -2   9   -0.05    0.31
  -2   2  -9    5.33    0.86
   2  -2   9    5.35    0.64
  -3   2  -9    0.34    0.56
   3  -2   9   -0.01    0.34
  -4   2  -9   19.70    1.46
   4  -2   9   19.53    1.05
  -5   2  -9    2.42    0.79
   5  -2   9    1.01    0.45
  -7  -1   9   -0.65    0.64
  -6  -1   9    0.83    0.62
  -5  -1   9    3.32    0.77
  -4  -1   9    0.21    0.53
   3   1  -9    4.25    0.84
  -3  -1   9    5.49    0.79
   2   1  -9    8.99    1.08
  -2  -1   9    7.66    0.81
   1   1  -9    9.97    1.06
  -1  -1   9    9.72    0.73
   0   1  -9   10.22    1.06
   0  -1   9    8.54    0.66
  -1   1  -9    0.01    0.46
   1  -1   9    0.55    0.34
  -2   1  -9    0.97    0.50
   2  -1   9    0.91    0.35
  -3   1  -9    7.68    0.98
   3  -1   9    7.57    0.71
  -4   1  -9    0.83    0.66
   4  -1   9   -0.38    0.33
  -5   1  -9    7.57    1.02
   5  -1   9    7.89    0.78
  -6   1  -9   10.49    1.17
   6  -1   9    9.05    0.87
   7   0  -9    0.46    0.72
  -7   0   9    1.19    0.76
  -6   0   9    9.73    1.20
  -5   0   9    7.63    1.05
  -4   0   9    3.18    0.74
  -3   0   9   47.59    1.80
   2   0  -9   19.17    1.24
  -2   0   9   18.66    1.00
   1   0  -9    2.12    0.56
  -1   0   9    0.86    0.34
   0   0  -9   -0.08    0.44
   0   0   9   -0.10    0.28
  -1   0  -9   26.74    1.38
   1   0   9   26.64    1.07
  -2   0  -9   -0.10    0.41
   2   0   9    0.32    0.31
  -3   0  -9    2.42    0.64
   3   0   9    2.70    0.46
  -4   0  -9    0.14    0.53
   4   0   9    0.27    0.36
  -5   0  -9   10.74    1.08
  -6   0  -9    6.83    0.94
   7  -1  -9    1.02    0.75
  -7   1   9    1.03    0.77
  -7   1   9   -0.23    0.71
   6  -1  -9    0.39    0.60
  -6   1   9    0.48    0.73
  -6   1   9   -0.35    0.63
  -5   1   9    0.77    0.61
  -5   1   9    1.10    0.68
  -4   1   9   -0.07    0.44
  -3   1   9    8.34    0.90
  -2   1   9   20.44    1.04
  -1   1   9  180.19    4.42
   0  -1  -9   39.96    1.60
   0   1   9   39.92    1.34
  -1  -1  -9    9.93    0.83
   1   1   9    9.83    0.74
   1   1   9   10.11    0.72
  -2  -1  -9   14.41    0.97
   2   1   9   12.74    0.82
  -3  -1  -9    0.76    0.47
  -4  -1  -9    0.93    0.54
  -5  -1  -9   11.89    1.00
   7  -2  -9    8.61    1.25
  -7   2   9    5.64    1.15
  -7   2   9    9.95    1.34
   6  -2  -9    1.02    0.66
  -6   2   9    0.94    0.70
  -6   2   9    0.88    0.72
   5  -2  -9    3.98    0.77
  -5   2   9    1.58    1.10
  -5   2   9    3.89    0.80
   4  -2  -9    4.37    0.77
  -4   2   9    3.85    0.75
  -3   2   9    4.10    0.67
  -2   2   9   16.81    1.01
  -1   2   9   50.11    1.74
  -1   2   9   49.02    1.91
   0   2   9    0.40    0.36
   0   2   9    0.27    0.28
   1   2   9   11.61    0.76
   2   2   9   23.58    1.08
   3   2   9   -0.52    0.25
   4   2   9   -0.01    0.35
   5   2   9    2.47    0.62
   6  -3  -9    0.41    0.50
  -6   3   9    0.33    0.63
  -6   3   9   -0.03    0.65
   5  -3  -9    0.52    0.42
   4  -3  -9   -0.30    0.36
   3  -3  -9    3.67    0.59
   2  -3  -9    0.09    0.29
  -2   3   9   -0.01    0.32
   1  -3  -9   58.29    1.77
  -1   3   9   58.69    1.95
   0   3   9   61.51    1.96
   1   3   9   41.82    1.51
   2   3   9    4.00    0.55
   3   3   9    0.30    0.35
   4   3   9    1.06    0.44
   5   3   9    0.50    0.43
   6   3   9   20.00    1.22
   7   3   9    2.64    0.70
   6  -4  -9    0.48    0.37
   5  -4  -9    0.46    0.34
   4  -4  -9    0.65    0.31
  -3   4   9    0.36    0.40
  -2   4   9    0.53    0.37
  -1   4   9    2.14    0.47
   0   4   9    6.15    0.65
   1   4   9    5.90    0.68
   2   4   9   24.32    1.07
   3   4   9    0.13    0.31
   4   4   9    1.63    0.47
   5   4   9    0.59    0.42
   6   4   9   13.22    1.02
   7   4   9    1.49    0.59
  -3   5   9    2.72    0.66
  -2   5   9    0.93    0.50
  -1   5   9    0.44    0.36
   0   5   9    8.93    0.70
   1   5   9   24.17    1.05
   2   5   9    0.21    0.28
   3   5   9    1.86    0.42
   4   5   9    5.89    0.71
   5   5   9   28.07    1.31
   6   5   9   -0.06    0.42
   7   5   9    0.53    0.48
  -2   6   9    2.75    0.67
  -1   6   9    0.30    0.39
   0   6   9   11.77    0.81
   1   6   9    9.00    0.68
   2   6   9    0.20    0.32
   3   6   9   15.92    0.86
   4   6   9    6.18    0.66
   5   6   9    4.45    0.63
   6   6   9    7.16    0.79
  -2   7   9    0.58    0.48
  -1   7   9   10.69    0.97
   0   7   9    2.98    0.59
   1   7   9    0.53    0.37
   2   7   9    4.26    0.55
   3   7   9    0.43    0.35
   4   7   9   -0.06    0.35
   5   7   9    0.88    0.42
   6   7   9    0.39    0.43
  -1   8   9    0.36    0.51
   0   8   9    0.11    0.40
   1   8   9   16.31    0.96
   2   8   9    7.60    0.74
   3   8   9    2.25    0.47
   4   8   9    0.81    0.39
   0   9   9    4.93    0.84
   1   9   9    8.77    0.95
   2   9   9   21.27    1.04
   3   9   9    2.83    0.52
   4   9   9   10.09    0.74
   1  10   9    0.35    0.49
   2  10   9    0.88    0.43
   3  10   9    1.49    0.59
  -1  -4  10    4.18    0.63
   0  -4  10   23.79    1.12
   1  -4  10    9.67    0.79
   2  -4  10   26.44    1.16
  -4  -3  10   13.57    1.04
  -3  -3  10    3.11    0.65
  -2  -3  10   12.94    0.98
  -1  -3  10    0.95    0.48
   0   3 -10    0.65    0.62
   0  -3  10    0.74    0.47
  -1   3 -10    5.89    0.98
   1  -3  10    6.34    0.72
  -2   3 -10    1.18    0.76
   2  -3  10    1.30    0.44
  -3   3 -10    9.33    1.23
   3  -3  10    8.27    0.82
  -5  -2  10    1.30    0.64
  -4  -2  10   11.72    1.07
   3   2 -10    0.25    0.60
  -3  -2  10    1.03    0.55
   2   2 -10    2.91    0.80
  -2  -2  10    0.45    0.48
   1   2 -10    0.33    0.63
  -1  -2  10    0.85    0.47
   0   2 -10    5.10    0.95
   0  -2  10    5.31    0.68
  -1   2 -10    0.56    0.63
   1  -2  10    0.35    0.36
  -2   2 -10   14.26    1.37
   2  -2  10   12.64    0.86
  -3   2 -10    1.68    0.76
   3  -2  10    0.33    0.41
  -4   2 -10    3.68    0.92
   4  -2  10    1.66    0.52
  -6  -1  10    0.67    0.64
  -5  -1  10    4.73    0.88
  -4  -1  10    1.70    0.65
   3   1 -10    5.58    0.99
  -3  -1  10    7.35    0.98
   2   1 -10   11.76    1.27
  -2  -1  10   10.35    1.04
   1   1 -10    1.04    0.61
  -1  -1  10    1.31    0.48
   0   1 -10    0.50    0.60
   0  -1  10    0.40    0.35
  -1   1 -10    4.90    0.86
   1  -1  10    3.83    0.58
  -2   1 -10    0.66    0.63
   2  -1  10    0.88    0.43
  -3   1 -10   16.69    1.40
   3  -1  10   12.83    0.88
  -4   1 -10   12.09    1.26
   4  -1  10   10.21    0.90
  -5   1 -10   16.24    1.45
   5  -1  10   17.58    1.08
  -6   0  10    3.38    0.88
  -5   0  10   13.99    1.44
  -4   0  10   13.06    1.16
  -3   0  10   12.15    1.00
  -2   0  10    0.68    0.44
   1   0 -10   37.05    1.77
  -1   0  10   36.87    1.41
   0   0 -10   -0.41    0.47
   0   0  10    0.25    0.33
  -1   0 -10    5.12    0.85
   1   0  10    3.48    0.54
  -2   0 -10    0.20    0.56
   2   0  10   -0.28    0.31
  -3   0 -10   12.10    1.17
   3   0  10    8.80    0.77
  -4   0 -10    5.09    0.89
   4   0  10    4.48    0.78
  -5   0 -10    5.28    0.92
  -6   0 -10    4.72    0.90
   6  -1 -10    0.06    0.62
  -6   1  10    0.97    0.74
  -5   1  10    7.53    1.13
  -4   1  10    8.36    1.08
  -3   1  10   96.03    2.97
  -2   1  10   37.75    1.52
  -1   1  10    1.17    0.38
   0  -1 -10    6.58    0.87
   0   1  10    6.87    0.61
  -1  -1 -10    1.15    0.50
  -2  -1 -10    3.89    0.71
  -3  -1 -10    9.38    0.97
  -4  -1 -10    2.53    0.66
  -5  -1 -10    0.16    0.59
   6  -2 -10    0.35    0.64
  -6   2  10    1.36    0.79
   5  -2 -10    0.85    0.59
  -5   2  10    1.67    0.72
   4  -2 -10   10.25    1.13
  -4   2  10    8.80    1.09
  -3   2  10   29.45    1.41
   0   2  10   20.65    1.11
   1   2  10    0.74    0.36
   2   2  10    0.33    0.32
   3   2  10    6.92    0.83
   4   2  10    2.64    0.67
   6  -3 -10   -0.23    0.44
  -6   3  10    0.59    0.73
   5  -3 -10    1.41    0.54
   4  -3 -10    0.95    0.46
   3  -3 -10   18.77    1.08
   2  -3 -10   21.33    1.04
  -2   3  10   15.30    1.53
   1  -3 -10   38.66    1.39
  -1   3  10   39.29    1.58
   0   3  10   15.67    0.93
   1   3  10    3.31    0.57
   2   3  10    0.58    0.34
   3   3  10    0.95    0.46
   4   3  10   11.86    0.92
   5   3  10    4.15    0.71
   6   3  10   29.69    1.55
   6  -4 -10    0.05    0.35
   5  -4 -10    0.28    0.35
  -2   4  10    9.42    0.93
  -1   4  10    6.88    0.82
   0   4  10   24.76    1.17
   1   4  10    0.99    0.40
   2   4  10    1.88    0.47
   3   4  10   -0.30    0.32
   4   4  10   19.29    1.11
   5   4  10    4.00    0.73
   6   4  10   25.29    1.42
  -3   5  10    0.10    0.49
  -2   5  10    9.29    1.09
  -1   5  10   14.18    1.02
   0   5  10    0.17    0.32
   1   5  10    1.57    0.42
   2   5  10    2.73    0.54
   3   5  10   35.55    1.42
   4   5  10    3.22    0.62
   5   5  10   -0.20    0.40
   6   5  10   -0.26    0.45
  -2   6  10   10.08    1.19
  -1   6  10    5.11    0.79
   0   6  10   -0.22    0.34
   1   6  10    8.78    0.75
   2   6  10    3.61    0.59
   3   6  10    1.90    0.49
   4   6  10    7.29    0.79
   5   6  10    0.07    0.44
   6   6  10    6.60    0.83
  -2   7  10    1.66    0.65
  -1   7  10    2.14    0.65
   0   7  10    5.04    0.79
   1   7  10   -0.02    0.31
   2   7  10    0.36    0.37
   3   7  10    0.39    0.38
   4   7  10    0.42    0.41
   5   7  10    4.64    0.67
  -1   8  10    8.89    1.12
   0   8  10   10.26    1.14
   1   8  10    7.89    0.87
   2   8  10    0.33    0.39
   3   8  10   14.71    0.91
   4   8  10    1.23    0.43
   0   9  10   12.48    1.15
   1   9  10    1.60    0.59
   2   9  10   11.39    0.87
   3   9  10    9.16    0.78
  -3  -3  11    0.70    0.56
  -2  -3  11    0.57    0.52
   1   3 -11    3.13    1.08
  -1  -3  11    3.12    0.65
   0   3 -11    0.94    0.77
   0  -3  11    1.20    0.53
  -1   3 -11    4.79    1.08
   1  -3  11    4.06    0.68
  -2   3 -11    0.23    0.82
   2  -3  11    0.13    0.40
  -4  -2  11    2.94    0.73
   3   2 -11    0.45    0.67
  -3  -2  11    0.88    0.61
   2   2 -11    2.34    0.91
  -2  -2  11    2.43    0.65
   1   2 -11    0.54    0.70
  -1  -2  11    0.67    0.50
   0   2 -11    4.88    1.05
   0  -2  11    4.78    0.72
  -1   2 -11    0.42    0.77
   1  -2  11    0.31    0.41
  -2   2 -11    4.29    1.01
   2  -2  11    6.04    0.74
  -3   2 -11   12.27    1.37
   3  -2  11   10.55    0.89
  -5  -1  11    1.14    0.67
  -4  -1  11    4.93    0.90
  -3  -1  11    3.79    0.76
   2   1 -11    1.44    0.71
  -2  -1  11    0.76    0.55
   1   1 -11    0.10    0.71
  -1  -1  11    0.59    0.51
   0   1 -11   -0.08    0.65
   0  -1  11    0.65    0.43
  -1   1 -11   20.34    1.72
   1  -1  11   17.68    1.02
  -2   1 -11   11.60    1.28
   2  -1  11    8.09    0.82
  -3   1 -11   12.59    1.31
   3  -1  11    9.26    0.89
  -4   1 -11    1.24    0.84
   4  -1  11    0.53    0.48
  -5   0  11   16.38    1.38
  -4   0  11    0.47    0.61
  -3   0  11   26.09    1.46
  -2   0  11    0.35    0.49
   1   0 -11    3.77    0.87
  -1   0  11    2.33    0.54
   0   0 -11   -0.46    0.59
   0   0  11    0.41    0.37
  -1   0 -11    8.75    1.15
   1   0  11    9.33    0.84
  -2   0 -11    1.33    0.78
   2   0  11    2.47    0.55
  -3   0 -11    6.25    1.01
   3   0  11    5.99    0.73
  -4   0 -11    7.27    1.04
   4   0  11    8.59    1.12
  -5   0 -11    0.98    0.80
  -5   1  11   40.08    2.03
  -4   1  11   21.75    1.47
  -3   1  11    1.36    0.61
  -2   1  11    0.54    0.45
  -1   1  11    0.18    0.37
   0   1  11    4.09    0.56
  -1  -1 -11    3.58    0.76
  -2  -1 -11    0.90    0.60
  -3  -1 -11   -0.33    0.63
  -4  -1 -11   -0.21    0.63
   5  -2 -11   14.81    1.33
  -5   2  11   15.83    1.39
   4  -2 -11    5.72    0.95
  -4   2  11    7.70    1.06
  -3   2  11   25.96    1.40
   5  -3 -11    3.10    0.66
   4  -3 -11    4.34    0.70
   3  -3 -11   22.86    1.21
   2  -3 -11   21.88    1.10
   0   3  11    0.06    0.33
   1   3  11    0.67    0.39
   2   3  11    2.53    0.54
   3   3  11    6.60    0.84
   4   3  11   47.25    1.88
   5   3  11    4.69    1.02
  -2   4  11   13.67    1.95
  -1   4  11    0.95    0.51
   0   4  11    2.05    0.51
   1   4  11    0.59    0.35
   2   4  11   16.36    1.03
   3   4  11    4.77    0.70
   4   4  11   12.07    0.95
   5   4  11    1.24    0.56
  -2   5  11    0.89    0.52
  -1   5  11    8.20    1.02
   0   5  11    0.27    0.35
   1   5  11   32.08    1.41
   2   5  11    7.50    0.84
   3   5  11    1.61    0.51
   4   5  11   -0.48    0.34
   5   5  11    2.47    0.68
  -3   6  11    1.67    0.70
  -2   6  11    0.89    0.61
  -1   6  11    2.19    0.69
   0   6  11    1.37    0.48
   1   6  11   -0.01    0.34
   2   6  11    5.87    0.76
   3   6  11   -0.40    0.34
   4   6  11   13.14    0.97
   5   6  11   -0.36    0.44
  -2   7  11    3.86    0.89
  -1   7  11    0.16    0.49
   0   7  11    0.26    0.43
   1   7  11    1.98    0.54
   2   7  11   -0.08    0.41
   3   7  11   11.85    0.94
   4   7  11   14.24    0.99
  -1   8  11   10.01    1.22
   0   8  11   -0.23    0.46
   1   8  11   11.85    1.17
   2   8  11    2.06    0.58
   3   8  11    0.66    0.53
   1   2 -12    1.10    0.97
  -1  -2  12    0.75    0.55
   0   2 -12    6.06    1.24
   0  -2  12    3.15    0.66
  -1   2 -12   12.37    1.50
  -3  -1  12    1.11    0.61
   2   1 -12    0.02    0.78
  -2  -1  12    0.98    0.60
   1   1 -12   19.76    1.87
  -1  -1  12   16.52    1.16
   0   1 -12    4.59    1.17
   0  -1  12    5.23    0.76
  -1   1 -12    3.13    1.00
   1  -1  12    1.99    0.53
  -2   1 -12   -0.24    0.75
   2  -1  12    0.00    0.44
  -3   0  12   -0.14    0.60
  -2   0  12    0.47    0.59
  -1   0  12    5.75    0.84
   0   0 -12    0.28    0.71
   0   0  12    0.54    0.46
  -1   0 -12    5.23    1.02
   1   0  12    4.84    0.67
  -2   0 -12    6.77    1.14
   2   0  12    8.28    0.88
  -3   0 -12   -0.60    0.73
   3   0  12    0.40    0.49
  -4   1  12    0.55    0.68
  -3   1  12    1.41    0.62
  -2   1  12    4.74    0.80
  -1   1  12    0.69    0.46
   0   1  12    0.23    0.38
  -2  -1 -12    1.59    0.74
  -3  -1 -12    2.71    0.76
  -4  -1 -12    3.66    0.81
   4  -2 -12    1.67    0.67
  -4   2  12    1.20    0.69
  -3   2  12    0.40    0.55
   4  -3 -12   14.83    1.08
   3  -3 -12    8.00    0.87
   2  -3 -12    0.98    0.40
   0   4  12    8.55    0.99
   1   4  12    2.48    0.61
   2   4  12    3.98    0.72
   3   4  12    4.59    0.82
   4   4  12    4.61    0.81
  -1   5  12   16.10    1.25
   0   5  12    7.20    0.89
   1   5  12    4.62    0.72
   2   5  12    1.21    0.50
   3   5  12    1.16    0.56
   4   5  12    1.84    0.59
  -2   6  12    0.91    0.65
  -1   6  12    1.34    0.63
   0   6  12    4.10    0.77
   1   6  12    0.61    0.46
   2   6  12   17.03    1.11
   3   6  12    2.32    0.61
  -1   7  12    2.79    0.79
   0   7  12    0.26    0.51
   1   7  12   13.25    1.03
   2   7  12   12.53    0.99
  -2   1  13    1.04    0.62
  -1   1  13    2.25    0.70
   0   1  13    2.71    0.62
   0   5  13    0.88    0.53
   1   5  13    0.84    0.49
   2   5  13    2.39    0.68
   0   6  13   13.34    1.17
   1   6  13    6.04    0.90
   0   0   0    0.00    0.00
;
_shelx_hkl_checksum              87080
_olex2_submission_special_instructions 'No special instructions were received'
loop_
_space_group_symop_operation_xyz
'x, y, z'
'-x, -y, -z'
loop_
_atom_site_label
_atom_site_type_symbol
_atom_site_fract_x
_atom_site_fract_y
_atom_site_fract_z
_atom_site_U_iso_or_equiv
_atom_site_adp_type
_atom_site_occupancy
_atom_site_site_symmetry_order
_atom_site_calc_flag
_atom_site_refinement_flags_posn
_atom_site_refinement_flags_adp
_atom_site_refinement_flags_occupancy
_atom_site_disorder_assembly
_atom_site_disorder_group
N1 N 0.2412(2) 0.91412(19) 0.54367(15) 0.0286(3) Uani 1 1 d . . . . .
H1A H 0.205(3) 0.875(3) 0.473(2) 0.055(7) Uiso 1 1 d . . . . .
H1B H 0.245(3) 1.025(3) 0.529(2) 0.048(6) Uiso 1 1 d . . . . .
N2 N -0.23095(19) 0.70928(17) 0.61071(13) 0.0244(3) Uani 1 1 d . . . . .
N3 N -0.12445(19) 1.00715(16) 0.84072(14) 0.0275(3) Uani 1 1 d . . . . .
C1 C 0.31267(19) 0.79907(18) 0.67067(14) 0.0181(3) Uani 1 1 d . . . . .
C2 C 0.32831(19) 0.62185(18) 0.68890(14) 0.0173(3) Uani 1 1 d . . . . .
C3 C 0.40236(19) 0.50785(18) 0.81735(14) 0.0167(3) Uani 1 1 d . . . . .
H3 H 0.415(2) 0.384(2) 0.8251(16) 0.015(4) Uiso 1 1 d . . . . .
C4 C 0.46126(18) 0.56185(17) 0.93156(14) 0.0155(3) Uani 1 1 d . . . . .
C5 C 0.4421(2) 0.73945(18) 0.90966(15) 0.0178(3) Uani 1 1 d . . . . .
H5 H 0.480(2) 0.785(2) 0.9848(16) 0.019(4) Uiso 1 1 d . . . . .
C6 C 0.3708(2) 0.85842(18) 0.78278(15) 0.0185(3) Uani 1 1 d . . . . .
C7 C 0.2689(2) 0.5578(2) 0.56882(16) 0.0230(3) Uani 1 1 d . . . . .
H7A H 0.346(2) 0.599(2) 0.4797(18) 0.026(4) Uiso 1 1 d . . . . .
H7B H 0.129(3) 0.600(3) 0.5394(19) 0.038(5) Uiso 1 1 d . . . . .
H7C H 0.290(2) 0.430(3) 0.5927(19) 0.034(5) Uiso 1 1 d . . . . .
C8 C 0.3580(3) 1.04738(19) 0.76380(18) 0.0256(4) Uani 1 1 d . . . . .
H8A H 0.438(2) 1.101(2) 0.6842(19) 0.032(5) Uiso 1 1 d . . . . .
H8B H 0.225(3) 1.111(3) 0.736(2) 0.045(6) Uiso 1 1 d . . . . .
H8C H 0.403(3) 1.072(3) 0.852(2) 0.049(6) Uiso 1 1 d . . . . .
C9 C -0.0479(2) 0.39269(18) 0.92075(15) 0.0175(3) Uani 1 1 d . . . . .
H9 H -0.078(2) 0.317(2) 0.8666(17) 0.020(4) Uiso 1 1 d . . . . .
C10 C -0.08623(19) 0.57044(18) 0.86542(14) 0.0162(3) Uani 1 1 d . . . . .
C11 C -0.03941(19) 0.67767(17) 0.94478(14) 0.0165(3) Uani 1 1 d . . . . .
C12 C -0.1705(2) 0.64599(18) 0.72427(15) 0.0187(3) Uani 1 1 d . . . . .
C13 C -0.0838(2) 0.86181(18) 0.88636(14) 0.0191(3) Uani 1 1 d . . . . .
loop_
_atom_site_aniso_label
_atom_site_aniso_U_11
_atom_site_aniso_U_22
_atom_site_aniso_U_33
_atom_site_aniso_U_23
_atom_site_aniso_U_13
_atom_site_aniso_U_12
N1 0.0414(8) 0.0194(7) 0.0212(7) 0.0016(5) -0.0108(6) -0.0051(6)
N2 0.0333(7) 0.0205(7) 0.0192(6) -0.0040(5) -0.0028(5) -0.0054(5)
N3 0.0320(7) 0.0184(7) 0.0297(7) -0.0032(5) -0.0044(6) -0.0023(6)
C1 0.0185(6) 0.0167(7) 0.0167(7) -0.0008(5) -0.0005(5) -0.0024(5)
C2 0.0168(6) 0.0184(7) 0.0166(7) -0.0047(5) -0.0004(5) -0.0023(5)
C3 0.0182(6) 0.0138(6) 0.0176(7) -0.0037(5) -0.0001(5) -0.0023(5)
C4 0.0168(6) 0.0143(6) 0.0144(6) -0.0025(5) -0.0003(5) -0.0025(5)
C5 0.0221(7) 0.0139(6) 0.0173(7) -0.0040(5) -0.0010(5) -0.0032(5)
C6 0.0212(7) 0.0135(6) 0.0192(7) -0.0023(5) -0.0012(5) -0.0023(5)
C7 0.0281(8) 0.0222(8) 0.0189(7) -0.0068(6) -0.0032(6) -0.0021(6)
C8 0.0360(9) 0.0134(7) 0.0253(8) -0.0014(6) -0.0067(7) -0.0040(6)
C9 0.0204(7) 0.0160(7) 0.0163(7) -0.0045(5) -0.0004(5) -0.0035(5)
C10 0.0175(6) 0.0160(7) 0.0143(6) -0.0028(5) 0.0001(5) -0.0027(5)
C11 0.0175(6) 0.0147(7) 0.0166(7) -0.0033(5) 0.0015(5) -0.0030(5)
C12 0.0226(7) 0.0155(7) 0.0181(7) -0.0049(5) 0.0003(5) -0.0034(5)
C13 0.0214(7) 0.0180(7) 0.0168(7) -0.0028(5) -0.0019(5) -0.0034(6)
loop_
_atom_type_symbol
_atom_type_description
_atom_type_scat_dispersion_real
_atom_type_scat_dispersion_imag
_atom_type_scat_source
C C 0.0033 0.0016 'International Tables Vol C Tables 4.2.6.8 and 6.1.1.4'
H H 0.0000 0.0000 'International Tables Vol C Tables 4.2.6.8 and 6.1.1.4'
N N 0.0061 0.0033 'International Tables Vol C Tables 4.2.6.8 and 6.1.1.4'
loop_
_geom_angle_atom_site_label_1
_geom_angle_atom_site_label_2
_geom_angle_atom_site_label_3
_geom_angle
_geom_angle_site_symmetry_1
_geom_angle_site_symmetry_3
_geom_angle_publ_flag
H1A N1 H1B 120.5(19) . . ?
C1 N1 H1A 119.5(15) . . ?
C1 N1 H1B 119.6(14) . . ?
N1 C1 C2 120.21(14) . . ?
N1 C1 C6 120.20(14) . . ?
C2 C1 C6 119.60(12) . . ?
C1 C2 C7 119.80(12) . . ?
C3 C2 C1 119.32(13) . . ?
C3 C2 C7 120.86(13) . . ?
C2 C3 H3 117.0(9) . . ?
C2 C3 C4 122.79(13) . . ?
C4 C3 H3 120.2(9) . . ?
C3 C4 C4 122.04(16) . 2_667 ?
C5 C4 C3 116.18(12) . . ?
C5 C4 C4 121.78(16) . 2_667 ?
C4 C5 H5 120.2(9) . . ?
C6 C5 C4 123.18(14) . . ?
C6 C5 H5 116.6(9) . . ?
C1 C6 C8 120.15(12) . . ?
C5 C6 C1 118.93(13) . . ?
C5 C6 C8 120.92(13) . . ?
C2 C7 H7A 110.6(10) . . ?
C2 C7 H7B 112.9(11) . . ?
C2 C7 H7C 112.8(11) . . ?
H7A C7 H7B 106.5(13) . . ?
H7A C7 H7C 106.4(14) . . ?
H7B C7 H7C 107.3(15) . . ?
C6 C8 H8A 111.9(11) . . ?
C6 C8 H8B 111.9(12) . . ?
C6 C8 H8C 112.1(12) . . ?
H8A C8 H8B 104.5(15) . . ?
H8A C8 H8C 106.2(17) . . ?
H8B C8 H8C 109.8(16) . . ?
C10 C9 H9 121.4(9) . . ?
C11 C9 H9 119.4(9) 2_567 . ?
C11 C9 C10 119.13(13) 2_567 . ?
C9 C10 C11 120.65(12) . . ?
C9 C10 C12 120.05(13) . . ?
C11 C10 C12 119.28(12) . . ?
C9 C11 C10 120.21(12) 2_567 . ?
C9 C11 C13 120.08(13) 2_567 . ?
C10 C11 C13 119.71(12) . . ?
N2 C12 C10 177.15(16) . . ?
N3 C13 C11 177.97(16) . . ?
loop_
_geom_bond_atom_site_label_1
_geom_bond_atom_site_label_2
_geom_bond_distance
_geom_bond_site_symmetry_2
_geom_bond_publ_flag
N1 H1A 0.90(3) . ?
N1 H1B 0.89(2) . ?
N1 C1 1.3780(17) . ?
N2 C12 1.1416(18) . ?
N3 C13 1.1435(18) . ?
C1 C2 1.405(2) . ?
C1 C6 1.408(2) . ?
C2 C3 1.3902(18) . ?
C2 C7 1.503(2) . ?
C3 H3 0.992(16) . ?
C3 C4 1.401(2) . ?
C4 C4 1.485(2) 2_667 ?
C4 C5 1.4005(19) . ?
C5 H5 0.972(17) . ?
C5 C6 1.3894(18) . ?
C6 C8 1.501(2) . ?
C7 H7A 1.018(17) . ?
C7 H7B 1.020(18) . ?
C7 H7C 1.001(19) . ?
C8 H8A 0.994(18) . ?
C8 H8B 1.005(19) . ?
C8 H8C 1.01(2) . ?
C9 H9 0.971(18) . ?
C9 C10 1.3928(18) . ?
C9 C11 1.3887(18) 2_567 ?
C10 C11 1.404(2) . ?
C10 C12 1.4387(18) . ?
C11 C13 1.4455(19) . ?
loop_
_geom_torsion_atom_site_label_1
_geom_torsion_atom_site_label_2
_geom_torsion_atom_site_label_3
_geom_torsion_atom_site_label_4
_geom_torsion
_geom_torsion_site_symmetry_1
_geom_torsion_site_symmetry_2
_geom_torsion_site_symmetry_3
_geom_torsion_site_symmetry_4
_geom_torsion_publ_flag
N1 C1 C2 C3 179.42(13) . . . . ?
N1 C1 C2 C7 0.7(2) . . . . ?
N1 C1 C6 C5 179.93(13) . . . . ?
N1 C1 C6 C8 -0.9(2) . . . . ?
C1 C2 C3 C4 0.6(2) . . . . ?
C2 C1 C6 C5 -0.2(2) . . . . ?
C2 C1 C6 C8 178.94(14) . . . . ?
C2 C3 C4 C4 179.54(15) . . . 2_667 ?
C2 C3 C4 C5 -0.2(2) . . . . ?
C3 C4 C5 C6 -0.5(2) . . . . ?
C4 C4 C5 C6 179.77(15) 2_667 . . . ?
C4 C5 C6 C1 0.7(2) . . . . ?
C4 C5 C6 C8 -178.42(14) . . . . ?
C6 C1 C2 C3 -0.4(2) . . . . ?
C6 C1 C2 C7 -179.19(13) . . . . ?
C7 C2 C3 C4 179.37(13) . . . . ?
C9 C10 C11 C9 0.7(2) . . . 2_567 ?
C9 C10 C11 C13 -178.85(13) . . . . ?
C11 C9 C10 C11 -0.7(2) 2_567 . . . ?
C11 C9 C10 C12 177.84(12) 2_567 . . . ?
C12 C10 C11 C9 -177.84(12) . . . 2_567 ?
C12 C10 C11 C13 2.6(2) . . . . ?
