#------------------------------------------------------------------------------
#$Date: 2020-05-31 01:45:12 +0300 (Sun, 31 May 2020) $
#$Revision: 252501 $
#$URL: file:///home/coder/svn-repositories/cod/cif/4/13/50/4135037.cif $
#------------------------------------------------------------------------------
#
# This file is available in the Crystallography Open Database (COD),
# http://www.crystallography.net/
#
# All data on this site have been placed in the public domain by the
# contributors.
#
data_4135037
loop_
_publ_author_name
'Zhou, Mingkang'
'Li, Kaidi'
'Chen, Dongping'
'Xu, Ronghua'
'Xu, Guangqing'
'Tang, Wenjun'
_publ_section_title
;
 Enantioselective Reductive Coupling of Imines Templated by Chiral
 Diboron.
;
_journal_name_full               'Journal of the American Chemical Society'
_journal_paper_doi               10.1021/jacs.0c04558
_journal_year                    2020
_chemical_absolute_configuration ad
_chemical_formula_sum            'C24 H28 N2 O2'
_chemical_formula_weight         376.48
_space_group_crystal_system      triclinic
_space_group_IT_number           1
_space_group_name_Hall           'P 1'
_space_group_name_H-M_alt        'P 1'
_atom_sites_solution_hydrogens   mixed
_audit_creation_method           SHELXL-2013
_cell_angle_alpha                85.704(2)
_cell_angle_beta                 77.910(2)
_cell_angle_gamma                89.183(2)
_cell_formula_units_Z            1
_cell_length_a                   5.0937(3)
_cell_length_b                   10.1710(6)
_cell_length_c                   10.7742(6)
_cell_measurement_reflns_used    9966
_cell_measurement_temperature    293(2)
_cell_measurement_theta_max      140.226
_cell_measurement_theta_min      11.673
_cell_volume                     544.28(5)
_computing_cell_refinement       'Bruker SAINT'
_computing_data_collection       'Bruker APEX2'
_computing_data_reduction        'Bruker SAINT'
_computing_molecular_graphics    'Bruker SHELXTL'
_computing_publication_material  'Bruker SHELXTL'
_computing_structure_refinement  'SHELXL-2013 (Sheldrick, 2013)'
_computing_structure_solution    'SHELXS-97 (Sheldrick 2008)'
_diffrn_ambient_temperature      293(2)
_diffrn_measured_fraction_theta_full 0.974
_diffrn_measured_fraction_theta_max 0.979
_diffrn_measurement_device_type  'Bruker APEX-II CCD'
_diffrn_measurement_method       '\f and \w scans'
_diffrn_radiation_type           CuK\a
_diffrn_radiation_wavelength     1.54178
_diffrn_reflns_av_R_equivalents  0.0425
_diffrn_reflns_av_unetI/netI     0.0364
_diffrn_reflns_Laue_measured_fraction_full 0.974
_diffrn_reflns_Laue_measured_fraction_max 0.979
_diffrn_reflns_limit_h_max       6
_diffrn_reflns_limit_h_min       -5
_diffrn_reflns_limit_k_max       12
_diffrn_reflns_limit_k_min       -12
_diffrn_reflns_limit_l_max       12
_diffrn_reflns_limit_l_min       -12
_diffrn_reflns_number            14368
_diffrn_reflns_point_group_measured_fraction_full 0.953
_diffrn_reflns_point_group_measured_fraction_max 0.958
_diffrn_reflns_theta_full        67.679
_diffrn_reflns_theta_max         67.493
_diffrn_reflns_theta_min         5.836
_exptl_absorpt_coefficient_mu    0.575
_exptl_absorpt_correction_T_max  0.7513
_exptl_absorpt_correction_T_min  0.5589
_exptl_absorpt_correction_type   multi-scan
_exptl_absorpt_process_details   sadabs
_exptl_crystal_colour            colorless
_exptl_crystal_density_diffrn    1.149
_exptl_crystal_description       prismatic
_exptl_crystal_F_000             202
_exptl_crystal_size_max          0.190
_exptl_crystal_size_mid          0.120
_exptl_crystal_size_min          0.080
_refine_diff_density_max         0.135
_refine_diff_density_min         -0.121
_refine_diff_density_rms         0.023
_refine_ls_abs_structure_details
; 
 Flack x determined using 1710 quotients [(I+)-(I-)]/[(I+)+(I-)] 
 (Parsons and Flack (2004), Acta Cryst. A60, s61). 
;
_refine_ls_abs_structure_Flack   -0.10(9)
_refine_ls_extinction_expression Fc^*^=kFc[1+0.001xFc^2^\l^3^/sin(2\q)]^-1/4^
_refine_ls_extinction_method     SHELXL
_refine_ls_goodness_of_fit_ref   1.056
_refine_ls_hydrogen_treatment    mixed
_refine_ls_matrix_type           full
_refine_ls_number_parameters     280
_refine_ls_number_reflns         3748
_refine_ls_number_restraints     43
_refine_ls_restrained_S_all      1.092
_refine_ls_R_factor_all          0.0390
_refine_ls_R_factor_gt           0.0378
_refine_ls_shift/su_max          0.002
_refine_ls_shift/su_mean         0.000
_refine_ls_structure_factor_coef Fsqd
_refine_ls_weighting_details
'w=1/[\s^2^(Fo^2^)+(0.0544P)^2^+0.0459P] where P=(Fo^2^+2Fc^2^)/3'
_refine_ls_weighting_scheme      calc
_refine_ls_wR_factor_gt          0.1011
_refine_ls_wR_factor_ref         0.1027
_reflns_Friedel_coverage         0.958
_reflns_Friedel_fraction_full    0.933
_reflns_Friedel_fraction_max     0.938
_reflns_number_gt                3634
_reflns_number_total             3748
_reflns_threshold_expression     'I > 2\s(I)'
_cod_data_source_file            ja0c04558_si_002.cif
_cod_data_source_block           cu_d8v19398_0m
_cod_database_code               4135037
_shelx_space_group_comment
; 
The symmetry employed for this shelxl refinement is uniquely defined 
by the following loop, which should always be used as a source of 
symmetry information in preference to the above space-group names. 
They are only intended as comments. 
;
_shelx_estimated_absorpt_t_min   0.899
_shelx_estimated_absorpt_t_max   0.955
_shelxl_version_number           2013-4
_shelx_res_file
; 
TITL cu_d8v19398_0m_a.res in P1 
CELL 1.54178 5.0937 10.171 10.7742 85.704 77.91 89.183 
ZERR 1 0.0003 0.0006 0.0006 0.002 0.002 0.002 
LATT -1 
SFAC C  H  N  O 
UNIT 24 28 2 2 
OMIT 0 4 3 
OMIT 2 -2 -1 
OMIT 1 2 0 
OMIT  -3.00 135.00 
L.S. 10 
ACTA 
BOND $H 
FMAP 2 
PLAN 20 
LIST 4 
HTAB N2 O2_$2 
HTAB N1 O1_$1 
HTAB N2 O2_$2 
HTAB N1 O1_$1 
HTAB N2 O2_$2 
EQIV $2 x+1, y, z 
HTAB N1 O1_$1 
EQIV $1 x-1, y, z 
simu 0.003 c23 c24 c23' c24' 
dfix 1.35 0.02 c23 c24  c23' c24' 
dfix 1.55 0.02 c22 c23 c22 c23' 
size 0.19 0.12 0.08 
wpdb -1 
mpla c9 > c14 
mpla c2 > c7 
htab 
conf 
TEMP 20.23 
WGHT    0.054400    0.045900 
EXTI    0.041039 
FVAR       4.25659 
O1    4    1.019992    0.653800    0.434070    11.00000    0.03345    0.09070 = 
         0.05548   -0.00737   -0.01039   -0.00399 
O2    4   -0.019267    0.338429    0.573723    11.00000    0.03361    0.07612 = 
         0.09461   -0.02546   -0.01622    0.00222 
N1    3    0.570997    0.626872    0.476089    11.00000    0.03192    0.06661 = 
         0.04408   -0.00730   -0.01062   -0.00021 
AFIX  43 
H1    2    0.429405    0.628625    0.444337    11.00000   -1.20000 
AFIX   0 
N2    3    0.410695    0.377580    0.581612    11.00000    0.03068    0.05918 = 
         0.05521   -0.01061   -0.00929    0.00088 
AFIX  43 
H2    2    0.575349    0.354372    0.557182    11.00000   -1.20000 
AFIX   0 
C1    1    0.808280    0.645280    0.397077    11.00000    0.03625    0.05277 = 
         0.04819   -0.00918   -0.00944    0.00029 
C2    1    0.807050    0.659186    0.257839    11.00000    0.04274    0.05953 = 
         0.04604   -0.01019   -0.00807    0.00595 
C3    1    0.623755    0.593925    0.206321    11.00000    0.06485    0.09979 = 
         0.05331   -0.01586   -0.01338   -0.00997 
AFIX  43 
H3    2    0.493210    0.540447    0.258852    11.00000   -1.20000 
AFIX   0 
C4    1    0.634359    0.608081    0.076945    11.00000    0.08771    0.15108 = 
         0.06176   -0.02922   -0.02733   -0.00397 
AFIX  43 
H4    2    0.511495    0.563000    0.042996    11.00000   -1.20000 
AFIX   0 
C5    1    0.820096    0.686275   -0.001171    11.00000    0.09311    0.14748 = 
         0.04444   -0.00962   -0.01469    0.01743 
AFIX  43 
H5    2    0.825792    0.694147   -0.088250    11.00000   -1.20000 
AFIX   0 
C6    1    1.000092    0.753958    0.048318    11.00000    0.09591    0.11706 = 
         0.05414    0.01068    0.00319   -0.00572 
AFIX  43 
H6    2    1.123943    0.810528   -0.004630    11.00000   -1.20000 
AFIX   0 
C7    1    0.997192    0.737922    0.177564    11.00000    0.06442    0.09143 = 
         0.05348   -0.00601   -0.00275   -0.01187 
AFIX  43 
H7    2    1.124915    0.780768    0.210309    11.00000   -1.20000 
AFIX   0 
C8    1    0.221426    0.312781    0.541483    11.00000    0.03673    0.05365 = 
         0.05406   -0.00266   -0.01307   -0.00130 
C9    1    0.314705    0.203356    0.457690    11.00000    0.04327    0.05482 = 
         0.05548   -0.00391   -0.01694    0.00020 
C10   1    0.150456    0.095217    0.467352    11.00000    0.05811    0.06238 = 
         0.07958   -0.00955   -0.01018   -0.01026 
AFIX  43 
H10   2   -0.013570    0.092066    0.524962    11.00000   -1.20000 
AFIX   0 
C11   1    0.227344   -0.009206    0.391900    11.00000    0.08248    0.06083 = 
         0.10170   -0.01917   -0.01861   -0.01105 
AFIX  43 
H11   2    0.117181   -0.082900    0.400611    11.00000   -1.20000 
AFIX   0 
C12   1    0.464795   -0.003676    0.304885    11.00000    0.07583    0.07043 = 
         0.10057   -0.02992   -0.02834    0.01124 
AFIX  43 
H12   2    0.514463   -0.072721    0.252939    11.00000   -1.20000 
AFIX   0 
C13   1    0.629785    0.103495    0.294092    11.00000    0.06236    0.09586 = 
         0.08936   -0.03343   -0.00522    0.00443 
AFIX  43 
H13   2    0.791437    0.107107    0.234755    11.00000   -1.20000 
AFIX   0 
C14   1    0.556756    0.206546    0.371246    11.00000    0.05196    0.07104 = 
         0.07599   -0.01801   -0.00523   -0.00973 
AFIX  43 
H14   2    0.671382    0.278237    0.364769    11.00000   -1.20000 
AFIX   0 
C15   1    0.538812    0.603971    0.613189    11.00000    0.03208    0.06232 = 
         0.04354   -0.00807   -0.00954    0.00088 
AFIX  13 
H15   2    0.715722    0.583204    0.631753    11.00000   -1.20000 
AFIX   0 
C16   1    0.434734    0.727830    0.679619    11.00000    0.04831    0.06689 = 
         0.05384   -0.01337   -0.00355    0.00098 
AFIX  23 
H16A  2    0.266070    0.753241    0.656467    11.00000   -1.20000 
H16B  2    0.398469    0.706739    0.770906    11.00000   -1.20000 
AFIX   0 
C17   1    0.626189    0.845067    0.647690    11.00000    0.06516    0.06770 = 
         0.07006   -0.01523   -0.00874   -0.00325 
AFIX  23 
H17A  2    0.800233    0.817672    0.663391    11.00000   -1.20000 
H17B  2    0.648956    0.871943    0.557772    11.00000   -1.20000 
AFIX   0 
C18   1    0.532532    0.959985    0.722226    11.00000    0.09300    0.06931 = 
         0.09747   -0.01965   -0.01600    0.00692 
AFIX  43 
H18   2    0.371189    0.998504    0.711710    11.00000   -1.20000 
AFIX   0 
C19   1    0.653875    1.010585    0.799456    11.00000    0.18767    0.10171 = 
         0.14780   -0.06413   -0.05984    0.02017 
AFIX  93 
H19A  2    0.815853    0.975182    0.812859    11.00000   -1.20000 
H19B  2    0.580342    1.082870    0.842345    11.00000   -1.20000 
AFIX   0 
C20   1    0.352118    0.485370    0.664524    11.00000    0.03518    0.05931 = 
         0.04671   -0.00830   -0.00724   -0.00042 
AFIX  13 
H20   2    0.166371    0.513564    0.667174    11.00000   -1.20000 
AFIX   0 
C21   1    0.378610    0.438678    0.799992    11.00000    0.07520    0.07737 = 
         0.05050   -0.00325   -0.01495   -0.00451 
AFIX  23 
H21A  2    0.556861    0.402189    0.796193    11.00000   -1.20000 
H21B  2    0.363668    0.514824    0.850105    11.00000   -1.20000 
AFIX   0 
C22   1    0.177075    0.337843    0.867829    11.00000    0.09356    0.09347 = 
         0.06959    0.01428   -0.00835   -0.01159 
PART 1 
C23   1    0.264186    0.290097    0.996486    10.60000    0.11122    0.10592 = 
         0.07264    0.02699   -0.00557    0.02937 
AFIX  43 
H23   2    0.414211    0.236128    0.992470    10.60000   -1.20000 
AFIX   0 
C24   1    0.139622    0.321761    1.104752    10.70000    0.12055    0.13432 = 
         0.08056    0.01891   -0.00947    0.02479 
AFIX  93 
H24A  2   -0.010992    0.375630    1.111277    10.70000   -1.20000 
H24B  2    0.198865    0.291119    1.177645    10.70000   -1.20000 
PART 2 
AFIX   0 
C23'  1    0.152389    0.306803    0.998603    10.40000    0.11521    0.11932 = 
         0.07361    0.02721   -0.00157    0.02406 
AFIX  43 
H23'  2   -0.008797    0.337389    1.045006    10.40000   -1.20000 
AFIX   0 
C24'  1    0.277142    0.254103    1.063177    10.30000    0.12030    0.13460 = 
         0.08420    0.01652   -0.00574    0.03434 
AFIX  93 
H24C  2    0.443342    0.218813    1.028322    10.30000   -1.20000 
H24D  2    0.212904    0.246321    1.150808    10.30000   -1.20000 
PART 0 
AFIX   0 
H22B  2    0.001957    0.374130    0.868941    11.00000    0.12941 
H22A  2    0.174375    0.265486    0.812037    11.00000    0.09839 
HKLF 4 
  
REM  cu_d8v19398_0m_a.res in P1 
REM R1 =  0.0378 for    3634 Fo > 4sig(Fo)  and  0.0390 for all    3748 data 
REM    280 parameters refined using     43 restraints 
  
END 
  
WGHT      0.0553      0.0452 
  
REM Instructions for potential hydrogen bonds 
HTAB N1 O1_$1 
HTAB N2 O2_$2 
  
REM Highest difference peak  0.135,  deepest hole -0.121,  1-sigma level  0.023 
Q1    1   0.2125  0.1647  1.0396  11.00000  0.05    0.13 
Q2    1   0.4545  0.5456  0.6365  11.00000  0.05    0.11 
Q3    1   0.4984  0.3220  0.9950  11.00000  0.05    0.11 
Q4    1   0.6613  0.6721  0.2481  11.00000  0.05    0.09 
Q5    1   0.6555  0.5782  0.6182  11.00000  0.05    0.09 
Q6    1   0.8579  0.7163  0.2365  11.00000  0.05    0.09 
Q7    1   0.9919  0.5766  0.4130  11.00000  0.05    0.09 
Q8    1   0.8113  0.6477  0.3182  11.00000  0.05    0.08 
Q9    1   0.6756  0.7006  0.0570  11.00000  0.05    0.08 
Q10   1   0.3457  0.2827  0.8171  11.00000  0.05    0.08 
Q11   1   0.5258  0.3298  0.8112  11.00000  0.05    0.08 
Q12   1   0.3650  0.5368  0.3086  11.00000  0.05    0.08 
Q13   1   0.0979  0.3071  0.8196  11.00000  0.05    0.08 
Q14   1   0.7756  0.2411  0.4258  11.00000  0.05    0.08 
Q15   1   0.4611  0.1758  0.4505  11.00000  0.05    0.08 
Q16   1   0.6854  0.5881  0.4465  11.00000  0.05    0.08 
Q17   1   0.2715  0.2552  0.4893  11.00000  0.05    0.07 
Q18   1   0.1018  0.3633  0.5166  11.00000  0.05    0.07 
Q19   1   0.3368  0.4371  0.4770  11.00000  0.05    0.07 
Q20   1   1.1732  0.6733  0.3561  11.00000  0.05    0.07 
;
_shelx_res_checksum              39275
_shelx_hkl_file
; 
  -2   0   0 3922.21  183.48 
  -2   0   0 3791.12  188.78 
   2   0   0 3444.46  186.58 
   2   0   0 3880.41  183.88 
   2   0   0 3491.35  183.58 
   2   0   0 3510.55  183.38 
   2   0   0 3927.71  183.28 
   2   0   0 3491.45  184.68 
   2   0   0 3656.83  183.98 
  -3   0   0  531.55   34.70 
   3   0   0  478.05   28.80 
   3   0   0  472.25   27.20 
   3   0   0  494.15   27.20 
   3   0   0  503.25   27.40 
   3   0   0  482.75   28.00 
   3   0   0  496.55   26.90 
   3   0   0  499.75   31.60 
  -4   0   0  176.28   11.40 
   4   0   0  160.88   13.10 
   4   0   0  159.18   13.60 
   4   0   0  161.08   12.70 
   4   0   0  188.48   13.40 
   4   0   0  185.58   16.90 
   4   0   0  191.78   19.00 
   4   0   0  150.38   13.30 
  -5   0   0  999.60   55.89 
  -5   0   0  951.30   60.49 
   5   0   0 1064.39   56.89 
   5   0   0 1127.69   62.79 
   5   0   0 1058.29   66.29 
   5   0   0  951.30   57.99 
   5   0   0 1128.79   57.89 
   5   0   0 1092.79   57.29 
   5   0   0 1111.89   57.79 
   6   0   0   32.20    6.60 
   6   0   0   26.10    5.40 
   6   0   0   30.60    3.60 
   6  -1   0    3.00    3.00 
   5  -1   0 1006.50   54.29 
   5  -1   0  888.71   48.90 
   5  -1   0  925.71   48.70 
   5  -1   0  873.11   52.19 
   5  -1   0  895.51   48.10 
   5  -1   0  906.71   48.10 
   5  -1   0  866.71   49.00 
  -5   1   0  817.82   51.69 
  -5   1   0  786.52   47.20 
   4  -1   0  412.46   28.40 
   4  -1   0  445.76   29.80 
   4  -1   0  385.86   26.30 
   4  -1   0  461.65   33.70 
   4  -1   0  429.46   30.80 
   4  -1   0  396.66   24.20 
   4  -1   0  413.66   25.10 
   4  -1   0  402.36   25.30 
   4  -1   0  398.66   25.50 
  -4   1   0  388.26   28.00 
  -4   1   0  412.66   23.70 
   3  -1   0 1239.28   65.29 
   3  -1   0 1133.29   60.09 
   3  -1   0 1059.79   60.79 
   3  -1   0 1138.49   62.39 
   3  -1   0 1128.49   61.29 
   3  -1   0 1136.69   60.49 
  -3   1   0 1236.58   59.79 
  -3   1   0 1209.48   71.69 
  -3   1   0 1207.48   60.29 
   2  -1   0 6666.93  333.47 
   2  -1   0 6634.24  333.17 
   2  -1   0 6768.62  336.77 
   2  -1   0 6176.88  334.07 
  -2   1   0 7096.59  333.97 
  -2   1   0 6942.71  339.77 
  -2  -1   0  560.64   28.70 
  -2  -1   0  561.34   33.00 
   2   1   0  549.85   30.30 
   2   1   0  564.74   29.10 
   2   1   0  580.44   28.60 
   2   1   0  525.35   32.40 
   2   1   0  540.75   30.20 
   2   1   0  570.94   29.70 
  -3  -1   0  122.09   12.70 
   3   1   0  115.29    7.90 
   3   1   0  117.19    9.40 
   3   1   0  109.19    8.00 
   3   1   0  114.39    7.90 
   3   1   0  116.19    8.50 
   3   1   0  103.89    8.50 
   3   1   0  105.39   11.30 
  -4  -1   0  847.62   42.20 
   4   1   0  806.92   43.00 
   4   1   0  838.82   53.09 
   4   1   0  735.13   44.10 
   4   1   0  788.42   45.00 
   4   1   0  748.03   44.30 
   4   1   0  782.42   49.40 
   4   1   0  794.92   44.10 
   4   1   0  731.13   44.10 
   4   1   0  780.92   43.70 
   4   1   0  759.42   44.60 
  -5  -1   0   43.10    5.20 
   5   1   0   47.20    9.30 
   5   1   0   47.40    6.40 
   5   1   0   51.49    6.80 
   5   1   0   48.50    9.80 
   5   1   0   49.20    7.20 
   5   1   0   56.49    7.00 
   5   1   0   59.29    6.00 
   5   1   0   58.29    8.00 
   6   1   0   76.39    5.90 
   6   1   0   74.99    6.20 
   6   1   0   85.39    8.20 
   5  -2   0  140.49   15.00 
   5  -2   0  124.39   11.10 
   5  -2   0  137.19   11.10 
   5  -2   0  138.19   17.00 
   5  -2   0  127.89   10.60 
  -5   2   0  118.89    9.60 
  -5   2   0  127.99   12.50 
   4  -2   0  385.66   25.40 
   4  -2   0  417.06   37.20 
   4  -2   0  424.26   26.80 
   4  -2   0  423.36   33.00 
   4  -2   0  469.75   30.60 
  -4   2   0  419.06   26.30 
  -4   2   0  385.96   29.50 
   3  -2   0  573.24   34.80 
   3  -2   0  589.24   33.80 
   3  -2   0  657.53   37.30 
   3  -2   0  593.04   33.00 
   3  -2   0  622.64   32.80 
  -3   2   0  619.34   32.60 
  -3   2   0  616.94   33.20 
  -3   2   0  624.94   42.30 
  -3   2   0  584.04   35.90 
   2  -2   0  787.42   45.90 
   2  -2   0  758.22   38.40 
   2  -2   0  743.23   40.40 
   2  -2   0  731.63   38.90 
   2  -2   0  778.82   42.20 
  -2   2   0  780.32   39.70 
  -2   2   0  723.03   41.10 
  -2   2   0  749.82   45.30 
  -1  -2   0 1359.06   70.49 
  -1  -2   0 1473.65   71.99 
   1   2   0 1487.95   71.79 
   1   2   0 1387.16   70.79 
   1   2   0 1527.65   71.49 
   1   2   0 1358.86   71.89 
   1   2   0 1268.67   72.49 
  -2  -2   0 1586.94   80.59 
   2   2   0 1403.56   78.59 
   2   2   0 1564.84   77.79 
   2   2   0 1606.44   76.99 
   2   2   0 1455.35   77.39 
   2   2   0 1515.85   78.19 
  -3  -2   0   54.29    8.00 
   3   2   0   53.19    5.00 
   3   2   0   50.69    8.20 
   3   2   0   50.19    4.80 
   3   2   0   53.59    5.40 
   3   2   0   44.90    5.30 
   3   2   0   53.69    6.00 
   3   2   0   50.79    5.90 
   3   2   0   49.00    4.90 
  -4  -2   0 2776.32  135.69 
  -4  -2   0 2646.14  136.39 
   4   2   0 2516.05  134.29 
   4   2   0 2488.85  134.69 
   4   2   0 3081.89  161.78 
   4   2   0 2709.53  143.79 
   4   2   0 2718.83  145.69 
   4   2   0 2793.92  138.79 
   4   2   0 2314.57  141.69 
   4   2   0 2451.45  134.19 
  -5  -2   0   63.69    6.30 
   5   2   0   68.69    7.80 
   5   2   0   69.19   10.00 
   5   2   0   70.09    8.50 
   5   2   0   68.29    7.90 
   5   2   0   64.39   10.70 
   5   2   0   66.39    9.50 
   5   2   0   55.19   10.50 
   5   2   0   46.50    7.90 
   5  -3   0  615.24   33.40 
   5  -3   0  550.74   34.80 
   5  -3   0  622.34   32.00 
  -5   3   0  542.75   37.10 
  -5   3   0  546.25   32.20 
   4  -3   0   47.20    7.60 
   4  -3   0   32.50    5.60 
   4  -3   0   42.30    6.50 
   4  -3   0   42.90    9.40 
   4  -3   0   25.80    5.10 
   4  -3   0   38.40    5.10 
   4  -3   0   35.90    6.10 
   4  -3   0   39.90    6.30 
   4  -3   0   30.20    5.10 
  -4   3   0   33.50    6.80 
  -4   3   0   32.30    4.70 
   3  -3   0  236.18   16.10 
   3  -3   0  272.57   18.00 
   3  -3   0  237.98   17.40 
  -3   3   0  223.98   15.60 
  -3   3   0  283.07   15.70 
  -3   3   0  273.17   18.70 
   2  -3   0  578.04   36.60 
   2  -3   0  525.85   30.40 
   2  -3   0  538.25   28.80 
   2  -3   0  546.65   29.10 
  -2   3   0  533.65   31.10 
  -2   3   0  566.54   29.70 
  -2   3   0  540.35   35.80 
  -1  -3   0 2437.16  117.59 
  -1  -3   0 2234.38  118.19 
  -1  -3   0 2521.15  119.09 
   1   3   0 2231.58  121.29 
   1   3   0 2026.80  121.59 
   1   3   0 2328.17  119.59 
   1   3   0 2392.06  118.59 
   1   3   0 2559.34  118.89 
   1   3   0 2511.25  118.09 
  -2  -3   0 4713.63  229.78 
  -2  -3   0 4191.78  226.18 
   2   3   0 4563.64  226.68 
   2   3   0 4507.75  227.68 
   2   3   0 4491.25  229.28 
   2   3   0 4814.72  228.38 
  -3  -3   0 3977.20  193.08 
  -3  -3   0 3692.13  186.28 
  -3  -3   0 3923.41  186.78 
   3   3   0 3322.07  186.58 
   3   3   0 3701.33  187.48 
   3   3   0 3934.41  186.88 
   3   3   0 3776.62  188.28 
   3   3   0 3718.63  190.38 
   3   3   0 3292.97  187.48 
   3   3   0 3866.51  189.28 
  -4  -3   0 2454.45  119.79 
  -4  -3   0 2065.99  119.39 
   4   3   0 2378.36  129.49 
   4   3   0 2251.57  119.09 
   4   3   0 2390.76  119.39 
   4   3   0 2321.17  122.09 
   4   3   0 2512.35  121.99 
   4   3   0 2276.07  121.99 
   4   3   0 2343.97  120.19 
   4   3   0 2566.24  123.59 
   4   3   0 2246.48  122.19 
   4   3   0 2147.29  121.79 
  -5  -3   0  469.65   29.20 
   5   3   0  458.65   27.30 
   5   3   0  518.05   34.80 
   5   3   0  484.05   29.90 
   5   3   0  487.75   31.30 
   5   3   0  582.94   42.20 
   5   3   0  517.15   35.40 
   5  -4   0  212.28   16.50 
   5  -4   0  197.28   13.10 
   5  -4   0  219.88   14.50 
   5  -4   0  214.28   15.30 
   5  -4   0  217.98   14.20 
   5  -4   0  213.18   14.30 
  -5   4   0  194.48   13.80 
  -5   4   0  214.58   12.60 
   4  -4   0  225.78   18.00 
   4  -4   0  233.08   15.10 
   4  -4   0  227.08   18.30 
   4  -4   0  197.18   21.10 
   4  -4   0  229.38   16.00 
   4  -4   0  237.88   16.00 
   4  -4   0  232.48   16.20 
   4  -4   0  239.28   15.30 
   4  -4   0  224.08   16.90 
  -4   4   0  222.78   18.00 
  -4   4   0  225.38   15.30 
   3  -4   0  274.77   17.00 
   3  -4   0  278.17   17.90 
   3  -4   0  271.17   19.60 
   3  -4   0  282.77   17.00 
  -3   4   0  279.07   19.90 
  -3   4   0  294.77   17.50 
  -3   4   0  280.47   17.80 
   2  -4   0 2332.37  133.29 
   2  -4   0 2555.14  129.29 
   2  -4   0 2656.83  139.29 
   2  -4   0 2667.83  131.79 
   2  -4   0 2530.85  129.29 
  -2   4   0 2838.92  130.09 
  -2   4   0 2309.37  137.59 
  -2   4   0 2633.14  131.99 
  -2   4   0 2592.14  130.29 
   1  -4   0 1559.64   88.49 
   1  -4   0 1658.63   84.79 
   1  -4   0 1760.02   83.39 
  -1   4   0 1698.63   85.29 
  -1   4   0 1599.24   84.09 
   0  -4   0 1316.57   73.09 
   0  -4   0 1440.36   70.39 
   0  -4   0 1407.16   71.39 
   0   4   0 1411.76   71.19 
   0   4   0 1470.15   72.59 
   0   4   0 1371.26   70.59 
  -1  -4   0 6365.56  348.57 
   1   4   0 7668.83  348.27 
   1   4   0 7325.67  349.67 
   1   4   0 6220.48  349.96 
   1   4   0 7404.56  347.87 
  -2  -4   0 7588.74  344.67 
  -2  -4   0 7167.48  341.47 
  -2  -4   0 7052.89  342.57 
   2   4   0 6977.50  343.07 
   2   4   0 6161.28  341.47 
   2   4   0 6604.74  342.67 
   2   4   0 6540.55  348.67 
  -3  -4   0  670.13   35.40 
  -3  -4   0  614.44   35.40 
  -3  -4   0  680.83   34.30 
   3   4   0  672.23   36.40 
   3   4   0  556.54   34.10 
   3   4   0  660.23   38.80 
   3   4   0  661.63   36.70 
   3   4   0  651.33   34.80 
   3   4   0  633.44   35.50 
   3   4   0  619.14   43.00 
  -4  -4   0  875.11   52.49 
  -4  -4   0  978.20   53.09 
  -4  -4   0 1043.40   53.19 
   4   4   0  962.60   54.79 
   4   4   0  952.70   55.29 
   4   4   0  967.40   52.19 
   4   4   0  911.31   55.09 
   4   4   0  946.81   55.19 
   4   4   0  954.70   62.29 
   4   4   0  926.01   51.99 
   4   4   0 1052.89   54.69 
   4   4   0 1022.50   52.59 
   4   4   0 1031.00   56.79 
  -5  -4   0  179.88   13.00 
   5   4   0  186.28   14.00 
   5   4   0  175.98   14.00 
   5   4   0  205.18   14.00 
   5   4   0  206.18   12.10 
   5   4   0  170.28   13.90 
   5  -5   0   47.10    5.30 
   5  -5   0   32.70    7.60 
   5  -5   0   51.99    5.80 
   5  -5   0   45.40    5.70 
   5  -5   0   51.69    6.60 
   5  -5   0   58.89    6.40 
   5  -5   0   36.70    4.70 
  -5   5   0   43.10    4.80 
  -5   5   0   40.10    5.20 
   4  -5   0  900.41   51.09 
   4  -5   0  852.51   52.99 
   4  -5   0  894.61   48.70 
   4  -5   0  931.11   50.19 
   4  -5   0  885.01   48.70 
   4  -5   0  879.11   53.49 
   4  -5   0  977.90   50.19 
   4  -5   0  973.90   49.80 
  -4   5   0  942.71   49.90 
  -4   5   0  923.21   47.80 
  -4   5   0  912.31   53.39 
  -4   5   0  809.12   49.40 
   3  -5   0   58.69    5.80 
   3  -5   0   59.49    6.40 
   3  -5   0   62.49    6.50 
   3  -5   0   52.29    7.40 
  -3   5   0   50.89    7.70 
  -3   5   0   50.09    6.00 
  -3   5   0   58.89    6.20 
   2  -5   0 1320.07   68.49 
   2  -5   0 1326.37   68.19 
   2  -5   0 1284.87   68.79 
   2  -5   0 1318.97   71.29 
   2  -5   0 1257.67   82.79 
  -2   5   0 1316.37   69.49 
  -2   5   0 1436.96   69.29 
  -2   5   0 1363.86   71.19 
   1  -5   0 8994.80  458.35 
   1  -5   0 8604.64  451.05 
   1  -5   0 8768.42  451.45 
  -1   5   0 9999.00  454.35 
   0  -5   0  299.47   19.90 
   0  -5   0  335.57   16.80 
   0  -5   0  333.27   18.10 
   0  -5   0  312.17   16.60 
   0   5   0  269.37   16.70 
   0   5   0  282.47   18.10 
   0   5   0  328.17   17.70 
   0   5   0  327.77   20.10 
  -1  -5   0 2280.27  112.59 
  -1  -5   0 2280.27  110.49 
  -1  -5   0 2171.88  112.99 
  -1  -5   0 2378.86  111.89 
   1   5   0 2012.70  111.59 
   1   5   0 2188.38  114.29 
   1   5   0 2073.79  116.29 
   1   5   0 2294.67  111.79 
   1   5   0 2193.88  111.79 
  -2  -5   0  776.62   39.00 
  -2  -5   0  726.63   37.50 
  -2  -5   0  742.93   39.40 
   2   5   0  746.63   41.70 
   2   5   0  626.44   44.60 
   2   5   0  698.43   39.00 
   2   5   0  683.93   40.20 
   2   5   0  760.62   40.00 
  -3  -5   0  147.99   10.90 
  -3  -5   0  133.99   10.50 
  -3  -5   0  137.09    9.30 
   3   5   0  132.79   16.20 
   3   5   0  154.78   13.40 
   3   5   0  150.18   11.50 
   3   5   0  134.79   11.40 
   3   5   0  128.69   10.30 
  -4  -5   0  453.85   27.30 
  -4  -5   0  501.55   28.00 
   4   5   0  469.65   26.80 
   4   5   0  465.35   30.60 
   4   5   0  485.05   29.90 
   4   5   0  449.16   29.60 
   4   5   0  422.76   28.40 
   4   5   0  442.26   26.70 
   4   5   0  528.55   31.60 
   4   5   0  431.46   28.30 
   4   5   0  404.26   34.70 
   4   5   0  425.86   29.30 
  -5  -5   0    3.90    2.20 
  -5  -5   0    3.30    1.70 
   5   5   0    4.60    2.50 
   5   5   0    0.00    2.30 
   5   5   0    4.20    1.80 
   5   5   0    5.10    2.50 
   5   5   0    4.60    2.80 
   5  -6   0   98.69   10.60 
   5  -6   0  117.99    8.50 
   5  -6   0  116.69    8.60 
   5  -6   0  120.39    9.30 
   5  -6   0  106.39    9.30 
  -5   6   0  118.39    7.20 
   4  -6   0   44.00    5.50 
   4  -6   0   56.59    7.60 
   4  -6   0   50.19    6.10 
   4  -6   0   62.79    7.20 
   4  -6   0   58.29    7.30 
   4  -6   0   46.80    6.20 
   4  -6   0   46.90    9.60 
   4  -6   0   49.80    8.60 
  -4   6   0   58.29    7.50 
  -4   6   0   45.60    6.00 
  -4   6   0   51.19    5.20 
  -4   6   0   55.19    5.90 
   3  -6   0  129.29   16.20 
   3  -6   0  142.49   12.00 
   3  -6   0  161.78   11.40 
   3  -6   0  146.29   11.80 
   3  -6   0  141.69   14.20 
   3  -6   0  148.29   12.80 
   3  -6   0  158.58   14.40 
   3  -6   0  145.59   12.30 
   3  -6   0  144.99   32.00 
  -3   6   0  153.48   10.10 
  -3   6   0  134.29   11.40 
  -3   6   0  161.58   11.80 
   2  -6   0 1172.28   67.49 
   2  -6   0 1169.78   65.69 
   2  -6   0 1247.88   69.29 
  -2   6   0 1311.37   66.99 
  -2   6   0 1346.27   69.19 
  -2   6   0 1324.47   66.59 
   1  -6   0  470.55   27.20 
   1  -6   0  471.25   24.90 
   1  -6   0  436.46   24.60 
   1  -6   0  433.86   30.90 
  -1   6   0  461.15   25.90 
  -1   6   0  462.45   24.20 
  -1   6   0  405.26   30.40 
  -1   6   0  471.25   26.00 
  -1   6   0  472.85   28.00 
   0  -6   0 1740.83   98.99 
   0  -6   0 1955.80   94.89 
   0  -6   0 1848.02   94.59 
   0  -6   0 2024.40   96.79 
   0   6   0 1770.42   96.79 
   0   6   0 1909.91   99.59 
   0   6   0 1927.91   96.09 
  -1  -6   0  199.58   12.40 
  -1  -6   0  189.28   10.90 
  -1  -6   0  187.48   12.90 
   1   6   0  183.88   12.10 
   1   6   0  185.08   12.00 
   1   6   0  211.78   12.80 
   1   6   0  176.28   13.60 
   1   6   0  178.58   16.30 
  -2  -6   0   17.80    2.90 
  -2  -6   0   16.10    3.30 
  -2  -6   0   19.10    3.80 
   2   6   0   13.40    3.10 
   2   6   0   12.30    3.50 
   2   6   0   19.90    6.70 
   2   6   0   11.00    2.60 
  -3  -6   0  217.48   15.30 
  -3  -6   0  240.08   15.10 
   3   6   0  253.47   18.50 
   3   6   0  218.88   14.80 
   3   6   0  185.78   16.40 
   3   6   0  222.78   16.80 
   3   6   0  201.88   21.40 
   3   6   0  210.78   14.20 
   3   6   0  171.88   16.30 
   3   6   0  208.08   14.70 
  -4  -6   0  248.08   16.70 
  -4  -6   0  283.47   18.50 
  -4  -6   0  300.07   18.20 
   4   6   0  274.87   19.40 
   4   6   0  260.17   19.50 
   4   6   0  268.97   17.10 
   4   6   0  244.08   19.70 
   4   6   0  277.67   17.50 
   4   6   0  243.18   23.60 
   4   6   0  267.57   17.10 
   4   6   0  293.67   19.10 
  -5  -6   0   18.30    3.30 
   5   6   0   23.30    4.00 
   5   6   0   14.30    3.10 
   5   6   0   13.70    2.40 
   5  -7   0  170.88   11.40 
   5  -7   0  160.18   10.30 
   5  -7   0  168.88   11.10 
  -5   7   0  171.68   11.30 
   4  -7   0  320.57   19.70 
   4  -7   0  316.37   20.20 
   4  -7   0  311.17   24.40 
   4  -7   0  366.96   23.50 
   4  -7   0  345.57   21.10 
   4  -7   0  335.77   20.40 
  -4   7   0  367.46   19.70 
  -4   7   0  275.47   20.20 
  -4   7   0  344.17   18.60 
   3  -7   0  239.98   15.40 
   3  -7   0  275.47   19.80 
   3  -7   0  253.67   17.80 
   3  -7   0  223.58   19.50 
   3  -7   0  261.97   17.00 
   3  -7   0  219.18   15.70 
   3  -7   0  243.88   30.40 
   3  -7   0  238.08   16.90 
   3  -7   0  265.47   21.60 
  -3   7   0  265.07   19.50 
  -3   7   0  255.97   17.50 
  -3   7   0  250.87   16.90 
  -3   7   0  274.77   16.70 
  -3   7   0  251.67   15.00 
   2  -7   0    3.80    3.60 
   2  -7   0   -1.00    5.60 
   2  -7   0    1.70    4.40 
   2  -7   0    5.40    2.90 
   2  -7   0    0.50    2.10 
   2  -7   0    4.90    2.60 
   2  -7   0    2.20    1.50 
   2  -7   0    9.10    5.60 
  -2   7   0   -0.60    2.20 
  -2   7   0   -0.80    1.50 
  -2   7   0    0.60    1.80 
  -2   7   0   -0.90    1.60 
   1  -7   0   43.90    4.40 
   1  -7   0   38.90    5.30 
  -1   7   0   46.60    7.00 
  -1   7   0   37.20    4.90 
  -1   7   0   40.50    5.10 
   0  -7   0  442.86   26.30 
   0  -7   0  480.85   25.80 
   0  -7   0  515.25   32.40 
   0   7   0  470.65   28.00 
   0   7   0  488.35   27.30 
  -1  -7   0  544.05   29.00 
  -1  -7   0  570.94   31.00 
  -1  -7   0  532.75   31.50 
  -1  -7   0  521.15   29.50 
   1   7   0  548.35   32.80 
   1   7   0  516.75   30.10 
   1   7   0  567.04   30.30 
   1   7   0  576.84   30.60 
   1   7   0  522.95   36.20 
  -2  -7   0  259.17   17.10 
  -2  -7   0  265.07   16.40 
   2   7   0  240.18   15.90 
   2   7   0  269.37   19.10 
   2   7   0  229.38   22.40 
   2   7   0  251.67   18.50 
   2   7   0  207.48   17.30 
   2   7   0  245.38   16.10 
   2   7   0  225.68   17.00 
   2   7   0  235.78   15.90 
  -3  -7   0  199.48   13.00 
  -3  -7   0  194.38   14.10 
  -3  -7   0  203.38   14.90 
  -3  -7   0  228.28   14.90 
   3   7   0  209.98   16.60 
   3   7   0  187.58   13.50 
   3   7   0  182.98   15.70 
   3   7   0  199.58   14.10 
   3   7   0  189.88   15.90 
   3   7   0  214.18   17.30 
   3   7   0  185.38   20.50 
   3   7   0  177.98   14.20 
   3   7   0  198.78   15.90 
   3   7   0  202.88   14.40 
  -4  -7   0   79.29    6.50 
  -4  -7   0   66.09    9.40 
  -4  -7   0   75.39    7.90 
   4   7   0   84.69    9.50 
   4   7   0   79.09    8.60 
   4   7   0   77.09    6.80 
   4   7   0   84.89   11.60 
   4   7   0   82.39    7.20 
   4   7   0   55.29   10.00 
   4   7   0   82.99    8.30 
   4   7   0   88.79    8.70 
   5   7   0   82.09    6.20 
   5   7   0   90.99    7.10 
   4  -8   0   16.30    3.50 
   4  -8   0   17.90    3.50 
   4  -8   0   10.30    3.20 
   4  -8   0   17.30    7.90 
  -4   8   0   16.10    2.80 
  -4   8   0   16.90    3.20 
   3  -8   0  174.18   15.20 
   3  -8   0  183.08   13.40 
   3  -8   0  197.68   25.70 
   3  -8   0  208.48   12.70 
   3  -8   0  157.78   15.70 
   3  -8   0  191.48   13.40 
   3  -8   0  199.28   13.70 
  -3   8   0  199.68   15.90 
  -3   8   0  197.08   12.60 
  -3   8   0  164.38   12.70 
  -3   8   0  190.68   11.50 
   2  -8   0  100.49   10.60 
   2  -8   0   94.89    8.90 
   2  -8   0  100.09   10.90 
   2  -8   0  107.49    9.50 
   2  -8   0   98.39   17.70 
  -2   8   0  103.19    8.80 
  -2   8   0  106.19    7.40 
  -2   8   0   89.09    9.00 
  -2   8   0  123.29    9.60 
  -2   8   0  111.49   11.90 
   1  -8   0  916.81   49.50 
   1  -8   0  869.41   46.50 
   1  -8   0  842.92   47.60 
   1  -8   0  834.82   46.70 
   1  -8   0  907.21   62.09 
   1  -8   0  821.92   48.80 
  -1   8   0  840.12   44.30 
  -1   8   0  917.61   48.10 
  -1   8   0  867.51   51.59 
  -1   8   0  822.62   47.30 
   0  -8   0 1139.59   57.09 
   0  -8   0 1016.50   54.09 
   0   8   0 1002.50   61.09 
   0   8   0 1002.60   58.09 
   0   8   0 1043.80   55.99 
  -1  -8   0  166.68   19.90 
  -1  -8   0  159.88   12.30 
  -1  -8   0  137.99   11.60 
  -1  -8   0  150.88   10.40 
  -1  -8   0  154.28   11.40 
   1   8   0  149.29   11.40 
   1   8   0  155.08   12.70 
   1   8   0  150.18   12.70 
   1   8   0  156.88   11.00 
   1   8   0  151.88   16.20 
   1   8   0  158.38   12.90 
   1   8   0  184.38   13.70 
  -2  -8   0  608.94   32.90 
  -2  -8   0  576.44   32.80 
  -2  -8   0  546.95   33.40 
  -2  -8   0  551.74   31.10 
   2   8   0  555.64   34.40 
   2   8   0  535.65   31.20 
   2   8   0  510.35   33.80 
   2   8   0  575.64   32.50 
   2   8   0  558.04   33.10 
   2   8   0  549.05   33.60 
   2   8   0  585.94   40.70 
   2   8   0  605.74   32.40 
   2   8   0  517.45   33.10 
   2   8   0  601.04   35.90 
  -3  -8   0   87.49    8.20 
  -3  -8   0   66.09    7.50 
  -3  -8   0   84.29    8.00 
  -3  -8   0   75.29    6.50 
   3   8   0   74.49    6.90 
   3   8   0   73.19   12.20 
   3   8   0   53.09    9.00 
   3   8   0   75.59    7.60 
   3   8   0   79.49    7.60 
   3   8   0   76.99    7.60 
   3   8   0   77.89    9.40 
   3   8   0   72.09    8.40 
   3   8   0   67.29    8.20 
  -4  -8   0   52.09    5.60 
  -4  -8   0   64.99    6.10 
  -4  -8   0   53.09    4.90 
   4   8   0   50.69    5.50 
   4   8   0   50.89    6.00 
   4   8   0   65.79    6.80 
   4   8   0   50.29    6.20 
   4   8   0   54.29    4.80 
   4  -9   0   12.50    2.10 
   4  -9   0    9.70    2.90 
   4  -9   0   10.80    2.20 
   4  -9   0    7.30    2.70 
  -4   9   0   10.40    1.70 
  -4   9   0    8.20    2.00 
   3  -9   0   28.50    5.00 
   3  -9   0   32.40    4.80 
   3  -9   0   39.80    6.20 
   3  -9   0   35.30    4.70 
   3  -9   0   25.10    9.40 
  -3   9   0   34.40    5.00 
  -3   9   0   29.10    3.40 
   2  -9   0  122.59   11.90 
   2  -9   0  141.09   10.50 
   2  -9   0  161.48   22.00 
   2  -9   0  131.69   10.60 
  -2   9   0  114.49   12.80 
  -2   9   0  137.09    8.20 
  -2   9   0  114.19   10.00 
  -2   9   0  142.39   10.80 
   1  -9   0  156.48   13.20 
   1  -9   0  163.88   13.70 
   1  -9   0  150.78   13.40 
   1  -9   0  162.28   11.70 
   1  -9   0  173.78   22.80 
  -1   9   0  161.68   11.90 
  -1   9   0  159.08   12.40 
  -1   9   0  164.18   12.60 
  -1   9   0  158.78   12.20 
  -1   9   0  155.28   15.30 
   0  -9   0  475.45   29.50 
   0  -9   0  466.95   39.50 
   0  -9   0  511.95   29.40 
   0   9   0  454.35   28.60 
   0   9   0  447.36   28.60 
   0   9   0  488.85   33.80 
   0   9   0  485.25   28.70 
   0   9   0  462.95   27.80 
   0   9   0  461.65   27.60 
  -1  -9   0  355.46   20.00 
  -1  -9   0  355.96   21.10 
  -1  -9   0  366.96   22.60 
  -1  -9   0  367.46   31.90 
  -1  -9   0  351.96   23.10 
   1   9   0  370.26   21.50 
   1   9   0  306.17   21.70 
   1   9   0  308.77   22.30 
   1   9   0  349.87   22.80 
   1   9   0  347.97   22.60 
   1   9   0  371.16   20.80 
   1   9   0  299.07   26.80 
   1   9   0  348.37   23.50 
  -2  -9   0   12.80    3.50 
  -2  -9   0   13.70    3.70 
  -2  -9   0   14.80    3.80 
  -2  -9   0   20.10    3.60 
   2   9   0   14.20    6.00 
   2   9   0   12.10    3.00 
   2   9   0   18.70    3.60 
   2   9   0    0.80    5.50 
   2   9   0    8.20    3.70 
   2   9   0   11.30    3.70 
   2   9   0   18.10    4.00 
   2   9   0   13.40    3.70 
   2   9   0    9.70    3.30 
  -3  -9   0   76.19    7.40 
  -3  -9   0   69.19    7.00 
  -3  -9   0   73.59    6.20 
   3   9   0   73.39    6.10 
   3   9   0   70.69    7.00 
   3   9   0   66.89    7.00 
   3   9   0   60.79    6.50 
   3   9   0   74.79    6.80 
   3   9   0   59.39    7.40 
   3   9   0   68.29    7.70 
  -4  -9   0  100.79    6.30 
  -4  -9   0   95.19    7.10 
   4   9   0   83.29    6.10 
   4   9   0   78.19    6.80 
   4   9   0   82.19    7.00 
   4   9   0   92.29    6.70 
   3 -10   0   43.10    5.90 
   3 -10   0   35.80    8.80 
   3 -10   0   45.20    4.50 
  -3  10   0   45.20    5.20 
  -3  10   0   50.29    4.50 
   2 -10   0    4.70    5.50 
   2 -10   0    3.30    2.10 
   2 -10   0    4.20    2.80 
  -2  10   0    3.10    2.10 
  -2  10   0    2.70    1.90 
   1 -10   0  186.78   24.20 
   1 -10   0  219.78   15.90 
  -1  10   0  218.08   18.70 
  -1  10   0  237.38   15.70 
  -1  10   0  220.18   15.20 
  -1  10   0  202.78   17.50 
   0 -10   0   34.70   10.80 
   0 -10   0   34.60    6.70 
   0  10   0   36.70    8.20 
   0  10   0   41.80    6.30 
   0  10   0   28.40    5.30 
   0  10   0   44.50    6.10 
  -1 -10   0  167.68   10.20 
  -1 -10   0  156.08   20.00 
  -1 -10   0  172.18   13.90 
   1  10   0  175.68   12.20 
   1  10   0  160.78   13.10 
   1  10   0  151.88   12.90 
   1  10   0  192.38   13.70 
  -2 -10   0  137.69    8.90 
  -2 -10   0  145.49   10.40 
  -2 -10   0  147.59   11.70 
   2  10   0  133.19   10.20 
   2  10   0  125.99   11.10 
   2  10   0  122.99   11.20 
   2  10   0  126.69   21.90 
   2  10   0  133.09    8.70 
   2  10   0  130.49   10.80 
  -3 -10   0   37.40    4.90 
  -3 -10   0   47.60    4.00 
   3  10   0   38.00    4.80 
   3  10   0   34.40    5.80 
   3  10   0   44.50    5.00 
   3  10   0   35.40    4.70 
   3  10   0   37.50    3.60 
   2 -11   0    5.20    4.10 
   2 -11   0    0.90    4.50 
  -2  11   0    5.20    2.10 
  -2  11   0    6.80    2.60 
   1 -11   0    0.10    3.20 
   1 -11   0    2.60    3.00 
  -1  11   0    2.80    3.10 
  -1  11   0   -3.70    2.00 
  -1  11   0    3.40    1.70 
   0 -11   0   78.69   13.00 
   0 -11   0   95.79    9.10 
   0  11   0   92.59    8.30 
   0  11   0   90.79    8.20 
  -1 -11   0    5.90    3.10 
  -1 -11   0   -0.60    3.70 
  -1 -11   0    4.50    2.40 
   1  11   0    2.70    2.00 
   1  11   0    3.40    2.20 
   1  11   0   -1.40    1.80 
  -2 -11   0   52.59    5.80 
  -2 -11   0   51.09    5.30 
   2  11   0   38.60    4.60 
   2  11   0   48.90    4.60 
   2  11   0   38.60    5.10 
   1 -12   0    6.80    3.80 
  -1  12   0   13.30    2.50 
   0 -12   0    4.90    4.60 
   0 -12   0   11.30    2.70 
   0  12   0    6.90    2.20 
  -1 -12   0   81.09    7.00 
   1  12   0   77.09    6.70 
   1  12  -1   54.89    6.10 
  -1 -12   1   53.79    6.10 
   0  12  -1   -1.40    1.20 
   0 -12   1   -0.30    1.50 
   0 -12   1   -0.30    2.50 
  -1  12  -1    7.10    2.10 
   1 -12   1   11.20    2.80 
   1 -12   1    3.10    3.90 
   2  11  -1    8.00    2.40 
   2  11  -1   10.50    2.30 
   2  11  -1    8.70    2.30 
  -2 -11   1    5.90    2.40 
  -2 -11   1    9.20    2.80 
   1  11  -1   21.60    4.10 
   1  11  -1   18.10    5.10 
   1  11  -1   23.30    4.20 
   1  11  -1   23.90    4.00 
  -1 -11   1   29.90    5.20 
  -1 -11   1   25.00    4.10 
   0  11  -1   86.29    8.20 
   0 -11   1   85.79    8.50 
  -1  11  -1    9.70    2.90 
  -1  11  -1   16.90    3.50 
   1 -11   1   10.40    6.30 
   1 -11   1   14.60    3.70 
  -2  11  -1    7.30    2.20 
  -2  11  -1    7.80    2.50 
   2 -11   1    3.70    4.20 
   3  10  -1   11.50    3.00 
   3  10  -1   19.90    3.30 
   3  10  -1   13.60    3.00 
  -3 -10   1   16.10    3.40 
  -3 -10   1   17.20    2.40 
  -3 -10   1   21.70    3.60 
   2  10  -1  158.68   11.00 
   2  10  -1  137.09   11.80 
  -2 -10   1  153.08    9.30 
  -2 -10   1  140.49   10.60 
  -2 -10   1  149.29   11.90 
   1  10  -1   -3.00    4.40 
   1  10  -1   13.60    7.10 
   1  10  -1    8.30    3.40 
  -1 -10   1    6.00    2.00 
  -1 -10   1    6.00    4.50 
  -1 -10   1    9.80    3.60 
   0  10  -1   72.39   10.90 
   0  10  -1   96.99    9.20 
   0  10  -1   87.69    8.40 
   0  10  -1   87.99    8.80 
   0 -10   1  103.69   10.20 
   0 -10   1   78.79   14.80 
  -1  10  -1  306.17   19.20 
  -1  10  -1  261.77   17.90 
   1 -10   1  273.97   29.50 
   1 -10   1  290.57   19.80 
  -2  10  -1   15.60    3.10 
  -2  10  -1   16.50    3.60 
   2 -10   1   20.30    3.70 
   2 -10   1   13.10    3.50 
   2 -10   1   16.20    7.70 
  -3  10  -1  121.99    8.50 
  -3  10  -1  111.09    7.80 
   3 -10   1   88.59   14.00 
   3 -10   1   96.49    7.50 
   3 -10   1  118.89    9.20 
   4   9  -1   34.30    4.10 
   4   9  -1   35.90    3.70 
  -4  -9   1   47.10    4.60 
   3   9  -1    6.40    2.70 
   3   9  -1    8.00    3.00 
   3   9  -1    3.50    2.60 
   3   9  -1   16.10    3.60 
   3   9  -1   10.60    2.10 
  -3  -9   1    7.60    2.60 
  -3  -9   1    9.20    2.20 
   2   9  -1   44.00    4.50 
   2   9  -1   43.30    6.50 
   2   9  -1   26.60    7.50 
   2   9  -1   37.00    5.80 
   2   9  -1   35.20    6.70 
   2   9  -1   37.50    6.30 
   2   9  -1   36.10    6.70 
   2   9  -1   46.00    6.10 
  -2  -9   1   42.10    4.40 
  -2  -9   1   36.20    6.20 
  -2  -9   1   44.30    5.60 
   1   9  -1  308.47   26.10 
   1   9  -1  255.67   23.30 
  -1  -9   1  282.57   22.90 
  -1  -9   1  278.37   17.10 
  -1  -9   1  300.27   17.80 
  -1  -9   1  241.18   32.20 
   0   9  -1  125.59   14.60 
   0   9  -1  138.39   11.90 
   0   9  -1  154.18   11.70 
   0   9  -1  158.28   11.90 
   0   9  -1  135.49   11.40 
   0  -9   1  139.09   13.00 
   0  -9   1  143.39   11.70 
   0  -9   1  139.59   12.90 
   0  -9   1  168.88   20.70 
  -1   9  -1  269.27   21.80 
  -1   9  -1  285.97   18.70 
  -1   9  -1  273.07   18.00 
  -1   9  -1  290.57   18.90 
   1  -9   1  304.47   31.20 
   1  -9   1  265.57   19.70 
   1  -9   1  261.27   18.30 
   1  -9   1  289.27   20.20 
  -2   9  -1  236.68   13.40 
  -2   9  -1  250.37   16.20 
   2  -9   1  235.88   17.90 
   2  -9   1  184.18   25.60 
   2  -9   1  228.08   17.30 
   2  -9   1  259.77   16.00 
  -3   9  -1  113.59    8.80 
  -3   9  -1  112.89    7.20 
   3  -9   1  110.19    8.80 
   3  -9   1  107.09   17.70 
   3  -9   1  113.19    8.90 
   3  -9   1   91.09    8.70 
   3  -9   1   93.09    9.80 
  -4   9  -1   22.20    2.40 
  -4   9  -1   19.00    3.40 
   4  -9   1   25.00    2.80 
   4  -9   1   19.60    3.40 
   4  -9   1   24.30    4.10 
   4   8  -1   29.60    6.70 
   4   8  -1   25.40    4.30 
   4   8  -1   16.60    3.40 
   4   8  -1   23.30    3.60 
  -4  -8   1   23.90    3.20 
  -4  -8   1   14.60    4.50 
   3   8  -1   20.60    6.90 
   3   8  -1   35.90    5.30 
   3   8  -1   31.90    4.30 
   3   8  -1   28.00    4.90 
   3   8  -1   24.00    5.10 
   3   8  -1   32.30    6.00 
  -3  -8   1   26.00    4.60 
  -3  -8   1   28.20    4.20 
  -3  -8   1   29.40    5.20 
   2   8  -1    5.80    3.50 
   2   8  -1   14.70    3.40 
   2   8  -1    7.00    2.90 
   2   8  -1   14.10    5.30 
   2   8  -1   10.80    3.80 
   2   8  -1   13.20    4.70 
   2   8  -1   11.80    3.90 
   2   8  -1    7.80    3.10 
   2   8  -1   14.20    3.00 
   2   8  -1   15.00    4.10 
  -2  -8   1    9.30    3.30 
  -2  -8   1   16.10    4.20 
  -2  -8   1   14.40    3.50 
  -2  -8   1   15.80    4.30 
  -2  -8   1   14.30    2.80 
   1   8  -1  182.68   15.80 
   1   8  -1  161.38   15.30 
   1   8  -1  187.98   15.60 
   1   8  -1  139.29   17.80 
   1   8  -1  180.38   23.50 
   1   8  -1  163.98   14.30 
  -1  -8   1  177.38   12.00 
  -1  -8   1  166.78   13.10 
  -1  -8   1  192.48   17.10 
   0   8  -1   68.19    7.90 
   0   8  -1   71.99    7.50 
   0   8  -1   59.09    8.90 
   0   8  -1   74.79    7.00 
   0  -8   1   67.49    7.10 
   0  -8   1   95.69   14.70 
   0  -8   1   67.09    6.00 
   0  -8   1   69.89    8.40 
  -1   8  -1  418.96   25.00 
  -1   8  -1  374.66   27.60 
  -1   8  -1  398.36   21.70 
   1  -8   1  417.36   25.80 
   1  -8   1  417.36   24.50 
   1  -8   1  430.46   46.90 
   1  -8   1  380.66   26.70 
  -2   8  -1   32.10    3.90 
  -2   8  -1   25.90    3.60 
  -2   8  -1   30.60    4.60 
  -2   8  -1   24.90    4.50 
  -2   8  -1   30.50    5.60 
  -2   8  -1   26.70    6.20 
   2  -8   1   32.70   10.60 
   2  -8   1   37.00    5.80 
   2  -8   1   24.60    6.00 
   2  -8   1   31.40    5.40 
   2  -8   1   23.40    4.10 
   2  -8   1   31.30    6.20 
  -3   8  -1   29.80    4.60 
  -3   8  -1   36.80    4.20 
  -3   8  -1   34.10    4.20 
  -3   8  -1   44.60    6.00 
   3  -8   1   47.70   12.60 
   3  -8   1   35.70    6.90 
   3  -8   1   26.20    7.00 
   3  -8   1   49.20    4.80 
   3  -8   1   41.20    5.80 
   3  -8   1   29.50    5.30 
   3  -8   1   39.90    4.90 
   3  -8   1   34.10    6.10 
  -4   8  -1   88.19    6.00 
  -4   8  -1   97.49    7.50 
   4  -8   1   78.29    7.60 
   4  -8   1   90.29    7.70 
   4  -8   1   66.89   13.00 
   4  -8   1   78.99    8.10 
   4  -8   1   79.29    8.50 
   4  -8   1   79.99    7.20 
   4   7  -1   11.20    3.70 
   4   7  -1   12.80    3.20 
   4   7  -1   12.20    2.70 
   4   7  -1   14.30    4.00 
   4   7  -1   21.10    4.10 
   4   7  -1    9.90    3.20 
  -4  -7   1    9.70    2.30 
  -4  -7   1   19.60    3.90 
  -4  -7   1   15.10    3.30 
   3   7  -1    6.30    3.80 
   3   7  -1    6.60    2.30 
   3   7  -1   13.10    3.80 
   3   7  -1    9.40    3.70 
   3   7  -1    4.10    3.80 
   3   7  -1   11.70    4.10 
   3   7  -1    6.50    2.70 
   3   7  -1    7.20    4.70 
   3   7  -1    8.90    3.90 
   3   7  -1   15.30    4.20 
  -3  -7   1    6.60    2.30 
  -3  -7   1    4.90    2.50 
  -3  -7   1    6.00    2.80 
  -3  -7   1   12.10    3.30 
  -3  -7   1    7.80    2.90 
   2   7  -1   99.49    9.10 
   2   7  -1  100.59    9.10 
   2   7  -1  115.19   10.30 
   2   7  -1   94.89   13.40 
   2   7  -1   93.89   11.00 
   2   7  -1   98.09    8.20 
   2   7  -1  111.69   14.70 
   2   7  -1   93.29   10.40 
  -2  -7   1   77.09   12.30 
  -2  -7   1   98.59    8.80 
  -2  -7   1   99.19    9.80 
  -2  -7   1  125.59   12.20 
  -2  -7   1  104.39    8.00 
   1   7  -1   87.19    8.90 
   1   7  -1   96.89    7.20 
   1   7  -1   84.99    7.40 
   1   7  -1   78.69   11.00 
  -1  -7   1   89.69    7.60 
  -1  -7   1   87.39    8.10 
  -1  -7   1   92.49    6.40 
  -1  -7   1   87.09    7.70 
   0   7  -1  577.74   31.90 
   0   7  -1  598.34   34.00 
   0   7  -1  579.44   32.50 
   0  -7   1  625.14   31.40 
   0  -7   1  551.44   36.60 
   0  -7   1  606.84   32.30 
  -1   7  -1  177.98   12.20 
  -1   7  -1  174.68   14.70 
  -1   7  -1  175.78   10.80 
  -1   7  -1  172.68   10.20 
   1  -7   1  163.98   10.80 
   1  -7   1  157.88   10.70 
   1  -7   1  178.98   13.20 
  -2   7  -1  316.77   21.50 
  -2   7  -1  340.27   21.20 
  -2   7  -1  336.37   19.30 
  -2   7  -1  383.16   24.10 
  -2   7  -1  344.57   19.50 
   2  -7   1  338.07   23.50 
   2  -7   1  307.87   23.40 
   2  -7   1  351.06   19.90 
   2  -7   1  349.37   21.60 
   2  -7   1  356.56   21.70 
   2  -7   1  419.26   37.60 
   2  -7   1  352.36   20.60 
  -3   7  -1  346.27   19.70 
  -3   7  -1  391.36   24.70 
  -3   7  -1  352.86   22.40 
  -3   7  -1  347.67   21.70 
   3  -7   1  360.76   27.10 
   3  -7   1  351.16   21.70 
   3  -7   1  357.46   24.50 
   3  -7   1  349.87   20.40 
   3  -7   1  344.87   22.00 
   3  -7   1  321.57   24.20 
   3  -7   1  355.36   21.90 
   3  -7   1  287.47   34.70 
  -4   7  -1  256.07   18.20 
  -4   7  -1  289.37   16.10 
  -4   7  -1  271.97   16.00 
   4  -7   1  306.27   19.30 
   4  -7   1  284.67   19.10 
   4  -7   1  276.67   18.40 
   4  -7   1  266.77   16.70 
   4  -7   1  291.67   22.50 
   4  -7   1  279.77   17.80 
  -5   7  -1  124.69    7.50 
  -5   7  -1  124.99    8.50 
   5  -7   1  122.99   11.30 
   5  -7   1  126.99    8.80 
   5  -7   1  127.09    8.70 
   5   6  -1  116.19    9.00 
   5   6  -1  126.59    9.10 
   5   6  -1  114.99    7.80 
   5   6  -1  122.29    9.20 
   5   6  -1  126.49    8.20 
   4   6  -1   42.80    6.70 
   4   6  -1   41.50    7.60 
   4   6  -1   44.10    9.30 
   4   6  -1   52.39    8.20 
   4   6  -1   39.70    5.30 
   4   6  -1   37.20    6.90 
  -4  -6   1   57.09    6.30 
  -4  -6   1   41.20    5.60 
  -4  -6   1   51.59    6.20 
   3   6  -1   18.40    6.90 
   3   6  -1   33.60    4.50 
   3   6  -1   32.00    7.20 
   3   6  -1   29.20    6.00 
   3   6  -1   31.60    5.10 
   3   6  -1   31.50    6.00 
   3   6  -1   20.10    5.10 
   3   6  -1   17.40    5.30 
   3   6  -1   22.20    4.20 
  -3  -6   1   33.30    4.60 
  -3  -6   1   28.40    4.60 
  -3  -6   1   32.60    4.70 
  -3  -6   1   37.60    5.40 
   2   6  -1  925.01   53.29 
   2   6  -1  947.71   50.89 
   2   6  -1  875.51   57.79 
   2   6  -1  927.51   50.39 
  -2  -6   1  956.40   51.39 
  -2  -6   1  971.70   50.29 
  -2  -6   1  962.80   48.60 
   1   6  -1  757.22   43.70 
   1   6  -1  740.63   41.40 
   1   6  -1  818.32   41.10 
   1   6  -1  726.33   46.80 
   1   6  -1  754.42   41.40 
  -1  -6   1  807.42   41.60 
  -1  -6   1  773.92   42.60 
  -1  -6   1  829.12   40.10 
   0   6  -1 1340.57   72.39 
   0   6  -1 1484.05   72.89 
   0   6  -1 1390.36   71.89 
   0   6  -1 1395.96   76.59 
   0   6  -1 1445.96   71.39 
   0   6  -1 1322.07   74.19 
   0  -6   1 1532.75   73.59 
   0  -6   1 1403.76   77.79 
   0  -6   1 1512.35   71.69 
   0  -6   1 1364.06   71.49 
   0  -6   1 1381.96   72.59 
  -1   6  -1 1166.38   59.09 
  -1   6  -1 1218.88   60.69 
  -1   6  -1 1229.68   63.49 
  -1   6  -1 1165.68   61.19 
   1  -6   1 1091.09   67.59 
   1  -6   1 1128.29   59.69 
   1  -6   1 1189.68   59.49 
   1  -6   1 1133.69   59.99 
   1  -6   1 1157.98   62.09 
  -2   6  -1  688.63   37.30 
  -2   6  -1  700.63   42.60 
  -2   6  -1  708.33   36.70 
   2  -6   1  613.54   38.30 
   2  -6   1  658.93   35.30 
   2  -6   1  648.64   36.00 
   2  -6   1  597.84   35.20 
  -3   6  -1 1257.97   67.89 
  -3   6  -1 1271.07   69.49 
  -3   6  -1 1313.47   67.29 
   3  -6   1 1375.96   67.99 
   3  -6   1 1078.09   67.79 
   3  -6   1 1251.47   66.99 
   3  -6   1 1275.87   90.79 
   3  -6   1 1271.97   66.79 
   3  -6   1 1251.27   70.39 
   3  -6   1 1432.16   76.29 
   3  -6   1 1288.27   67.29 
   3  -6   1 1089.19   72.59 
  -4   6  -1   42.00    4.90 
  -4   6  -1   43.90    5.60 
   4  -6   1   47.30    9.20 
   4  -6   1   44.00    6.60 
   4  -6   1   41.30    8.10 
   4  -6   1   41.00    6.30 
   4  -6   1   40.70   12.80 
   4  -6   1   43.90    6.50 
   4  -6   1   37.80    5.20 
   4  -6   1   42.70    5.90 
  -5   6  -1  374.96   23.90 
  -5   6  -1  421.76   22.40 
   5  -6   1  437.56   25.50 
   5  -6   1  455.05   23.70 
   5  -6   1  435.36   25.60 
   5  -6   1  418.76   24.60 
   5  -6   1  402.76   27.60 
   5   5  -1   23.60    5.60 
   5   5  -1   25.50    4.30 
   5   5  -1   27.10    3.40 
   5   5  -1   21.40    6.20 
  -5  -5   1   17.40    3.30 
  -5  -5   1   25.70    3.40 
   4   5  -1  285.27   18.40 
   4   5  -1  285.37   26.60 
   4   5  -1  275.57   21.20 
   4   5  -1  330.57   19.30 
   4   5  -1  303.97   21.40 
   4   5  -1  277.17   21.10 
   4   5  -1  292.77   18.70 
  -4  -5   1  323.47   19.70 
  -4  -5   1  321.47   20.30 
   3   5  -1  247.78   23.80 
   3   5  -1  281.17   17.40 
   3   5  -1  224.48   18.60 
   3   5  -1  266.37   16.90 
   3   5  -1  287.07   20.60 
   3   5  -1  282.67   18.50 
   3   5  -1  242.88   19.40 
   3   5  -1  262.07   19.40 
   3   5  -1  240.88   19.30 
   3   5  -1  250.97   17.30 
  -3  -5   1  296.17   18.20 
  -3  -5   1  287.47   17.50 
  -3  -5   1  283.37   18.00 
   2   5  -1   56.99    7.10 
   2   5  -1   47.60    8.80 
   2   5  -1   52.79    6.00 
   2   5  -1   52.39    5.70 
   2   5  -1   56.79    5.80 
  -2  -5   1   56.59    5.40 
  -2  -5   1   51.39    4.30 
  -2  -5   1   56.19    5.80 
   1   5  -1 1592.34   81.69 
   1   5  -1 1487.65   82.29 
   1   5  -1 1593.84   86.79 
   1   5  -1 1556.14   83.49 
   1   5  -1 1746.33   81.29 
   1   5  -1 1580.04   80.69 
  -1  -5   1 1626.14   81.49 
  -1  -5   1 1628.04   82.59 
  -1  -5   1 1613.04   80.29 
  -1  -5   1 1545.25   83.89 
   0   5  -1  991.70   58.09 
   0   5  -1 1158.58   56.19 
   0   5  -1 1152.98   57.29 
   0   5  -1 1139.09   60.29 
   0   5  -1  963.20   56.49 
   0  -5   1 1185.28   57.69 
   0  -5   1 1186.18   56.29 
   0  -5   1 1125.69   61.19 
  -1   5  -1  684.33   33.70 
  -1   5  -1  664.83   35.20 
  -1   5  -1  640.64   33.80 
   1  -5   1  566.54   34.10 
   1  -5   1  585.94   32.40 
   1  -5   1  616.14   44.20 
   1  -5   1  603.74   32.40 
  -2   5  -1  208.68   14.00 
  -2   5  -1  185.58   19.10 
  -2   5  -1  195.88   13.10 
  -2   5  -1  207.98   12.70 
   2  -5   1  178.38   11.60 
   2  -5   1  187.38   12.30 
   2  -5   1  181.58   13.60 
   2  -5   1  174.48   11.40 
   2  -5   1  183.98   19.40 
  -3   5  -1   83.29    7.40 
  -3   5  -1   71.29    8.50 
  -3   5  -1   76.69    7.80 
   3  -5   1   85.19    9.10 
   3  -5   1   87.79    7.10 
   3  -5   1   79.59    7.80 
  -4   5  -1  119.49    8.80 
  -4   5  -1  110.49   10.60 
  -4   5  -1  105.49    9.20 
  -4   5  -1  110.79   11.40 
   4  -5   1  117.69    9.80 
   4  -5   1  113.79    9.10 
   4  -5   1  118.29   16.90 
   4  -5   1  101.39   12.50 
  -5   5  -1  111.79    8.90 
  -5   5  -1  122.29    9.60 
   5  -5   1  122.29    9.50 
   5  -5   1  124.49    9.40 
   5  -5   1  124.79    9.70 
   5  -5   1  125.19   11.50 
   5  -5   1  113.69   13.00 
   5  -5   1  125.99   10.30 
   5   4  -1   19.00    3.10 
   5   4  -1   24.90    4.80 
   5   4  -1   21.30    4.40 
   5   4  -1   31.40    5.50 
   5   4  -1   11.30    3.70 
  -5  -4   1   21.80    3.60 
   4   4  -1  604.84   44.40 
   4   4  -1  670.53   37.40 
   4   4  -1  674.23   42.80 
   4   4  -1  685.23   36.00 
   4   4  -1  599.54   40.80 
   4   4  -1  623.74   36.90 
   4   4  -1  638.64   37.60 
  -4  -4   1  634.04   36.50 
  -4  -4   1  656.63   37.00 
  -4  -4   1  569.44   35.60 
   3   4  -1  230.18   21.70 
   3   4  -1  256.97   18.60 
   3   4  -1  239.38   15.50 
   3   4  -1  226.78   16.00 
   3   4  -1  244.68   16.70 
  -3  -4   1  241.08   15.80 
  -3  -4   1  240.18   15.80 
   2   4  -1 1852.71  103.59 
   2   4  -1 1989.20  106.69 
   2   4  -1 2131.89  105.29 
   2   4  -1 2075.49  104.99 
   2   4  -1 2037.20  110.79 
   2   4  -1 1943.61  104.39 
   2   4  -1 2201.78  103.79 
  -2  -4   1 1968.80  104.19 
  -2  -4   1 2153.18  107.39 
  -2  -4   1 2067.39  103.09 
  -2  -4   1 2136.89  104.89 
   1   4  -1 1193.78   56.19 
   1   4  -1 1046.80   56.99 
   1   4  -1 1067.99   54.79 
   1   4  -1 1026.50   59.29 
   1   4  -1  991.10   54.69 
   1   4  -1 1066.99   55.59 
  -1  -4   1 1098.69   55.29 
  -1  -4   1 1129.59   57.39 
  -1  -4   1 1077.09   54.39 
   0   4  -1 3705.43  183.98 
   0   4  -1 3120.69  185.18 
   0   4  -1 3692.33  186.18 
   0   4  -1 3708.03  183.88 
   0  -4   1 3880.61  184.08 
   0  -4   1 3996.00  183.08 
   0  -4   1 3678.23  186.98 
  -1   4  -1  744.23   37.90 
  -1   4  -1  671.03   36.30 
  -1   4  -1  650.63   37.00 
   1  -4   1  643.74   35.40 
   1  -4   1  707.73   36.80 
   1  -4   1  662.23   41.00 
   1  -4   1  740.03   35.40 
  -2   4  -1 2403.46  107.79 
  -2   4  -1 1939.01  116.19 
  -2   4  -1 2153.38  109.19 
  -2   4  -1 2145.89  108.29 
   2  -4   1 2085.79  108.89 
   2  -4   1 2138.79  107.09 
   2  -4   1 2109.89  116.99 
   2  -4   1 2091.69  107.79 
   2  -4   1 2011.70  106.69 
  -3   4  -1  513.95   27.90 
  -3   4  -1  496.45   28.80 
   3  -4   1  511.25   28.60 
   3  -4   1  507.45   28.20 
   3  -4   1  444.36   29.80 
   3  -4   1  491.05   27.60 
  -4   4  -1  296.27   20.10 
  -4   4  -1  301.87   22.20 
  -4   4  -1  323.57   19.70 
   4  -4   1  290.37   21.40 
   4  -4   1  326.67   19.40 
   4  -4   1  329.17   20.10 
   4  -4   1  322.87   20.40 
   4  -4   1  329.07   20.50 
   4  -4   1  280.17   22.00 
   4  -4   1  358.76   28.10 
   4  -4   1  325.07   23.10 
   4  -4   1  311.87   19.50 
  -5   4  -1  104.49    7.50 
  -5   4  -1  100.69    9.00 
   5  -4   1   95.99   10.20 
   5  -4   1  108.29    9.80 
   5  -4   1  105.49    8.90 
   5  -4   1  139.39   13.10 
   5  -4   1   92.69    8.10 
   5  -4   1  104.39    9.30 
   5   3  -1  200.98   14.70 
   5   3  -1  202.48   14.40 
   5   3  -1  195.68   12.20 
   5   3  -1  209.68   15.00 
   5   3  -1  200.18   14.60 
   5   3  -1  164.38   17.60 
  -5  -3   1  199.48   13.90 
   4   3  -1  838.82   48.30 
   4   3  -1  829.32   46.30 
   4   3  -1  760.22   44.40 
   4   3  -1  848.22   49.10 
   4   3  -1  849.22   45.30 
   4   3  -1  808.62   44.90 
   4   3  -1  809.02   47.70 
   4   3  -1  764.92   47.30 
   4   3  -1  865.51   54.89 
   4   3  -1  858.61   47.60 
   4   3  -1  802.22   53.79 
   4   3  -1  792.32   47.50 
  -4  -3   1  880.81   45.60 
  -4  -3   1  881.51   46.30 
   3   3  -1  481.35   30.20 
   3   3  -1  590.74   29.40 
   3   3  -1  489.05   29.30 
   3   3  -1  551.24   31.30 
   3   3  -1  477.65   32.10 
   3   3  -1  559.74   30.80 
   3   3  -1  545.55   36.70 
   3   3  -1  562.54   38.10 
  -3  -3   1  511.05   28.50 
  -3  -3   1  556.04   29.80 
  -3  -3   1  502.05   38.60 
   2   3  -1 6692.23  324.47 
   2   3  -1 6608.94  322.77 
   2   3  -1 6399.86  323.07 
   2   3  -1 6489.65  321.47 
   2   3  -1 6252.67  322.17 
   2   3  -1 6207.98  327.27 
  -2  -3   1 5921.91  320.97 
  -2  -3   1 6663.23  322.27 
  -2  -3   1 6922.61  325.77 
   1   3  -1 2218.38  113.39 
   1   3  -1 2377.76  113.69 
   1   3  -1 2113.19  116.39 
   1   3  -1 2206.88  114.39 
   1   3  -1 2398.26  112.69 
  -1  -3   1 2127.59  112.29 
  -1  -3   1 2328.27  116.09 
   0   3  -1 3798.42  210.98 
   0   3  -1 4369.56  210.38 
   0   3  -1 4526.25  210.58 
  -1   3  -1  202.28   12.40 
   1  -3   1  208.68   12.40 
   1  -3   1  242.18   16.40 
   1  -3   1  211.88   11.40 
   1  -3   1  208.08   11.80 
  -2   3  -1  301.07   16.80 
  -2   3  -1  286.67   17.60 
  -2   3  -1  283.77   22.50 
   2  -3   1  299.87   22.80 
   2  -3   1  255.97   15.30 
   2  -3   1  281.37   15.90 
   2  -3   1  270.27   17.10 
  -3   3  -1 1423.26   69.69 
  -3   3  -1 1422.96   68.39 
  -3   3  -1 1355.26   71.49 
   3  -3   1 1219.88   70.19 
   3  -3   1 1308.37   68.59 
   3  -3   1 1206.28   67.79 
  -4   3  -1  113.59    9.90 
  -4   3  -1  133.19    9.50 
   4  -3   1  100.59   13.00 
   4  -3   1  116.19   10.10 
   4  -3   1  107.09   12.40 
   4  -3   1  134.89   16.00 
   4  -3   1  124.39   10.10 
   4  -3   1  116.09   11.10 
   4  -3   1  116.29   10.10 
   4  -3   1  113.39    9.20 
  -5   3  -1  794.12   46.20 
  -5   3  -1  888.11   56.69 
   5  -3   1  895.11   47.50 
   5  -3   1  841.92   47.90 
   5  -3   1  884.61   55.49 
   5  -3   1  900.61   47.70 
   5  -3   1  864.31   45.90 
   5   2  -1  355.66   29.70 
   5   2  -1  441.56   31.00 
   5   2  -1  412.96   25.10 
   5   2  -1  463.25   25.20 
   5   2  -1  363.16   23.30 
  -5  -2   1  414.46   24.70 
   4   2  -1   17.70    3.40 
   4   2  -1   11.90    4.10 
   4   2  -1   23.40    6.00 
   4   2  -1   11.70    3.60 
   4   2  -1   17.60    4.20 
   4   2  -1   12.80    4.30 
   4   2  -1    9.60    4.90 
   4   2  -1   17.20    4.90 
   4   2  -1   14.00    6.50 
   4   2  -1    9.90    3.60 
  -4  -2   1   15.90    3.70 
   3   2  -1  884.51   53.59 
   3   2  -1  844.72   48.20 
   3   2  -1  904.51   46.90 
   3   2  -1  931.21   48.40 
   3   2  -1  900.51   49.10 
   3   2  -1  877.61   49.50 
   3   2  -1  862.21   47.30 
   3   2  -1  854.41   46.90 
  -3  -2   1  947.51   53.89 
  -3  -2   1  835.52   47.10 
  -3  -2   1  952.30   47.20 
   2   2  -1 1623.74   81.39 
   2   2  -1 1578.54   81.89 
   2   2  -1 1525.05   82.39 
   2   2  -1 1578.44   80.39 
  -2  -2   1 1639.84   84.59 
   1   2  -1 4758.42  240.48 
   1   2  -1 4874.11  239.78 
  -2   2  -1 1043.20   59.59 
  -2   2  -1 1044.80   53.49 
  -2   2  -1 1020.00   54.99 
   2  -2   1  972.50   52.29 
   2  -2   1  941.41   53.59 
   2  -2   1 1123.09   56.49 
   2  -2   1 1107.49   53.29 
   2  -2   1 1015.30   59.29 
  -3   2  -1 2821.72  143.99 
  -3   2  -1 2898.51  152.28 
  -3   2  -1 2544.65  141.29 
   3  -2   1 2773.12  140.89 
   3  -2   1 2695.73  142.59 
   3  -2   1 3069.89  145.19 
   3  -2   1 2698.73  140.29 
   3  -2   1 2825.82  141.79 
  -4   2  -1  343.57   19.40 
  -4   2  -1  270.07   22.30 
   4  -2   1  346.97   28.30 
   4  -2   1  321.07   21.60 
   4  -2   1  332.37   22.80 
   4  -2   1  329.87   20.70 
   4  -2   1  366.46   24.80 
   4  -2   1  323.67   20.90 
   4  -2   1  306.47   21.70 
   4  -2   1  333.97   20.00 
  -5   2  -1  264.67   20.10 
  -5   2  -1  250.37   17.00 
   5  -2   1  278.97   18.00 
   5  -2   1  281.07   17.50 
   5  -2   1  278.67   18.50 
   5  -2   1  295.47   25.00 
   5  -2   1  278.57   18.60 
   5  -2   1  295.27   18.50 
   5  -2   1  299.87   18.80 
   6  -2   1   66.89    7.80 
   6  -2   1   64.89    5.30 
   5   1  -1  152.48   13.50 
   5   1  -1  139.19   11.80 
   5   1  -1  165.18   13.10 
   5   1  -1  151.58   12.30 
   5   1  -1  166.58   13.30 
   5   1  -1  156.58   19.50 
   5   1  -1  163.08   16.40 
  -5  -1   1  138.69   14.30 
  -5  -1   1  151.08   11.30 
   4   1  -1  317.07   21.50 
   4   1  -1  302.77   19.30 
   4   1  -1  321.27   22.20 
   4   1  -1  341.17   21.90 
   4   1  -1  323.57   22.70 
   4   1  -1  316.97   21.70 
  -4  -1   1  353.06   20.40 
   3   1  -1  463.45   26.50 
   3   1  -1  452.35   25.90 
   3   1  -1  472.05   27.20 
   3   1  -1  446.46   26.80 
   3   1  -1  432.16   27.40 
   3   1  -1  436.86   30.50 
   3   1  -1  460.65   25.50 
  -3  -1   1  496.65   25.50 
  -3  -1   1  477.55   32.30 
   2   1  -1  766.72   42.80 
   2   1  -1  767.02   41.30 
   2   1  -1  820.72   42.90 
   2   1  -1  786.92   41.70 
   2   1  -1  847.82   42.20 
  -2  -1   1  829.12   45.90 
   1   1  -1  551.94   28.40 
   1   1  -1  516.45   27.50 
   1   1  -1  502.75   30.40 
   1   1  -1  537.25   27.90 
   1   1  -1  521.75   28.40 
  -1  -1   1  606.84   30.10 
  -2   1  -1 8481.85  456.45 
   2  -1   1 9440.16  450.45 
   2  -1   1 8982.30  450.95 
   2  -1   1 8945.80  453.45 
   2  -1   1 9605.64  451.35 
   2  -1   1 9063.79  451.05 
  -3   1  -1  296.27   24.10 
  -3   1  -1  297.77   17.70 
   3  -1   1  275.77   18.30 
   3  -1   1  299.67   16.40 
   3  -1   1  299.67   20.50 
   3  -1   1  298.87   18.00 
   3  -1   1  274.87   17.00 
   3  -1   1  314.47   16.80 
  -4   1  -1  598.04   31.40 
   4  -1   1  543.55   33.90 
   4  -1   1  557.34   34.30 
   4  -1   1  586.54   33.60 
   4  -1   1  554.74   35.20 
   4  -1   1  566.24   32.40 
   4  -1   1  590.34   32.00 
   4  -1   1  608.24   41.90 
   4  -1   1  605.64   37.50 
  -5   1  -1   42.70    4.70 
  -5   1  -1   48.00    7.70 
   5  -1   1   45.20    5.80 
   5  -1   1   46.90    6.00 
   5  -1   1   45.40    8.80 
   5  -1   1   57.19    6.90 
   5  -1   1   54.29    6.70 
   5  -1   1   47.20    6.30 
   6  -1   1   64.89    8.40 
   5   0  -1   33.60    5.60 
   5   0  -1   32.00    5.60 
   5   0  -1   26.60    7.90 
   5   0  -1   29.10    6.50 
   5   0  -1   34.70    8.10 
   5   0  -1   36.60    6.50 
   5   0  -1   40.90    5.80 
  -5   0   1   37.70    6.60 
  -5   0   1   32.10    4.50 
   4   0  -1  330.17   21.30 
   4   0  -1  269.57   19.60 
   4   0  -1  230.38   19.40 
   4   0  -1  290.47   24.50 
   4   0  -1  274.87   24.60 
   4   0  -1  307.77   24.40 
   4   0  -1  271.67   19.00 
  -4   0   1  285.67   19.10 
   3   0  -1  495.15   27.80 
   3   0  -1  474.85   28.50 
   3   0  -1  485.75   29.60 
   3   0  -1  498.65   32.30 
   3   0  -1  486.45   27.90 
   3   0  -1  505.55   28.20 
  -3   0   1  539.15   35.20 
  -3   0   1  514.85   27.30 
   2   0  -1   88.69    6.20 
   2   0  -1   78.19    6.70 
   2   0  -1   85.99    7.00 
   2   0  -1   87.19    6.40 
   2   0  -1   90.19    5.90 
  -2   0   1   99.29    9.50 
  -2   0  -1 6398.06  320.27 
   2   0   1 5982.70  317.87 
   2   0   1 6220.08  315.17 
   2   0   1 6633.84  315.37 
   2   0   1 6482.45  315.17 
   2   0   1 6538.55  314.97 
   2   0   1 6141.89  315.47 
  -3   0  -1   56.29    4.60 
  -3   0  -1   49.70    8.00 
   3   0   1   43.30    4.00 
   3   0   1   50.89    5.30 
   3   0   1   44.40    4.40 
   3   0   1   45.30    4.90 
   3   0   1   40.60    4.50 
   3   0   1   43.20    4.00 
   3   0   1   46.10    6.50 
   4   0   1  696.03   38.10 
   4   0   1  688.53   40.50 
   4   0   1  737.83   44.60 
   4   0   1  677.63   38.50 
   4   0   1  719.03   39.70 
  -5   0  -1  688.83   44.70 
  -5   0  -1  725.43   39.80 
   5   0   1  735.73   41.40 
   5   0   1  808.22   46.70 
   5   0   1  747.43   41.60 
   5   0   1  731.13   41.30 
   5   0   1  739.13   40.50 
   5   0   1  725.13   40.90 
   6   0   1   49.40    6.10 
   6   0   1   49.80    5.60 
   5  -1  -1  242.78   16.50 
   5  -1  -1  235.88   16.60 
   5  -1  -1  232.28   15.50 
   5  -1  -1  232.18   14.90 
   5  -1  -1  248.78   16.20 
   5  -1  -1  186.28   21.20 
   5  -1  -1  249.18   15.90 
   5  -1  -1  229.98   19.00 
  -5   1   1  217.88   15.00 
  -5   1   1  227.28   19.10 
   4  -1  -1  445.16   29.40 
   4  -1  -1  418.66   26.50 
   4  -1  -1  434.46   26.80 
   4  -1  -1  458.65   27.70 
   4  -1  -1  398.86   33.60 
   4  -1  -1  389.76   26.40 
   4  -1  -1  522.25   29.50 
   4  -1  -1  401.06   27.90 
  -4   1   1  383.26   37.30 
  -4   1   1  449.16   25.40 
   3  -1  -1 2037.10  105.69 
   3  -1  -1 1975.00  100.59 
   3  -1  -1 1892.61  103.79 
   3  -1  -1 1902.11  100.59 
   3  -1  -1 1914.61  101.59 
   3  -1  -1 1871.81  102.69 
  -3   1   1 2065.49  110.19 
  -3   1   1 2103.89  100.49 
   2  -1  -1 2955.90  152.38 
   2  -1  -1 2944.81  153.98 
   2  -1  -1 3207.88  152.58 
  -2   1   1 3083.79  152.28 
  -2   1   1 3042.20  158.18 
   0  -1  -1  921.61   45.10 
   0  -1  -1  825.92   45.50 
   0  -1  -1  985.20   45.10 
   0   1   1  885.41   45.50 
   1   1   1 4839.72  240.38 
  -2  -1  -1 4390.06  220.48 
   2   1   1 4562.54  216.38 
   2   1   1 4057.79  216.08 
   2   1   1 4351.36  216.58 
   2   1   1 4306.67  217.48 
   2   1   1 4309.57  217.18 
   2   1   1 4410.86  216.08 
  -3  -1  -1   56.99    8.20 
  -3  -1  -1   59.59    4.90 
   3   1   1   52.69    4.50 
   3   1   1   54.89    7.50 
   3   1   1   56.29    5.80 
   3   1   1   40.70    5.00 
   3   1   1   68.79    6.70 
   3   1   1   48.80    4.80 
   3   1   1   48.40    4.60 
   3   1   1   55.79    4.60 
   3   1   1   54.29    5.00 
  -4  -1  -1  323.67   19.60 
   4   1   1  365.36   26.00 
   4   1   1  366.36   22.70 
   4   1   1  346.57   26.30 
   4   1   1  352.46   20.70 
   4   1   1  319.97   20.30 
   4   1   1  347.27   21.60 
  -5  -1  -1  534.25   38.70 
  -5  -1  -1  643.94   34.50 
   5   1   1  622.54   35.90 
   5   1   1  655.73   43.40 
   5   1   1  630.84   36.10 
   5   1   1  662.63   36.50 
   5   1   1  631.94   35.50 
   5   1   1  564.24   34.40 
   5   1   1  670.33   36.00 
   5   1   1  661.63   41.40 
   6   1   1   18.30    4.70 
   6   1   1   25.00    4.00 
   6   1   1   23.50    3.50 
   5  -2  -1   45.50    6.30 
   5  -2  -1   33.20    8.20 
   5  -2  -1   62.59    7.20 
   5  -2  -1   59.49    6.90 
  -5   2   1   46.80    5.80 
  -5   2   1   56.29    8.90 
  -5   2   1   41.80    5.20 
   4  -2  -1  763.12   43.30 
   4  -2  -1  678.43   50.49 
   4  -2  -1  721.53   44.90 
   4  -2  -1  771.02   42.60 
   4  -2  -1  810.22   42.40 
   4  -2  -1  782.02   43.40 
   4  -2  -1  684.83   43.90 
   4  -2  -1  772.02   43.00 
  -4   2   1  829.82   42.40 
  -4   2   1  812.72   47.20 
   3  -2  -1   27.80    3.70 
   3  -2  -1   23.50    4.30 
   3  -2  -1   31.70    6.00 
   3  -2  -1   28.30    3.50 
   3  -2  -1   28.10    4.60 
  -3   2   1   26.20    5.20 
  -3   2   1   26.60    3.30 
  -3   2   1   29.40    3.30 
   2  -2  -1  129.89   10.30 
   2  -2  -1  140.19   10.00 
   2  -2  -1  128.29    8.60 
   2  -2  -1  136.89    8.30 
  -2   2   1  159.78   17.90 
   1  -2  -1 1904.81   94.19 
   1  -2  -1 1814.12   95.39 
   1  -2  -1 1960.70   94.49 
  -1   2   1 1808.02   97.89 
  -1   2   1 1966.00   94.99 
  -1  -2  -1  219.88   13.60 
  -1  -2  -1  231.88   13.60 
   1   2   1  229.28   14.10 
   1   2   1  254.87   13.00 
   1   2   1  262.77   13.40 
   1   2   1  226.68   13.80 
  -2  -2  -1 1968.20  100.79 
  -2  -2  -1 2023.70  104.29 
   2   2   1 2115.09  101.49 
   2   2   1 2111.99  102.39 
   2   2   1 1999.90  101.89 
   2   2   1 2168.78  101.19 
   2   2   1 1996.90  102.99 
   2   2   1 1729.13  104.79 
  -3  -2  -1   14.40    4.30 
  -3  -2  -1   11.50    2.30 
   3   2   1   12.40    2.50 
   3   2   1   13.70    2.30 
   3   2   1   19.00    2.90 
   3   2   1    8.90    2.70 
   3   2   1   12.00    3.90 
   3   2   1   14.80    3.50 
   4   2   1 2581.84  145.39 
   4   2   1 2859.61  143.39 
   4   2   1 2614.34  145.29 
   4   2   1 2848.31  151.98 
   4   2   1 3133.49  146.39 
   4   2   1 2900.01  144.49 
   4   2   1 2894.51  143.39 
   4   2   1 2664.53  145.69 
   4   2   1 3032.10  146.09 
   4   2   1 2724.63  145.49 
  -5  -2  -1 1304.17   66.59 
   5   2   1 1305.37   67.89 
   5   2   1 1200.78   73.49 
   5   2   1 1294.67   68.29 
   5   2   1 1236.18   67.89 
   5   2   1 1282.17   68.29 
   5   2   1 1255.47   68.19 
   6   2   1   39.90    4.10 
   6   2   1   33.90    4.00 
   6   2   1   37.70    6.00 
   5  -3  -1  147.09   12.10 
   5  -3  -1  148.19   11.40 
   5  -3  -1  151.38   11.30 
   5  -3  -1  135.79   10.50 
   5  -3  -1  152.78   10.70 
   5  -3  -1  176.38   14.30 
  -5   3   1  136.09   11.10 
  -5   3   1  139.09    9.30 
   4  -3  -1   45.80    7.10 
   4  -3  -1   43.70    5.30 
   4  -3  -1   34.30    6.40 
   4  -3  -1   38.80    6.10 
   4  -3  -1   42.10    6.30 
   4  -3  -1   38.90    5.70 
   4  -3  -1   33.10    8.50 
   4  -3  -1   62.79    9.30 
   4  -3  -1   40.00    7.20 
  -4   3   1   39.80    5.30 
  -4   3   1   45.90    7.60 
   3  -3  -1  158.88   13.70 
   3  -3  -1  131.09   10.40 
   3  -3  -1  117.69   11.30 
   3  -3  -1  128.69    9.50 
   3  -3  -1  125.29    9.50 
  -3   3   1  157.88   10.10 
  -3   3   1  122.89    9.40 
  -3   3   1  132.19   12.10 
   2  -3  -1 3522.65  176.28 
   2  -3  -1 3536.75  179.38 
   2  -3  -1 3375.06  177.88 
   2  -3  -1 3481.65  177.28 
   2  -3  -1 3355.26  177.08 
  -2   3   1 3792.22  177.68 
  -2   3   1 3563.44  184.88 
  -2   3   1 3693.43  177.78 
   0  -3  -1 2076.39  107.49 
   0  -3  -1 2038.20  106.89 
   0  -3  -1 2197.28  106.19 
   0  -3  -1 2291.17  106.19 
   0   3   1 2097.39  106.79 
   0   3   1 2187.68  106.79 
   0   3   1 2019.30  106.99 
  -1  -3  -1 2038.30   96.89 
  -1  -3  -1 2125.29   97.99 
  -1  -3  -1 2006.80   97.59 
  -1  -3  -1 1717.93   97.79 
   1   3   1 1980.40   97.79 
   1   3   1 1689.23   97.69 
   1   3   1 2088.39   98.19 
   1   3   1 1826.62   98.69 
   1   3   1 2084.69   97.79 
   1   3   1 1870.41  100.49 
  -2  -3  -1 1185.18   59.29 
   2   3   1 1193.98   60.89 
   2   3   1 1159.58   60.59 
   2   3   1 1111.89   61.89 
   2   3   1 1071.39   64.29 
   2   3   1 1225.48   59.99 
   2   3   1 1245.68   59.79 
  -3  -3  -1  266.77   15.20 
  -3  -3  -1  276.47   19.60 
   3   3   1  261.37   16.70 
   3   3   1  288.07   15.70 
   3   3   1  258.67   16.10 
   3   3   1  246.68   15.20 
   3   3   1  264.57   18.30 
   3   3   1  265.87   17.10 
   3   3   1  243.48   21.10 
   4   3   1 3534.85  179.68 
   4   3   1 3420.76  179.98 
   4   3   1 3901.71  179.48 
   4   3   1 3448.25  180.18 
   4   3   1 3016.40  180.98 
   4   3   1 3340.67  187.58 
   4   3   1 3818.22  182.78 
   4   3   1 3455.55  179.68 
  -5  -3  -1  129.99    9.90 
   5   3   1  124.49    9.10 
   5   3   1  135.89   13.00 
   5   3   1  131.79   12.60 
   5   3   1  143.79   13.20 
   5   3   1  117.19   14.70 
   5  -4  -1  180.28   13.20 
   5  -4  -1  182.28   12.30 
   5  -4  -1  180.38   12.20 
   5  -4  -1  173.68   11.30 
   5  -4  -1  186.08   12.40 
  -5   4   1  140.49   10.20 
  -5   4   1  160.78   11.60 
   4  -4  -1  299.17   20.00 
   4  -4  -1  307.97   22.80 
   4  -4  -1  286.87   18.90 
   4  -4  -1  310.67   21.20 
   4  -4  -1  319.87   27.60 
   4  -4  -1  319.17   20.10 
   4  -4  -1  333.17   20.10 
   4  -4  -1  309.57   19.20 
   4  -4  -1  297.27   22.30 
  -4   4   1  290.57   22.50 
  -4   4   1  292.97   19.30 
  -4   4   1  292.77   17.90 
   3  -4  -1   68.89    6.40 
   3  -4  -1   61.99    7.90 
   3  -4  -1   63.09    6.90 
   3  -4  -1   76.89    6.80 
  -3   4   1   72.29    8.80 
  -3   4   1   73.59    6.70 
  -3   4   1   74.69    6.80 
   2  -4  -1  966.80   53.09 
   2  -4  -1  942.01   50.59 
   2  -4  -1  933.91   51.29 
   2  -4  -1  999.40   50.89 
  -2   4   1 1014.40   51.59 
  -2   4   1  982.90   53.49 
  -2   4   1 1079.79   51.49 
  -2   4   1  890.21   57.79 
   1  -4  -1 9641.24  483.95 
   1  -4  -1 9873.31  483.45 
   0  -4  -1 5108.79  301.07 
   0   4   1 6481.25  300.57 
   0   4   1 5807.12  300.77 
   0   4   1 6741.13  300.57 
  -1  -4  -1 1523.25   74.09 
  -1  -4  -1 1571.34   73.19 
  -1  -4  -1 1315.17   73.79 
   1   4   1 1306.37   73.59 
   1   4   1 1491.75   75.69 
   1   4   1 1517.05   74.19 
   1   4   1 1480.15   74.19 
  -2  -4  -1 2389.86  124.19 
  -2  -4  -1 2502.35  125.39 
  -2  -4  -1 2568.24  124.99 
  -2  -4  -1 2492.85  125.69 
   2   4   1 2558.94  125.29 
   2   4   1 2539.45  125.99 
   2   4   1 2650.03  126.39 
   2   4   1 2279.37  125.59 
   2   4   1 2407.86  131.39 
   2   4   1 2429.16  127.79 
  -3  -4  -1   19.70    3.60 
  -3  -4  -1   22.50    3.40 
  -3  -4  -1   20.10    3.10 
   3   4   1   15.20    3.60 
   3   4   1   16.60    4.40 
   3   4   1   17.50    6.30 
   3   4   1   22.70    4.20 
  -4  -4  -1  661.23   38.20 
  -4  -4  -1  639.04   37.30 
   4   4   1  639.24   37.30 
   4   4   1  721.83   39.70 
   4   4   1  686.43   40.30 
   4   4   1  686.43   40.80 
   4   4   1  649.24   39.50 
   4   4   1  685.73   47.10 
   4   4   1  688.93   37.80 
   4   4   1  712.93   37.80 
   4   4   1  660.83   40.50 
   4   4   1  709.63   41.50 
  -5  -4  -1  297.37   19.90 
   5   4   1  336.57   19.10 
   5   4   1  342.97   22.10 
   5   4   1  302.77   32.20 
   5   4   1  341.37   21.60 
   5   4   1  355.16   20.70 
   5   4   1  327.97   21.70 
   5  -5  -1    9.50    3.70 
   5  -5  -1    7.40    2.60 
   5  -5  -1    7.00    2.30 
   5  -5  -1   12.10    3.90 
   5  -5  -1    5.70    3.10 
   5  -5  -1    6.50    4.20 
   5  -5  -1   10.50    3.20 
  -5   5   1    6.10    2.60 
  -5   5   1    9.30    2.30 
   4  -5  -1  842.92   46.00 
   4  -5  -1  820.32   48.20 
   4  -5  -1  941.41   55.89 
   4  -5  -1  843.72   47.10 
   4  -5  -1  770.82   49.60 
   4  -5  -1  886.81   46.80 
   4  -5  -1  936.41   49.40 
   4  -5  -1  858.61   46.80 
  -4   5   1  817.82   44.70 
  -4   5   1  853.01   54.99 
  -4   5   1  786.62   46.80 
   3  -5  -1  535.35   29.10 
   3  -5  -1  491.85   32.10 
   3  -5  -1  529.45   33.60 
   3  -5  -1  541.65   30.10 
   3  -5  -1  464.65   31.10 
   3  -5  -1  521.45   30.00 
   3  -5  -1  465.75   33.00 
   3  -5  -1  532.85   30.10 
  -3   5   1  517.25   30.00 
  -3   5   1  564.64   33.30 
  -3   5   1  520.15   29.80 
   2  -5  -1 1392.26   79.59 
   2  -5  -1 1484.95   80.79 
   2  -5  -1 1489.75   77.19 
   2  -5  -1 1407.66   77.79 
  -2   5   1 1675.73   78.49 
  -2   5   1 1542.05   78.49 
  -2   5   1 1563.54   80.69 
   1  -5  -1 3903.11  201.58 
   1  -5  -1 4010.70  194.98 
   1  -5  -1 4059.79  195.78 
   1  -5  -1 4089.39  197.98 
   1  -5  -1 3563.44  194.28 
  -1   5   1 3469.65  200.28 
  -1   5   1 4242.38  198.48 
  -1   5   1 3960.50  196.38 
   0  -5  -1 1841.72   97.99 
   0  -5  -1 1971.60   95.69 
   0  -5  -1 1954.60   95.59 
   0  -5  -1 2052.79   97.39 
   0   5   1 2015.20   99.19 
   0   5   1 2097.49   96.99 
   0   5   1 1763.72   97.09 
   0   5   1 1788.52   97.29 
   0   5   1 1658.73   97.49 
  -1  -5  -1  607.44   30.30 
  -1  -5  -1  558.84   30.70 
  -1  -5  -1  598.94   29.00 
  -1  -5  -1  537.95   29.50 
   1   5   1  531.95   34.10 
   1   5   1  497.65   29.90 
   1   5   1  566.64   30.10 
   1   5   1  561.24   30.30 
  -2  -5  -1  547.85   30.00 
  -2  -5  -1  577.94   30.50 
   2   5   1  555.44   32.90 
   2   5   1  520.15   29.80 
   2   5   1  511.55   36.20 
   2   5   1  553.84   32.70 
   2   5   1  546.65   30.30 
  -3  -5  -1  748.43   37.70 
  -3  -5  -1  757.92   39.50 
  -3  -5  -1  730.43   39.20 
   3   5   1  716.03   39.40 
   3   5   1  653.23   39.90 
   3   5   1  727.83   40.00 
   3   5   1  635.84   47.00 
  -4  -5  -1  291.77   17.90 
  -4  -5  -1  292.87   21.30 
   4   5   1  244.78   21.40 
   4   5   1  238.78   24.70 
   4   5   1  272.37   17.50 
  -5  -5  -1    9.80    2.50 
   5   5   1    9.70    3.80 
   5   5   1    5.80    3.10 
   5   5   1    8.40    2.20 
   5   5   1   10.80    3.00 
   5   5   1    8.40    3.10 
   5  -6  -1    2.20    2.60 
   5  -6  -1    3.10    2.00 
   5  -6  -1    2.90    2.20 
   5  -6  -1    2.50    2.00 
  -5   6   1    2.20    1.90 
  -5   6   1    5.20    1.50 
   4  -6  -1  360.26   27.30 
   4  -6  -1  344.67   21.20 
   4  -6  -1  311.87   20.60 
   4  -6  -1  336.27   22.20 
   4  -6  -1  341.77   21.10 
   4  -6  -1  345.27   20.00 
   4  -6  -1  309.27   20.30 
   4  -6  -1  326.67   23.90 
  -4   6   1  331.37   21.10 
  -4   6   1  355.26   23.70 
  -4   6   1  346.07   20.50 
  -4   6   1  356.96   19.50 
   3  -6  -1 1747.03   95.69 
   3  -6  -1 1629.04   91.39 
   3  -6  -1 1782.62   90.79 
   3  -6  -1 1797.62   91.99 
   3  -6  -1 1793.72   97.19 
   3  -6  -1 1702.83   93.19 
   3  -6  -1 1847.12   92.19 
   3  -6  -1 1674.53  111.59 
   3  -6  -1 1717.23   91.59 
  -3   6   1 1732.13   89.99 
  -3   6   1 1785.32   92.09 
  -3   6   1 1685.93   92.29 
  -3   6   1 1928.11   95.79 
  -3   6   1 1892.01   91.49 
   2  -6  -1  542.75   32.70 
   2  -6  -1  463.15   28.80 
   2  -6  -1  444.66   31.90 
  -2   6   1  573.94   32.40 
  -2   6   1  491.45   29.40 
  -2   6   1  545.45   29.50 
   1  -6  -1  580.64   30.70 
   1  -6  -1  533.85   33.80 
   1  -6  -1  619.64   32.00 
  -1   6   1  515.15   36.20 
  -1   6   1  654.53   35.30 
  -1   6   1  631.64   32.40 
  -1   6   1  590.64   32.70 
   0  -6  -1  533.35   28.60 
   0  -6  -1  505.45   26.70 
   0  -6  -1  477.05   26.40 
   0  -6  -1  498.55   28.40 
   0   6   1  511.45   30.80 
   0   6   1  457.05   28.10 
   0   6   1  528.35   28.10 
  -1  -6  -1   19.70    3.20 
  -1  -6  -1   16.40    2.60 
  -1  -6  -1   16.20    2.80 
  -1  -6  -1   21.30    3.40 
   1   6   1   21.90    3.20 
   1   6   1   20.40    3.00 
   1   6   1   16.10    3.90 
   1   6   1   19.40    6.00 
   1   6   1   16.70    3.00 
  -2  -6  -1  149.59   10.50 
  -2  -6  -1  146.99   10.90 
  -2  -6  -1  142.59   10.00 
  -2  -6  -1  156.08    9.20 
   2   6   1  130.19   12.30 
   2   6   1  145.59   10.50 
   2   6   1  141.49   15.80 
   2   6   1  121.59    9.90 
  -3  -6  -1  749.33   41.70 
  -3  -6  -1  773.72   42.10 
   3   6   1  703.73   41.30 
   3   6   1  735.83   46.00 
   3   6   1  753.12   47.10 
   3   6   1  738.63   41.50 
   3   6   1  802.52   47.90 
   3   6   1  739.03   43.40 
  -4  -6  -1  577.54   31.70 
  -4  -6  -1  550.14   31.60 
   4   6   1  553.14   33.60 
   4   6   1  499.95   33.50 
   4   6   1  553.14   30.60 
   4   6   1  475.75   39.60 
   4   6   1  569.94   31.10 
   4   6   1  545.45   35.30 
   4   6   1  497.25   33.30 
   4   6   1  547.75   30.70 
  -5  -6  -1   59.39    5.70 
   5   6   1   66.19    5.30 
   5   6   1   76.59   10.50 
   5   6   1   65.09    6.50 
   5   6   1   64.99    7.70 
   4  -7  -1  251.17   16.20 
   4  -7  -1  264.17   19.40 
   4  -7  -1  243.48   16.40 
   4  -7  -1  256.87   17.20 
   4  -7  -1  258.97   15.90 
  -4   7   1  230.98   16.20 
  -4   7   1  264.47   14.80 
  -4   7   1  289.77   16.00 
   3  -7  -1  184.88   11.70 
   3  -7  -1  192.48   12.30 
   3  -7  -1  184.18   21.10 
  -3   7   1  163.28   13.00 
  -3   7   1  162.18   12.40 
  -3   7   1  143.49   14.20 
  -3   7   1  187.88   15.60 
   2  -7  -1  246.18   16.50 
   2  -7  -1  252.67   28.60 
   2  -7  -1  212.58   17.20 
   2  -7  -1  234.28   18.90 
   2  -7  -1  237.78   18.00 
   2  -7  -1  259.97   21.10 
   2  -7  -1  246.28   14.60 
   2  -7  -1  227.58   15.10 
  -2   7   1  233.88   14.20 
  -2   7   1  248.78   16.70 
  -2   7   1  243.68   16.00 
  -2   7   1  276.67   19.60 
  -2   7   1  255.37   15.90 
   1  -7  -1  525.25   29.60 
   1  -7  -1  511.65   32.20 
  -1   7   1  528.25   30.70 
  -1   7   1  576.74   34.00 
   0  -7  -1 1650.83   86.69 
   0   7   1 1635.54   89.99 
   0   7   1 1631.04   86.49 
   0   7   1 1710.03   86.19 
  -1  -7  -1  455.85   24.90 
  -1  -7  -1  386.46   23.00 
  -1  -7  -1  414.96   22.70 
  -1  -7  -1  406.16   25.00 
   1   7   1  402.46   23.70 
   1   7   1  386.66   29.10 
   1   7   1  449.26   24.60 
   1   7   1  419.56   23.70 
  -2  -7  -1  107.09    9.40 
  -2  -7  -1  112.59    9.80 
  -2  -7  -1  103.99    8.20 
  -2  -7  -1  100.79    8.80 
   2   7   1   92.69    8.70 
   2   7   1   89.19   12.90 
   2   7   1   89.89    8.20 
   2   7   1   99.09   10.80 
   2   7   1   94.09   11.80 
   2   7   1   99.99   10.50 
  -3  -7  -1   91.19    8.80 
  -3  -7  -1   99.99    8.10 
  -3  -7  -1  101.19    9.30 
   3   7   1   92.49   13.90 
   3   7   1  106.19    8.70 
   3   7   1  110.69   10.60 
   3   7   1   95.69    8.50 
   3   7   1   92.99   10.90 
   3   7   1  105.89    9.10 
   3   7   1   95.49   11.10 
   3   7   1   95.79   10.40 
   3   7   1   92.09    9.00 
  -4  -7  -1  212.38   14.70 
  -4  -7  -1  207.68   14.80 
  -4  -7  -1  211.68   13.10 
   4   7   1  169.78   27.70 
   4   7   1  212.38   17.60 
   4   7   1  230.58   16.90 
   4   7   1  209.88   14.40 
  -5  -7  -1   50.99    4.10 
   5   7   1   59.09    5.00 
   5   7   1   50.39    5.30 
   5   7   1   49.20    4.20 
   5   7   1   50.09    5.40 
   4  -8  -1   54.29    8.20 
   4  -8  -1   55.49    6.50 
   4  -8  -1   74.89    6.50 
   4  -8  -1   68.09    6.00 
  -4   8   1   68.19    5.00 
  -4   8   1   71.79    6.20 
  -4   8   1   60.99    5.70 
   3  -8  -1   90.99    8.80 
   3  -8  -1   82.59    9.90 
   3  -8  -1   80.29    8.10 
   3  -8  -1   91.49    8.10 
   3  -8  -1   80.29   16.20 
  -3   8   1   93.29    7.80 
  -3   8   1   88.99    6.50 
  -3   8   1   78.69    9.50 
  -3   8   1   92.69    8.20 
   2  -8  -1   56.39   12.40 
   2  -8  -1   60.99    8.50 
   2  -8  -1   67.39    7.50 
   2  -8  -1   75.29    7.00 
   2  -8  -1   71.19    9.20 
  -2   8   1   67.59    9.10 
  -2   8   1   74.39    7.10 
  -2   8   1   54.19    7.10 
  -2   8   1   64.69    5.30 
  -2   8   1   66.09    7.30 
   1  -8  -1  370.16   26.80 
   1  -8  -1  355.66   24.80 
   1  -8  -1  456.05   40.10 
   1  -8  -1  398.36   25.80 
   1  -8  -1  365.56   26.90 
  -1   8   1  371.96   24.30 
  -1   8   1  379.26   23.90 
  -1   8   1  395.76   27.70 
  -1   8   1  451.75   27.40 
   0  -8  -1 1021.20   54.49 
   0  -8  -1 1071.49   57.19 
   0  -8  -1 1056.49   82.19 
   0   8   1 1049.09   61.49 
   0   8   1 1024.50   56.19 
  -1  -8  -1   10.90    6.80 
  -1  -8  -1   10.00    2.40 
  -1  -8  -1   10.80    3.20 
  -1  -8  -1    7.80    3.00 
   1   8   1   13.10    3.60 
   1   8   1   10.30    2.70 
   1   8   1   15.70    3.40 
   1   8   1   10.70    3.70 
   1   8   1   10.40    5.30 
   1   8   1   11.90    3.30 
   1   8   1   11.50    3.70 
   1   8   1    6.30    2.80 
   1   8   1    6.10    6.00 
  -2  -8  -1  245.78   17.30 
  -2  -8  -1  233.28   15.00 
  -2  -8  -1  254.57   16.80 
   2   8   1  244.88   18.00 
   2   8   1  245.98   16.00 
   2   8   1  207.28   17.40 
   2   8   1  242.68   16.70 
   2   8   1  235.88   17.80 
   2   8   1  242.08   18.70 
   2   8   1  239.88   16.20 
   2   8   1  249.18   22.90 
   2   8   1  250.47   15.40 
  -3  -8  -1  380.06   25.00 
  -3  -8  -1  406.86   23.10 
  -3  -8  -1  449.46   25.10 
   3   8   1  415.76   24.20 
   3   8   1  392.96   24.20 
   3   8   1  355.96   31.20 
   3   8   1  410.26   24.20 
   3   8   1  404.96   26.30 
   3   8   1  359.86   25.70 
   3   8   1  411.36   23.50 
   3   8   1  391.06   25.60 
  -4  -8  -1   20.00    3.20 
  -4  -8  -1   25.30    3.70 
  -4  -8  -1   25.10    4.20 
   4   8   1   23.50    3.40 
   4   8   1   28.80    4.60 
   4   8   1   25.30    4.10 
   4   8   1   19.50    4.20 
   4   8   1   25.30    3.90 
   4   8   1   27.10    5.10 
   4  -9  -1    4.80    1.80 
   4  -9  -1    5.80    2.20 
   4  -9  -1    8.80    2.10 
  -4   9   1    8.70    1.90 
   3  -9  -1  217.68   13.20 
   3  -9  -1  226.88   14.30 
   3  -9  -1  178.98   15.20 
  -3   9   1  215.98   11.80 
  -3   9   1  207.28   13.90 
  -3   9   1  216.88   13.60 
   2  -9  -1    8.60    6.60 
   2  -9  -1    9.10    3.10 
   2  -9  -1   18.10    4.80 
   2  -9  -1   14.20    3.30 
  -2   9   1   14.20    3.40 
  -2   9   1   14.00    2.10 
  -2   9   1   16.30    3.40 
  -2   9   1   16.50    6.00 
   1  -9  -1  204.78   15.20 
   1  -9  -1  196.38   15.10 
   1  -9  -1  222.68   24.60 
   1  -9  -1  168.68   14.40 
  -1   9   1  160.88   12.90 
  -1   9   1  177.38   17.10 
  -1   9   1  185.88   13.50 
  -1   9   1  164.48   13.30 
  -1   9   1  174.48   13.70 
   0  -9  -1  792.52   43.70 
   0  -9  -1  907.21   48.60 
   0  -9  -1  979.60   62.99 
   0  -9  -1  838.12   48.20 
   0   9   1  807.72   47.60 
   0   9   1  835.72   47.20 
   0   9   1  831.42   46.90 
   0   9   1  823.92   47.40 
   0   9   1  876.31   53.49 
  -1  -9  -1  300.57   29.20 
  -1  -9  -1  314.07   20.80 
  -1  -9  -1  321.17   22.60 
  -1  -9  -1  323.27   19.40 
  -1  -9  -1  317.77   18.40 
   1   9   1  289.57   25.50 
   1   9   1  325.17   19.60 
   1   9   1  325.07   22.80 
   1   9   1  313.07   20.70 
   1   9   1  323.07   21.00 
   1   9   1  318.07   19.00 
   1   9   1  264.37   24.60 
   1   9   1  304.47   21.00 
  -2  -9  -1  107.49    9.00 
  -2  -9  -1  103.89    8.00 
  -2  -9  -1   88.59    9.10 
   2   9   1  104.09    9.10 
   2   9   1  107.59    9.90 
   2   9   1  103.49    8.00 
   2   9   1   89.29    9.40 
   2   9   1   96.99    9.60 
   2   9   1   95.89   15.20 
   2   9   1  102.39    8.50 
   2   9   1  104.39   10.30 
  -3  -9  -1   27.30    3.90 
  -3  -9  -1   29.80    5.00 
  -3  -9  -1   23.70    4.50 
   3   9   1   24.10    4.80 
   3   9   1   24.30    4.60 
   3   9   1   27.60    5.70 
   3   9   1   37.90    5.00 
   3   9   1   26.40    4.80 
   3   9   1   25.10    4.00 
  -4  -9  -1  102.39    6.70 
   4   9   1   87.49    7.50 
   4   9   1   92.49    6.50 
   4   9   1   93.89    7.60 
   4   9   1  100.09    7.60 
   4   9   1   97.99    7.20 
   3 -10  -1    4.70    2.50 
   3 -10  -1    6.20    3.90 
   3 -10  -1    6.30    1.90 
  -3  10   1    6.80    2.10 
  -3  10   1    3.50    2.00 
   2 -10  -1   26.00    5.20 
   2 -10  -1   27.90    4.50 
  -2  10   1   17.80    3.50 
  -2  10   1   19.50    3.90 
  -2  10   1   21.40    3.70 
   1 -10  -1  125.09   19.40 
   1 -10  -1  140.89   12.40 
  -1  10   1  149.88   11.50 
  -1  10   1  142.99   14.50 
  -1  10   1  138.89   11.30 
   0 -10  -1    7.40    6.80 
   0 -10  -1    9.40    4.00 
   0  10   1   11.80    4.10 
   0  10   1   10.40    5.30 
   0  10   1    9.60    3.30 
   0  10   1   11.10    3.60 
  -1 -10  -1  285.57   27.90 
  -1 -10  -1  311.37   16.90 
   1  10   1  310.67   18.40 
   1  10   1  261.77   23.90 
   1  10   1  312.67   19.90 
   1  10   1  293.77   19.70 
   1  10   1  281.77   19.80 
  -2 -10  -1    2.10    2.80 
  -2 -10  -1    3.80    1.90 
  -2 -10  -1    7.70    2.80 
   2  10   1   -1.10    4.40 
   2  10   1    3.70    1.60 
   2  10   1    2.20    2.70 
   2  10   1    2.20    2.40 
   2  10   1    3.50    2.60 
   2  10   1    0.50    2.00 
   2  10   1    1.50    2.30 
   2  10   1    1.30    2.20 
  -3 -10  -1   23.40    4.20 
  -3 -10  -1   20.50    3.30 
  -3 -10  -1   17.60    3.30 
   3  10   1   26.80    4.40 
   3  10   1   26.50    4.30 
   3  10   1   25.60    3.60 
   3  10   1   19.90    2.60 
   3  10   1   15.10    5.00 
   2 -11  -1    6.20    4.30 
   2 -11  -1   10.40    2.50 
  -2  11   1    8.90    2.50 
  -2  11   1   10.20    2.60 
   1 -11  -1   12.40    6.40 
   1 -11  -1   19.50    3.90 
  -1  11   1   11.90    3.00 
   0 -11  -1   75.39   13.30 
   0 -11  -1   80.39    7.90 
   0  11   1   73.89    7.20 
   0  11   1   58.99    6.30 
  -1 -11  -1   28.00    4.70 
  -1 -11  -1   34.20    5.30 
   1  11   1   20.50    4.20 
   1  11   1   33.10    4.30 
   1  11   1   27.80    4.60 
  -2 -11  -1   36.10    2.90 
   2  11   1   32.40    4.10 
   2  11   1   34.60    4.60 
   2  11   1   38.40    4.90 
   1 -12  -1    5.50    3.90 
  -1  12   1    7.30    2.10 
   0 -12  -1   18.90    6.30 
   0 -12  -1   35.10    4.20 
   0  12   1   22.20    3.50 
   0  12   1   31.30    3.70 
  -1 -12  -1   15.00    7.40 
  -1 -12  -1   26.90    4.20 
   1  12   1   20.30    3.50 
   1  12   1   25.80    3.60 
   0  12  -2    7.20    2.90 
   0 -12   2    5.90    3.10 
   2  11  -2    5.00    1.90 
  -2 -11   2    7.30    3.30 
   1  11  -2   62.79    7.80 
   1  11  -2   74.19    6.50 
  -1 -11   2   63.59    8.30 
  -1 -11   2   60.89    6.00 
   0  11  -2   54.09    5.80 
   0 -11   2   44.60    9.30 
   0 -11   2   52.19    6.60 
  -1  11  -2   29.10    4.80 
  -1  11  -2   21.50    4.60 
   1 -11   2   22.70    7.90 
  -2  11  -2    7.70    2.00 
  -2  11  -2    9.30    2.30 
   2 -11   2    4.90    3.40 
   2 -11   2    4.00    4.00 
   3  10  -2    7.80    1.60 
   3  10  -2   10.90    2.50 
   3  10  -2   10.00    2.20 
  -3 -10   2   10.30    2.60 
   2  10  -2   69.89    6.40 
   2  10  -2   70.19    7.30 
   2  10  -2   79.29    7.10 
  -2 -10   2   75.99    7.40 
  -2 -10   2   80.19    8.90 
  -2 -10   2   75.89    7.30 
   1  10  -2   43.20    5.30 
   1  10  -2   39.50    5.20 
   1  10  -2   36.90    6.50 
  -1 -10   2   29.80    5.30 
   0  10  -2   18.60    3.90 
   0  10  -2   28.20    5.20 
   0 -10   2   26.10   10.30 
   0 -10   2   23.60    5.40 
   0 -10   2   30.80    6.00 
  -1  10  -2   45.70    6.50 
   1 -10   2   46.90    7.80 
   1 -10   2   60.19   12.80 
  -2  10  -2    2.90    2.40 
  -2  10  -2    0.60    1.70 
   2 -10   2    2.50    3.30 
   2 -10   2    1.40    2.00 
   2 -10   2   -3.10    3.30 
  -3  10  -2  115.79    8.30 
  -3  10  -2  119.69    8.20 
   3 -10   2  118.09    8.90 
   3 -10   2   92.19   14.30 
   3 -10   2  112.39    8.10 
   3   9  -2   11.40    3.00 
   3   9  -2   15.20    3.50 
   3   9  -2    8.80    2.70 
   3   9  -2   10.70    2.80 
   3   9  -2    4.40    2.60 
  -3  -9   2    9.30    2.00 
  -3  -9   2    8.00    3.10 
   2   9  -2   32.70    7.60 
   2   9  -2   37.70    5.60 
   2   9  -2   30.80    7.80 
   2   9  -2   33.60    5.90 
  -2  -9   2   31.60    3.80 
  -2  -9   2   26.10    4.50 
  -2  -9   2   26.00    5.60 
   1   9  -2   56.09    7.40 
   1   9  -2   47.80    7.40 
   1   9  -2   57.19   13.80 
   1   9  -2   79.69    7.10 
   1   9  -2   62.19    7.70 
   1   9  -2   65.79   12.00 
  -1  -9   2   63.69    8.50 
  -1  -9   2   66.39    5.10 
  -1  -9   2   68.39    9.10 
   0   9  -2  357.76   24.40 
   0   9  -2  290.77   25.00 
   0   9  -2  324.27   22.40 
   0  -9   2  312.87   24.00 
   0  -9   2  346.27   23.70 
   0  -9   2  332.37   34.00 
   0  -9   2  324.87   24.60 
  -1   9  -2  337.77   26.30 
  -1   9  -2  315.07   21.30 
  -1   9  -2  282.87   24.40 
   1  -9   2  369.46   30.30 
   1  -9   2  318.87   25.70 
   1  -9   2  368.16   38.30 
  -2   9  -2  118.39    9.90 
  -2   9  -2  110.09    9.60 
  -2   9  -2  110.99    7.30 
   2  -9   2  110.39   11.10 
   2  -9   2  112.19    9.70 
   2  -9   2  102.59   10.30 
   2  -9   2  101.79   18.30 
  -3   9  -2   99.99    6.80 
  -3   9  -2  101.69    8.30 
   3  -9   2  101.79    9.30 
   3  -9   2  102.99    8.50 
   3  -9   2   68.29   14.50 
  -4   9  -2   29.00    2.60 
  -4   9  -2   31.90    4.20 
   4  -9   2   27.40    3.70 
   4  -9   2   34.10    4.50 
   4  -9   2   25.20    3.10 
   4  -9   2   20.50    6.20 
   4   8  -2   13.20    3.00 
   4   8  -2   10.90    2.60 
   4   8  -2   19.20    3.60 
   4   8  -2   14.00    2.60 
   4   8  -2   13.40    2.40 
   4   8  -2   12.30    3.30 
  -4  -8   2   18.80    2.60 
  -4  -8   2   22.40    3.60 
   3   8  -2    8.90    3.20 
   3   8  -2    3.00    5.30 
   3   8  -2   10.30    2.50 
   3   8  -2    4.50    3.00 
   3   8  -2    4.80    3.40 
  -3  -8   2    5.90    3.20 
  -3  -8   2    6.60    2.70 
   2   8  -2   90.79   12.30 
   2   8  -2   54.39   10.70 
   2   8  -2   78.59   12.70 
   2   8  -2   64.89    9.90 
   2   8  -2   77.19    7.80 
   2   8  -2   82.09   12.30 
   2   8  -2   69.29    9.10 
   2   8  -2   90.49   11.00 
   2   8  -2   87.59   11.30 
  -2  -8   2   85.69    8.80 
  -2  -8   2   73.49    8.90 
  -2  -8   2   75.89    8.10 
  -2  -8   2   84.49    7.90 
  -2  -8   2   62.79    7.60 
   1   8  -2    9.40    4.50 
   1   8  -2   18.90    4.30 
   1   8  -2   13.60    4.70 
   1   8  -2   13.30    3.50 
   1   8  -2    9.60    3.80 
   1   8  -2    6.20    3.50 
   1   8  -2    7.40    5.20 
  -1  -8   2   14.90    4.60 
  -1  -8   2   14.00    2.60 
  -1  -8   2   10.90    2.90 
  -1  -8   2   14.90    3.60 
   0   8  -2  236.78   16.70 
   0   8  -2  271.37   16.90 
   0   8  -2  257.07   20.80 
   0  -8   2  307.47   28.50 
   0  -8   2  249.58   17.10 
   0  -8   2  269.17   16.50 
   0  -8   2  255.47   17.60 
  -1   8  -2   90.09    7.80 
  -1   8  -2   84.99    8.40 
  -1   8  -2   93.69    7.00 
  -1   8  -2  113.19   11.40 
  -1   8  -2  108.29    9.30 
   1  -8   2   83.19   10.60 
   1  -8   2   90.89    9.00 
   1  -8   2  118.39   18.40 
  -2   8  -2   76.19    6.20 
  -2   8  -2   69.19    7.30 
  -2   8  -2   60.09    7.50 
  -2   8  -2   78.49    6.30 
  -2   8  -2   88.99    7.10 
  -2   8  -2   80.59    7.50 
   2  -8   2   67.99    9.20 
   2  -8   2   84.49   16.00 
   2  -8   2   85.09   10.20 
   2  -8   2   81.49    8.30 
   2  -8   2   82.09    7.60 
   2  -8   2   82.89    7.10 
   2  -8   2   60.29    9.80 
  -3   8  -2   95.39    7.10 
  -3   8  -2  106.69    7.30 
  -3   8  -2  102.59    8.70 
   3  -8   2   94.29   17.80 
   3  -8   2   94.89    8.60 
   3  -8   2  100.89    9.10 
   3  -8   2   90.49    8.00 
   3  -8   2   98.89    7.50 
   3  -8   2   94.39    8.30 
   3  -8   2   88.99    9.90 
  -4   8  -2   65.79    5.20 
  -4   8  -2   68.19    6.90 
  -4   8  -2   62.89    5.70 
  -4   8  -2   51.49    5.70 
   4  -8   2   79.89    7.00 
   4  -8   2   62.19    7.20 
   4  -8   2   68.39    5.90 
   4  -8   2   71.59    7.10 
   4   7  -2   98.49    7.60 
   4   7  -2  101.39    9.10 
   4   7  -2   98.99    8.50 
   4   7  -2  101.89    9.90 
   4   7  -2  100.79   11.00 
   4   7  -2   92.89    8.70 
  -4  -7   2  104.79    7.40 
  -4  -7   2   83.09    8.00 
  -4  -7   2  104.49   10.20 
  -4  -7   2  102.69    8.00 
   3   7  -2   28.00    5.70 
   3   7  -2   26.00    4.30 
   3   7  -2   29.90    5.80 
   3   7  -2   25.50    5.70 
   3   7  -2   14.50    6.50 
   3   7  -2   17.40    4.10 
  -3  -7   2   26.80    4.70 
  -3  -7   2   26.50    4.00 
   2   7  -2    9.50    3.40 
   2   7  -2   14.90    4.20 
   2   7  -2    8.60    4.10 
   2   7  -2   10.30    3.40 
   2   7  -2    9.50    5.20 
   2   7  -2    9.60    2.40 
   2   7  -2    3.10    4.60 
   2   7  -2    9.40    3.30 
   2   7  -2   10.50    3.90 
  -2  -7   2    9.30    2.80 
  -2  -7   2    4.30    3.10 
  -2  -7   2   10.40    2.90 
  -2  -7   2   11.60    3.00 
   1   7  -2  141.79   10.30 
   1   7  -2  140.99   10.30 
   1   7  -2  123.39   14.00 
   1   7  -2  145.69   12.50 
  -1  -7   2  133.59    8.70 
  -1  -7   2  144.79   10.60 
  -1  -7   2  132.39   10.80 
  -1  -7   2  148.69   10.50 
   0   7  -2   18.60    3.20 
   0   7  -2   11.80    3.20 
   0   7  -2   14.40    2.40 
   0   7  -2   11.10    3.00 
   0   7  -2   16.60    5.10 
   0  -7   2   20.30    4.50 
   0  -7   2   11.80    2.30 
  -1   7  -2  542.45   28.30 
  -1   7  -2  507.55   33.70 
  -1   7  -2  535.25   27.60 
  -1   7  -2  442.66   32.10 
  -1   7  -2  530.25   29.70 
   1  -7   2  512.85   28.30 
   1  -7   2  543.65   33.80 
  -2   7  -2  162.98   12.20 
  -2   7  -2  167.18   10.80 
  -2   7  -2  196.58   14.90 
  -2   7  -2  182.38   12.40 
  -2   7  -2  167.38   12.80 
  -2   7  -2  165.58   10.60 
   2  -7   2  167.98   14.20 
   2  -7   2  146.09   13.30 
   2  -7   2  171.58   12.50 
   2  -7   2  173.48   13.20 
   2  -7   2  141.59   10.70 
   2  -7   2  170.48   11.60 
   2  -7   2  192.88   24.30 
   2  -7   2  170.48   16.30 
  -3   7  -2  226.48   13.60 
  -3   7  -2  231.78   13.70 
  -3   7  -2  217.78   15.30 
  -3   7  -2  216.58   15.90 
   3  -7   2  242.18   18.30 
   3  -7   2  214.28   14.20 
   3  -7   2  198.38   18.80 
   3  -7   2  233.98   16.70 
   3  -7   2  216.18   28.30 
   3  -7   2  204.88   14.70 
   3  -7   2  240.38   15.90 
   3  -7   2  232.78   20.00 
  -4   7  -2   12.30    2.60 
  -4   7  -2   16.20    3.20 
  -4   7  -2   10.90    3.30 
  -4   7  -2   11.90    2.50 
   4  -7   2   15.70    3.30 
   4  -7   2   16.40    4.30 
   4  -7   2   14.80    2.60 
   4  -7   2   12.70    4.10 
   4  -7   2    7.50    7.00 
   4  -7   2    8.10    4.00 
   4  -7   2    8.00    4.50 
   4  -7   2   12.40    3.10 
  -5   7  -2    8.50    1.70 
   5  -7   2    6.30    2.80 
   5  -7   2    8.80    2.20 
   5  -7   2    7.60    1.80 
   5  -7   2    6.10    3.10 
   5  -7   2    7.20    2.30 
   4   6  -2   25.70    5.10 
   4   6  -2   26.40    4.30 
   4   6  -2   22.40    4.70 
   4   6  -2   26.40    4.60 
   4   6  -2   15.20    3.90 
   4   6  -2   18.70    6.10 
   4   6  -2   21.50    5.70 
  -4  -6   2   28.40    7.20 
  -4  -6   2   31.40    3.70 
  -4  -6   2   24.20    4.40 
  -4  -6   2   24.30    4.30 
   3   6  -2   34.90    9.50 
   3   6  -2   20.30    5.00 
   3   6  -2   42.70    5.50 
   3   6  -2   28.10    4.90 
   3   6  -2   25.10    5.40 
   3   6  -2   17.40    5.40 
   3   6  -2   47.00    7.20 
   3   6  -2   28.90    4.50 
   3   6  -2   25.30    6.60 
  -3  -6   2   37.00    4.70 
  -3  -6   2   31.90    5.10 
  -3  -6   2   33.60    5.50 
  -3  -6   2   33.00    4.30 
   2   6  -2  439.46   29.10 
   2   6  -2  429.66   26.50 
   2   6  -2  459.85   26.50 
   2   6  -2  422.96   32.80 
  -2  -6   2  473.75   26.10 
  -2  -6   2  467.75   26.70 
  -2  -6   2  452.85   25.40 
  -2  -6   2  438.56   27.30 
   1   6  -2  250.37   16.60 
   1   6  -2  297.77   18.10 
   1   6  -2  262.57   21.30 
   1   6  -2  267.97   15.70 
   1   6  -2  272.07   18.90 
  -1  -6   2  285.87   16.60 
  -1  -6   2  269.17   20.30 
  -1  -6   2  271.47   17.60 
   0   6  -2  509.95   27.60 
   0   6  -2  504.35   26.50 
   0   6  -2  526.85   27.50 
   0   6  -2  496.35   26.80 
   0   6  -2  479.05   31.20 
   0  -6   2  471.05   32.40 
   0  -6   2  483.05   27.60 
   0  -6   2  529.05   28.00 
   0  -6   2  505.05   26.20 
  -1   6  -2  135.59    9.90 
  -1   6  -2  126.79   11.10 
  -1   6  -2  137.29    9.70 
  -1   6  -2  137.09    8.40 
   1  -6   2  137.09   10.10 
   1  -6   2  142.19    9.20 
   1  -6   2  118.19    8.20 
   1  -6   2  154.48   21.30 
  -2   6  -2  180.78   12.30 
  -2   6  -2  184.68   10.80 
  -2   6  -2  182.68   13.70 
  -2   6  -2  171.08   12.70 
   2  -6   2  163.98   11.10 
   2  -6   2  180.88   11.90 
   2  -6   2  146.99   12.80 
  -3   6  -2  471.65   27.00 
  -3   6  -2  489.05   29.70 
  -3   6  -2  506.95   28.80 
   3  -6   2  439.26   28.10 
   3  -6   2  508.85   28.60 
   3  -6   2  477.75   28.70 
   3  -6   2  464.25   34.50 
   3  -6   2  474.95   29.20 
   3  -6   2  582.84   48.00 
   3  -6   2  506.25   27.60 
   3  -6   2  500.55   32.00 
  -4   6  -2  177.48   12.80 
  -4   6  -2  182.18   11.10 
   4  -6   2  199.28   18.30 
   4  -6   2  171.08   11.90 
   4  -6   2  168.58   13.10 
   4  -6   2  174.58   12.70 
   4  -6   2  162.88   12.40 
   4  -6   2  156.58   23.90 
   4  -6   2  178.18   15.70 
   4  -6   2  169.38   13.40 
  -5   6  -2  304.47   16.60 
  -5   6  -2  254.67   17.50 
   5  -6   2  314.57   20.90 
   5  -6   2  320.87   19.20 
   5  -6   2  313.67   19.70 
   5  -6   2  285.87   21.80 
   5  -6   2  332.27   19.70 
   5  -6   2  309.97   17.40 
   5   5  -2   72.79    6.70 
   5   5  -2   78.49    7.10 
   5   5  -2   73.99    6.80 
   5   5  -2   66.49    5.40 
   5   5  -2   68.79    6.80 
  -5  -5   2   71.99    5.60 
   4   5  -2  409.46   33.70 
   4   5  -2  420.46   29.40 
   4   5  -2  471.35   30.30 
   4   5  -2  440.06   29.20 
   4   5  -2  480.05   26.80 
   4   5  -2  494.05   29.40 
   4   5  -2  454.75   27.20 
  -4  -5   2  467.75   26.50 
  -4  -5   2  510.35   29.20 
  -4  -5   2  497.45   27.70 
   3   5  -2  183.88   13.90 
   3   5  -2  175.18   15.90 
   3   5  -2  156.98   15.00 
   3   5  -2  187.28   21.50 
   3   5  -2  194.68   16.30 
   3   5  -2  191.28   12.80 
   3   5  -2  192.18   13.40 
   3   5  -2  194.18   15.30 
   3   5  -2  191.48   12.80 
   3   5  -2  163.98   15.20 
   3   5  -2  193.88   14.30 
  -3  -5   2  177.88   13.10 
  -3  -5   2  208.08   13.60 
  -3  -5   2  186.18   14.20 
  -3  -5   2  198.78   14.00 
   2   5  -2  365.36   22.30 
   2   5  -2  362.56   21.80 
   2   5  -2  374.96   24.40 
   2   5  -2  345.87   21.80 
   2   5  -2  398.86   26.70 
   2   5  -2  363.06   21.10 
   2   5  -2  338.27   27.50 
  -2  -5   2  369.96   20.10 
  -2  -5   2  388.66   25.50 
  -2  -5   2  380.56   22.00 
  -2  -5   2  348.27   22.40 
  -2  -5   2  375.56   22.20 
   1   5  -2 2452.55  128.39 
   1   5  -2 2404.06  131.39 
   1   5  -2 2397.06  126.29 
   1   5  -2 2581.14  125.59 
   1   5  -2 2498.25  126.39 
   1   5  -2 2500.35  126.39 
  -1  -5   2 2498.85  129.99 
  -1  -5   2 2416.16  126.49 
  -1  -5   2 2517.65  124.59 
  -1  -5   2 2633.84  125.99 
  -1  -5   2 2527.85  127.39 
   0   5  -2 3026.50  147.59 
   0   5  -2 2778.42  151.58 
   0   5  -2 2988.90  148.39 
   0   5  -2 2787.12  149.79 
   0   5  -2 2869.01  147.89 
   0  -5   2 3106.19  164.08 
   0  -5   2 3007.60  148.59 
   0  -5   2 3074.89  147.19 
  -1   5  -2  325.67   18.50 
  -1   5  -2  360.36   18.70 
  -1   5  -2  314.47   19.60 
  -1   5  -2  320.07   17.00 
  -1   5  -2  289.37   18.10 
   1  -5   2  318.07   17.30 
   1  -5   2  311.37   23.80 
   1  -5   2  305.17   18.60 
   1  -5   2  295.37   16.80 
   1  -5   2  305.77   17.80 
  -2   5  -2  255.47   16.00 
  -2   5  -2  252.17   16.40 
  -2   5  -2  269.97   15.60 
   2  -5   2  236.38   16.10 
   2  -5   2  256.27   14.80 
   2  -5   2  244.98   23.10 
   2  -5   2  223.48   14.60 
   2  -5   2  244.08   15.30 
  -3   5  -2   35.20    5.30 
  -3   5  -2   40.50    5.10 
   3  -5   2   40.50    6.20 
   3  -5   2   36.30    4.70 
   3  -5   2   36.70    5.30 
  -4   5  -2   46.80    6.70 
  -4   5  -2   54.29    6.00 
   4  -5   2   52.29   15.40 
   4  -5   2   50.49    8.30 
   4  -5   2   49.90   10.20 
   4  -5   2   51.79    6.50 
   4  -5   2   46.10   10.70 
   4  -5   2   62.29    6.00 
  -5   5  -2   99.59    7.90 
  -5   5  -2   82.69    7.90 
   5  -5   2  113.09    8.30 
   5  -5   2   96.39    7.80 
   5  -5   2   96.79    9.10 
   5  -5   2  107.69    8.80 
   5  -5   2  102.19    9.00 
   5   4  -2   33.50    4.00 
   5   4  -2   33.70    5.00 
   5   4  -2   36.90    5.50 
   5   4  -2   39.70    5.10 
  -5  -4   2   28.70    3.80 
  -5  -4   2   24.80    4.50 
   4   4  -2  370.66   25.00 
   4   4  -2  390.76   22.70 
   4   4  -2  434.96   24.50 
   4   4  -2  368.86   26.00 
   4   4  -2  392.36   25.40 
   4   4  -2  368.76   30.20 
   4   4  -2  382.46   24.20 
   4   4  -2  402.96   25.00 
   4   4  -2  377.56   25.50 
  -4  -4   2  387.26   23.60 
  -4  -4   2  365.66   23.60 
  -4  -4   2  358.56   27.80 
  -4  -4   2  363.76   22.30 
   3   4  -2 1143.39   58.49 
   3   4  -2 1085.09   67.59 
   3   4  -2 1072.89   60.19 
   3   4  -2 1126.79   60.69 
   3   4  -2 1076.09   58.99 
   3   4  -2 1130.99   59.29 
   3   4  -2 1190.08   63.39 
   3   4  -2 1077.49   61.69 
  -3  -4   2 1120.39   59.69 
  -3  -4   2 1122.89   58.09 
  -3  -4   2 1100.29   60.29 
   2   4  -2  760.02   44.00 
   2   4  -2  861.21   43.70 
   2   4  -2  759.82   49.90 
   2   4  -2  838.32   44.60 
   2   4  -2  748.03   44.80 
   2   4  -2  898.11   45.60 
   2   4  -2  871.71   47.30 
   2   4  -2  968.20   51.19 
  -2  -4   2  883.81   48.40 
  -2  -4   2  842.52   45.20 
  -2  -4   2  809.82   44.80 
  -2  -4   2  809.22   43.10 
   1   4  -2 3803.82  208.68 
   1   4  -2 4105.19  204.98 
   1   4  -2 3958.10  204.78 
   1   4  -2 4202.78  205.08 
  -1  -4   2 4180.38  204.38 
  -1  -4   2 4092.39  205.48 
  -1  -4   2 3879.61  204.88 
  -1  -4   2 4081.99  203.38 
  -1  -4   2 4497.35  208.08 
   0   4  -2 1280.27   66.59 
   0   4  -2 1104.09   67.29 
   0   4  -2 1376.46   66.09 
   0   4  -2 1218.78   68.99 
   0  -4   2 1418.66   66.69 
   0  -4   2 1403.16   65.59 
   0  -4   2 1369.16   70.59 
  -1   4  -2 1849.31   96.39 
  -1   4  -2 1866.61   96.89 
   1  -4   2 1970.80  102.49 
   1  -4   2 1968.80   96.29 
   1  -4   2 1829.22   95.29 
  -2   4  -2  390.06   19.90 
  -2   4  -2  370.66   20.90 
  -2   4  -2  354.76   20.60 
   2  -4   2  343.37   19.40 
   2  -4   2  315.37   20.20 
   2  -4   2  339.37   27.50 
   2  -4   2  343.77   20.00 
   2  -4   2  320.97   18.50 
  -3   4  -2   28.60    4.20 
  -3   4  -2   29.00    4.90 
  -3   4  -2   24.50    3.70 
   3  -4   2   24.10    4.40 
   3  -4   2   24.30    4.30 
   3  -4   2   21.30    3.70 
  -4   4  -2  155.78   12.30 
  -4   4  -2  163.18   11.50 
   4  -4   2  189.38   19.00 
   4  -4   2  144.79   11.60 
   4  -4   2  156.98   12.00 
   4  -4   2  131.19   13.70 
   4  -4   2  154.98   12.40 
   4  -4   2  172.28   11.30 
   4  -4   2  147.89   22.30 
   4  -4   2  156.48   13.20 
  -5   4  -2   11.30    3.30 
   5  -4   2   10.10    3.40 
   5  -4   2   12.60    3.50 
   5  -4   2    2.60    4.30 
   5  -4   2    7.80    2.60 
   5  -4   2   16.10    3.10 
   5  -4   2   16.00    3.60 
   5   3  -2  113.79   12.60 
   5   3  -2  121.49   10.50 
   5   3  -2  130.09   11.10 
   5   3  -2  127.59   10.50 
   5   3  -2  135.89   10.60 
  -5  -3   2  116.39    8.60 
  -5  -3   2  127.19   10.00 
   4   3  -2   46.10   10.20 
   4   3  -2   63.89    6.10 
   4   3  -2   63.29   11.60 
   4   3  -2   42.30    7.10 
   4   3  -2   45.00    9.80 
   4   3  -2   58.89    7.80 
   4   3  -2   53.69    7.00 
   4   3  -2   74.59    7.10 
   4   3  -2   49.00    7.70 
   4   3  -2   57.99    8.70 
   4   3  -2   41.80    7.40 
  -4  -3   2   66.39    6.30 
  -4  -3   2   56.99    6.70 
   3   3  -2  138.19   10.70 
   3   3  -2  161.78   10.50 
   3   3  -2  144.39   12.00 
   3   3  -2  168.08   13.80 
   3   3  -2  141.69   10.60 
   3   3  -2  150.38   12.00 
   3   3  -2  153.28   11.60 
   3   3  -2  162.78   16.50 
  -3  -3   2  154.48    9.90 
  -3  -3   2  158.18   11.50 
  -3  -3   2  138.89   10.80 
   2   3  -2 1746.53   88.89 
   2   3  -2 1663.13   87.89 
   2   3  -2 1789.22   90.39 
   2   3  -2 1675.23   88.89 
   2   3  -2 1773.12   88.69 
   2   3  -2 1662.83   87.79 
   2   3  -2 1668.73   87.09 
   2   3  -2 1686.63   93.29 
  -2  -3   2 1771.22   88.49 
  -2  -3   2 1837.82   92.19 
  -2  -3   2 1643.34   87.99 
   1   3  -2 8307.27  394.86 
   1   3  -2 7718.43  394.26 
   1   3  -2 7788.52  397.96 
   0   3  -2 3336.67  161.08 
   0   3  -2 2864.91  161.98 
   0   3  -2 3143.29  161.28 
   0   3  -2 3121.29  161.38 
   0  -3   2 3380.46  164.68 
   0  -3   2 3427.66  161.28 
   0  -3   2 3373.86  160.58 
  -1   3  -2  669.23   34.60 
  -1   3  -2  657.73   35.20 
   1  -3   2  645.54   33.70 
   1  -3   2  679.83   39.80 
   1  -3   2  719.43   35.20 
   1  -3   2  665.83   34.70 
   1  -3   2  650.63   34.40 
  -2   3  -2 1108.89   57.89 
  -2   3  -2 1107.09   60.29 
   2  -3   2 1178.28   65.69 
   2  -3   2 1029.90   55.69 
   2  -3   2 1092.79   57.19 
   2  -3   2 1178.18   59.79 
   2  -3   2 1041.40   57.19 
  -3   3  -2 1553.94   86.09 
  -3   3  -2 1811.62   83.99 
  -3   3  -2 1700.23   85.59 
   3  -3   2 1513.65   83.09 
   3  -3   2 1845.62   88.19 
   3  -3   2 1428.06   85.09 
  -4   3  -2   95.69    7.70 
  -4   3  -2  113.49   10.80 
   4  -3   2   98.69    8.80 
   4  -3   2   87.89    9.80 
   4  -3   2   98.59    8.00 
   4  -3   2  102.79    9.00 
   4  -3   2   91.99    8.90 
   4  -3   2   83.99   12.50 
   4  -3   2   76.99    9.90 
   4  -3   2   89.39   11.30 
  -5   3  -2  427.56   26.40 
   5  -3   2  494.95   28.30 
   5  -3   2  452.65   29.10 
   5  -3   2  480.75   27.80 
   5  -3   2  499.55   29.30 
   5  -3   2  478.35   26.80 
   6  -3   2   22.60    4.60 
   5   2  -2  151.88   11.80 
   5   2  -2  153.08   11.90 
   5   2  -2  140.39   15.60 
   5   2  -2  153.08   12.40 
   5   2  -2  141.19   11.60 
   5   2  -2  149.79   11.50 
  -5  -2   2  148.09   11.30 
  -5  -2   2  148.19   10.00 
   4   2  -2   11.30    4.00 
   4   2  -2   13.40    4.10 
   4   2  -2    6.80    4.70 
   4   2  -2    7.20    5.40 
   4   2  -2    6.70    2.90 
   4   2  -2   20.30    5.10 
   4   2  -2   10.50    3.80 
   4   2  -2   12.80    3.70 
   4   2  -2   13.90    3.20 
   4   2  -2   15.60    3.70 
  -4  -2   2   12.50    3.40 
   3   2  -2  439.26   27.80 
   3   2  -2  421.26   31.00 
   3   2  -2  429.26   25.60 
   3   2  -2  473.45   25.10 
   3   2  -2  450.65   26.40 
   3   2  -2  420.16   24.90 
   3   2  -2  434.36   26.70 
   3   2  -2  444.16   27.20 
  -3  -2   2  443.36   25.30 
  -3  -2   2  471.45   26.00 
   2   2  -2 2083.09  105.59 
   2   2  -2 2058.09  103.09 
   2   2  -2 2080.49  104.19 
   2   2  -2 2100.99  103.69 
   2   2  -2 1950.60  104.79 
   2   2  -2 2088.19  104.59 
   2   2  -2 2010.80  104.19 
  -2  -2   2 1884.01  103.79 
  -2  -2   2 2114.89  107.99 
  -2  -2   2 2074.19  103.89 
   1   2  -2  676.33   39.80 
   1   2  -2  703.53   36.40 
   1   2  -2  724.83   36.20 
   1   2  -2  673.33   37.20 
   1   2  -2  689.13   36.70 
   1   2  -2  678.73   35.70 
  -1  -2   2  751.22   38.80 
  -1   2  -2 1194.38   63.79 
  -1   2  -2 1256.77   64.59 
  -1   2  -2 1192.98   63.79 
   1  -2   2 1249.88   64.49 
   1  -2   2 1415.16   65.39 
   1  -2   2 1401.26   69.49 
  -2   2  -2   55.99    5.00 
  -2   2  -2   54.09    5.00 
   2  -2   2   51.89    3.70 
   2  -2   2   60.39    4.90 
   2  -2   2   60.79    5.50 
   2  -2   2   56.39    4.90 
  -3   2  -2  829.22   41.30 
  -3   2  -2  733.73   42.20 
  -3   2  -2  728.13   49.70 
   3  -2   2  805.22   43.10 
   3  -2   2  713.33   41.00 
   3  -2   2  750.02   40.70 
   3  -2   2  789.82   40.60 
   3  -2   2  704.63   39.10 
   3  -2   2  737.43   39.90 
   3  -2   2  736.63   49.90 
  -4   2  -2  356.26   19.50 
  -4   2  -2  351.06   21.30 
  -4   2  -2  335.77   23.40 
   4  -2   2  390.66   29.40 
   4  -2   2  318.47   20.60 
   4  -2   2  324.77   20.10 
   4  -2   2  320.77   21.00 
   4  -2   2  371.16   24.50 
   4  -2   2  302.07   21.50 
   4  -2   2  335.87   23.50 
   4  -2   2  310.57   21.80 
  -5   2  -2  147.89   10.80 
   5  -2   2  169.98   12.40 
   5  -2   2  162.48   12.40 
   5  -2   2  168.78   12.50 
   5  -2   2  168.78   11.90 
   5  -2   2  174.48   11.70 
   6  -2   2   21.70    3.40 
   5   1  -2   23.50    8.00 
   5   1  -2   33.90    5.70 
   5   1  -2   25.60    5.10 
   5   1  -2   25.40    5.20 
   5   1  -2   25.30    7.20 
   5   1  -2   28.40    5.30 
   5   1  -2   40.00    5.60 
  -5  -1   2   36.10    5.80 
  -5  -1   2   22.40    6.50 
  -5  -1   2   39.00    4.80 
   4   1  -2  259.87   24.80 
   4   1  -2  234.58   17.90 
   4   1  -2  242.88   21.60 
   4   1  -2  235.48   16.50 
   4   1  -2  226.18   17.10 
   4   1  -2  246.38   17.80 
   4   1  -2  237.68   18.10 
   4   1  -2  252.27   17.40 
   4   1  -2  228.38   15.10 
   4   1  -2  241.78   17.10 
  -4  -1   2  258.47   16.80 
   3   1  -2  715.13   43.00 
   3   1  -2  740.73   38.70 
   3   1  -2  745.83   47.10 
   3   1  -2  739.53   43.20 
   3   1  -2  738.93   40.00 
   3   1  -2  706.73   40.60 
  -3  -1   2  683.23   41.30 
  -3  -1   2  681.73   38.30 
   2   1  -2 5353.26  283.97 
   2   1  -2 5732.73  281.47 
   2   1  -2 5584.94  281.47 
   2   1  -2 5383.46  279.67 
   2   1  -2 5702.53  280.47 
   2   1  -2 5682.43  280.07 
  -2  -1   2 5875.01  285.07 
   1   1  -2  156.08    9.50 
   1   1  -2  179.98   10.50 
   1   1  -2  170.28   10.50 
   1   1  -2  160.78    9.90 
  -1  -1   2  190.88   12.30 
  -2   1  -2 4568.14  236.88 
  -2   1  -2 4763.52  236.18 
   2  -1   2 4732.93  243.08 
   2  -1   2 5025.20  237.78 
   2  -1   2 4871.81  237.08 
   2  -1   2 4713.93  237.58 
   2  -1   2 4757.72  236.48 
   2  -1   2 4654.23  236.98 
  -3   1  -2  859.81   55.09 
  -3   1  -2  910.01   45.40 
  -3   1  -2  793.72   47.10 
   3  -1   2  973.50   47.20 
   3  -1   2  883.11   49.80 
   3  -1   2  889.61   47.80 
   3  -1   2  883.11   47.30 
   3  -1   2  923.91   46.70 
   3  -1   2  899.91   45.50 
   3  -1   2  874.11   45.90 
  -4   1  -2  544.25   35.70 
  -4   1  -2  598.94   33.20 
   4  -1   2  592.54   36.80 
   4  -1   2  598.74   33.50 
   4  -1   2  581.34   32.40 
   4  -1   2  575.74   34.10 
  -5   1  -2    3.50    3.50 
  -5   1  -2    3.30    1.30 
   5  -1   2    5.20    2.90 
   5  -1   2    3.40    2.60 
   5  -1   2    3.20    2.60 
   5  -1   2   -0.80    3.40 
   5  -1   2    0.20    2.00 
   5  -1   2    5.20    2.90 
   6  -1   2    5.70    2.00 
   6  -1   2   -2.50    2.40 
   5   0  -2   40.50    8.40 
   5   0  -2   23.90    4.90 
   5   0  -2   41.80    7.00 
   5   0  -2   41.00    6.00 
   5   0  -2   28.30    7.90 
   5   0  -2   51.69    6.30 
   5   0  -2   43.20    5.60 
   5   0  -2   35.20    6.10 
  -5   0   2   37.40    5.60 
  -5   0   2   46.30    4.70 
  -5   0   2   33.30    6.70 
   4   0  -2   51.39    9.30 
   4   0  -2   45.40    6.60 
   4   0  -2   50.79    6.80 
   4   0  -2   42.50    6.40 
   4   0  -2   39.70    6.60 
   4   0  -2   28.30    8.90 
   4   0  -2   49.10    7.30 
   4   0  -2   47.30    6.00 
   4   0  -2   40.50    6.30 
   4   0  -2   45.90    7.40 
  -4   0   2   44.00    5.40 
   3   0  -2 1420.76   90.99 
   3   0  -2 1371.36   78.59 
   3   0  -2 1452.35   77.29 
   3   0  -2 1477.15   79.99 
   3   0  -2 1612.04   81.89 
  -3   0   2 1656.93   78.19 
   2   0  -2  720.23   35.10 
   2   0  -2  662.83   34.50 
   2   0  -2  559.04   37.40 
   2   0  -2  658.23   36.10 
   2   0  -2  649.14   35.40 
  -2   0   2  694.03   39.70 
   0   0  -2 2393.36  118.69 
  -2   0  -2 2883.01  150.98 
  -2   0  -2 2956.70  145.49 
   2   0   2 2825.42  146.39 
   2   0   2 2895.71  150.88 
   2   0   2 3004.70  145.79 
   2   0   2 2953.70  145.49 
   2   0   2 2896.61  146.49 
   2   0   2 2776.12  145.79 
   2   0   2 3087.29  146.69 
  -3   0  -2  144.09   14.50 
  -3   0  -2  138.59   10.50 
   3   0   2  141.39    9.20 
   3   0   2  151.08    8.80 
   3   0   2  135.99   11.90 
   3   0   2  142.79    9.10 
   3   0   2  137.89    9.80 
   3   0   2  142.49   10.20 
   3   0   2  130.09    9.30 
   4   0   2  908.81   54.79 
   4   0   2 1005.90   53.49 
   4   0   2  965.10   58.49 
   4   0   2 1179.78   57.69 
   4   0   2 1027.70   54.59 
  -5   0  -2   66.29    5.60 
  -5   0  -2   65.89    9.00 
   5   0   2   74.79    7.60 
   5   0   2   62.79    8.50 
   5   0   2   59.99    7.40 
   5   0   2   66.49    7.10 
   5   0   2   50.39    9.90 
   5   0   2   63.49    6.90 
   5   0   2   69.59   10.10 
   5   0   2   69.69    6.50 
   6   0   2    3.30    2.80 
   6   0   2    8.50    2.10 
   5  -1  -2   89.39    8.30 
   5  -1  -2  102.89   11.00 
   5  -1  -2   78.59    8.50 
   5  -1  -2   97.99    9.00 
   5  -1  -2   83.49    7.60 
   5  -1  -2   96.19    8.20 
   5  -1  -2   98.89   14.10 
  -5   1   2   84.29   10.30 
  -5   1   2   88.09   10.00 
  -5   1   2   81.79    6.70 
   4  -1  -2  377.56   24.60 
   4  -1  -2  393.16   24.00 
   4  -1  -2  386.36   24.60 
   4  -1  -2  347.87   31.00 
   4  -1  -2  347.47   23.10 
   4  -1  -2  366.16   23.90 
   4  -1  -2  390.86   23.60 
   4  -1  -2  446.86   29.60 
   4  -1  -2  365.26   25.70 
   4  -1  -2  394.26   25.20 
  -4   1   2  393.76   23.50 
  -4   1   2  368.56   27.20 
   3  -1  -2  101.89    7.60 
   3  -1  -2   98.29    8.30 
   3  -1  -2   93.29   11.50 
   3  -1  -2   93.69    8.60 
  -3   1   2  106.79   10.00 
   2  -1  -2 4428.06  207.48 
   2  -1  -2 4074.69  207.08 
   2  -1  -2 3964.60  208.78 
   2  -1  -2 4073.99  207.28 
  -2   1   2 4194.18  213.18 
  -2   1   2 4145.39  206.48 
   1  -1  -2  215.28   14.60 
   1  -1  -2  247.48   14.20 
   1  -1  -2  245.38   13.20 
  -1   1   2  269.57   13.20 
   0  -1  -2 1513.05   85.49 
   0  -1  -2 1780.92   84.49 
   0  -1  -2 1860.81   84.29 
   0  -1  -2 1584.34   84.79 
   0  -1  -2 1635.74   84.59 
   0   1   2 1742.73   84.79 
   0   1   2 1744.73   84.99 
  -2  -1  -2   92.49    8.80 
  -2  -1  -2   90.89    5.70 
   2   1   2   85.79    7.90 
   2   1   2  103.49    6.80 
   2   1   2   98.19    7.00 
   2   1   2   98.39    6.40 
   2   1   2  101.19    5.90 
   2   1   2   95.09    6.70 
  -3  -1  -2  243.98   14.40 
  -3  -1  -2  269.77   20.90 
   3   1   2  279.17   15.70 
   3   1   2  259.67   16.30 
   3   1   2  265.67   14.90 
   3   1   2  262.47   15.60 
   3   1   2  253.67   15.40 
   3   1   2  242.78   18.80 
   3   1   2  262.27   15.10 
   3   1   2  259.47   16.50 
   3   1   2  263.97   19.10 
  -4  -1  -2  423.26   22.90 
   4   1   2  425.56   24.70 
   4   1   2  417.16   25.50 
   4   1   2  402.36   29.00 
   4   1   2  376.26   27.20 
   4   1   2  438.66   23.50 
   4   1   2  390.16   23.50 
  -5  -1  -2  310.97   25.10 
  -5  -1  -2  409.16   21.50 
   5   1   2  325.67   27.40 
   5   1   2  377.96   23.00 
   5   1   2  357.76   22.80 
   5   1   2  357.46   22.70 
   5   1   2  421.26   22.90 
   5   1   2  388.96   23.00 
   5   1   2  369.46   21.70 
   5   1   2  387.16   27.50 
   6   1   2  100.89    7.50 
   6   1   2  120.39    7.70 
   5  -2  -2  169.78   12.00 
   5  -2  -2  165.28   11.80 
   5  -2  -2  168.88   12.20 
   5  -2  -2  155.48   12.30 
   5  -2  -2  161.48   12.40 
   5  -2  -2  183.68   18.60 
  -5   2   2  141.69   11.30 
  -5   2   2  159.08   10.30 
   4  -2  -2  722.13   42.10 
   4  -2  -2  768.32   43.30 
   4  -2  -2  775.32   43.90 
   4  -2  -2  795.92   43.20 
   4  -2  -2  773.22   43.90 
   4  -2  -2  737.43   44.90 
   4  -2  -2  839.02   53.39 
   4  -2  -2  694.53   45.30 
   4  -2  -2  765.32   42.70 
  -4   2   2  842.22   48.10 
  -4   2   2  769.62   42.80 
   3  -2  -2  370.76   22.60 
   3  -2  -2  388.86   22.90 
   3  -2  -2  365.66   24.90 
   3  -2  -2  437.06   27.80 
   3  -2  -2  400.56   22.90 
   3  -2  -2  394.56   23.90 
  -3   2   2  409.46   23.20 
  -3   2   2  380.06   26.00 
   2  -2  -2  562.44   28.30 
   2  -2  -2  515.75   28.30 
   2  -2  -2  525.25   28.20 
   2  -2  -2  499.85   28.90 
   2  -2  -2  497.65   29.80 
  -2   2   2  528.75   28.00 
  -2   2   2  515.65   33.80 
  -2   2   2  566.24   28.80 
   1  -2  -2 1200.88   60.09 
   1  -2  -2 1164.58   59.79 
   1  -2  -2 1189.08   61.19 
  -1   2   2 1173.38   63.49 
  -1   2   2 1241.18   60.39 
  -1   2   2 1167.78   61.89 
   0  -2  -2 2145.09   99.39 
   0  -2  -2 2131.09   99.99 
   0  -2  -2 2057.79   99.49 
   0  -2  -2 1725.93  100.29 
   0   2   2 2145.09  100.09 
   0   2   2 1996.50  100.19 
   0   2   2 1847.82  100.39 
   0   2   2 1909.91   99.99 
  -2  -2  -2   22.20    2.20 
  -2  -2  -2   22.60    3.70 
   2   2   2   29.60    3.10 
   2   2   2   28.20    3.20 
   2   2   2   22.70    4.10 
   2   2   2   25.40    3.00 
   2   2   2   24.90    2.50 
   2   2   2   27.90    3.60 
  -3  -2  -2   86.49    9.80 
  -3  -2  -2   92.99    6.20 
   3   2   2   80.59    9.70 
   3   2   2   86.39    7.10 
   3   2   2   93.49    7.30 
   3   2   2   96.79    8.20 
   3   2   2   98.69    6.60 
   3   2   2   90.89    7.00 
   3   2   2   99.79    7.30 
   3   2   2   92.29    7.70 
   3   2   2   74.39    6.90 
  -4  -2  -2 1471.25   75.39 
   4   2   2 1483.95   74.69 
   4   2   2 1549.54   77.49 
   4   2   2 1278.57   78.69 
   4   2   2 1511.55   75.69 
   4   2   2 1462.35   76.89 
   4   2   2 1483.15   75.39 
   4   2   2 1387.46   82.19 
   4   2   2 1364.26   78.29 
  -5  -2  -2 1172.68   57.69 
   5   2   2 1096.49   59.29 
   5   2   2 1073.19   64.79 
   5   2   2 1124.59   59.09 
   5   2   2 1052.29   59.29 
   5   2   2 1071.79   59.49 
   6   2   2   89.09    6.80 
   5  -3  -2    3.70    2.40 
   5  -3  -2    2.90    2.40 
   5  -3  -2    1.50    2.30 
   5  -3  -2    3.70    3.80 
   5  -3  -2    5.90    2.80 
   5  -3  -2    2.20    2.20 
  -5   3   2   -0.10    1.40 
  -5   3   2    0.00    1.30 
   4  -3  -2  217.28   15.40 
   4  -3  -2  208.08   14.30 
   4  -3  -2  200.38   16.80 
   4  -3  -2  210.28   14.70 
   4  -3  -2  203.98   17.70 
   4  -3  -2  195.88   17.00 
   4  -3  -2  201.18   15.20 
   4  -3  -2  217.88   14.90 
   4  -3  -2  226.78   22.00 
   4  -3  -2  170.58   13.90 
  -4   3   2  221.88   14.90 
  -4   3   2  204.98   13.40 
  -4   3   2  213.48   18.10 
   3  -3  -2  315.57   20.30 
   3  -3  -2  327.77   19.50 
   3  -3  -2  323.27   19.60 
   3  -3  -2  330.67   22.30 
  -3   3   2  308.07   18.90 
  -3   3   2  310.27   22.60 
  -3   3   2  346.37   19.90 
   2  -3  -2  148.59    9.60 
   2  -3  -2  147.89    9.20 
   2  -3  -2  129.89   10.60 
   2  -3  -2  147.49    9.50 
   2  -3  -2  138.79   11.00 
  -2   3   2  160.78    9.80 
  -2   3   2  157.38   10.00 
  -2   3   2  146.89   11.70 
  -2   3   2  147.39   14.40 
   1  -3  -2  513.25   29.00 
   1  -3  -2  589.54   29.30 
   1  -3  -2  552.74   30.40 
   1  -3  -2  591.04   29.00 
  -1   3   2  569.44   29.70 
  -1   3   2  547.95   32.80 
   0  -3  -2 4551.14  214.88 
   0  -3  -2 4443.86  215.68 
   0   3   2 4052.69  215.28 
   0   3   2 4241.58  215.58 
  -1  -3  -2   82.49    4.90 
  -1  -3  -2   77.49    5.40 
   1   3   2   91.09    5.80 
   1   3   2   74.49    7.60 
   1   3   2   80.29    7.40 
   1   3   2   71.39    6.20 
  -2  -3  -2 7290.47  342.17 
  -2  -3  -2 6954.90  343.87 
  -2  -3  -2 6227.28  344.47 
  -2  -3  -2 6966.80  343.07 
   2   3   2 6756.62  344.57 
   2   3   2 6754.42  345.07 
   2   3   2 6636.14  347.57 
   2   3   2 7443.35  343.77 
   2   3   2 7002.70  343.47 
  -3  -3  -2 1372.16   66.69 
   3   3   2 1203.88   73.59 
   3   3   2 1326.17   68.39 
   3   3   2 1277.47   70.09 
   3   3   2 1453.75   69.09 
   3   3   2 1251.17   68.99 
   3   3   2 1253.97   67.99 
  -4  -3  -2   58.69    8.90 
   4   3   2   67.69    9.90 
   4   3   2   89.59   11.10 
   4   3   2   75.99   12.10 
   4   3   2   67.09    8.90 
  -5  -3  -2  201.98   12.70 
   5   3   2  197.28   17.40 
   5   3   2  187.68   19.20 
   5   3   2  178.48   13.80 
   5   3   2  186.68   19.30 
   5   3   2  186.88   15.50 
   5   3   2  203.68   14.40 
   5  -4  -2  115.19    8.80 
   5  -4  -2  117.59    9.70 
   5  -4  -2  113.29   10.90 
   5  -4  -2  113.09    8.70 
   5  -4  -2  110.29    8.90 
  -5   4   2   90.29    7.90 
  -5   4   2  103.69    7.60 
   4  -4  -2  184.18   13.20 
   4  -4  -2  183.28   15.30 
   4  -4  -2  185.98   13.60 
   4  -4  -2  174.88   16.00 
   4  -4  -2  183.98   16.00 
   4  -4  -2  196.28   20.10 
   4  -4  -2  151.88   12.30 
   4  -4  -2  182.18   14.60 
   4  -4  -2  183.88   13.50 
  -4   4   2  172.68   13.00 
  -4   4   2  176.28   11.70 
  -4   4   2  177.58   16.20 
   3  -4  -2  195.28   16.20 
   3  -4  -2  196.58   13.30 
   3  -4  -2  182.28   14.00 
   3  -4  -2  214.18   14.00 
  -3   4   2  215.28   14.10 
  -3   4   2  196.18   13.50 
  -3   4   2  210.08   16.80 
   2  -4  -2 2916.91  152.98 
   2  -4  -2 2928.01  153.78 
   2  -4  -2 3052.89  156.08 
   2  -4  -2 3212.88  153.68 
  -2   4   2 2809.22  160.58 
  -2   4   2 3248.07  153.98 
  -2   4   2 3143.59  153.78 
  -2   4   2 3040.30  156.28 
   1  -4  -2 4385.46  228.08 
   1  -4  -2 4824.42  228.68 
   1  -4  -2 4885.81  230.48 
   1  -4  -2 4639.04  228.08 
  -1   4   2 4023.50  232.18 
  -1   4   2 4741.93  229.28 
  -1  -4  -2 3014.40  144.49 
  -1  -4  -2 2771.72  145.09 
  -1  -4  -2 3129.19  145.59 
   1   4   2 2894.01  145.89 
   1   4   2 2884.81  145.49 
   1   4   2 2693.63  146.79 
  -2  -4  -2  973.50   48.20 
  -2  -4  -2  968.30   49.40 
  -2  -4  -2  947.21   49.20 
   2   4   2  945.21   50.09 
   2   4   2  926.91   54.99 
   2   4   2  928.31   51.59 
   2   4   2  910.11   49.90 
   2   4   2  984.10   49.99 
   2   4   2  914.41   49.60 
  -3  -4  -2  568.74   30.90 
  -3  -4  -2  562.74   29.60 
  -3  -4  -2  549.05   30.80 
  -3  -4  -2  587.44   29.60 
   3   4   2  536.05   31.20 
   3   4   2  539.95   31.10 
   3   4   2  502.15   37.30 
   3   4   2  542.05   33.50 
   3   4   2  572.84   31.90 
  -4  -4  -2   92.79    7.30 
  -4  -4  -2   81.69    8.10 
   4   4   2   92.99   10.40 
   4   4   2   97.49    9.10 
   4   4   2   92.99    8.40 
   4   4   2   89.69   10.40 
   4   4   2   99.39   10.70 
   4   4   2   90.39   10.00 
   4   4   2   85.49   12.60 
   4   4   2   97.29    8.40 
   4   4   2  103.49    8.50 
  -5  -4  -2  227.88   15.00 
   5   4   2  254.77   16.60 
   5   4   2  236.58   17.00 
   5   4   2  239.58   14.60 
   5   4   2  226.08   16.90 
   5   4   2  239.68   22.10 
   5  -5  -2  102.59    7.90 
   5  -5  -2  110.79    8.10 
   5  -5  -2  110.89    9.00 
   5  -5  -2  100.59    7.50 
  -5   5   2  107.99    7.00 
  -5   5   2  105.79    7.40 
   4  -5  -2  161.68   13.70 
   4  -5  -2  189.68   18.70 
   4  -5  -2  162.28   12.40 
   4  -5  -2  147.19   11.70 
   4  -5  -2  162.78   12.40 
   4  -5  -2  158.08   11.30 
   4  -5  -2  159.68   12.20 
   4  -5  -2  140.09   14.50 
  -4   5   2  156.78   12.00 
  -4   5   2  164.08   14.70 
  -4   5   2  166.68   10.70 
   3  -5  -2  376.16   22.70 
   3  -5  -2  409.26   25.60 
   3  -5  -2  420.26   35.90 
   3  -5  -2  416.96   31.10 
   3  -5  -2  423.46   32.50 
  -3   5   2  356.06   23.50 
  -3   5   2  380.76   27.90 
  -3   5   2  373.76   22.00 
  -3   5   2  393.16   24.20 
   2  -5  -2 4076.79  214.48 
   2  -5  -2 4179.78  213.68 
   2  -5  -2 4277.37  214.78 
  -2   5   2 4387.06  215.08 
  -2   5   2 4733.53  226.48 
  -2   5   2 3774.12  221.98 
  -2   5   2 4468.35  214.88 
   1  -5  -2  881.01   44.00 
   1  -5  -2  763.12   42.90 
   1  -5  -2  880.51   46.20 
   1  -5  -2  839.62   43.00 
  -1   5   2  878.41   44.70 
  -1   5   2  747.83   47.40 
  -1   5   2  882.01   46.50 
   0  -5  -2 1879.51   89.79 
   0  -5  -2 1746.13   89.59 
   0  -5  -2 1906.01   91.49 
   0   5   2 1601.34   90.69 
   0   5   2 1758.72   91.69 
  -1  -5  -2 1224.38   58.49 
  -1  -5  -2 1125.59   57.69 
  -1  -5  -2 1198.08   57.09 
   1   5   2 1115.69   58.69 
   1   5   2  966.50   61.79 
   1   5   2 1186.18   58.19 
   1   5   2 1029.20   58.19 
   1   5   2 1126.79   62.59 
  -2  -5  -2  143.39    9.40 
  -2  -5  -2  141.29    9.50 
  -2  -5  -2  138.39    9.30 
   2   5   2  128.79   11.20 
   2   5   2  114.89   13.50 
   2   5   2  126.29   10.30 
   2   5   2  128.49    9.70 
  -3  -5  -2  381.66   22.20 
  -3  -5  -2  367.76   22.20 
  -3  -5  -2  392.26   22.20 
  -3  -5  -2  383.46   20.80 
   3   5   2  380.66   22.80 
   3   5   2  372.66   22.50 
   3   5   2  348.87   24.80 
   3   5   2  331.57   29.10 
  -4  -5  -2   42.50    4.80 
  -4  -5  -2   41.00    5.40 
   4   5   2   51.59    5.80 
   4   5   2   41.20    8.00 
   4   5   2   50.09    9.20 
   4   5   2   52.59    7.50 
   4   5   2   60.49    9.20 
   4   5   2   42.50    5.50 
   4   5   2   40.10    6.80 
   4   5   2   37.40   10.00 
  -5  -5  -2   66.49    6.10 
   5   5   2   76.09    7.40 
   5   5   2   64.19    7.30 
   5   5   2   62.49    6.80 
   5   5   2   72.99    8.20 
   5   5   2   78.59   11.00 
   5   5   2   83.59    6.30 
   5  -6  -2   47.10    4.50 
   5  -6  -2   45.60    4.50 
   5  -6  -2   54.59    5.20 
  -5   6   2   47.00    3.60 
  -5   6   2   48.30    3.80 
   4  -6  -2  263.47   20.40 
   4  -6  -2  269.77   19.10 
   4  -6  -2  257.97   18.70 
   4  -6  -2  335.27   22.40 
   4  -6  -2  255.67   23.10 
   4  -6  -2  274.77   16.60 
   4  -6  -2  307.17   21.40 
  -4   6   2  335.17   21.40 
  -4   6   2  270.87   16.60 
  -4   6   2  253.57   17.60 
   3  -6  -2 1103.69   60.69 
   3  -6  -2 1312.37   69.79 
   3  -6  -2 1141.79   66.19 
   3  -6  -2 1148.69   64.59 
   3  -6  -2 1126.99   60.89 
   3  -6  -2 1065.39   62.19 
   3  -6  -2 1152.28   60.59 
   3  -6  -2 1087.69   60.39 
   3  -6  -2 1117.69   59.59 
  -3   6   2 1110.19   58.89 
  -3   6   2 1198.98   60.49 
  -3   6   2 1103.19   61.39 
  -3   6   2 1096.09   60.79 
  -3   6   2 1180.48   64.59 
   2  -6  -2  440.76   24.00 
   2  -6  -2  414.16   24.50 
   2  -6  -2  400.06   25.20 
   2  -6  -2  436.36   28.70 
  -2   6   2  431.96   25.80 
  -2   6   2  439.36   25.40 
  -2   6   2  455.15   28.30 
   1  -6  -2  151.58   10.10 
   1  -6  -2  137.19   11.80 
  -1   6   2  146.39   11.00 
  -1   6   2  163.48   12.80 
   0  -6  -2  416.16   25.30 
   0  -6  -2  441.26   23.90 
   0  -6  -2  464.15   25.90 
   0  -6  -2  425.76   23.70 
   0   6   2  413.76   25.10 
   0   6   2  461.65   27.90 
   0   6   2  454.35   25.40 
  -1  -6  -2   10.70    2.20 
  -1  -6  -2    8.40    2.50 
  -1  -6  -2    8.70    2.70 
   1   6   2    5.40    2.30 
   1   6   2    8.10    2.20 
   1   6   2    8.30    2.10 
   1   6   2    8.50    3.80 
  -2  -6  -2  580.04   32.20 
  -2  -6  -2  526.15   30.80 
  -2  -6  -2  586.04   31.60 
  -2  -6  -2  567.84   29.80 
   2   6   2  555.64   38.80 
   2   6   2  570.74   34.30 
   2   6   2  524.25   31.40 
   2   6   2  577.04   31.70 
   2   6   2  550.74   32.00 
  -3  -6  -2   33.50    7.20 
  -3  -6  -2   53.19    6.00 
   3   6   2   42.10    6.50 
   3   6   2   39.60   10.20 
   3   6   2   45.00    5.70 
   3   6   2   40.20   10.80 
   3   6   2   35.40    7.40 
   3   6   2   73.19   12.10 
  -4  -6  -2  165.18   11.70 
   4   6   2  134.49   12.60 
   4   6   2  129.99   10.90 
   4   6   2  137.09   13.30 
   4   6   2  143.19   13.20 
   4   6   2  155.98   11.00 
   4   6   2  160.68   11.20 
   4   6   2  118.89   17.00 
   4   6   2  155.48   11.10 
  -5  -6  -2   67.89    5.90 
   5   6   2   79.89    7.00 
   5   6   2   66.09    5.90 
   5   6   2   61.09    9.50 
   5   6   2   78.39    6.90 
   4  -7  -2   53.69    7.90 
   4  -7  -2   59.39    6.80 
   4  -7  -2   48.60    5.40 
   4  -7  -2   61.49    6.40 
   4  -7  -2   66.89    6.90 
   4  -7  -2   62.39    8.00 
  -4   7   2   48.80    6.20 
  -4   7   2   64.69    4.90 
  -4   7   2   56.59    5.40 
   3  -7  -2  528.45   31.20 
   3  -7  -2  598.84   32.90 
   3  -7  -2  513.35   30.70 
   3  -7  -2  622.94   32.20 
   3  -7  -2  553.94   36.90 
   3  -7  -2  584.84   35.20 
   3  -7  -2  533.05   31.40 
   3  -7  -2  451.35   34.80 
   3  -7  -2  551.44   47.20 
  -3   7   2  579.34   31.20 
  -3   7   2  512.35   32.20 
  -3   7   2  567.54   29.50 
  -3   7   2  497.45   32.50 
  -3   7   2  543.25   41.50 
   2  -7  -2   42.50    6.30 
   2  -7  -2   43.30   13.20 
   2  -7  -2   50.29   11.00 
  -2   7   2   50.89   10.50 
  -2   7   2   41.60    8.00 
  -2   7   2   39.10    5.30 
   1  -7  -2  381.06   25.60 
   1  -7  -2  395.86   23.10 
  -1   7   2  416.46   27.00 
  -1   7   2  396.46   24.20 
   0  -7  -2 2452.95  130.99 
   0  -7  -2 2543.55  129.19 
   0  -7  -2 2798.22  132.09 
   0  -7  -2 2419.66  128.69 
   0   7   2 2503.95  134.49 
   0   7   2 2576.04  130.89 
   0   7   2 2610.74  132.49 
  -1  -7  -2  437.76   23.50 
  -1  -7  -2  420.66   24.90 
  -1  -7  -2  415.26   22.90 
  -1  -7  -2  423.06   25.30 
   1   7   2  390.16   23.70 
   1   7   2  408.36   29.40 
  -2  -7  -2 1543.65   82.69 
  -2  -7  -2 1606.74   84.19 
  -2  -7  -2 1557.64   83.29 
   2   7   2 1730.03   89.89 
   2   7   2 1653.83   86.39 
   2   7   2 1607.44   83.29 
   2   7   2 1619.34   83.19 
   2   7   2 1464.45   85.59 
   2   7   2 1705.23   89.79 
   2   7   2 1456.45   91.29 
  -3  -7  -2   39.70    5.50 
  -3  -7  -2   42.70    5.60 
   3   7   2   39.40    6.90 
   3   7   2   39.80    5.50 
   3   7   2   47.90    7.10 
   3   7   2   44.70    6.10 
   3   7   2   36.10    5.50 
   3   7   2   27.50    6.20 
   3   7   2   41.00    5.30 
   3   7   2   32.20    6.80 
   3   7   2   36.80   10.70 
  -4  -7  -2  335.57   20.70 
  -4  -7  -2  389.76   22.80 
   4   7   2  354.46   21.30 
   4   7   2  368.46   21.90 
   4   7   2  354.36   24.60 
   4   7   2  354.26   21.80 
   4   7   2  347.37   28.50 
   4   7   2  366.66   34.70 
   4   7   2  381.56   27.10 
  -5  -7  -2   56.79    4.60 
   5   7   2   62.29    4.80 
   5   7   2   62.89    6.00 
   5   7   2   64.69    5.10 
   5   7   2   57.29    4.60 
   5   7   2   59.39    5.80 
   4  -8  -2   88.99    7.50 
   4  -8  -2   99.89    7.60 
   4  -8  -2   97.39    9.00 
   4  -8  -2   96.09    8.20 
  -4   8   2  108.79    7.50 
  -4   8   2   88.79    6.80 
  -4   8   2   94.79    5.90 
   3  -8  -2   74.19    9.20 
   3  -8  -2   83.39    7.70 
   3  -8  -2   62.09   17.90 
   3  -8  -2   64.89    8.50 
  -3   8   2   63.39    8.60 
  -3   8   2   84.69    9.30 
  -3   8   2   75.29    5.60 
   2  -8  -2  261.47   21.30 
   2  -8  -2  260.67   20.20 
   2  -8  -2  265.97   29.70 
   2  -8  -2  284.57   17.60 
   2  -8  -2  265.97   18.20 
   2  -8  -2  302.07   18.70 
  -2   8   2  314.27   18.30 
  -2   8   2  275.77   15.60 
  -2   8   2  285.57   21.70 
  -2   8   2  268.87   19.00 
  -2   8   2  293.27   18.20 
   1  -8  -2   11.10    6.90 
   1  -8  -2    5.50    3.20 
   1  -8  -2    1.30    2.40 
   1  -8  -2    2.80    4.70 
  -1   8   2   -0.40    2.20 
  -1   8   2    0.00    4.00 
  -1   8   2    0.20    3.10 
   0  -8  -2  271.67   27.30 
   0  -8  -2  258.07   16.20 
   0  -8  -2  278.37   18.40 
   0   8   2  232.28   22.20 
   0   8   2  256.87   17.20 
   0   8   2  256.27   17.60 
   0   8   2  278.47   21.80 
   0   8   2  273.47   26.20 
   0   8   2  232.88   17.20 
  -1  -8  -2 1282.37   65.89 
  -1  -8  -2 1279.97   66.19 
  -1  -8  -2 1233.58   63.59 
  -1  -8  -2 1196.58   63.49 
   1   8   2 1321.67   67.09 
   1   8   2 1246.38   64.19 
   1   8   2 1177.98   64.39 
   1   8   2 1170.78   65.79 
   1   8   2 1126.59   66.59 
   1   8   2 1181.28   66.39 
   1   8   2 1263.27   65.59 
   1   8   2 1161.68   65.49 
   1   8   2 1206.58   71.69 
  -2  -8  -2  681.83   38.60 
  -2  -8  -2  753.62   50.49 
  -2  -8  -2  696.23   40.40 
  -2  -8  -2  734.13   41.40 
   2   8   2  730.13   41.80 
   2   8   2  650.13   41.50 
   2   8   2  748.43   39.90 
   2   8   2  727.13   39.20 
   2   8   2  708.83   39.80 
   2   8   2  696.63   41.70 
   2   8   2  718.43   48.80 
   2   8   2  671.93   47.80 
   2   8   2  753.82   43.00 
   2   8   2  724.33   40.60 
  -3  -8  -2  205.18   15.10 
  -3  -8  -2  203.58   13.10 
   3   8   2  192.98   15.60 
   3   8   2  210.88   14.00 
   3   8   2  205.28   13.40 
   3   8   2  199.28   14.10 
   3   8   2  184.58   20.50 
   3   8   2  206.28   14.10 
   3   8   2  176.68   15.10 
   3   8   2  175.68   15.40 
  -4  -8  -2    7.10    2.50 
  -4  -8  -2   10.30    2.80 
  -4  -8  -2    8.00    2.50 
   4   8   2   12.50    3.50 
   4   8   2   10.80    2.50 
   4   8   2   13.90    2.70 
   4   8   2   13.90    3.00 
   4   8   2   10.50    2.70 
   4   8   2    7.10    2.60 
   4   8   2   12.00    3.70 
   3  -9  -2   36.40    4.30 
   3  -9  -2   40.00    6.80 
   3  -9  -2   24.40    8.30 
   3  -9  -2   34.00    5.90 
   3  -9  -2   39.80    5.10 
  -3   9   2   31.00    4.20 
  -3   9   2   38.10    4.90 
   2  -9  -2   13.40    4.20 
   2  -9  -2   12.40    6.60 
   2  -9  -2   14.10    3.60 
  -2   9   2   12.40    3.20 
  -2   9   2   10.50    3.10 
   1  -9  -2   46.60   15.90 
   1  -9  -2   42.30    8.90 
  -1   9   2   47.60    8.70 
  -1   9   2   43.40    8.10 
  -1   9   2   48.30    7.10 
   0  -9  -2 1147.19   61.39 
   0  -9  -2 1078.69   57.09 
   0   9   2 1111.59   61.09 
   0   9   2 1165.98   67.09 
   0   9   2 1115.59   60.19 
   0   9   2 1102.89   60.49 
   0   9   2 1098.29   60.49 
  -1  -9  -2  881.41   51.59 
  -1  -9  -2  949.51   49.10 
  -1  -9  -2  999.80   64.89 
  -1  -9  -2  883.11   51.49 
   1   9   2 1003.50   49.99 
   1   9   2  891.61   51.19 
   1   9   2  966.90   51.79 
   1   9   2  924.31   51.39 
   1   9   2  935.01   49.80 
   1   9   2  908.41   51.79 
   1   9   2  872.51   51.89 
   1   9   2  938.11   58.29 
  -2  -9  -2  162.08   13.30 
  -2  -9  -2  167.28   17.70 
  -2  -9  -2  179.28   11.70 
  -2  -9  -2  160.28   19.20 
   2   9   2  160.08   13.70 
   2   9   2  174.88   12.50 
   2   9   2  174.78   11.60 
   2   9   2  174.88   12.10 
   2   9   2  193.48   13.80 
   2   9   2  173.38   13.70 
   2   9   2  165.68   13.30 
   2   9   2  163.28   18.80 
  -3  -9  -2    4.00    2.30 
  -3  -9  -2    3.90    3.80 
  -3  -9  -2    5.60    2.20 
   3   9   2    4.00    2.30 
   3   9   2    3.20    1.80 
   3   9   2    5.50    3.40 
   3   9   2   -0.10    2.20 
   3   9   2    3.50    2.60 
   3   9   2    8.10    3.10 
   3   9   2    3.60    2.70 
   3   9   2   -0.20    1.90 
  -4  -9  -2   59.49    5.50 
  -4  -9  -2   68.69    5.10 
   4   9   2   71.69    5.20 
   4   9   2   59.79    6.10 
   4   9   2   64.19    6.20 
   4   9   2   62.59    5.60 
   4   9   2   58.39    7.80 
   3 -10  -2   57.19    5.90 
  -3  10   2   44.00    4.50 
  -3  10   2   44.10    4.50 
   2 -10  -2   67.69    7.80 
   2 -10  -2   46.10   12.00 
  -2  10   2   63.29    5.90 
  -2  10   2   68.49    6.40 
   1 -10  -2   72.79    8.60 
   1 -10  -2   80.99   15.00 
  -1  10   2   86.39    8.00 
  -1  10   2   74.09   10.00 
  -1  10   2   81.89    8.00 
   0 -10  -2   31.10    5.90 
   0 -10  -2   31.30   10.30 
   0  10   2   27.70    5.10 
   0  10   2   30.30    7.50 
   0  10   2   23.60    4.80 
   0  10   2   19.60    3.90 
  -1 -10  -2   56.29    4.90 
  -1 -10  -2   48.70   11.30 
  -1 -10  -2   60.69    7.50 
   1  10   2   53.39    9.80 
   1  10   2   53.59    7.30 
   1  10   2   44.80    6.10 
   1  10   2   43.10    6.90 
   1  10   2   54.49    8.60 
  -2 -10  -2   82.99    7.60 
  -2 -10  -2   71.39   11.60 
  -2 -10  -2   56.09    6.90 
  -2 -10  -2   86.09    6.70 
  -2 -10  -2   78.09    9.10 
   2  10   2   67.39    6.50 
   2  10   2   76.19    7.70 
   2  10   2   77.29    6.00 
   2  10   2   52.79   10.30 
   2  10   2   63.69    7.90 
   2  10   2   59.29    7.40 
   2  10   2   72.69    6.70 
   2  10   2   74.19    8.30 
  -3 -10  -2   19.60    3.40 
  -3 -10  -2   21.50    5.50 
   3  10   2   13.30    2.80 
   3  10   2    9.20    2.30 
   3  10   2   13.00    2.20 
   3  10   2   11.80    4.20 
   3  10   2   17.20    4.20 
   3  10   2   13.70    2.90 
   3  10   2    9.70    3.20 
   2 -11  -2    4.10    2.40 
   2 -11  -2    7.40    3.90 
  -2  11   2    3.40    1.60 
   1 -11  -2  100.89    9.60 
   1 -11  -2   62.59   13.00 
  -1  11   2   93.39    7.60 
  -1  11   2   81.99    7.40 
   0 -11  -2   53.59   11.60 
   0 -11  -2   65.99    6.90 
   0  11   2   57.49    6.20 
   0  11   2   57.59    6.50 
  -1 -11  -2   32.40    8.30 
  -1 -11  -2   51.89    6.30 
   1  11   2   54.49    6.50 
   1  11   2   51.49    6.00 
   1  11   2   43.40    5.40 
  -2 -11  -2  133.29   12.90 
  -2 -11  -2  138.09    7.90 
   2  11   2  151.08   14.20 
   2  11   2  122.09    9.30 
   2  11   2  123.59    8.70 
   1 -12  -2    6.60    4.10 
  -1  12   2   10.00    3.10 
  -1  12   2   13.90    2.40 
   0 -12  -2   18.00    4.00 
   0 -12  -2    9.70    4.50 
   0  12   2   11.50    3.30 
   0  12   2   16.20    3.00 
  -1 -12  -2   50.89    5.30 
   1  12   2   40.90    5.70 
   1  12   2   43.10    5.90 
   1  11  -3   30.30    4.20 
   1  11  -3   26.80    4.20 
  -1 -11   3   31.70    4.50 
  -1 -11   3   21.90    4.50 
   0  11  -3   -0.70    1.80 
   0  11  -3    2.60    2.00 
   0 -11   3    2.00    2.60 
  -1  11  -3   21.00    4.00 
  -1  11  -3   25.00    3.70 
   1 -11   3   23.20    4.80 
  -2  11  -3    8.70    2.20 
   2 -11   3    3.50    2.30 
   2 -11   3    4.60    3.90 
   2  10  -3   14.90    2.90 
   2  10  -3    8.00    3.30 
  -2 -10   3   13.20    3.00 
   1  10  -3    8.20    3.20 
   1  10  -3    7.80    3.00 
   1  10  -3    9.20    3.00 
  -1 -10   3   14.50    3.20 
  -1 -10   3    3.40    4.90 
  -1 -10   3    9.00    3.20 
   0  10  -3   16.70    4.30 
   0  10  -3   22.70    4.60 
   0 -10   3   16.30    7.50 
  -1  10  -3  118.79   10.20 
  -1  10  -3  117.49   10.00 
   1 -10   3  118.59   11.10 
   1 -10   3  130.59   17.80 
  -2  10  -3  141.29   10.30 
  -2  10  -3  136.59   10.00 
   2 -10   3   98.49   17.00 
   2 -10   3  127.89   11.20 
   2 -10   3  138.09   10.00 
  -3  10  -3   63.69    5.70 
  -3  10  -3   58.69    6.30 
   3 -10   3   50.59   10.40 
   3 -10   3   65.19    5.50 
   3 -10   3   56.89    8.20 
   3   9  -3    6.60    2.30 
   3   9  -3    4.20    2.60 
   3   9  -3    3.50    1.90 
   3   9  -3    4.40    1.60 
  -3  -9   3    3.90    1.20 
  -3  -9   3    7.70    2.80 
   2   9  -3    0.80    1.70 
   2   9  -3    0.80    2.40 
   2   9  -3    3.50    2.70 
   2   9  -3   -1.30    2.20 
   2   9  -3   -3.30    1.80 
  -2  -9   3   -1.60    1.10 
  -2  -9   3   -2.20    3.00 
  -2  -9   3    0.90    2.10 
  -2  -9   3    2.10    2.60 
   1   9  -3   16.20    4.10 
   1   9  -3   12.80    4.00 
   1   9  -3   16.60    4.10 
  -1  -9   3   14.70    3.40 
  -1  -9   3   19.20    4.10 
  -1  -9   3   28.30    5.50 
   0   9  -3  350.96   22.40 
   0   9  -3  352.16   22.50 
   0   9  -3  355.16   21.50 
   0  -9   3  325.67   32.30 
   0  -9   3  361.96   24.20 
   0  -9   3  348.17   21.70 
  -1   9  -3  180.18   13.50 
  -1   9  -3  186.18   13.50 
   1  -9   3  175.98   23.40 
   1  -9   3  172.68   15.10 
   1  -9   3  182.28   13.50 
  -2   9  -3   32.70    3.40 
  -2   9  -3   43.10    5.70 
  -2   9  -3   27.20    4.60 
  -2   9  -3   48.10    6.50 
   2  -9   3   32.70    5.80 
   2  -9   3   32.40   10.80 
   2  -9   3   21.00    6.80 
  -3   9  -3   16.70    3.30 
  -3   9  -3   15.20    4.50 
  -3   9  -3   28.20    5.10 
  -3   9  -3   20.00    3.00 
   3  -9   3   23.90    4.30 
   3  -9   3   13.40    4.90 
   3  -9   3   17.00    7.30 
  -4   9  -3   17.90    3.20 
  -4   9  -3   15.90    2.80 
   4  -9   3   16.70    3.10 
   4  -9   3   13.20    3.20 
   4  -9   3   16.60    3.60 
   4   8  -3   18.50    3.50 
   4   8  -3   14.20    4.20 
   4   8  -3   25.50    3.40 
  -4  -8   3   17.00    2.70 
   3   8  -3    2.50    2.40 
   3   8  -3    0.70    1.90 
   3   8  -3    0.80    2.10 
   3   8  -3    3.10    2.60 
   3   8  -3   -1.80    2.00 
   3   8  -3    0.90    2.60 
  -3  -8   3   -0.90    2.10 
  -3  -8   3    4.70    2.70 
  -3  -8   3    3.80    1.70 
  -3  -8   3    1.80    2.30 
   2   8  -3   39.90    5.80 
   2   8  -3   29.60    5.40 
   2   8  -3   47.90    6.70 
   2   8  -3   35.80    6.60 
   2   8  -3   31.90    4.70 
   2   8  -3   36.80    8.30 
  -2  -8   3   33.90    5.30 
  -2  -8   3   41.90    5.90 
  -2  -8   3   23.20    5.60 
  -2  -8   3   37.50    4.00 
   1   8  -3   75.79    8.80 
   1   8  -3   71.99    7.50 
   1   8  -3   58.79   10.20 
   1   8  -3   69.99    8.30 
   1   8  -3   80.59    8.30 
  -1  -8   3   79.79    8.00 
  -1  -8   3   73.79    7.20 
  -1  -8   3   65.49    8.30 
  -1  -8   3   65.09    6.90 
  -1  -8   3   70.19    5.60 
   0   8  -3  116.59   10.70 
   0   8  -3  122.59   10.20 
   0   8  -3  121.59   10.60 
   0  -8   3  120.49    9.70 
   0  -8   3  123.09   10.50 
   0  -8   3  157.08   19.90 
   0  -8   3  130.19   12.00 
  -1   8  -3  122.99   10.20 
  -1   8  -3  136.29   10.70 
  -1   8  -3  124.59    8.00 
  -1   8  -3  134.39   11.10 
  -1   8  -3  132.89    9.80 
  -1   8  -3  122.09    8.80 
   1  -8   3  139.49   19.40 
   1  -8   3  123.29   11.80 
   1  -8   3  125.19   10.80 
  -2   8  -3   11.50    3.00 
  -2   8  -3   19.90    3.50 
  -2   8  -3   10.00    3.10 
  -2   8  -3    9.50    3.10 
  -2   8  -3   15.80    2.90 
  -2   8  -3   16.00    5.50 
   2  -8   3   19.40    6.20 
   2  -8   3    7.70    5.60 
   2  -8   3   14.70    3.20 
   2  -8   3   11.10    5.90 
   2  -8   3   16.60    8.70 
   2  -8   3   18.70    6.20 
  -3   8  -3  154.68   10.90 
  -3   8  -3  131.69   11.00 
  -3   8  -3  150.98    9.70 
  -3   8  -3  150.98   10.50 
  -3   8  -3  161.18    9.90 
   3  -8   3  135.59   14.10 
   3  -8   3  124.69   21.10 
   3  -8   3  155.18   11.80 
   3  -8   3  149.29   10.60 
   3  -8   3  135.49   10.60 
   3  -8   3  154.08   13.10 
  -4   8  -3    6.50    1.90 
  -4   8  -3    6.10    1.90 
  -4   8  -3   11.00    2.70 
  -4   8  -3    3.70    3.10 
   4  -8   3    3.30    4.90 
   4  -8   3    5.70    2.40 
   4  -8   3    9.00    3.10 
   4  -8   3    7.00    2.40 
   4  -8   3    4.40    3.30 
   4  -8   3    7.70    2.10 
   4   7  -3  151.38   10.90 
   4   7  -3  146.49   10.50 
   4   7  -3  135.29   10.20 
   4   7  -3  143.59   10.10 
   4   7  -3  134.79   11.50 
  -4  -7   3  153.18    9.90 
  -4  -7   3  143.49    9.80 
   3   7  -3   16.60    4.40 
   3   7  -3    4.00    3.40 
   3   7  -3    7.80    3.30 
   3   7  -3    8.30    3.30 
   3   7  -3   13.60    5.60 
   3   7  -3    8.90    3.00 
   3   7  -3    6.80    3.60 
  -3  -7   3   11.10    2.40 
  -3  -7   3   11.40    3.50 
  -3  -7   3   10.70    4.10 
  -3  -7   3   11.10    3.00 
   2   7  -3   13.30    4.10 
   2   7  -3   16.40    3.50 
   2   7  -3   10.50    5.00 
   2   7  -3   10.70    3.60 
   2   7  -3   25.40    5.30 
   2   7  -3   21.60    5.20 
   2   7  -3   25.10    5.40 
  -2  -7   3   19.80    4.00 
  -2  -7   3   14.50    3.90 
  -2  -7   3   14.60    3.70 
  -2  -7   3   14.60    4.50 
  -2  -7   3   14.60    3.00 
   1   7  -3   59.29    7.10 
   1   7  -3   82.29    8.80 
   1   7  -3   61.29    6.30 
   1   7  -3   66.39   10.20 
   1   7  -3   74.49    8.40 
   1   7  -3   78.99    8.30 
   1   7  -3   66.19    9.00 
  -1  -7   3   75.49    6.80 
  -1  -7   3   78.79    7.30 
  -1  -7   3   78.59    6.40 
  -1  -7   3   75.79    8.50 
   0   7  -3   97.59    9.10 
   0   7  -3   84.89   10.00 
   0   7  -3   80.79    7.90 
   0   7  -3   84.79    6.60 
   0   7  -3   81.39    7.20 
   0  -7   3   96.69    7.60 
   0  -7   3   88.69    7.50 
  -1   7  -3   87.99    7.80 
  -1   7  -3   90.99    6.70 
  -1   7  -3   83.09    7.20 
   1  -7   3   92.79    7.30 
  -2   7  -3  101.09    9.10 
  -2   7  -3  101.39    7.60 
  -2   7  -3  115.69    8.90 
  -2   7  -3  108.39    9.30 
  -2   7  -3   95.19    9.00 
   2  -7   3  113.99   10.00 
   2  -7   3  106.09   18.70 
   2  -7   3   98.09    9.80 
   2  -7   3  102.19   16.70 
   2  -7   3   99.19    8.40 
  -3   7  -3   73.09    7.70 
  -3   7  -3   59.09    7.20 
  -3   7  -3   69.99    5.80 
  -3   7  -3   66.89    6.00 
  -3   7  -3   58.49    6.50 
   3  -7   3   53.19    8.00 
   3  -7   3   46.70   14.90 
   3  -7   3   66.79   10.00 
   3  -7   3   71.69    8.20 
   3  -7   3   72.49   11.00 
   3  -7   3   48.90    5.70 
   3  -7   3   59.59    6.50 
   3  -7   3   48.50    9.90 
  -4   7  -3    6.50    2.20 
  -4   7  -3    7.20    3.10 
  -4   7  -3    6.20    2.40 
  -4   7  -3    9.50    2.20 
   4  -7   3    6.90    3.20 
   4  -7   3    4.50    2.80 
   4  -7   3    4.10    2.20 
   4  -7   3    6.00    3.00 
   4  -7   3    5.50    4.30 
   4  -7   3    6.20    2.60 
   4  -7   3    7.00    6.40 
   5  -7   3   96.39    9.80 
   5  -7   3   90.29    7.30 
   4   6  -3   17.60    3.90 
   4   6  -3   12.50    3.00 
   4   6  -3   16.60    4.40 
   4   6  -3   15.50    4.00 
   4   6  -3   15.10    3.60 
   4   6  -3   17.90    4.80 
  -4  -6   3   14.30    2.80 
  -4  -6   3   14.40    3.40 
  -4  -6   3   20.60    3.20 
   3   6  -3  141.29   18.70 
   3   6  -3  172.48   12.00 
   3   6  -3  166.88   14.40 
   3   6  -3  158.88   13.70 
   3   6  -3  176.28   12.60 
   3   6  -3  171.98   13.50 
   3   6  -3  177.68   15.60 
   3   6  -3  169.78   15.40 
  -3  -6   3  172.58   12.30 
  -3  -6   3  157.48   13.20 
  -3  -6   3  164.28   11.40 
  -3  -6   3  160.68   13.80 
   2   6  -3  160.88   14.20 
   2   6  -3  153.08   14.00 
   2   6  -3  159.28   12.30 
   2   6  -3  150.58   14.30 
   2   6  -3  157.88   12.90 
   2   6  -3  168.18   15.60 
   2   6  -3  167.78   16.60 
   2   6  -3  122.69   14.90 
   2   6  -3  164.68   11.20 
   2   6  -3  160.58   11.10 
  -2  -6   3  151.98   10.70 
  -2  -6   3  168.88   11.40 
  -2  -6   3  159.68   12.60 
  -2  -6   3  145.79   14.60 
   1   6  -3   17.40    3.50 
   1   6  -3   24.40    5.60 
   1   6  -3   29.80    5.30 
   1   6  -3   23.40    3.70 
  -1  -6   3   28.30    2.90 
  -1  -6   3   28.40    4.50 
  -1  -6   3   29.60    4.60 
  -1  -6   3   25.50    3.80 
   0   6  -3   71.59    5.80 
   0   6  -3   65.29    8.10 
   0   6  -3   64.79    6.20 
   0   6  -3   71.29    5.40 
   0   6  -3   59.39    6.80 
   0  -6   3   72.39    9.70 
   0  -6   3   65.49    6.30 
   0  -6   3   75.29    6.00 
  -1   6  -3   56.79    4.70 
  -1   6  -3   54.09    5.70 
  -1   6  -3   61.49    5.40 
  -1   6  -3   51.59    5.60 
   1  -6   3   57.79    5.60 
   1  -6   3   53.49    5.40 
  -2   6  -3  183.58   13.80 
  -2   6  -3  195.78   12.00 
  -2   6  -3  214.28   13.60 
   2  -6   3  187.88   12.40 
   2  -6   3  196.98   13.20 
  -3   6  -3   10.60    2.80 
  -3   6  -3   12.20    2.80 
  -3   6  -3   12.80    3.40 
   3  -6   3   12.40    3.30 
   3  -6   3   10.60    3.10 
   3  -6   3   14.90    6.00 
   3  -6   3    8.90    9.00 
   3  -6   3   13.10    3.20 
   3  -6   3   15.20    3.40 
   3  -6   3   11.80    4.20 
   3  -6   3   12.00    3.80 
  -4   6  -3  195.28   12.10 
  -4   6  -3  190.48   13.80 
  -4   6  -3  211.18   12.70 
   4  -6   3  185.48   13.20 
   4  -6   3  208.98   14.00 
   4  -6   3  198.08   16.30 
   4  -6   3  211.08   26.80 
   4  -6   3  197.78   18.70 
   4  -6   3  195.38   13.10 
   4  -6   3  201.48   14.30 
   4  -6   3  205.28   14.60 
  -5   6  -3  109.59    9.80 
  -5   6  -3  132.59    8.20 
   5  -6   3  149.19    9.60 
   5  -6   3  150.18   11.20 
   5  -6   3  147.09    9.70 
   5  -6   3  117.89   12.20 
   5   5  -3   57.49    6.00 
   5   5  -3   46.10    4.10 
   5   5  -3   60.49    7.90 
   5   5  -3   46.50    5.60 
  -5  -5   3   47.80    3.90 
   4   5  -3  300.97   28.50 
   4   5  -3  296.07   23.80 
   4   5  -3  286.47   17.20 
  -4  -5   3  252.57   18.50 
  -4  -5   3  263.57   17.30 
  -4  -5   3  268.27   16.70 
   3   5  -3  196.18   15.60 
   3   5  -3  202.88   17.00 
   3   5  -3  227.58   22.30 
   3   5  -3  255.07   18.60 
   3   5  -3  188.38   16.10 
   3   5  -3  208.28   15.10 
   3   5  -3  219.08   17.90 
   3   5  -3  223.68   15.80 
   3   5  -3  220.38   16.50 
   3   5  -3  212.78   20.70 
   3   5  -3  235.78   14.80 
   3   5  -3  213.58   14.30 
  -3  -5   3  220.28   15.50 
  -3  -5   3  227.58   14.90 
  -3  -5   3  218.88   16.20 
  -3  -5   3  202.08   14.10 
   2   5  -3  214.58   20.00 
   2   5  -3  227.58   15.80 
   2   5  -3  254.27   16.20 
   2   5  -3  241.48   16.10 
   2   5  -3  232.28   17.70 
   2   5  -3  236.58   15.00 
   2   5  -3  235.28   15.40 
  -2  -5   3  228.28   16.10 
  -2  -5   3  221.38   15.50 
  -2  -5   3  228.68   13.50 
  -2  -5   3  240.78   14.90 
   1   5  -3 1200.98   64.49 
   1   5  -3 1133.29   68.89 
   1   5  -3 1298.67   63.89 
   1   5  -3 1218.18   64.49 
   1   5  -3 1297.57   64.89 
   1   5  -3 1257.07   66.79 
  -1  -5   3 1209.28   64.59 
  -1  -5   3 1213.68   65.39 
  -1  -5   3 1295.47   63.79 
  -1  -5   3 1219.68   69.09 
  -1  -5   3 1240.98   62.39 
   0   5  -3  608.44   35.00 
   0   5  -3  641.94   33.30 
   0   5  -3  592.64   33.00 
   0   5  -3  680.53   33.80 
   0   5  -3  642.54   32.80 
   0   5  -3  576.04   36.30 
   0  -5   3  651.23   39.10 
   0  -5   3  648.44   31.90 
   0  -5   3  666.83   33.40 
   0  -5   3  525.05   36.10 
  -1   5  -3  411.66   22.50 
  -1   5  -3  390.26   22.50 
  -1   5  -3  420.26   21.10 
  -1   5  -3  338.57   22.10 
   1  -5   3  456.35   21.70 
   1  -5   3  398.26   21.90 
   1  -5   3  341.07   21.80 
   1  -5   3  376.46   28.40 
  -2   5  -3  279.97   17.70 
  -2   5  -3  284.37   21.60 
   2  -5   3  320.97   20.30 
   2  -5   3  289.97   21.30 
  -3   5  -3  122.19   10.90 
  -3   5  -3  147.49   10.60 
   3  -5   3  141.49   11.50 
   3  -5   3  117.19   11.00 
   3  -5   3  158.48   21.90 
   3  -5   3  140.39   13.50 
   3  -5   3  143.69   10.10 
   3  -5   3  166.18   16.40 
   3  -5   3  130.59   10.60 
  -4   5  -3  105.79    8.70 
  -4   5  -3   96.59    9.20 
   4  -5   3   92.49    8.60 
   4  -5   3  119.49   13.90 
   4  -5   3  106.99    8.50 
   4  -5   3  115.29   18.60 
   4  -5   3  105.29   11.50 
   4  -5   3   95.89   10.30 
   4  -5   3  101.89    9.60 
   4  -5   3   89.39    9.80 
  -5   5  -3   73.49    5.10 
  -5   5  -3   66.09    6.00 
   5  -5   3   65.09    6.10 
   5  -5   3   64.59    9.50 
   5  -5   3   70.19    6.40 
   5  -5   3   56.19    7.60 
   5  -5   3   66.39    6.80 
   5  -5   3   69.99    7.00 
   5   4  -3   84.39    7.30 
   5   4  -3   73.39    6.90 
   5   4  -3   92.29    7.10 
   5   4  -3   67.39    6.00 
   5   4  -3   85.79    7.60 
  -5  -4   3   72.09    5.70 
  -5  -4   3   63.79    6.50 
   4   4  -3  230.68   22.50 
   4   4  -3  300.57   17.60 
   4   4  -3  292.17   19.50 
   4   4  -3  287.77   17.90 
   4   4  -3  263.27   20.60 
   4   4  -3  295.27   19.00 
   4   4  -3  273.57   19.40 
   4   4  -3  260.57   24.00 
   4   4  -3  269.17   19.40 
  -4  -4   3  266.17   17.70 
  -4  -4   3  273.37   17.00 
  -4  -4   3  280.47   19.30 
   3   4  -3 1077.69   63.99 
   3   4  -3  917.21   49.60 
   3   4  -3  988.30   61.19 
   3   4  -3  835.02   49.40 
  -3  -4   3  904.41   49.70 
  -3  -4   3  825.12   48.40 
  -3  -4   3  873.21   50.69 
   2   4  -3    7.10    2.60 
   2   4  -3    4.50    2.50 
   2   4  -3    8.80    2.60 
   2   4  -3    6.90    2.20 
   2   4  -3    7.20    3.10 
   2   4  -3    6.00    3.90 
   2   4  -3    8.70    2.40 
  -2  -4   3    7.70    2.00 
  -2  -4   3    7.50    4.90 
  -2  -4   3    2.20    2.10 
  -2  -4   3    8.40    2.50 
   1   4  -3  737.53   41.60 
   1   4  -3  753.02   40.50 
   1   4  -3  749.82   40.10 
   1   4  -3  741.03   39.50 
   1   4  -3  682.83   43.30 
   1   4  -3  813.82   40.20 
   1   4  -3  742.93   40.00 
  -1  -4   3  721.93   40.10 
  -1  -4   3  802.22   43.90 
  -1  -4   3  754.82   39.20 
  -1  -4   3  736.43   38.20 
  -1  -4   3  747.53   40.80 
   0   4  -3 2576.74  141.49 
   0   4  -3 2443.66  142.49 
   0   4  -3 2893.91  139.89 
   0   4  -3 2722.73  140.09 
   0  -4   3 3031.50  140.09 
   0  -4   3 2949.51  146.19 
   0  -4   3 2942.71  138.89 
  -1   4  -3  104.79    6.80 
  -1   4  -3   89.89    7.10 
  -1   4  -3  119.59    7.60 
  -1   4  -3  100.39    7.50 
   1  -4   3  106.19    7.30 
   1  -4   3   95.49    5.60 
   1  -4   3  112.79    7.10 
   1  -4   3   99.69    6.90 
   1  -4   3  108.29   11.60 
  -2   4  -3   44.80    4.50 
  -2   4  -3   43.80    4.90 
   2  -4   3   44.80    4.90 
   2  -4   3   57.29    4.80 
   2  -4   3   42.20    4.30 
  -3   4  -3  140.39   11.30 
  -3   4  -3  150.88   10.10 
   3  -4   3  132.09   10.50 
   3  -4   3  138.99    9.90 
  -4   4  -3   12.30    3.10 
  -4   4  -3    9.10    3.00 
   4  -4   3   20.30    8.70 
   4  -4   3   11.30    6.20 
   4  -4   3   10.30    3.00 
   4  -4   3   13.20    3.10 
   4  -4   3    8.50    4.70 
   4  -4   3   10.70    2.70 
   4  -4   3   10.30    3.60 
   4  -4   3    3.30    3.40 
  -5   4  -3   16.70    3.30 
   5  -4   3   19.00    4.50 
   5  -4   3   18.80    3.60 
   5  -4   3   13.50    5.50 
   5  -4   3   21.30    4.50 
   5  -4   3   19.70    4.20 
   5  -4   3   22.20    4.40 
   5  -4   3   23.70    4.30 
   5   3  -3   78.39    6.00 
   5   3  -3   62.39    8.60 
  -5  -3   3   74.89    6.90 
  -5  -3   3   81.89    6.10 
  -5  -3   3   78.09    5.90 
   4   3  -3  162.88   13.70 
   4   3  -3  141.49   15.30 
   4   3  -3  157.68   13.40 
   4   3  -3  136.19   14.20 
   4   3  -3  145.89   13.40 
   4   3  -3  160.68   11.70 
   4   3  -3  189.38   21.20 
   4   3  -3  142.09   13.10 
   4   3  -3  177.08   13.30 
  -4  -3   3  165.68   11.20 
  -4  -3   3  153.68   11.80 
  -4  -3   3  166.18   13.50 
   3   3  -3  368.86   23.70 
   3   3  -3  414.26   27.10 
   3   3  -3  387.76   25.20 
   3   3  -3  393.36   30.00 
   3   3  -3  404.96   25.10 
   3   3  -3  415.76   33.30 
   3   3  -3  406.96   22.90 
  -3  -3   3  399.76   23.60 
  -3  -3   3  393.86   24.60 
  -3  -3   3  362.56   22.00 
   2   3  -3 1154.18   59.29 
   2   3  -3 1000.20   57.49 
   2   3  -3 1039.10   61.59 
   2   3  -3 1043.20   56.59 
   2   3  -3 1129.79   57.49 
   2   3  -3 1054.29   56.39 
   2   3  -3 1105.19   55.59 
  -2  -3   3 1069.99   56.69 
  -2  -3   3 1093.19   57.39 
   1   3  -3   78.19    5.50 
   1   3  -3   57.49    6.10 
   1   3  -3   69.89    7.30 
   1   3  -3   71.79    5.60 
   1   3  -3   63.69    4.50 
  -1  -3   3   62.29    7.70 
  -1  -3   3   61.49    4.30 
   0   3  -3 1910.81   98.19 
   0   3  -3 2057.69   98.09 
   0   3  -3 1902.91   98.19 
   0   3  -3 1806.62   99.19 
   0  -3   3 2064.89   97.89 
   0  -3   3 1964.00   97.09 
   0  -3   3 1866.11   97.99 
   0  -3   3 2058.99  102.49 
  -1   3  -3  637.84   36.00 
  -1   3  -3  740.23   37.80 
   1  -3   3  736.03   43.10 
   1  -3   3  744.83   37.60 
   1  -3   3  718.43   36.80 
  -2   3  -3 2686.43  118.89 
  -2   3  -3 2467.15  120.19 
  -2   3  -3 2201.68  118.29 
   2  -3   3 2160.18  118.69 
   2  -3   3 2323.37  128.49 
   2  -3   3 2528.15  119.89 
   2  -3   3 2442.96  118.79 
   2  -3   3 2286.37  119.49 
   2  -3   3 2135.49  117.29 
  -3   3  -3 1047.30   50.09 
   3  -3   3  959.00   51.19 
   3  -3   3  959.20   50.29 
   3  -3   3  866.11   50.89 
  -4   3  -3    4.70    2.20 
  -4   3  -3    5.50    1.90 
   4  -3   3    3.90    4.50 
   4  -3   3   -4.20    7.00 
   4  -3   3    4.60    2.20 
   4  -3   3    7.20    3.70 
   4  -3   3    0.50    2.90 
   4  -3   3    2.90    2.40 
   4  -3   3    5.90    3.20 
  -5   3  -3  111.99    8.50 
   5  -3   3  118.79   10.00 
   5  -3   3   91.49   13.10 
   5  -3   3  122.89    9.10 
   5  -3   3  122.79    9.10 
   5  -3   3  126.69   11.40 
   5  -3   3  121.99   13.10 
   6  -3   3    2.20    2.40 
   5   2  -3   60.79    6.40 
   5   2  -3   56.29    6.20 
   5   2  -3   55.29    7.10 
   5   2  -3   61.49    6.50 
  -5  -2   3   54.49    5.70 
  -5  -2   3   54.19    6.20 
   4   2  -3   42.60   10.90 
   4   2  -3   25.60   12.30 
   4   2  -3   46.00   10.50 
   4   2  -3   44.50    7.10 
   4   2  -3   44.40    8.90 
   4   2  -3   54.69   11.30 
   4   2  -3   39.40    6.80 
  -4  -2   3   49.99    6.70 
  -4  -2   3   42.90    5.80 
   3   2  -3  110.79   10.10 
   3   2  -3  104.59   12.70 
   3   2  -3  115.29   10.90 
   3   2  -3  104.59   10.30 
   3   2  -3  108.39    9.20 
  -3  -2   3  115.79    8.70 
  -3  -2   3  116.99    9.70 
   2   2  -3 1431.86   73.49 
   2   2  -3 1432.16   74.69 
   2   2  -3 1389.46   78.69 
   2   2  -3 1365.96   75.09 
   2   2  -3 1455.95   76.29 
   2   2  -3 1508.55   74.49 
   2   2  -3 1494.05   75.59 
  -2  -2   3 1350.96   74.09 
  -2  -2   3 1480.45   79.09 
  -2  -2   3 1498.65   74.99 
   1   2  -3 4098.79  201.38 
   1   2  -3 3731.33  202.78 
   1   2  -3 3806.92  200.48 
   1   2  -3 4060.99  199.48 
   1   2  -3 4038.20  200.38 
  -1  -2   3 4309.57  203.68 
   0   2  -3 3736.13  171.18 
   0   2  -3 3597.94  170.58 
   0   2  -3 3610.84  171.28 
   0   2  -3 3467.45  171.38 
   0   2  -3 3289.27  172.08 
   0  -2   3 3091.69  170.38 
   0  -2   3 3246.08  171.28 
   0  -2   3 3470.55  170.78 
  -1   2  -3 4542.85  243.38 
  -1   2  -3 4552.84  242.48 
  -1   2  -3 4784.62  243.48 
   1  -2   3 5269.97  243.98 
   1  -2   3 5301.57  249.18 
  -2   2  -3  260.97   15.30 
  -2   2  -3  283.27   14.70 
   2  -2   3  296.17   16.50 
   2  -2   3  277.77   21.80 
   2  -2   3  260.27   15.40 
   2  -2   3  296.47   15.60 
   2  -2   3  267.97   14.30 
  -3   2  -3 2028.00   99.49 
  -3   2  -3 1856.21   99.49 
  -3   2  -3 1767.92  108.89 
   3  -2   3 2035.60   98.89 
   3  -2   3 1907.81  110.49 
   3  -2   3 1991.10   97.89 
   3  -2   3 1832.62   98.49 
   3  -2   3 1958.90   98.59 
   3  -2   3 1916.21   98.59 
  -4   2  -3  409.16   21.20 
  -4   2  -3  378.36   23.50 
   4  -2   3  357.26   24.50 
   4  -2   3  377.86   22.20 
   4  -2   3  339.77   22.10 
   4  -2   3  351.66   23.70 
   4  -2   3  396.96   32.60 
  -5   2  -3  185.68   12.20 
   5  -2   3  200.88   14.20 
   5  -2   3  207.28   14.10 
   5  -2   3  213.28   13.90 
   5  -2   3  176.48   17.20 
   5  -2   3  186.68   19.10 
   5  -2   3  191.68   12.90 
   5  -2   3  202.08   14.40 
   6  -2   3   23.90    3.70 
   6  -2   3   22.30    4.50 
   5   1  -3   62.19    6.60 
   5   1  -3   64.39    7.50 
   5   1  -3   67.69    7.30 
   5   1  -3   43.40    9.30 
   5   1  -3   61.39    6.70 
   5   1  -3   65.89    6.70 
  -5  -1   3   56.79    6.10 
  -5  -1   3   67.49    5.50 
   4   1  -3  344.67   24.50 
   4   1  -3  385.36   24.80 
   4   1  -3  363.96   24.80 
   4   1  -3  361.56   23.90 
   4   1  -3  410.56   33.80 
   4   1  -3  344.77   23.60 
   4   1  -3  361.26   23.80 
   4   1  -3  346.17   21.30 
   4   1  -3  402.76   29.40 
   4   1  -3  368.36   23.40 
  -4  -1   3  378.86   23.60 
  -4  -1   3  363.36   21.80 
   3   1  -3  134.79   11.00 
   3   1  -3  125.19   10.00 
   3   1  -3  115.19   13.00 
   3   1  -3  117.79   10.70 
   3   1  -3  115.69    8.90 
   3   1  -3  122.69   10.50 
   3   1  -3  102.09    9.00 
  -3  -1   3  127.49    9.90 
  -3  -1   3  113.39    8.60 
   2   1  -3 3458.65  174.48 
   2   1  -3 3517.25  172.78 
   2   1  -3 3296.67  173.88 
   2   1  -3 3590.74  173.18 
   2   1  -3 3447.56  172.18 
   2   1  -3 3480.75  173.78 
   2   1  -3 3334.97  176.88 
  -2  -1   3 3557.24  173.38 
  -2  -1   3 3477.25  177.78 
  -2  -1   3 3198.48  172.58 
   1   1  -3  378.16   20.00 
   1   1  -3  352.46   19.40 
   1   1  -3  332.37   21.80 
   1   1  -3  368.76   21.10 
   1   1  -3  361.56   20.60 
  -1  -1   3  405.06   23.00 
  -2   1  -3  305.67   16.50 
   2  -1   3  316.27   17.30 
   2  -1   3  315.27   22.60 
   2  -1   3  321.37   16.30 
   2  -1   3  319.97   18.20 
  -3   1  -3 2880.31  151.18 
  -3   1  -3 2954.30  152.48 
   3  -1   3 2952.80  151.78 
   3  -1   3 2952.10  151.78 
   3  -1   3 3199.98  152.38 
   3  -1   3 3112.29  151.18 
   3  -1   3 2977.10  153.78 
  -4   1  -3  204.08   16.80 
  -4   1  -3  242.08   16.10 
   4  -1   3  199.58   17.90 
   4  -1   3  224.18   15.70 
   4  -1   3  246.28   15.90 
   4  -1   3  243.98   14.90 
   4  -1   3  285.47   22.80 
   4  -1   3  231.68   17.70 
  -5   1  -3   42.40    4.20 
   5  -1   3   31.30    5.50 
   5  -1   3   53.39    6.40 
   5  -1   3   41.20    5.80 
   5  -1   3   39.50    5.80 
   5  -1   3   30.70    8.20 
   5  -1   3   43.80    5.20 
   6  -1   3    4.70    2.80 
   6  -1   3    9.60    2.40 
   5   0  -3   73.49    6.90 
   5   0  -3   65.79    7.90 
   5   0  -3   73.69    7.50 
   5   0  -3   74.79   11.10 
   5   0  -3   75.39    7.50 
   5   0  -3   80.89    7.40 
  -5   0   3   60.99    5.70 
  -5   0   3   66.99    6.70 
   4   0  -3  101.09    9.80 
   4   0  -3  113.49   10.20 
   4   0  -3  112.89   12.00 
   4   0  -3  128.59   13.90 
   4   0  -3  137.69   17.70 
   4   0  -3  114.59   11.00 
   4   0  -3  106.29   10.80 
   4   0  -3  102.39   10.50 
   4   0  -3  112.09   10.40 
   4   0  -3  117.29   10.20 
  -4   0   3  102.19   12.20 
  -4   0   3  111.09    9.90 
  -4   0   3  124.69    9.10 
   3   0  -3  140.19   14.00 
   3   0  -3  143.59   11.20 
   3   0  -3  131.49   11.70 
   3   0  -3  135.09   11.40 
   3   0  -3  141.79   10.50 
   3   0  -3  134.59    9.80 
  -3   0   3  143.69   10.70 
   2   0  -3  579.84   32.30 
   2   0  -3  564.54   32.50 
   2   0  -3  609.54   31.50 
   2   0  -3  575.24   30.80 
   2   0  -3  553.14   33.50 
   2   0  -3  566.44   31.10 
   2   0  -3  564.54   34.60 
  -2   0   3  595.34   36.10 
   1   0  -3 2251.27  114.19 
   1   0  -3 2211.98  111.49 
   1   0  -3 2289.07  111.89 
   1   0  -3 2104.69  112.49 
   1   0  -3 2212.48  112.79 
  -1   0   3 2148.09  111.19 
  -1   0   3 2380.26  115.19 
   0   0  -3 1343.17   72.89 
   0   0  -3 1655.43   74.09 
   0   0  -3 1392.16   73.89 
   0   0   3 1465.75   73.69 
   1   0   3 7926.51  393.76 
  -2   0  -3 1634.44   88.59 
   2   0   3 1887.91   89.29 
   2   0   3 1717.93   88.69 
   2   0   3 1657.13   89.69 
   2   0   3 1860.61   88.99 
   2   0   3 1913.01   90.29 
   2   0   3 1711.33   93.99 
  -3   0  -3  761.92   38.80 
  -3   0  -3  742.53   47.60 
  -3   0  -3  736.73   39.20 
   3   0   3  776.62   40.50 
   3   0   3  751.92   40.40 
   3   0   3  777.32   39.80 
   3   0   3  712.43   42.80 
   3   0   3  705.13   41.40 
   3   0   3  801.42   39.20 
   3   0   3  790.32   40.90 
  -4   0  -3  480.35   27.60 
   4   0   3  470.35   27.10 
   4   0   3  442.26   27.40 
   4   0   3  474.85   26.30 
   4   0   3  463.15   30.40 
   4   0   3  458.55   27.10 
   5   0   3   -1.50    2.80 
   5   0   3    4.80    3.40 
   5   0   3    5.20    4.60 
   5   0   3   12.70    3.40 
   5   0   3   13.00    3.40 
   5   0   3    9.20    2.80 
   6   0   3    7.90    2.90 
   5  -1  -3  199.38   12.80 
   5  -1  -3  146.59   17.80 
   5  -1  -3  175.28   12.50 
   5  -1  -3  193.88   12.60 
   5  -1  -3  198.28   13.20 
   5  -1  -3  197.38   13.70 
   5  -1  -3  204.38   12.80 
  -5   1   3  150.18   11.10 
  -5   1   3  165.78   12.30 
   4  -1  -3  503.75   29.50 
   4  -1  -3  476.05   29.30 
   4  -1  -3  487.45   30.40 
   4  -1  -3  576.74   40.60 
   4  -1  -3  558.24   35.50 
   4  -1  -3  457.55   29.90 
   4  -1  -3  500.45   29.30 
   4  -1  -3  469.35   28.80 
   4  -1  -3  453.05   31.20 
   4  -1  -3  492.35   30.80 
  -4   1   3  492.75   33.50 
  -4   1   3  478.85   27.70 
  -4   1   3  476.25   29.20 
   3  -1  -3  141.69   13.80 
   3  -1  -3  139.99   10.90 
   3  -1  -3  138.99   12.00 
   3  -1  -3  127.19   10.90 
   3  -1  -3  127.79    9.80 
   3  -1  -3  137.29   10.20 
  -3   1   3  130.29   12.60 
  -3   1   3  137.59   10.40 
   2  -1  -3 4439.66  237.08 
   2  -1  -3 5017.30  238.88 
   2  -1  -3 4633.24  234.28 
   2  -1  -3 4519.35  234.48 
   2  -1  -3 4988.30  234.98 
   2  -1  -3 4686.03  236.48 
   2  -1  -3 4395.66  234.98 
  -2   1   3 4780.82  240.78 
  -2   1   3 4543.15  233.38 
  -2   1   3 4899.01  235.18 
   1  -1  -3  356.16   18.20 
   1  -1  -3  303.87   18.80 
   1  -1  -3  349.77   18.40 
   1  -1  -3  354.26   20.30 
   1  -1  -3  334.87   18.00 
   1  -1  -3  346.47   18.00 
  -1   1   3  341.57   21.10 
  -1   1   3  302.57   19.30 
  -1   1   3  322.17   17.70 
  -1  -1  -3   82.39    4.70 
  -1  -1  -3   88.39    6.10 
  -1  -1  -3   82.49    4.50 
  -1  -1  -3   86.19    5.00 
   1   1   3   68.59    5.60 
   1   1   3   71.29    6.10 
   1   1   3   74.39    5.60 
  -2  -1  -3 3272.07  176.98 
  -2  -1  -3 3476.75  182.08 
  -2  -1  -3 3670.63  177.68 
   2   1   3 3698.13  177.98 
   2   1   3 3796.42  178.18 
   2   1   3 3596.84  177.48 
   2   1   3 3818.92  179.08 
   2   1   3 3419.36  181.78 
   2   1   3 3313.87  178.88 
  -3  -1  -3 2190.88  108.19 
  -3  -1  -3 2206.98  108.99 
  -3  -1  -3 2128.79  116.49 
   3   1   3 2292.97  110.39 
   3   1   3 2219.78  110.99 
   3   1   3 2097.79  110.39 
   3   1   3 1985.80  112.99 
   3   1   3 2082.69  108.69 
   3   1   3 1951.90  109.59 
   3   1   3 2193.78  109.19 
   3   1   3 2248.38  110.09 
   3   1   3 2274.37  108.59 
  -4  -1  -3  282.67   17.50 
   4   1   3  247.68   20.80 
   4   1   3  291.27   16.80 
   4   1   3  281.27   18.00 
   4   1   3  284.87   17.60 
   5   1   3 1369.86   72.39 
   5   1   3 1374.86   72.39 
   5   1   3 1405.66   72.49 
   5   1   3 1282.77   77.99 
   5   1   3 1476.35   72.69 
   5  -2  -3  206.68   13.70 
   5  -2  -3  196.98   14.10 
   5  -2  -3  214.48   16.80 
   5  -2  -3  191.58   12.50 
   5  -2  -3  218.48   13.60 
   5  -2  -3  219.68   19.90 
   5  -2  -3  216.98   13.60 
  -5   2   3  173.48   13.10 
  -5   2   3  203.08   12.40 
  -5   2   3  196.98   12.10 
   4  -2  -3   77.99   10.40 
   4  -2  -3  107.89   12.60 
   4  -2  -3   81.89   12.40 
   4  -2  -3  106.59   13.00 
   4  -2  -3   98.59   14.20 
   4  -2  -3   94.49    8.70 
   4  -2  -3   80.99    9.50 
   4  -2  -3   87.09   14.80 
  -4   2   3  101.49   11.40 
  -4   2   3   96.09   10.80 
  -4   2   3   92.09    8.40 
   3  -2  -3  146.29   11.30 
   3  -2  -3  158.68   11.50 
   3  -2  -3  146.59   12.10 
   3  -2  -3  157.38   13.40 
   3  -2  -3  194.08   16.20 
   3  -2  -3  151.48   12.20 
  -3   2   3  165.38   11.80 
  -3   2   3  163.08   14.40 
   2  -2  -3 1524.65   80.29 
   2  -2  -3 1704.53   80.69 
   2  -2  -3 1461.95   82.09 
   2  -2  -3 1773.12   84.89 
   2  -2  -3 1543.75   80.19 
   2  -2  -3 1471.55   80.99 
  -2   2   3 1499.75   79.69 
  -2   2   3 1605.34   80.89 
  -2   2   3 1550.24   83.09 
  -2   2   3 1571.14   86.69 
   1  -2  -3  130.79    7.80 
   1  -2  -3  134.49    8.00 
   1  -2  -3  140.09    8.00 
   1  -2  -3  119.39    7.70 
   1  -2  -3  127.89    8.90 
  -1   2   3  129.69    8.00 
  -1   2   3  127.19   10.50 
  -1   2   3  118.79    9.20 
   0  -2  -3 5270.57  261.97 
   0  -2  -3 5351.16  260.57 
   0  -2  -3 5078.79  260.37 
  -1  -2  -3 1549.05   77.49 
  -1  -2  -3 1445.66   77.39 
  -1  -2  -3 1602.64   77.59 
  -1  -2  -3 1644.64   76.99 
   1   2   3 1460.85   78.59 
   1   2   3 1543.65   78.29 
  -2  -2  -3 1626.74   76.59 
  -2  -2  -3 1378.26   79.59 
  -2  -2  -3 1509.85   77.39 
  -2  -2  -3 1489.05   77.29 
   2   2   3 1714.73   78.09 
   2   2   3 1638.84   78.69 
   2   2   3 1601.54   78.29 
   2   2   3 1317.07   80.09 
   2   2   3 1473.75   78.89 
  -3  -2  -3 1302.57   65.89 
  -3  -2  -3 1237.58   70.99 
  -3  -2  -3 1299.07   64.79 
   3   2   3 1247.48   66.69 
   3   2   3 1097.79   69.79 
   3   2   3 1291.37   66.29 
   3   2   3 1269.47   64.99 
   3   2   3 1335.17   66.79 
   3   2   3 1395.46   67.09 
   3   2   3 1283.67   67.79 
  -4  -2  -3  537.15   31.20 
  -4  -2  -3  494.25   29.40 
  -4  -2  -3  466.85   29.00 
   4   2   3  531.65   29.60 
   4   2   3  560.24   30.60 
   4   2   3  558.84   31.10 
   4   2   3  508.85   34.70 
   4   2   3  460.15   35.40 
   5   2   3  303.57   22.40 
   5   2   3  331.17   24.70 
   5   2   3  309.77   20.10 
   5   2   3  331.17   20.00 
   5  -3  -3   80.19    7.10 
   5  -3  -3   76.79   10.50 
   5  -3  -3   89.99    7.20 
   5  -3  -3   82.19    8.90 
   5  -3  -3   64.39    7.90 
   5  -3  -3   84.79    9.10 
  -5   3   3   71.49    7.10 
  -5   3   3   77.39    8.00 
   4  -3  -3  142.99   11.50 
   4  -3  -3  165.08   16.60 
   4  -3  -3  130.19   13.30 
   4  -3  -3  169.98   13.70 
   4  -3  -3  142.29   11.30 
   4  -3  -3  123.19   16.40 
   4  -3  -3  146.09   11.50 
   4  -3  -3  125.29   10.50 
   4  -3  -3  145.79   11.30 
  -4   3   3  142.59   14.60 
  -4   3   3  130.99    9.80 
  -4   3   3  146.09   11.50 
  -4   3   3  139.09   10.90 
   3  -3  -3  132.29   11.50 
   3  -3  -3  152.38   10.80 
   3  -3  -3  152.78   11.10 
   3  -3  -3  140.79   12.90 
  -3   3   3  147.89   13.80 
  -3   3   3  158.38   11.40 
   2  -3  -3  825.72   43.80 
   2  -3  -3  795.12   44.40 
   2  -3  -3  816.22   46.00 
   2  -3  -3  804.92   43.60 
   2  -3  -3  841.22   43.80 
  -2   3   3  875.51   44.50 
  -2   3   3  839.02   46.70 
  -2   3   3  835.72   43.80 
  -2   3   3  821.32   50.19 
   1  -3  -3 1356.56   68.59 
   1  -3  -3 1366.96   68.39 
   1  -3  -3 1328.97   69.99 
   1  -3  -3 1386.86   68.59 
  -1   3   3 1285.47   72.09 
  -1   3   3 1372.26   69.09 
   0  -3  -3  153.58    9.00 
   0  -3  -3  162.68    8.80 
   0  -3  -3  158.78    9.60 
   0   3   3  158.38    9.50 
   0   3   3  151.38    9.40 
   0   3   3  142.89    9.40 
   0   3   3  135.99    9.60 
   0   3   3  160.48   10.40 
  -1  -3  -3  593.94   30.40 
  -1  -3  -3  629.24   29.60 
  -1  -3  -3  581.14   30.20 
   1   3   3  547.25   31.40 
   1   3   3  592.74   31.10 
   1   3   3  514.35   33.20 
  -2  -3  -3 4797.82  229.98 
  -2  -3  -3 4657.53  230.98 
  -2  -3  -3 4738.73  230.88 
  -2  -3  -3 4495.25  230.68 
   2   3   3 4923.91  231.68 
   2   3   3 4501.75  231.28 
   2   3   3 4173.58  234.98 
   2   3   3 4465.25  231.78 
   2   3   3 5073.09  232.28 
   2   3   3 4420.86  232.78 
  -3  -3  -3 1009.50   51.39 
  -3  -3  -3 1030.30   52.79 
  -3  -3  -3  991.10   52.49 
   3   3   3  989.70   54.99 
   3   3   3 1059.79   53.59 
   3   3   3  991.80   53.09 
   3   3   3  887.61   57.59 
   3   3   3  993.80   53.39 
   3   3   3 1049.30   53.59 
   4   3   3   64.59   14.00 
   4   3   3   67.79   10.40 
   4   3   3   58.29    6.80 
   5   3   3  411.26   24.50 
   5   3   3  358.66   22.70 
   5  -4  -3   33.40    4.20 
   5  -4  -3   29.80    5.10 
   5  -4  -3   33.10    6.50 
   5  -4  -3   32.80    4.30 
   5  -4  -3   41.40    4.80 
  -5   4   3   39.90    3.70 
  -5   4   3   36.80    4.10 
   4  -4  -3   21.30    6.70 
   4  -4  -3   20.40    4.50 
   4  -4  -3   27.70    6.10 
   4  -4  -3   33.10    5.70 
   4  -4  -3   26.10    5.10 
   4  -4  -3   19.30    4.20 
   4  -4  -3   24.40    4.50 
   4  -4  -3   32.10    7.30 
  -4   4   3   27.20    6.90 
  -4   4   3   29.00    4.80 
  -4   4   3   26.70    3.80 
  -4   4   3   25.00    4.30 
   3  -4  -3  938.51   49.10 
   3  -4  -3  924.81   48.90 
   3  -4  -3  848.32   52.89 
   3  -4  -3  891.61   51.09 
   3  -4  -3  909.91   49.60 
   3  -4  -3  918.01   48.40 
   3  -4  -3 1038.50   59.19 
   3  -4  -3  858.11   52.19 
   3  -4  -3  846.02   48.80 
  -3   4   3  930.41   52.79 
  -3   4   3  847.52   47.20 
  -3   4   3  921.51   49.20 
  -3   4   3  818.12   48.60 
   2  -4  -3  448.36   25.00 
   2  -4  -3  458.05   24.60 
   2  -4  -3  396.76   24.20 
   2  -4  -3  433.56   27.30 
   2  -4  -3  420.36   25.10 
  -2   4   3  441.26   27.60 
  -2   4   3  453.95   34.00 
  -2   4   3  462.15   25.30 
  -2   4   3  440.86   25.10 
   1  -4  -3 5115.99  270.37 
   1  -4  -3 5459.05  270.77 
   1  -4  -3 5599.34  272.97 
   1  -4  -3 5823.12  271.17 
  -1   4   3 5638.94  271.77 
  -1   4   3 4817.32  274.27 
  -1   4   3 5591.24  273.37 
   0   4   3  855.41   51.39 
  -1  -4  -3 1513.85   73.29 
  -1  -4  -3 1450.65   74.39 
  -1  -4  -3 1442.66   73.89 
   1   4   3 1479.85   75.09 
   1   4   3 1386.66   75.49 
  -2  -4  -3 2360.06  115.69 
  -2  -4  -3 2477.25  115.39 
  -2  -4  -3 2307.97  116.39 
  -2  -4  -3 2308.27  116.39 
   2   4   3 2443.56  118.09 
   2   4   3 2163.38  118.49 
   2   4   3 2257.87  117.29 
   2   4   3 2062.59  121.79 
   2   4   3 2311.17  116.79 
  -3  -4  -3  318.27   19.10 
  -3  -4  -3  302.57   17.60 
  -3  -4  -3  335.47   17.70 
  -3  -4  -3  327.57   19.10 
   3   4   3  328.97   19.60 
   3   4   3  283.37   24.50 
   3   4   3  310.97   19.60 
   3   4   3  319.17   19.80 
   3   4   3  318.67   21.60 
   3   4   3  315.77   19.80 
  -4  -4  -3  106.39    8.70 
  -4  -4  -3  106.79    7.70 
   4   4   3  111.09    9.10 
   4   4   3   86.69   10.50 
   4   4   3  130.79   10.80 
   4   4   3  100.39   12.70 
   4   4   3   95.79    8.90 
   4   4   3  118.79   12.50 
   4   4   3   99.39   10.70 
   4   4   3  116.49   11.10 
   4   4   3   93.89    8.90 
  -5  -4  -3  152.38   10.60 
   5   4   3  173.68   12.80 
   5   4   3  167.08   11.00 
   5   4   3  168.68   12.00 
   5   4   3  154.78   12.60 
   5   4   3  154.38   11.90 
   5  -5  -3   44.40    5.20 
   5  -5  -3   68.49    6.00 
   5  -5  -3   53.29    5.00 
   5  -5  -3   42.50    6.30 
   5  -5  -3   60.59    5.20 
  -5   5   3   56.99    4.20 
  -5   5   3   54.19    4.90 
   4  -5  -3  174.08   12.70 
   4  -5  -3  162.28   15.20 
   4  -5  -3  177.58   11.80 
   4  -5  -3  195.18   14.80 
   4  -5  -3  190.68   13.00 
   4  -5  -3  169.88   18.00 
   4  -5  -3  175.58   13.00 
  -4   5   3  172.98   11.30 
  -4   5   3  157.88   12.50 
  -4   5   3  196.78   16.00 
   3  -5  -3 1700.53   97.09 
   3  -5  -3 1932.21   97.09 
   3  -5  -3 1880.71  102.19 
   3  -5  -3 2034.40   97.49 
   3  -5  -3 1971.40   97.49 
   3  -5  -3 1818.02   96.39 
   3  -5  -3 1885.31  101.39 
   3  -5  -3 1839.22   99.29 
  -3   5   3 1875.61   95.39 
  -3   5   3 2047.00  101.79 
  -3   5   3 1681.03   97.09 
  -3   5   3 1822.62   97.29 
   2  -5  -3 1632.94   84.19 
   2  -5  -3 1558.64   82.79 
   2  -5  -3 1533.25   83.79 
   2  -5  -3 1613.14   87.29 
  -2   5   3 1691.73   87.19 
  -2   5   3 1623.34   84.39 
  -2   5   3 1683.53   84.09 
   1  -5  -3  342.67   21.20 
   1  -5  -3  333.47   19.20 
  -1   5   3  354.66   20.10 
  -1   5   3  287.17   21.50 
  -1   5   3  351.06   21.60 
   0  -5  -3 2760.22  135.59 
   0  -5  -3 2852.31  135.79 
   0  -5  -3 2633.54  133.79 
   0  -5  -3 2613.74  133.89 
   0   5   3 2296.47  134.49 
   0   5   3 2822.02  137.19 
   0   5   3 2673.13  135.09 
  -1  -5  -3 1017.30   52.49 
  -1  -5  -3  980.80   50.99 
  -1  -5  -3  993.40   51.69 
  -1  -5  -3 1056.69   52.79 
   1   5   3 1027.60   56.69 
   1   5   3  919.11   53.39 
   1   5   3  987.00   52.99 
  -2  -5  -3  358.06   20.30 
  -2  -5  -3  355.76   20.60 
  -2  -5  -3  358.16   19.20 
  -2  -5  -3  379.66   20.70 
   2   5   3  298.27   25.40 
   2   5   3  352.76   21.20 
   2   5   3  354.36   22.80 
   2   5   3  346.17   20.70 
   2   5   3  354.26   21.70 
  -3  -5  -3  133.49    9.80 
  -3  -5  -3  136.39    8.70 
  -3  -5  -3  128.89    9.80 
  -3  -5  -3  137.09    9.40 
   3   5   3  123.59   11.80 
   3   5   3  122.19   10.10 
   3   5   3  130.79   10.30 
   3   5   3  103.19   14.40 
  -4  -5  -3    6.70    1.90 
  -4  -5  -3    6.20    2.60 
   4   5   3    5.60    2.40 
   4   5   3    4.00    5.20 
   4   5   3    9.50    3.70 
   4   5   3   13.40    7.80 
   4   5   3   11.00    5.40 
   4   5   3    4.00    5.70 
  -5  -5  -3  105.49    8.00 
  -5  -5  -3  106.29   10.00 
   5   5   3  105.19    9.60 
   5   5   3  119.99   10.10 
   5   5   3  120.69   11.60 
   5   5   3  120.39    8.40 
   4  -6  -3   20.80    5.20 
   4  -6  -3   24.60    4.30 
   4  -6  -3   18.10    3.30 
   4  -6  -3   26.90    5.00 
   4  -6  -3   11.20    4.50 
   4  -6  -3   18.30    4.10 
   4  -6  -3   23.40    4.00 
  -4   6   3   18.00    3.30 
  -4   6   3   17.60    3.70 
  -4   6   3   24.70    4.30 
   3  -6  -3  278.47   18.60 
   3  -6  -3  287.27   17.70 
   3  -6  -3  283.87   18.20 
   3  -6  -3  314.67   22.10 
   3  -6  -3  262.87   21.70 
   3  -6  -3  268.77   19.70 
   3  -6  -3  269.37   18.00 
   3  -6  -3  286.47   17.00 
   3  -6  -3  272.17   23.60 
  -3   6   3  257.17   17.70 
  -3   6   3  272.57   16.20 
  -3   6   3  273.17   17.70 
  -3   6   3  246.48   18.20 
  -3   6   3  314.17   21.80 
   2  -6  -3  569.64   30.80 
   2  -6  -3  565.34   32.80 
   2  -6  -3  556.44   35.80 
  -2   6   3  556.94   32.90 
  -2   6   3  614.14   35.80 
  -2   6   3  556.04   32.10 
   1  -6  -3  252.87   18.20 
   1  -6  -3  234.18   15.70 
  -1   6   3  266.27   17.00 
  -1   6   3  273.37   18.80 
   0  -6  -3  819.42   44.70 
   0  -6  -3  872.21   44.90 
   0  -6  -3  833.42   46.40 
   0  -6  -3  883.81   47.00 
   0   6   3  874.01   48.80 
   0   6   3  852.21   46.30 
  -1  -6  -3  279.87   17.40 
  -1  -6  -3  271.07   15.70 
  -1  -6  -3  279.37   17.80 
   1   6   3  272.67   18.30 
   1   6   3  262.17   16.80 
   1   6   3  286.77   17.80 
   1   6   3  279.47   21.20 
  -2  -6  -3  143.09   10.30 
  -2  -6  -3  133.89    9.70 
  -2  -6  -3  139.59   10.50 
  -2  -6  -3  136.09    8.70 
   2   6   3  143.29   12.20 
   2   6   3  124.99   10.10 
   2   6   3  107.99   14.40 
   2   6   3  133.19   10.90 
  -3  -6  -3   72.19    8.20 
  -3  -6  -3   77.49    7.70 
   3   6   3   85.79    9.60 
   3   6   3   63.89   14.50 
   3   6   3   82.69    9.70 
   3   6   3   83.09    7.80 
   3   6   3   77.49    8.00 
   3   6   3   67.59    9.70 
   3   6   3   60.99   11.50 
   3   6   3   83.69    7.50 
  -4  -6  -3  246.28   15.50 
   4   6   3  196.18   17.30 
   4   6   3  246.48   18.10 
   4   6   3  234.78   15.20 
   4   6   3  230.08   15.00 
   4   6   3  222.08   15.10 
   4   6   3  203.08   22.20 
   4   6   3  195.68   15.80 
   4   6   3  246.98   15.60 
  -5  -6  -3   38.20    4.10 
   5   6   3   45.10    5.10 
   5   6   3   49.20    4.70 
   5   6   3   44.00    5.40 
   4  -7  -3    7.30    2.10 
   4  -7  -3    3.60    2.10 
   4  -7  -3    2.40    2.80 
   4  -7  -3    4.20    2.20 
  -4   7   3    7.80    3.10 
  -4   7   3    4.20    1.50 
   3  -7  -3  107.89   11.40 
   3  -7  -3   86.29    8.50 
   3  -7  -3   87.59    7.90 
   3  -7  -3   96.39    8.60 
   3  -7  -3  102.79    9.80 
  -3   7   3   95.09    6.90 
  -3   7   3   84.19    8.10 
  -3   7   3  107.49    8.70 
  -3   7   3  106.49   11.20 
   2  -7  -3   94.09    9.50 
   2  -7  -3   85.89   10.30 
   2  -7  -3  117.39   10.80 
   2  -7  -3   92.09    8.60 
   2  -7  -3  107.79    8.90 
   2  -7  -3  100.69   16.50 
  -2   7   3   94.19    9.10 
  -2   7   3   87.19    6.60 
  -2   7   3  100.69   11.20 
  -2   7   3   99.89    8.60 
   1  -7  -3  454.85   26.60 
   1  -7  -3  436.76   29.30 
  -1   7   3  472.95   27.90 
  -1   7   3  480.15   30.50 
   0  -7  -3  446.36   25.90 
   0  -7  -3  509.95   29.00 
   0  -7  -3  451.35   27.80 
   0  -7  -3  484.15   26.40 
   0   7   3  466.55   27.70 
   0   7   3  469.05   30.90 
  -1  -7  -3  417.56   24.20 
  -1  -7  -3  436.16   26.30 
  -1  -7  -3  403.06   23.80 
  -1  -7  -3  433.96   25.90 
   1   7   3  429.46   24.80 
   1   7   3  431.76   30.40 
   1   7   3  458.75   26.40 
   1   7   3  429.56   26.70 
  -2  -7  -3  684.53   41.40 
  -2  -7  -3  761.52   42.50 
   2   7   3  738.33   41.40 
   2   7   3  743.13   41.10 
   2   7   3  775.22   41.60 
   2   7   3  723.63   41.80 
   2   7   3  719.53   43.70 
   2   7   3  763.62   49.90 
   2   7   3  694.63   43.30 
   2   7   3  822.32   43.10 
   2   7   3  803.82   44.50 
  -3  -7  -3  585.94   32.30 
  -3  -7  -3  534.45   31.40 
   3   7   3  540.55   30.70 
   3   7   3  492.65   39.80 
   3   7   3  508.05   32.40 
   3   7   3  531.05   33.90 
   3   7   3  528.05   31.30 
   3   7   3  566.14   31.50 
   3   7   3  511.45   33.30 
   3   7   3  552.14   31.30 
  -4  -7  -3  507.45   28.40 
   4   7   3  506.85   27.60 
   4   7   3  461.95   35.40 
   4   7   3  394.46   28.70 
   4   7   3  462.75   28.10 
   4   7   3  488.75   27.20 
  -5  -7  -3   16.70    2.50 
   5   7   3   11.50    2.00 
   5   7   3   12.40    2.80 
   5   7   3   13.70    2.40 
   5   7   3   15.20    3.30 
   4  -8  -3   58.09    6.10 
   4  -8  -3   56.39    5.00 
   4  -8  -3   49.90    4.90 
  -4   8   3   63.39    5.00 
  -4   8   3   51.19    5.30 
   3  -8  -3  153.18   12.50 
   3  -8  -3  172.48   18.10 
   3  -8  -3  166.68   12.50 
  -3   8   3  186.28   16.50 
  -3   8   3  187.08   12.30 
  -3   8   3  172.98   10.10 
  -3   8   3  187.48   12.60 
   2  -8  -3   55.39   11.00 
   2  -8  -3   75.59   14.80 
   2  -8  -3   67.69    9.60 
   2  -8  -3   71.09    8.10 
   2  -8  -3   72.09    8.00 
  -2   8   3   71.89    5.70 
  -2   8   3   60.39    7.50 
  -2   8   3   85.89    8.90 
  -2   8   3   84.79    9.30 
  -2   8   3   82.99   10.50 
   1  -8  -3  133.19   18.40 
   1  -8  -3  155.08   13.40 
   1  -8  -3  123.99   10.60 
   1  -8  -3  136.89   12.10 
  -1   8   3  155.48   11.10 
  -1   8   3  142.89   11.40 
  -1   8   3  167.18   15.30 
  -1   8   3  131.39   11.20 
   0  -8  -3   39.80    7.00 
   0  -8  -3   35.70    6.80 
   0  -8  -3   44.10   13.10 
   0  -8  -3   27.60    4.00 
   0   8   3   39.10    5.50 
   0   8   3   54.39   11.70 
   0   8   3   33.70    6.30 
   0   8   3   39.60    9.30 
   0   8   3   51.39    6.20 
   0   8   3   41.10    5.60 
   0   8   3   39.20    8.10 
  -1  -8  -3 3497.35  193.58 
  -1  -8  -3 2957.40  159.18 
   1   8   3 2839.82  154.88 
   1   8   3 2846.12  156.98 
   1   8   3 2943.71  157.78 
   1   8   3 3118.79  157.68 
   1   8   3 3173.08  166.48 
   1   8   3 3257.07  157.78 
   1   8   3 2895.01  186.68 
  -2  -8  -3 1562.84   86.99 
  -2  -8  -3 1299.17   71.79 
  -2  -8  -3 1235.08   73.49 
  -2  -8  -3 1423.16   74.79 
   2   8   3 1395.46   82.59 
   2   8   3 1340.97   75.19 
   2   8   3 1315.67   75.19 
   2   8   3 1443.16   83.59 
   2   8   3 1395.46   72.99 
   2   8   3 1383.56   73.79 
   2   8   3 1440.06   73.19 
   2   8   3 1306.27   74.39 
   2   8   3 1490.65   76.59 
   2   8   3 1385.16   72.49 
  -3  -8  -3    2.60    2.10 
  -3  -8  -3    3.50    2.10 
   3   8   3    5.00    2.20 
   3   8   3    6.50    3.20 
   3   8   3    7.90    3.40 
   3   8   3    2.10    1.90 
   3   8   3    7.50    3.30 
   3   8   3    4.80    2.80 
   3   8   3    3.90    4.80 
   3   8   3    6.30    3.30 
  -4  -8  -3    9.20    2.60 
  -4  -8  -3   17.40    3.20 
   4   8   3   12.70    2.50 
   4   8   3   16.40    4.00 
   4   8   3   15.40    2.90 
   4   8   3   15.90    3.60 
   4   8   3   14.40    3.10 
   4   8   3   14.10    3.80 
   3  -9  -3   13.10    3.80 
   3  -9  -3   16.40    3.10 
   3  -9  -3   12.00    2.80 
  -3   9   3   13.20    2.60 
  -3   9   3   12.40    3.70 
   2  -9  -3   20.20    8.80 
   2  -9  -3   25.90    4.80 
   2  -9  -3   19.30    5.00 
  -2   9   3   32.00    4.50 
  -2   9   3   22.80    6.00 
  -2   9   3   19.10    4.00 
   1  -9  -3  160.38   21.20 
   1  -9  -3  159.38   13.40 
   1  -9  -3  164.68   14.60 
  -1   9   3  138.09   12.30 
  -1   9   3  161.08   11.80 
  -1   9   3  163.18   16.20 
  -1   9   3  170.58   12.80 
   0  -9  -3   71.09    8.20 
   0  -9  -3   70.79    8.70 
   0  -9  -3   69.29    5.50 
   0  -9  -3   95.59   15.80 
   0   9   3   76.49    7.80 
   0   9   3   60.69    7.10 
   0   9   3   69.59    7.60 
   0   9   3   72.09    8.20 
   0   9   3   75.19   10.80 
  -1  -9  -3  299.77   17.40 
  -1  -9  -3  276.47   19.70 
  -1  -9  -3  311.67   30.40 
  -1  -9  -3  267.67   19.30 
   1   9   3  271.57   20.50 
   1   9   3  296.07   17.70 
   1   9   3  283.97   21.60 
   1   9   3  304.77   27.90 
   1   9   3  285.87   24.60 
   1   9   3  290.67   21.00 
   1   9   3  246.68   19.40 
   1   9   3  338.37   25.90 
  -2  -9  -3  124.89    9.10 
  -2  -9  -3  119.49   16.10 
  -2  -9  -3  106.19   10.20 
   2   9   3  130.19   11.20 
   2   9   3  117.89    9.30 
   2   9   3  113.39   14.60 
   2   9   3   98.59    9.90 
   2   9   3  117.49    9.20 
   2   9   3  124.99   10.50 
   2   9   3   98.99   14.10 
   2   9   3  107.39   10.70 
   2   9   3  120.59    8.90 
  -3  -9  -3   26.80    3.90 
  -3  -9  -3   16.20    4.80 
   3   9   3   20.90    4.80 
   3   9   3   27.60    3.90 
   3   9   3   21.30    6.10 
   3   9   3   24.30    6.60 
   3   9   3   27.70    5.00 
   3   9   3   32.60    5.00 
   3   9   3   33.30    5.10 
   3   9   3   36.30    5.60 
  -4  -9  -3   24.80    3.00 
  -4  -9  -3   27.30    4.90 
   4   9   3   18.10    2.70 
   4   9   3   17.20    3.30 
   4   9   3   18.50    3.50 
   4   9   3   18.50    3.60 
   4   9   3   20.30    3.80 
   3 -10  -3   46.90    5.20 
  -3  10   3   37.30    3.90 
  -3  10   3   38.30    5.40 
   2 -10  -3   47.70    6.60 
  -2  10   3   39.90    4.90 
  -2  10   3   47.00    5.20 
   1 -10  -3    9.10    3.80 
   1 -10  -3    7.50    5.40 
  -1  10   3    6.40    4.70 
   0 -10  -3   48.30    6.40 
   0  10   3   41.90    5.30 
   0  10   3   35.00    8.10 
   0  10   3   40.70    5.60 
   0  10   3   47.10    6.50 
  -1 -10  -3   95.99   15.40 
  -1 -10  -3  104.39    7.30 
  -1 -10  -3  109.99   10.20 
   1  10   3   85.39    8.60 
   1  10   3  106.59    9.60 
   1  10   3  109.59    8.80 
   1  10   3  103.19   12.70 
   1  10   3  100.89    9.90 
  -2 -10  -3    3.50    4.70 
  -2 -10  -3   12.60    3.20 
  -2 -10  -3   12.00    2.50 
  -2 -10  -3    8.40    3.20 
   2  10   3    4.70    4.20 
   2  10   3   11.70    3.50 
   2  10   3    9.50    2.10 
   2  10   3   11.40    2.30 
   2  10   3   11.00    2.90 
   2  10   3   10.20    3.10 
   2  10   3   14.40    3.50 
   2  10   3   11.90    3.10 
  -3 -10  -3   15.80    3.90 
  -3 -10  -3   25.40    3.50 
   3  10   3   29.80    4.90 
   3  10   3   25.90    4.20 
   3  10   3   19.40    2.90 
   2 -11  -3    6.40    4.10 
  -2  11   3    5.30    1.70 
   1 -11  -3   15.30    6.30 
  -1  11   3   18.50    4.20 
   0 -11  -3   52.39    7.00 
   0 -11  -3   58.89   11.50 
   0  11   3   64.79    6.70 
   0  11   3   54.09    5.70 
  -1 -11  -3    8.30    5.20 
  -1 -11  -3   12.90    3.20 
   1  11   3   11.30    2.60 
   1  11   3    7.80    2.80 
   1  11   3   10.00    2.70 
  -2 -11  -3  142.19    8.20 
   2  11   3  172.38   13.30 
   2  11   3  125.99    9.30 
   2  11   3  144.49   11.00 
   2  11   3  139.29   12.30 
   2  11   3  121.99    8.80 
   0 -12  -3   31.00    7.50 
   0  12   3   32.70    4.40 
   0  12   3   43.70    3.90 
  -1 -12  -3   12.10    3.40 
  -1 -12  -3    2.50    3.30 
   1  12   3    8.60    1.70 
   1  12   3    8.10    2.40 
   1  11  -4   44.90    4.30 
   1  11  -4   39.80    4.80 
  -1 -11   4   51.09    4.50 
   0  11  -4   20.70    3.90 
   0  11  -4   18.40    3.50 
   0 -11   4   23.20    4.40 
  -1  11  -4   46.80    5.00 
   1 -11   4   46.70    5.60 
  -2  11  -4   72.49    7.00 
   2 -11   4   54.39    8.30 
   2  10  -4    3.50    2.20 
   2  10  -4    6.50    2.10 
  -2 -10   4    6.20    2.40 
  -2 -10   4    6.90    2.40 
   1  10  -4    1.70    2.30 
   1  10  -4    2.90    1.80 
  -1 -10   4    2.80    2.40 
  -1 -10   4    3.10    2.50 
   0  10  -4    8.90    2.80 
   0  10  -4    4.60    2.40 
   0 -10   4    3.70    2.80 
   0 -10   4    3.40    3.10 
  -1  10  -4  193.58   12.80 
  -1  10  -4  149.79   11.50 
   1 -10   4  181.18   13.80 
   1 -10   4  133.79   18.00 
  -2  10  -4  127.99    9.40 
  -2  10  -4  138.69   10.10 
   2 -10   4  123.59   17.20 
  -3  10  -4   73.69    5.80 
   3 -10   4   51.09    9.20 
   3   9  -4    0.90    2.80 
   3   9  -4    6.90    1.50 
  -3  -9   4    5.50    2.30 
  -3  -9   4    2.50    1.40 
   2   9  -4   41.60    5.50 
   2   9  -4   35.60    5.00 
   2   9  -4   46.30    5.80 
   2   9  -4   39.50    5.70 
  -2  -9   4   40.40    5.90 
  -2  -9   4   45.60    5.50 
   1   9  -4    9.20    3.50 
   1   9  -4    8.10    3.70 
   1   9  -4    1.90    3.70 
  -1  -9   4   16.80    3.50 
  -1  -9   4   14.90    4.20 
  -1  -9   4    5.60    3.50 
   0   9  -4  203.78   14.90 
   0   9  -4  196.98   14.50 
   0  -9   4  191.78   15.70 
   0  -9   4  211.88   14.30 
   0  -9   4  166.18   27.70 
  -1   9  -4  163.58   12.40 
  -1   9  -4  152.28   14.90 
  -1   9  -4  116.79   11.90 
  -1   9  -4  165.18   12.10 
   1  -9   4  158.08   13.80 
   1  -9   4  150.88   20.60 
   1  -9   4  136.59   15.90 
  -2   9  -4    7.70    3.00 
  -2   9  -4   11.30    2.00 
  -2   9  -4    5.50    2.50 
  -2   9  -4    8.50    4.20 
   2  -9   4   13.60    9.00 
   2  -9   4   10.20    3.50 
   2  -9   4    7.00    4.10 
   2  -9   4    3.40    3.50 
   2  -9   4    9.90    5.00 
  -3   9  -4   44.30    3.60 
  -3   9  -4   41.40    4.60 
  -3   9  -4   34.20    5.30 
  -3   9  -4   37.60    5.30 
   3  -9   4   30.10    6.30 
   3  -9   4   33.80    6.90 
   3  -9   4   33.50   10.30 
   3  -9   4   40.50    5.00 
   3   8  -4   41.70    7.30 
   3   8  -4   31.80    4.20 
   3   8  -4   29.00    5.40 
   3   8  -4   46.20    5.00 
   3   8  -4   34.10    5.00 
   3   8  -4   33.70    5.50 
  -3  -8   4   40.20    4.60 
  -3  -8   4   41.90    5.20 
  -3  -8   4   39.30    3.60 
   2   8  -4   10.00    3.50 
   2   8  -4   12.90    4.30 
   2   8  -4    7.10    3.40 
   2   8  -4   13.00    3.70 
  -2  -8   4    8.80    3.10 
  -2  -8   4    8.10    2.20 
  -2  -8   4    6.20    2.60 
   1   8  -4  104.29   10.40 
   1   8  -4  110.39   10.20 
   1   8  -4  112.29   10.70 
   1   8  -4  111.89   11.80 
  -1  -8   4  114.39    9.60 
  -1  -8   4  112.29   10.80 
  -1  -8   4  108.09   10.60 
  -1  -8   4  106.39    7.20 
   0   8  -4  172.18   12.20 
   0   8  -4  166.48   11.50 
   0   8  -4  183.08   13.80 
   0   8  -4  156.18   13.20 
   0   8  -4  167.58   13.10 
   0   8  -4  172.88   16.90 
   0  -8   4  195.98   13.60 
   0  -8   4  161.08   12.40 
   0  -8   4  183.58   23.40 
   0  -8   4  173.48   14.90 
  -1   8  -4   15.30    3.80 
  -1   8  -4   17.70    3.80 
  -1   8  -4   13.80    2.80 
  -1   8  -4   15.40    2.90 
  -1   8  -4   17.50    3.90 
   1  -8   4   12.50    4.70 
   1  -8   4    5.00    6.00 
   1  -8   4   12.30    3.80 
   1  -8   4   14.90    5.80 
  -2   8  -4  101.69    9.40 
  -2   8  -4   73.89   11.70 
  -2   8  -4   90.39    9.10 
  -2   8  -4   96.19    8.30 
  -2   8  -4  103.69   10.50 
  -2   8  -4   92.39    7.00 
   2  -8   4  100.79   17.60 
   2  -8   4   88.99    9.30 
   2  -8   4   93.79    8.70 
   2  -8   4   87.79   10.40 
   2  -8   4   80.49    9.10 
  -3   8  -4   28.30    4.70 
  -3   8  -4   39.70    5.00 
   3  -8   4   22.30    3.80 
   3  -8   4   26.90    6.00 
   3  -8   4   34.80    4.70 
   3  -8   4   21.00    6.50 
   3  -8   4   23.80    9.60 
  -4   8  -4   20.10    3.70 
  -4   8  -4   14.20    3.10 
   4  -8   4   11.30    3.70 
   4  -8   4   12.40    5.80 
   4  -8   4   17.10    4.60 
   4  -8   4   14.40    3.70 
   4  -8   4   16.70    2.90 
   4   7  -4  125.09    8.50 
   4   7  -4  139.19    9.80 
   4   7  -4  129.89    8.10 
   4   7  -4  120.19    9.10 
   4   7  -4  122.59    8.20 
  -4  -7   4  138.99    8.00 
  -4  -7   4  136.69    8.50 
   3   7  -4   19.10    3.60 
   3   7  -4   25.30    4.50 
   3   7  -4   17.70    5.40 
   3   7  -4   13.60    4.20 
   3   7  -4   19.00    4.30 
   3   7  -4   15.80    3.40 
  -3  -7   4   22.40    3.60 
  -3  -7   4   12.70    4.20 
  -3  -7   4   15.40    4.10 
  -3  -7   4   11.00    3.50 
   2   7  -4   14.30    3.80 
   2   7  -4   19.60    5.50 
   2   7  -4   37.00    6.10 
   2   7  -4   27.50    4.50 
   2   7  -4   14.20    4.30 
  -2  -7   4   23.60    4.50 
  -2  -7   4   24.30    4.50 
  -2  -7   4   15.50    5.30 
  -2  -7   4   20.70    4.90 
  -2  -7   4   25.90    3.80 
   1   7  -4  243.48   17.90 
   1   7  -4  248.98   17.40 
   1   7  -4  271.17   18.50 
   1   7  -4  236.18   16.40 
   1   7  -4  261.97   15.90 
   1   7  -4  251.87   19.10 
   1   7  -4  301.27   24.90 
  -1  -7   4  239.08   18.20 
  -1  -7   4  236.98   14.90 
  -1  -7   4  271.27   17.80 
  -1  -7   4  255.97   17.00 
   0   7  -4  304.57   20.70 
   0   7  -4  297.77   29.60 
   0   7  -4  294.47   19.40 
   0   7  -4  299.27   19.90 
   0   7  -4  281.27   17.50 
   0   7  -4  320.97   20.90 
   0   7  -4  302.87   18.60 
   0  -7   4  298.17   22.00 
   0  -7   4  310.87   19.20 
   0  -7   4  320.97   28.20 
   0  -7   4  295.47   19.90 
  -1   7  -4  123.79   14.70 
  -1   7  -4  125.19    8.50 
  -1   7  -4  139.79    9.90 
  -1   7  -4  131.79    9.00 
  -1   7  -4  131.59   10.50 
  -1   7  -4  115.29    9.80 
   1  -7   4  132.49   19.60 
   1  -7   4  135.69   16.60 
   1  -7   4  116.09   13.50 
  -2   7  -4    4.80    2.00 
  -2   7  -4    3.50    2.40 
  -2   7  -4    6.90    2.80 
  -2   7  -4    2.80    1.90 
  -2   7  -4    6.30    2.80 
  -2   7  -4    4.00    2.40 
   2  -7   4    8.80    3.70 
   2  -7   4   11.50    7.30 
   2  -7   4    7.10    4.20 
   2  -7   4    5.60    3.20 
   2  -7   4    7.30    2.80 
   2  -7   4   12.70    5.00 
   2  -7   4    3.70    2.60 
  -3   7  -4  108.39    7.70 
  -3   7  -4  104.99    9.00 
  -3   7  -4  114.59    8.70 
  -3   7  -4   96.19    9.00 
  -3   7  -4  111.89    8.60 
   3  -7   4  105.59   12.50 
   3  -7   4   83.79    8.20 
   3  -7   4  112.09   19.70 
   3  -7   4  105.99   10.90 
   3  -7   4  111.79    9.80 
   3  -7   4  105.69   12.30 
   3  -7   4  100.09    8.80 
  -4   7  -4   22.60    3.30 
  -4   7  -4   19.10    3.80 
  -4   7  -4   25.40    4.40 
   4  -7   4   30.90    5.80 
   4  -7   4   17.50    5.50 
   4  -7   4   10.50    7.30 
   4  -7   4   18.00    3.60 
   4  -7   4   21.40    3.80 
   4  -7   4   18.00    4.00 
   4   6  -4   52.39    9.50 
   4   6  -4   38.90    5.40 
   4   6  -4   43.60    5.80 
   4   6  -4   36.60    4.80 
  -4  -6   4   48.00    4.20 
   3   6  -4  243.38   16.60 
   3   6  -4  233.48   16.40 
   3   6  -4  209.38   20.20 
   3   6  -4  254.77   15.70 
   3   6  -4  257.07   18.90 
   3   6  -4  243.58   20.70 
   3   6  -4  236.88   17.60 
   3   6  -4  236.28   16.20 
   3   6  -4  203.98   16.00 
  -3  -6   4  214.28   16.60 
  -3  -6   4  243.68   16.60 
  -3  -6   4  271.97   16.90 
  -3  -6   4  253.37   15.20 
   2   6  -4  564.84   31.30 
   2   6  -4  566.34   35.40 
   2   6  -4  552.44   32.40 
   2   6  -4  530.65   37.50 
   2   6  -4  515.75   33.50 
   2   6  -4  574.14   35.10 
   2   6  -4  571.94   32.80 
   2   6  -4  512.85   32.50 
   2   6  -4  565.84   31.40 
   2   6  -4  585.44   32.70 
   2   6  -4  612.64   41.00 
  -2  -6   4  515.45   30.50 
  -2  -6   4  576.34   31.20 
  -2  -6   4  492.25   32.60 
  -2  -6   4  580.84   32.70 
  -2  -6   4  546.85   32.80 
   1   6  -4   75.89    9.30 
   1   6  -4   77.09    9.10 
   1   6  -4   75.69    7.30 
   1   6  -4   65.99    7.40 
   1   6  -4   85.09    6.90 
  -1  -6   4   82.89    7.80 
  -1  -6   4   85.79    6.70 
   0   6  -4  266.17   15.90 
   0   6  -4  273.67   16.70 
   0   6  -4  261.27   18.40 
   0  -6   4  276.97   17.20 
  -1   6  -4  616.64   31.80 
  -1   6  -4  613.44   32.60 
  -1   6  -4  561.94   33.10 
  -1   6  -4  577.34   33.80 
  -1   6  -4  607.14   33.40 
   1  -6   4  590.04   32.60 
  -2   6  -4   22.60    3.60 
  -2   6  -4   25.00    4.30 
   2  -6   4   47.30   13.60 
   2  -6   4   26.90    8.50 
   2  -6   4   23.00    6.10 
   2  -6   4   21.40    3.90 
  -3   6  -4   30.90    4.20 
  -3   6  -4   33.70    5.20 
  -3   6  -4   27.90    5.30 
  -3   6  -4   24.80    3.70 
  -3   6  -4   29.00    4.50 
   3  -6   4   29.90    5.10 
   3  -6   4   29.10    4.50 
   3  -6   4   32.70    5.90 
   3  -6   4   40.60    5.60 
   3  -6   4   17.70    5.40 
   3  -6   4   30.00    7.60 
   3  -6   4   25.30   10.20 
   3  -6   4   19.70    4.10 
   3  -6   4   22.90    7.40 
  -4   6  -4  366.56   20.10 
  -4   6  -4  341.67   21.20 
  -4   6  -4  375.36   20.60 
   4  -6   4  371.26   20.60 
   4  -6   4  341.17   23.90 
   4  -6   4  316.37   26.20 
   4  -6   4  364.96   21.60 
   4  -6   4  338.97   21.70 
   4  -6   4  368.86   21.40 
   4  -6   4  323.57   20.60 
  -5   6  -4    9.30    1.80 
   5  -6   4    8.50    2.40 
   5  -6   4    9.50    3.00 
   5  -6   4    7.30    2.00 
   5  -6   4    0.20    4.40 
   5  -6   4    8.00    3.60 
   4   5  -4   54.29    5.20 
   4   5  -4   47.20    5.90 
   4   5  -4   53.69    7.60 
   4   5  -4   38.10    6.10 
   4   5  -4   37.70    8.50 
   4   5  -4   42.40    6.10 
  -4  -5   4   49.99    4.80 
  -4  -5   4   35.80    5.20 
  -4  -5   4   46.50    5.60 
   3   5  -4  291.57   26.70 
   3   5  -4  256.17   21.60 
   3   5  -4  312.57   23.90 
   3   5  -4  276.67   22.80 
   3   5  -4  299.87   21.60 
   3   5  -4  347.97   25.50 
   3   5  -4  253.07   21.00 
   3   5  -4  292.57   18.80 
   3   5  -4  265.87   23.30 
   3   5  -4  329.17   30.70 
   3   5  -4  267.87   21.30 
   3   5  -4  326.17   20.50 
  -3  -5   4  311.37   19.30 
  -3  -5   4  284.57   21.10 
  -3  -5   4  271.37   21.10 
  -3  -5   4  280.77   18.20 
  -3  -5   4  258.57   19.50 
   2   5  -4  459.25   34.70 
   2   5  -4  532.65   31.00 
   2   5  -4  461.85   35.10 
   2   5  -4  489.95   33.00 
   2   5  -4  540.95   31.00 
   2   5  -4  542.45   33.80 
   2   5  -4  564.34   31.90 
   2   5  -4  609.14   30.90 
   2   5  -4  516.35   29.80 
  -2  -5   4  494.95   29.40 
  -2  -5   4  551.94   29.80 
  -2  -5   4  530.25   31.80 
  -2  -5   4  552.44   28.40 
  -2  -5   4  553.04   31.30 
   1   5  -4  543.45   31.30 
   1   5  -4  570.54   34.60 
   1   5  -4  479.05   34.30 
   1   5  -4  564.74   33.60 
  -1  -5   4  550.64   28.80 
  -1  -5   4  566.34   32.30 
  -1  -5   4  566.74   31.60 
  -1  -5   4  600.34   30.20 
   0   5  -4 1462.65   72.29 
   0   5  -4 1394.86   74.89 
   0   5  -4 1437.26   73.09 
   0   5  -4 1380.86   72.49 
   0   5  -4 1429.76   72.79 
   0  -5   4 1337.67   73.29 
   0  -5   4 1424.16   80.09 
   0  -5   4 1431.86   72.19 
  -1   5  -4  259.97   14.30 
  -1   5  -4  254.07   15.60 
  -1   5  -4  226.18   15.60 
  -1   5  -4  248.98   14.90 
  -1   5  -4  241.58   15.40 
   1  -5   4  247.08   15.00 
   1  -5   4  243.28   21.70 
   1  -5   4  242.98   15.60 
  -2   5  -4  136.49   10.90 
  -2   5  -4  135.69    9.20 
  -2   5  -4  151.38   10.50 
   2  -5   4  142.89    9.60 
   2  -5   4  133.19   10.20 
  -3   5  -4  139.39   10.70 
  -3   5  -4  147.69   11.60 
  -3   5  -4  147.89   15.40 
   3  -5   4  129.19   28.70 
   3  -5   4  140.89   12.60 
   3  -5   4  150.58   14.90 
   3  -5   4  158.48   19.30 
   3  -5   4  123.29   10.60 
  -4   5  -4   53.69    5.80 
  -4   5  -4   54.49    6.00 
   4  -5   4   55.09    7.00 
   4  -5   4   60.69    6.80 
   4  -5   4   62.69   10.30 
   4  -5   4   55.49    6.20 
   4  -5   4   48.90    6.40 
   4  -5   4   65.19    7.10 
  -5   5  -4  112.09    8.30 
  -5   5  -4  126.69    7.60 
   5  -5   4   98.79   11.80 
   5  -5   4  122.39   10.30 
   5  -5   4  116.99    9.20 
   5  -5   4  133.19    9.10 
   5  -5   4  122.79    8.70 
   5  -5   4   91.59   13.60 
   4   4  -4  335.47   24.30 
   4   4  -4  364.16   23.00 
   4   4  -4  341.57   26.70 
   4   4  -4  350.16   24.20 
   4   4  -4  355.46   28.60 
   4   4  -4  385.66   24.40 
  -4  -4   4  372.26   21.20 
  -4  -4   4  348.47   23.10 
  -4  -4   4  388.06   22.10 
   3   4  -4   54.89    7.70 
   3   4  -4   42.70    7.50 
   3   4  -4   50.39    6.30 
   3   4  -4   52.79    7.50 
   3   4  -4   53.09    7.30 
   3   4  -4   41.80    7.00 
   3   4  -4   48.90    6.30 
   3   4  -4   35.50    7.80 
   3   4  -4   42.40    6.90 
   3   4  -4   59.79   11.10 
   3   4  -4   44.70    9.00 
   3   4  -4   36.30    5.60 
  -3  -4   4   46.40    5.90 
  -3  -4   4   49.10    6.40 
  -3  -4   4   44.90    5.50 
  -3  -4   4   44.20    5.60 
  -3  -4   4   57.89    7.00 
   2   4  -4  488.65   27.90 
   2   4  -4  484.95   28.90 
   2   4  -4  496.45   28.60 
   2   4  -4  423.26   31.80 
   2   4  -4  500.55   26.30 
   2   4  -4  526.75   30.90 
   2   4  -4  490.35   28.10 
  -2  -4   4  447.96   28.50 
  -2  -4   4  460.75   25.60 
  -2  -4   4  442.06   26.60 
  -2  -4   4  497.45   28.10 
   1   4  -4  133.79    9.10 
   1   4  -4  144.99    9.60 
   1   4  -4  137.49    9.10 
   1   4  -4  113.89   11.30 
   1   4  -4  120.49    9.70 
   1   4  -4  122.79   10.50 
  -1  -4   4  123.69    9.70 
  -1  -4   4  111.39    7.30 
  -1  -4   4  132.19   13.00 
  -1  -4   4  116.59    9.10 
  -1  -4   4  126.09    8.20 
   0   4  -4 1375.56   72.79 
   0   4  -4 1417.86   71.69 
   0   4  -4 1405.36   70.79 
   0   4  -4 1387.66   70.89 
   0   4  -4 1406.56   71.49 
   0  -4   4 1269.47   71.59 
   0  -4   4 1455.65   77.39 
  -1   4  -4 2165.48  115.69 
  -1   4  -4 2211.68  114.29 
  -1   4  -4 2326.27  115.09 
  -1   4  -4 2436.36  115.89 
   1  -4   4 2313.77  123.69 
   1  -4   4 2234.48  115.39 
   1  -4   4 2255.27  115.19 
  -2   4  -4   22.10    3.50 
  -2   4  -4   26.00    3.90 
   2  -4   4   29.00    3.80 
   2  -4   4   22.20    3.90 
  -3   4  -4  216.18   13.80 
  -3   4  -4  217.08   15.30 
   3  -4   4  208.58   13.50 
   3  -4   4  200.58   14.20 
  -4   4  -4   28.30    5.10 
   4  -4   4   15.80    4.30 
   4  -4   4   16.80    5.70 
   4  -4   4   25.00    4.70 
   4  -4   4   15.40    3.70 
   4  -4   4   19.60    5.10 
   4  -4   4   20.90    4.30 
   4  -4   4   27.90    4.70 
   4  -4   4   27.50   10.60 
  -5   4  -4    2.70    1.40 
   5  -4   4   -0.50    2.40 
   5  -4   4    2.70    2.40 
   5  -4   4    1.10    2.10 
   5  -4   4   -3.20    2.30 
   5  -4   4   -2.80    2.70 
   5   3  -4    5.20    2.10 
   5   3  -4   10.00    2.90 
   5   3  -4    2.60    2.50 
   5   3  -4    6.60    2.20 
   5   3  -4    5.40    2.30 
  -5  -3   4    1.90    1.50 
  -5  -3   4    5.10    1.70 
   4   3  -4  476.25   26.20 
   4   3  -4  449.36   29.40 
   4   3  -4  441.16   27.90 
   4   3  -4  443.06   27.30 
   4   3  -4  467.85   28.30 
   4   3  -4  402.56   35.10 
   4   3  -4  472.85   33.00 
   4   3  -4  476.75   29.00 
   4   3  -4  443.96   28.20 
  -4  -3   4  467.55   26.10 
  -4  -3   4  456.85   28.30 
   3   3  -4  358.86   20.80 
   3   3  -4  317.27   22.30 
   3   3  -4  350.66   22.60 
   3   3  -4  328.87   23.00 
   3   3  -4  347.87   31.10 
   3   3  -4  318.57   22.70 
   3   3  -4  357.06   24.80 
   3   3  -4  319.97   23.70 
   3   3  -4  338.07   22.50 
   3   3  -4  306.97   32.30 
   3   3  -4  371.46   26.50 
   3   3  -4  293.77   24.70 
  -3  -3   4  344.07   21.20 
  -3  -3   4  354.76   22.80 
  -3  -3   4  359.76   22.80 
   2   3  -4  151.48   12.40 
   2   3  -4  156.08   14.70 
   2   3  -4  155.38   11.70 
   2   3  -4  163.68   11.90 
   2   3  -4  160.88   13.30 
   2   3  -4  200.08   19.10 
   2   3  -4  157.38   10.30 
  -2  -3   4  160.98   11.50 
  -2  -3   4  158.98   12.00 
   1   3  -4  305.97   16.10 
   1   3  -4  282.97   17.10 
   1   3  -4  262.87   19.40 
   1   3  -4  275.97   17.80 
   1   3  -4  313.57   18.90 
   1   3  -4  304.77   17.50 
   1   3  -4  292.77   17.10 
  -1  -3   4  324.47   21.20 
  -1  -3   4  285.17   17.40 
  -1  -3   4  271.47   15.90 
  -1  -3   4  301.17   18.10 
   0   3  -4 1293.37   68.89 
   0   3  -4 1447.66   69.69 
   0   3  -4 1290.07   70.19 
   0   3  -4 1393.06   68.89 
   0   3  -4 1291.77   68.79 
   0  -3   4 1443.06   68.19 
   0  -3   4 1325.57   67.39 
   0  -3   4 1394.26   74.09 
   0  -3   4 1313.67   68.69 
  -1   3  -4 7586.14  402.26 
  -1   3  -4 8652.73  401.36 
   1  -3   4 8004.70  402.26 
  -2   3  -4  823.82   46.30 
  -2   3  -4  916.11   47.90 
  -2   3  -4  999.70   46.70 
  -2   3  -4  900.31   45.80 
   2  -3   4  888.71   46.90 
   2  -3   4  758.92   54.99 
   2  -3   4  908.51   46.30 
   2  -3   4  921.61   47.50 
  -3   3  -4  249.58   16.90 
  -3   3  -4  270.77   15.10 
   3  -3   4  244.28   15.20 
   3  -3   4  241.58   15.90 
   3  -3   4  237.88   16.10 
  -4   3  -4  195.18   14.70 
  -4   3  -4  178.78   12.40 
   4  -3   4  190.78   13.80 
   4  -3   4  184.38   14.80 
   4  -3   4  200.08   13.00 
   4  -3   4  243.08   25.30 
   4  -3   4  224.78   20.40 
   4  -3   4  173.88   13.50 
   4  -3   4  190.88   15.80 
  -5   3  -4   39.20    6.30 
  -5   3  -4   48.10    4.90 
   5  -3   4   56.09    7.10 
   5  -3   4   48.70    7.30 
   5  -3   4   51.69    6.30 
   5  -3   4   53.59    9.70 
   5  -3   4   35.60    5.20 
   5  -3   4   55.59    6.30 
   5   2  -4   24.70    4.00 
   5   2  -4   18.60    5.50 
   5   2  -4   24.80    4.40 
   5   2  -4   29.90    4.40 
   5   2  -4   25.70    4.60 
  -5  -2   4   34.20    3.70 
   4   2  -4  127.09   14.30 
   4   2  -4  117.79   11.00 
   4   2  -4  116.29   11.70 
   4   2  -4   96.79   15.40 
   4   2  -4   98.09   10.90 
   4   2  -4  114.59    9.20 
   4   2  -4  135.39   11.10 
   4   2  -4  131.49   11.00 
  -4  -2   4  118.79    9.00 
  -4  -2   4  121.79   10.70 
   3   2  -4   55.39    5.80 
   3   2  -4   82.79   12.20 
   3   2  -4   66.79    7.70 
   3   2  -4   59.79    9.90 
   3   2  -4   50.09    8.50 
   3   2  -4   66.19    7.30 
   3   2  -4   56.69    7.80 
   3   2  -4   65.99    7.00 
   3   2  -4   57.99    7.10 
   3   2  -4   67.49    9.00 
   3   2  -4   48.60   11.40 
  -3  -2   4   61.49    7.00 
  -3  -2   4   47.90    8.60 
  -3  -2   4   68.69    6.50 
   2   2  -4  217.28   17.60 
   2   2  -4  223.28   14.70 
   2   2  -4  236.68   14.70 
   2   2  -4  223.98   15.50 
   2   2  -4  212.38   14.80 
   2   2  -4  213.98   13.30 
   2   2  -4  233.18   16.20 
  -2  -2   4  211.78   14.00 
  -2  -2   4  231.38   22.20 
  -2  -2   4  222.58   14.90 
   1   2  -4 1950.40   96.79 
   1   2  -4 1762.82   94.79 
   1   2  -4 1736.83   98.29 
   1   2  -4 1903.51   96.19 
   1   2  -4 1956.50   97.59 
   1   2  -4 1882.71   96.09 
  -1  -2   4 1796.02   95.99 
  -1  -2   4 2114.59  100.39 
   0   2  -4 6503.85  319.37 
   0   2  -4 6524.35  318.17 
   0   2  -4 6671.43  318.67 
   0  -2   4 5816.42  317.97 
   0  -2   4 6467.35  318.37 
   0  -2   4 6551.34  319.37 
  -1   2  -4 8459.05  446.76 
   1  -2   4 9568.14  448.36 
  -2   2  -4 3928.51  195.68 
  -2   2  -4 3595.24  197.08 
   2  -2   4 4145.49  198.28 
   2  -2   4 4111.89  206.98 
   2  -2   4 3676.93  198.78 
   2  -2   4 4181.08  196.88 
  -3   2  -4  720.03   36.30 
  -3   2  -4  679.43   39.40 
   3  -2   4  695.63   39.80 
   3  -2   4  610.54   40.20 
   3  -2   4  781.62   42.90 
  -4   2  -4  314.47   20.40 
   4  -2   4  296.37   18.00 
   4  -2   4  263.77   20.10 
   4  -2   4  291.47   24.60 
   4  -2   4  261.07   18.10 
   4  -2   4  287.97   19.20 
  -5   2  -4  434.36   25.50 
   5  -2   4  490.05   27.90 
   5  -2   4  494.85   33.60 
   5  -2   4  451.15   26.20 
   5  -2   4  476.05   27.20 
   6  -2   4    5.40    2.50 
   5   1  -4   91.79    7.80 
   5   1  -4   85.19    8.60 
   5   1  -4   88.39    7.60 
   5   1  -4   99.99    8.60 
  -5  -1   4   81.29    8.20 
  -5  -1   4   96.49    6.70 
   4   1  -4  225.08   16.00 
   4   1  -4  225.08   17.00 
   4   1  -4  221.68   16.00 
   4   1  -4  237.18   20.40 
   4   1  -4  220.38   16.10 
   4   1  -4  199.88   15.40 
   4   1  -4  205.08   13.60 
   4   1  -4  244.38   24.90 
   4   1  -4  234.08   17.20 
  -4  -1   4  199.78   13.90 
  -4  -1   4  219.78   15.90 
  -4  -1   4  205.48   18.90 
  -4  -1   4  196.28   13.60 
   3   1  -4  159.88   14.30 
   3   1  -4  158.38   12.40 
   3   1  -4  188.98   24.40 
   3   1  -4  160.38   13.50 
   3   1  -4  166.18   13.20 
   3   1  -4  173.88   11.80 
   3   1  -4  170.88   13.70 
   3   1  -4  161.98   16.20 
  -3  -1   4  163.08   12.70 
  -3  -1   4  161.98   11.50 
   2   1  -4 1924.51   94.59 
   2   1  -4 1849.61   95.39 
   2   1  -4 1791.72   98.49 
   2   1  -4 1955.60   96.69 
   2   1  -4 1805.52   95.49 
   2   1  -4 1796.92   93.59 
   2   1  -4 1843.52   95.69 
  -2  -1   4 1716.73   93.89 
  -2  -1   4 1796.92   99.59 
  -2  -1   4 1928.51   95.29 
   1   1  -4 1840.52   90.09 
   1   1  -4 1731.23   92.49 
   1   1  -4 1780.22   90.89 
   1   1  -4 1721.33   90.29 
   1   1  -4 1724.03   89.09 
  -1  -1   4 1834.92   93.69 
  -1   1  -4 3325.97  158.18 
  -1   1  -4 3172.18  158.18 
  -1   1  -4 3003.00  159.28 
   1  -1   4 3277.47  159.58 
   1  -1   4 2799.82  163.18 
   1  -1   4 3475.15  158.48 
  -2   1  -4 1839.22  100.89 
  -2   1  -4 2059.79   99.69 
   2  -1   4 1987.10  100.19 
   2  -1   4 2079.19  108.19 
  -3   1  -4  126.39   15.20 
   3  -1   4  131.89   10.10 
   3  -1   4  138.69    9.70 
   3  -1   4  138.59    9.10 
   3  -1   4  138.19   15.60 
  -4   1  -4  250.87   17.20 
   4  -1   4  256.77   15.50 
   4  -1   4  238.98   16.30 
   4  -1   4  249.88   17.10 
   4  -1   4  243.58   22.30 
   4  -1   4  237.98   16.00 
   4  -1   4  292.77   27.70 
   4  -1   4  216.58   17.30 
  -5   1  -4  267.57   16.20 
   5  -1   4  261.77   21.10 
   5  -1   4  310.17   18.10 
   5  -1   4  267.47   16.90 
   5  -1   4  319.77   18.20 
   5  -1   4  255.17   22.60 
   5  -1   4  295.37   18.00 
   6  -1   4    3.10    3.80 
   5   0  -4    1.30    3.50 
   5   0  -4    2.80    2.30 
   5   0  -4    3.50    2.10 
   5   0  -4    3.60    2.20 
  -5   0   4    3.30    1.80 
  -5   0   4    3.30    1.60 
   4   0  -4  251.47   19.40 
   4   0  -4  223.28   16.90 
   4   0  -4  231.18   16.40 
   4   0  -4  236.88   20.90 
   4   0  -4  237.78   17.50 
   4   0  -4  237.68   16.50 
   4   0  -4  214.78   17.80 
   4   0  -4  262.37   25.50 
   4   0  -4  215.08   14.50 
   4   0  -4  219.88   16.10 
  -4   0   4  205.18   26.20 
  -4   0   4  254.37   18.00 
  -4   0   4  226.08   14.70 
   3   0  -4   38.20    6.00 
   3   0  -4   40.80    8.00 
   3   0  -4   32.90    5.10 
   3   0  -4   49.90    6.30 
   3   0  -4   39.50    4.80 
   3   0  -4   38.80    5.80 
  -3   0   4   42.30    5.40 
   2   0  -4  256.97   16.90 
   2   0  -4  239.48   16.20 
   2   0  -4  259.07   15.10 
   2   0  -4  240.98   15.30 
   2   0  -4  258.77   15.80 
   2   0  -4  264.37   18.80 
   2   0  -4  250.97   16.70 
  -2   0   4  253.67   22.50 
  -2   0   4  258.47   16.00 
  -2   0   4  238.28   14.90 
   1   0  -4   47.60    4.60 
   1   0  -4   48.90    4.50 
   1   0  -4   50.19    3.80 
   1   0  -4   42.00    4.40 
   1   0  -4   49.30    5.40 
   1   0  -4   49.10    4.10 
  -1   0   4   47.70    6.20 
  -1   0   4   44.50    3.50 
   0   0  -4   53.79    3.60 
   0   0  -4   50.39    3.90 
   0   0  -4   56.69    4.00 
   0   0  -4   61.19    4.30 
   0   0  -4   59.29    4.80 
   0   0   4   70.29    6.60 
   0   0   4   55.59    4.40 
  -1   0  -4 1216.48   64.99 
  -1   0  -4 1333.27   65.59 
  -1   0  -4 1306.97   65.89 
  -1   0  -4 1304.77   66.99 
   1   0   4 1299.97   70.09 
   1   0   4 1385.26   67.29 
  -2   0  -4   96.39    7.30 
  -2   0  -4   98.99    6.30 
  -2   0  -4  109.39    5.60 
   2   0   4  105.29   10.40 
   2   0   4   91.49    6.60 
   2   0   4  100.09    7.40 
   2   0   4  110.39    7.90 
   2   0   4   95.49    6.40 
  -3   0  -4   34.60    4.40 
  -3   0  -4   46.50    3.20 
  -3   0  -4   36.80    7.40 
  -3   0  -4   41.20    3.50 
   3   0   4   43.10    4.50 
   3   0   4   36.70    4.10 
   3   0   4   37.90    4.90 
   3   0   4   40.60    4.00 
   3   0   4   37.90    4.60 
   3   0   4   36.20    7.30 
   3   0   4   42.70    4.80 
  -4   0  -4  551.24   31.70 
   4   0   4  538.55   31.00 
   4   0   4  522.55   38.30 
   4   0   4  541.75   30.50 
   4   0   4  540.25   29.50 
   4   0   4  517.75   32.50 
   4   0   4  532.95   42.50 
   5   0   4   66.49    7.00 
   5   0   4   60.59    9.60 
   5   0   4   68.29    7.80 
   5   0   4   65.29    7.00 
   5  -1  -4  120.99   17.80 
   5  -1  -4  142.19   10.60 
   5  -1  -4  151.28   10.00 
   5  -1  -4  132.79   10.10 
   5  -1  -4  143.19    9.60 
  -5   1   4  112.19    9.70 
  -5   1   4  153.58    9.00 
  -5   1   4  132.99    9.40 
   4  -1  -4   17.10    4.80 
   4  -1  -4   14.10    4.80 
   4  -1  -4   17.10    5.10 
   4  -1  -4   17.10    4.30 
   4  -1  -4   18.70    7.80 
   4  -1  -4   20.70    4.30 
   4  -1  -4   18.30    4.30 
   4  -1  -4   19.20    7.10 
   4  -1  -4   18.50    4.90 
   4  -1  -4   17.00    3.90 
  -4   1   4   13.60    3.60 
  -4   1   4   21.90    3.70 
  -4   1   4   19.40    7.20 
   3  -1  -4  145.79   14.40 
   3  -1  -4  138.29   12.40 
   3  -1  -4  138.29   10.30 
   3  -1  -4  141.09   10.70 
   3  -1  -4  133.59   11.60 
   3  -1  -4  150.88   15.90 
  -3   1   4  128.39   13.00 
  -3   1   4  140.39   11.00 
   2  -1  -4   73.69    7.20 
   2  -1  -4   82.49    7.90 
   2  -1  -4   78.19    6.30 
   2  -1  -4   87.79    6.90 
   2  -1  -4   88.59    9.30 
   2  -1  -4   77.69    7.30 
   2  -1  -4   80.39    6.60 
  -2   1   4   70.29    7.90 
  -2   1   4   82.29    6.90 
  -2   1   4   77.39   12.80 
   1  -1  -4  423.26   23.20 
   1  -1  -4  416.56   23.30 
   1  -1  -4  451.95   24.10 
   1  -1  -4  483.45   26.10 
   1  -1  -4  404.06   24.30 
  -1   1   4  453.45   27.00 
  -1   1   4  430.46   23.20 
  -1   1   4  414.96   24.90 
   0  -1  -4 4750.12  254.57 
   0  -1  -4 5364.76  254.57 
   0  -1  -4 5040.10  253.97 
   0   1   4 5315.27  255.67 
  -1  -1  -4   41.00    3.50 
  -1  -1  -4   46.70    3.10 
  -1  -1  -4   41.00    2.80 
  -1  -1  -4   47.80    4.30 
   1   1   4   47.80    4.30 
   1   1   4   53.09    4.50 
   1   1   4   42.80    5.00 
  -2  -1  -4 1376.16   67.19 
  -2  -1  -4 1138.79   66.09 
  -2  -1  -4 1413.96   66.89 
   2   1   4 1413.36   68.99 
   2   1   4 1355.36   66.79 
   2   1   4 1289.17   68.49 
   2   1   4 1280.07   71.29 
  -3  -1  -4 1104.39   64.39 
  -3  -1  -4 1200.68   55.89 
  -3  -1  -4 1042.10   56.89 
  -3  -1  -4 1116.49   56.79 
   3   1   4 1108.59   56.49 
   3   1   4 1063.59   58.29 
   3   1   4 1047.30   57.69 
   3   1   4 1119.79   58.19 
   3   1   4 1010.50   60.29 
   3   1   4 1192.08   58.79 
  -4  -1  -4  314.17   19.70 
  -4  -1  -4  282.97   23.00 
   4   1   4  311.77   18.20 
   4   1   4  274.47   18.40 
   4   1   4  307.97   17.30 
   4   1   4  259.57   26.00 
   4   1   4  300.27   19.10 
   4   1   4  295.47   19.10 
   5  -2  -4  242.08   21.60 
   5  -2  -4  293.97   16.70 
   5  -2  -4  261.37   16.30 
   5  -2  -4  270.47   17.40 
   5  -2  -4  271.17   16.40 
   5  -2  -4  298.87   16.50 
  -5   2   4  282.77   15.40 
  -5   2   4  265.77   16.20 
   4  -2  -4   42.80    6.40 
   4  -2  -4   44.00    5.80 
   4  -2  -4   38.90    5.90 
   4  -2  -4   50.49    7.60 
   4  -2  -4   37.20    8.90 
   4  -2  -4   42.20    6.00 
   4  -2  -4   37.60    5.60 
   4  -2  -4   37.20    6.40 
  -4   2   4   29.60    4.80 
  -4   2   4   34.70    7.20 
  -4   2   4   32.30    4.60 
   3  -2  -4  267.17   17.80 
   3  -2  -4  276.47   19.00 
   3  -2  -4  257.17   20.10 
   3  -2  -4  289.97   22.60 
   3  -2  -4  324.07   23.60 
   3  -2  -4  277.97   18.40 
   3  -2  -4  306.37   26.00 
  -3   2   4  274.77   21.30 
  -3   2   4  286.07   18.50 
   2  -2  -4 1211.78   66.79 
   2  -2  -4 1216.08   63.99 
   2  -2  -4 1218.18   66.29 
   2  -2  -4 1331.07   64.79 
   2  -2  -4 1204.58   64.89 
  -2   2   4 1212.28   63.29 
  -2   2   4 1220.28   70.39 
  -2   2   4 1214.08   66.89 
  -2   2   4 1262.87   64.69 
   1  -2  -4  798.92   42.90 
   1  -2  -4  800.62   44.30 
   1  -2  -4  848.92   43.00 
   1  -2  -4  906.31   43.60 
   1  -2  -4  833.52   43.40 
  -1   2   4  842.82   46.80 
  -1   2   4  777.82   43.00 
  -1  -2  -4  848.82   42.00 
  -1  -2  -4  884.31   42.80 
  -1  -2  -4  799.52   43.40 
  -1  -2  -4  801.12   42.50 
   1   2   4  898.01   43.90 
   1   2   4  818.12   43.90 
   1   2   4  772.62   43.50 
  -2  -2  -4 3789.02  194.48 
  -2  -2  -4 3944.71  194.88 
  -2  -2  -4 4009.70  198.08 
   2   2   4 3496.45  197.48 
   2   2   4 4170.98  197.58 
   2   2   4 4000.30  196.88 
   2   2   4 4007.20  196.08 
   2   2   4 3780.22  197.58 
  -3  -2  -4  535.75   29.50 
  -3  -2  -4  546.95   28.60 
   3   2   4  595.54   31.60 
   3   2   4  590.64   30.40 
   3   2   4  458.15   32.80 
   3   2   4  549.45   31.60 
   3   2   4  549.95   30.90 
  -4  -2  -4  403.76   25.60 
   4   2   4  415.16   30.00 
   4   2   4  440.26   26.30 
   4   2   4  430.46   28.30 
   4   2   4  448.46   27.20 
   4   2   4  488.25   26.90 
   4   2   4  503.75   28.60 
   4   2   4  479.65   27.60 
   5  -3  -4   43.50    7.80 
   5  -3  -4   52.79    4.80 
   5  -3  -4   43.40    5.00 
   5  -3  -4   50.59    5.10 
   5  -3  -4   41.10    5.50 
  -5   3   4   49.50    4.20 
   4  -3  -4   45.60    5.60 
   4  -3  -4   49.30    6.50 
   4  -3  -4   40.80    9.80 
   4  -3  -4   51.89    6.40 
   4  -3  -4   59.79    8.20 
   4  -3  -4   49.30    6.20 
   4  -3  -4   44.70    5.90 
   4  -3  -4   40.10    6.20 
  -4   3   4   46.30    8.20 
  -4   3   4   56.59    6.40 
  -4   3   4   45.10    5.80 
  -4   3   4   45.80    5.10 
   3  -3  -4  247.78   24.10 
   3  -3  -4  272.57   17.20 
   3  -3  -4  267.87   17.70 
   3  -3  -4  305.97   26.50 
   3  -3  -4  257.17   17.50 
   3  -3  -4  254.97   18.00 
   3  -3  -4  330.17   24.70 
  -3   3   4  272.27   21.10 
  -3   3   4  261.97   16.30 
  -3   3   4  234.58   20.00 
   2  -3  -4  125.09    9.50 
   2  -3  -4  135.29    9.60 
   2  -3  -4  124.49   11.20 
   2  -3  -4  135.59   10.30 
   2  -3  -4  150.38   10.30 
  -2   3   4  143.69    9.50 
  -2   3   4  151.08   10.40 
  -2   3   4  135.59   12.10 
  -2   3   4  137.89   14.30 
   1  -3  -4  224.68   12.70 
   1  -3  -4  211.38   12.40 
   1  -3  -4  218.38   12.70 
   1  -3  -4  180.48   11.90 
   1  -3  -4  210.38   13.80 
  -1   3   4  199.98   15.30 
  -1   3   4  215.68   12.80 
   0  -3  -4 2219.28  107.89 
   0  -3  -4 2090.59  108.79 
   0  -3  -4 2297.77  108.39 
   0  -3  -4 2107.39  108.89 
   0  -3  -4 1889.91  109.99 
   0   3   4 2389.36  109.49 
   0   3   4 1992.00  108.79 
   0   3   4 2281.17  109.09 
   0   3   4 1901.21  109.99 
   0   3   4 2343.17  110.09 
  -1  -3  -4  874.91   45.40 
  -1  -3  -4  926.91   44.80 
  -1  -3  -4  867.71   45.50 
   1   3   4  816.12   48.10 
   1   3   4  930.21   46.70 
   1   3   4  857.61   46.70 
  -2  -3  -4  151.68   10.00 
  -2  -3  -4  159.68    9.10 
  -2  -3  -4  165.88    9.90 
   2   3   4  156.08   10.90 
   2   3   4  143.99   12.80 
   2   3   4  163.78   11.30 
   2   3   4  158.98   11.50 
  -3  -3  -4  314.57   19.90 
  -3  -3  -4  380.56   19.10 
  -3  -3  -4  366.86   20.50 
   3   3   4  323.97   24.40 
   3   3   4  348.77   24.90 
   3   3   4  341.67   21.20 
   3   3   4  367.66   22.00 
  -4  -3  -4  125.49   10.30 
   4   3   4  135.09   10.50 
   4   3   4  137.09   19.40 
   4   3   4  148.29   11.00 
   4   3   4  138.59   12.10 
   4   3   4  138.69   10.70 
   4   3   4  133.49   12.60 
   4   3   4  148.89   11.90 
   4   3   4  128.79   13.00 
   5   3   4   44.90    6.00 
   5   3   4   45.30    6.90 
   5   3   4   42.90    5.50 
   5  -4  -4    4.90    2.80 
   5  -4  -4    7.00    2.00 
   5  -4  -4   11.00    3.50 
   5  -4  -4    8.60    1.90 
  -5   4   4    6.80    1.60 
  -5   4   4    7.20    1.90 
   4  -4  -4   72.09   11.00 
   4  -4  -4   65.29    7.10 
   4  -4  -4   61.89   10.30 
   4  -4  -4   57.29    6.10 
   4  -4  -4   53.49    6.60 
   4  -4  -4   62.19    7.00 
   4  -4  -4   66.09    8.60 
  -4   4   4   64.89    8.60 
  -4   4   4   65.69    5.80 
  -4   4   4   54.69    6.10 
  -4   4   4   68.89    6.70 
   3  -4  -4  443.66   32.40 
   3  -4  -4  379.66   26.90 
   3  -4  -4  418.16   24.20 
   3  -4  -4  385.56   23.60 
   3  -4  -4  347.27   26.50 
   3  -4  -4  359.46   23.40 
   3  -4  -4  381.56   23.10 
   3  -4  -4  395.06   26.00 
   3  -4  -4  410.46   23.90 
   3  -4  -4  398.06   24.40 
  -3   4   4  402.56   24.00 
  -3   4   4  381.66   23.50 
  -3   4   4  399.26   27.40 
  -3   4   4  379.86   22.20 
   2  -4  -4  404.06   23.50 
   2  -4  -4  363.36   23.30 
   2  -4  -4  420.16   26.30 
   2  -4  -4  398.36   23.10 
  -2   4   4  439.86   23.90 
  -2   4   4  379.76   23.30 
  -2   4   4  412.66   26.40 
   1  -4  -4  839.02   45.70 
   1  -4  -4  856.51   47.60 
   1  -4  -4  945.51   46.60 
   1  -4  -4  886.01   48.40 
   1  -4  -4  916.61   46.60 
  -1   4   4  808.12   49.40 
  -1   4   4  914.61   47.30 
  -1   4   4  937.41   49.00 
   0  -4  -4 2421.36  116.39 
   0  -4  -4 2397.66  117.89 
   0  -4  -4 2344.27  116.59 
   0  -4  -4 2138.29  117.09 
   0  -4  -4 2148.29  119.99 
   0   4   4 2049.89  116.99 
   0   4   4 2444.56  115.99 
   0   4   4 2320.87  117.49 
   0   4   4 2545.05  119.19 
  -1  -4  -4  117.79    7.50 
  -1  -4  -4  126.19    8.20 
  -1  -4  -4  118.59    8.40 
  -1  -4  -4  127.19    8.80 
   1   4   4  119.79    8.70 
   1   4   4  102.39    8.90 
   1   4   4  128.99   11.00 
   1   4   4  121.69    9.00 
  -2  -4  -4 1319.67   62.79 
  -2  -4  -4 1223.48   63.89 
  -2  -4  -4 1282.07   63.39 
   2   4   4 1164.68   65.99 
   2   4   4 1221.38   64.89 
   2   4   4 1338.87   65.99 
   2   4   4 1091.89   68.79 
  -3  -4  -4   81.59    6.00 
  -3  -4  -4   80.49    6.90 
  -3  -4  -4   95.69    7.40 
   3   4   4   81.19    8.80 
   3   4   4   78.39   10.40 
   3   4   4   78.29    7.80 
  -4  -4  -4  289.17   15.70 
  -4  -4  -4  229.48   16.20 
   4   4   4  265.17   17.10 
   4   4   4  259.37   22.20 
   4   4   4  229.68   16.80 
   4   4   4  270.77   19.20 
   4   4   4  257.37   18.50 
   4   4   4  250.17   16.90 
   4   4   4  278.77   17.00 
   4   4   4  241.88   19.00 
  -5  -4  -4   90.69    7.20 
   5   4   4  109.39    8.10 
   5   4   4  115.69    8.20 
   5   4   4   93.59    8.90 
   5   4   4  101.49    8.60 
   5   4   4  110.09    9.80 
   4  -5  -4   54.09    6.50 
   4  -5  -4   58.29    6.00 
   4  -5  -4   44.70    7.60 
   4  -5  -4   41.00    7.90 
   4  -5  -4   53.29    9.10 
   4  -5  -4   57.49    5.80 
   4  -5  -4   60.79    6.20 
  -4   5   4   43.60    5.50 
  -4   5   4   57.99    8.00 
  -4   5   4   56.99    4.90 
   3  -5  -4 1483.65   78.49 
   3  -5  -4 1596.14   88.49 
   3  -5  -4 1511.35   83.09 
   3  -5  -4 1419.26   83.59 
   3  -5  -4 1515.45   78.29 
   3  -5  -4 1567.54   79.39 
   3  -5  -4 1584.44   79.09 
   3  -5  -4 1521.85   81.39 
   3  -5  -4 1298.57   78.69 
  -3   5   4 1492.35   77.09 
  -3   5   4 1446.16   78.39 
  -3   5   4 1599.54   83.49 
  -3   5   4 1551.94   79.39 
   2  -5  -4  152.68   11.40 
   2  -5  -4  156.68   10.70 
   2  -5  -4  161.88   14.00 
   2  -5  -4  163.08   11.90 
  -2   5   4  162.68   11.90 
  -2   5   4  171.98   11.80 
  -2   5   4  170.58   14.40 
   1  -5  -4 1020.40   58.59 
   1  -5  -4 1185.38   59.39 
   1  -5  -4 1125.19   61.59 
  -1   5   4 1234.78   62.19 
  -1   5   4 1097.19   59.89 
   0  -5  -4  287.77   17.00 
   0  -5  -4  288.97   17.70 
   0  -5  -4  297.97   18.30 
   0  -5  -4  301.17   16.90 
   0  -5  -4  314.67   18.70 
   0   5   4  273.97   17.60 
   0   5   4  287.57   17.30 
   0   5   4  309.97   19.80 
   0   5   4  285.37   18.00 
  -1  -5  -4   55.69    4.60 
  -1  -5  -4   53.19    5.50 
  -1  -5  -4   54.89    5.00 
  -1  -5  -4   58.99    5.60 
   1   5   4   56.29    5.30 
   1   5   4   43.80    5.50 
   1   5   4   52.39    7.40 
   1   5   4   53.39    5.80 
  -2  -5  -4 1434.96   67.69 
  -2  -5  -4 1328.07   68.79 
  -2  -5  -4 1277.27   68.89 
   2   5   4 1362.66   69.99 
   2   5   4 1397.56   71.09 
   2   5   4 1149.78   74.99 
  -3  -5  -4    6.20    2.20 
  -3  -5  -4    7.60    2.30 
  -3  -5  -4    9.60    2.90 
   3   5   4   16.80    7.90 
   3   5   4   15.20    3.80 
   3   5   4    9.30    4.30 
   3   5   4    3.40    3.70 
   3   5   4   15.10    3.40 
   3   5   4    6.50    3.30 
   3   5   4    5.90    2.80 
  -4  -5  -4  109.79   10.00 
  -4  -5  -4  120.39    9.30 
   4   5   4  127.89   12.20 
   4   5   4  137.99   16.80 
   4   5   4  125.89    9.90 
   4   5   4  119.29   11.50 
   4   5   4  123.99   10.80 
   4   5   4  107.89   15.60 
   4   5   4  124.89   11.30 
   4   5   4  116.79   13.30 
  -5  -5  -4   57.79    6.00 
   5   5   4   50.09    9.20 
   5   5   4   75.09    5.90 
   5   5   4   64.59    7.40 
   4  -6  -4   26.50    4.20 
   4  -6  -4   24.90    4.50 
   4  -6  -4   25.20    4.20 
   4  -6  -4   22.50    3.90 
  -4   6   4   23.70    3.20 
  -4   6   4   31.10    4.10 
   3  -6  -4   21.00    3.90 
   3  -6  -4   18.40    6.00 
   3  -6  -4   25.10    7.30 
   3  -6  -4   28.60    6.20 
   3  -6  -4   13.20    5.10 
   3  -6  -4   29.20    5.10 
   3  -6  -4   27.10    5.40 
   3  -6  -4   20.00    4.00 
  -3   6   4   21.30    3.60 
  -3   6   4   29.40    4.70 
  -3   6   4   27.60    9.40 
  -3   6   4   18.90    3.90 
  -3   6   4   22.30    4.30 
   2  -6  -4  171.38   15.60 
   2  -6  -4  175.18   16.70 
   2  -6  -4  172.88   15.00 
   2  -6  -4  184.08   25.00 
  -2   6   4  175.18   12.60 
  -2   6   4  180.38   14.40 
  -2   6   4  177.68   16.00 
   1  -6  -4  459.05   26.80 
   1  -6  -4  484.05   29.70 
  -1   6   4  459.45   27.60 
  -1   6   4  466.75   29.60 
   0  -6  -4  407.46   22.20 
   0  -6  -4  393.36   23.70 
   0  -6  -4  390.96   25.00 
   0  -6  -4  375.66   22.80 
   0   6   4  388.66   26.60 
   0   6   4  380.86   22.80 
  -1  -6  -4  133.39    9.50 
  -1  -6  -4  148.99   10.90 
  -1  -6  -4  139.79    9.20 
  -1  -6  -4  128.19   11.20 
   1   6   4  139.49   11.20 
   1   6   4  136.29   14.10 
   1   6   4  126.19    9.90 
  -2  -6  -4  240.28   15.40 
  -2  -6  -4  209.48   14.80 
   2   6   4  215.18   20.50 
   2   6   4  229.28   15.40 
   2   6   4  220.78   16.20 
   2   6   4  222.48   16.80 
  -3  -6  -4   73.79    7.50 
  -3  -6  -4   90.49    8.10 
   3   6   4   62.29   11.90 
   3   6   4   71.89   12.00 
   3   6   4   74.39    8.30 
   3   6   4   85.39    7.90 
   3   6   4   80.69    8.20 
   3   6   4   94.49   10.20 
   3   6   4   88.79    8.20 
   3   6   4   79.29    9.40 
  -4  -6  -4  343.07   20.50 
   4   6   4  338.57   20.50 
   4   6   4  345.37   20.30 
   4   6   4  358.46   23.30 
   4   6   4  285.77   22.20 
   4   6   4  321.37   20.20 
   4   6   4  280.27   26.80 
   4   6   4  346.57   20.80 
   5   6   4   61.19    5.00 
   5   6   4   51.89    5.10 
   5   6   4   65.29    6.60 
   5   6   4   40.70    5.60 
   4  -7  -4    7.30    2.40 
   4  -7  -4    4.80    2.00 
   4  -7  -4    4.40    2.70 
  -4   7   4    9.70    2.00 
  -4   7   4    4.90    1.90 
  -4   7   4    6.80    1.30 
   3  -7  -4    8.40    4.00 
   3  -7  -4   10.80    3.30 
   3  -7  -4    6.60    2.80 
   3  -7  -4    8.30    3.00 
  -3   7   4   11.60    3.80 
  -3   7   4   10.20    2.90 
  -3   7   4   11.60    2.10 
   2  -7  -4   45.50    7.30 
   2  -7  -4   48.20   12.50 
   2  -7  -4   47.40    7.20 
   2  -7  -4   31.20    5.60 
   2  -7  -4   32.80    5.70 
   2  -7  -4   44.50    6.90 
  -2   7   4   41.10    3.80 
  -2   7   4   42.70    5.40 
  -2   7   4   51.39    6.50 
  -2   7   4   44.00    5.80 
  -2   7   4   51.19    8.00 
   1  -7  -4   58.09    7.80 
   1  -7  -4   56.99    8.10 
   1  -7  -4   56.49   12.90 
  -1   7   4   65.39    7.00 
  -1   7   4   69.79    9.20 
  -1   7   4   59.59   12.00 
  -1   7   4   65.49    7.00 
  -1   7   4   59.29   10.30 
   0  -7  -4    3.10    1.90 
   0  -7  -4    3.20    2.10 
   0  -7  -4    5.10    3.30 
   0  -7  -4    6.00    2.10 
   0   7   4    2.90    2.00 
   0   7   4    4.90    3.20 
  -1  -7  -4  771.62   42.60 
  -1  -7  -4  727.53   42.60 
   1   7   4  724.63   41.00 
   1   7   4  786.42   43.20 
   1   7   4  737.63   47.00 
   1   7   4  773.42   43.10 
  -2  -7  -4  771.32   44.10 
  -2  -7  -4  818.92   46.60 
  -2  -7  -4  720.23   46.90 
   2   7   4  849.81   54.99 
   2   7   4  887.91   54.19 
   2   7   4  880.01   46.10 
   2   7   4  878.91   47.60 
  -3  -7  -4  264.67   18.70 
  -3  -7  -4  319.67   19.90 
   3   7   4  287.67   20.40 
   3   7   4  286.27   19.90 
   3   7   4  281.17   25.50 
   3   7   4  300.77   23.00 
   3   7   4  255.77   25.70 
   3   7   4  301.77   22.70 
   3   7   4  315.67   19.10 
   3   7   4  244.98   24.90 
   3   7   4  288.17   22.20 
  -4  -7  -4  141.49   11.10 
   4   7   4  146.49   10.80 
   4   7   4  149.49   11.20 
   4   7   4  158.28   13.80 
   4   7   4  137.99   12.60 
   4   7   4  162.78   14.00 
   4   7   4  189.38   19.40 
   4   7   4  111.89   16.60 
  -5  -7  -4    0.90    1.50 
   5   7   4    0.80    1.50 
   5   7   4    0.20    1.30 
   5   7   4    2.10    1.60 
   5   7   4    5.30    1.90 
   3  -8  -4   18.40    3.70 
   3  -8  -4   21.00    5.10 
   3  -8  -4   23.60    4.00 
  -3   8   4   21.00    3.90 
  -3   8   4   16.40    3.10 
   2  -8  -4  194.28   23.40 
   2  -8  -4  201.18   13.50 
   2  -8  -4  199.68   15.80 
   2  -8  -4  178.18   14.00 
  -2   8   4  204.78   17.10 
  -2   8   4  190.48   13.80 
  -2   8   4  185.88   13.00 
   1  -8  -4   14.50    4.80 
   1  -8  -4   13.80    3.10 
   1  -8  -4   25.30    8.70 
   1  -8  -4   22.60    5.60 
  -1   8   4   22.00    4.50 
  -1   8   4   20.40    4.20 
  -1   8   4   27.50    4.50 
  -1   8   4   24.70    6.90 
  -1   8   4   22.90    3.60 
   0  -8  -4  300.77   27.60 
   0  -8  -4  234.28   14.60 
   0  -8  -4  240.38   17.60 
   0  -8  -4  252.87   18.30 
   0   8   4  248.08   17.00 
   0   8   4  210.08   17.20 
   0   8   4  250.87   17.50 
   0   8   4  235.68   17.10 
   0   8   4  263.57   21.00 
   0   8   4  222.68   17.20 
   0   8   4  253.27   25.60 
  -1  -8  -4 1151.48   61.69 
  -1  -8  -4 1268.27   64.89 
  -1  -8  -4 1145.59   64.29 
   1   8   4 1136.79   62.09 
   1   8   4 1211.28   70.09 
   1   8   4 1185.88   65.09 
   1   8   4 1249.68   68.49 
   1   8   4 1204.58   64.79 
   1   8   4 1155.48   62.19 
   1   8   4 1120.49   64.09 
   1   8   4 1215.98   63.69 
   1   8   4 1140.79   62.49 
  -2  -8  -4  394.16   22.80 
  -2  -8  -4  395.76   25.30 
  -2  -8  -4  351.86   24.30 
   2   8   4  436.56   26.60 
   2   8   4  355.06   24.30 
   2   8   4  373.96   30.80 
   2   8   4  368.26   25.50 
   2   8   4  418.16   23.90 
   2   8   4  379.96   25.60 
   2   8   4  421.46   32.70 
   2   8   4  394.46   23.70 
   2   8   4  404.86   23.50 
   2   8   4  390.26   24.40 
   2   8   4  428.76   26.00 
  -3  -8  -4   20.80    7.10 
  -3  -8  -4   31.00    4.20 
  -3  -8  -4   26.90    4.60 
   3   8   4   27.60    5.00 
   3   8   4   36.90    5.10 
   3   8   4   19.50    7.70 
   3   8   4   17.10    4.60 
   3   8   4   15.50    5.40 
   3   8   4   29.70    5.40 
   3   8   4   36.70    6.50 
   3   8   4   15.80    6.10 
   3   8   4   28.40    4.60 
  -4  -8  -4   31.00    4.10 
  -4  -8  -4   32.60    3.90 
   4   8   4   30.90    4.20 
   4   8   4   37.50    5.20 
   4   8   4   33.00    4.30 
   4   8   4   30.70    3.80 
   4   8   4   26.80    5.40 
   4   8   4   28.80    5.50 
   3  -9  -4   -0.50    1.90 
   3  -9  -4   -0.50    1.30 
  -3   9   4    1.00    1.20 
  -3   9   4    1.50    1.50 
   2  -9  -4   48.70    8.40 
   2  -9  -4   48.00    5.40 
   2  -9  -4   48.30   11.20 
  -2   9   4   54.89    5.60 
  -2   9   4   50.19    6.30 
  -2   9   4   56.69    9.80 
   1  -9  -4  140.99   12.10 
   1  -9  -4  115.29   17.90 
  -1   9   4  145.09   11.20 
  -1   9   4  135.39   14.20 
  -1   9   4  118.79    9.90 
   0  -9  -4  101.39    9.50 
   0  -9  -4   93.29   15.30 
   0  -9  -4   86.89    6.50 
   0  -9  -4  110.39   10.20 
   0   9   4   81.89   11.70 
   0   9   4   96.99    9.50 
   0   9   4   89.19    8.60 
   0   9   4   86.39    9.20 
   0   9   4   91.99    9.10 
   0   9   4   87.49    8.60 
  -1  -9  -4   99.69    7.70 
  -1  -9  -4   99.19    9.40 
  -1  -9  -4   95.49   15.80 
   1   9   4   82.49   12.50 
   1   9   4  103.29    9.00 
   1   9   4  105.89    9.70 
   1   9   4   71.79    8.50 
   1   9   4  100.89    8.10 
   1   9   4   84.79    8.70 
   1   9   4   94.69   14.40 
   1   9   4   90.79    9.40 
  -2  -9  -4   30.50    4.10 
  -2  -9  -4   23.60    4.60 
  -2  -9  -4   22.40    8.40 
   2   9   4   20.70    4.90 
   2   9   4   29.10    4.30 
   2   9   4   29.80    4.60 
   2   9   4   31.10    7.60 
   2   9   4   23.20    4.10 
   2   9   4   30.20    5.30 
   2   9   4   20.30    4.70 
   2   9   4   25.60    4.80 
  -3  -9  -4   52.99    6.30 
  -3  -9  -4   52.19    5.30 
   3   9   4   53.49    7.20 
   3   9   4   43.40    6.40 
   3   9   4   55.09    5.80 
   3   9   4   52.99    5.30 
   3   9   4   52.09    6.30 
   3   9   4   50.59    5.50 
  -4  -9  -4    7.20    3.60 
  -4  -9  -4    5.90    1.70 
   4   9   4    6.80    2.10 
   4   9   4    9.80    2.10 
   4   9   4    4.70    1.60 
   4   9   4    2.70    2.20 
   4   9   4    6.50    2.20 
   2 -10  -4   18.70    6.90 
   2 -10  -4   33.00    7.40 
  -2  10   4   30.20    4.70 
  -2  10   4   27.50    3.70 
   1 -10  -4   41.50    6.50 
  -1  10   4   40.60    4.90 
  -1  10   4   45.80    5.50 
  -1  10   4   36.00    6.80 
   0 -10  -4   15.40    7.10 
   0 -10  -4   10.40    3.40 
   0 -10  -4    7.90    3.60 
   0  10   4    9.70    3.10 
   0  10   4    4.80    2.80 
   0  10   4    5.80    3.90 
   0  10   4    7.70    2.40 
   0  10   4    8.60    3.00 
  -1 -10  -4   80.19   14.10 
   1  10   4   62.99   10.40 
   1  10   4   82.49    8.60 
   1  10   4   79.89    8.50 
   1  10   4   71.29    7.20 
  -2 -10  -4   14.90    2.90 
   2  10   4   19.00    4.00 
   2  10   4   16.10    3.60 
   2  10   4   14.00    3.30 
   2  10   4   14.60    2.60 
   2  10   4   11.30    2.40 
   2  10   4   10.10    3.20 
   2  10   4   11.30    2.90 
  -3 -10  -4   36.80    3.90 
   3  10   4   34.70    4.70 
   3  10   4   29.60    3.90 
   3  10   4   23.40    4.10 
   3  10   4   23.90    3.10 
   3  10   4   32.00    4.30 
   2 -11  -4    3.80    1.90 
   2 -11  -4    2.90    3.00 
  -2  11   4    3.50    1.80 
   1 -11  -4   11.20    3.00 
   1 -11  -4    7.80    4.50 
  -1  11   4    8.30    2.30 
  -1  11   4    5.90    1.80 
   0 -11  -4   15.70    3.20 
   0 -11  -4   10.40    5.70 
   0  11   4   14.20    2.80 
   0  11   4   14.00    3.00 
  -1 -11  -4    2.80    2.90 
  -1 -11  -4    0.80    3.00 
   1  11   4    2.30    1.90 
   1  11   4    8.50    2.40 
   1  11   4    3.10    1.70 
  -2 -11  -4   43.20    3.40 
  -2 -11  -4   47.80    5.30 
   2  11   4   37.80    4.50 
   2  11   4   39.30    5.00 
   2  11   4   38.70    5.30 
   0 -12  -4   21.40    6.90 
   0  12   4   26.60    4.00 
  -1 -12  -4    0.40    2.30 
  -1 -12  -4    3.50    1.80 
   0  11  -5    3.80    3.20 
   0 -11   5   14.50    4.40 
   1 -11   5    1.90    2.60 
   1  10  -5   19.90    3.50 
   1  10  -5   17.10    3.40 
  -1 -10   5   12.70    3.40 
  -1 -10   5   16.70    3.20 
   0  10  -5    0.00    2.10 
   0 -10   5    3.90    2.60 
   0 -10   5    8.40    2.90 
  -1  10  -5  128.89   10.10 
  -1  10  -5  126.19    9.10 
   1 -10   5  132.69   11.20 
  -2  10  -5   24.30    4.30 
   2 -10   5   22.10    4.20 
   2 -10   5   14.80    5.90 
   2   9  -5   15.90    3.20 
  -2  -9   5   23.40    6.10 
  -2  -9   5   18.60    4.10 
   1   9  -5   92.09    9.20 
  -1  -9   5   94.79    8.30 
  -1  -9   5   90.29    9.10 
  -1  -9   5   88.29    8.40 
   0   9  -5    3.50    5.20 
   0   9  -5   -1.70    2.10 
   0   9  -5    2.60    3.80 
   0  -9   5    5.40    4.40 
   0  -9   5   11.40    4.20 
  -1   9  -5  106.69   12.40 
  -1   9  -5  112.89   10.80 
  -1   9  -5  111.69    9.10 
  -1   9  -5  113.59   10.10 
   1  -9   5  107.59   12.30 
   1  -9   5  116.29   14.70 
   1  -9   5  107.89   16.50 
  -2   9  -5   51.19    6.20 
  -2   9  -5   58.29    6.70 
   2  -9   5   55.59   12.30 
   2  -9   5   46.80    7.50 
   2  -9   5   63.99    7.70 
   2  -9   5   49.60    6.20 
  -3   9  -5   17.20    2.20 
   3  -9   5   14.70    4.10 
   3  -9   5   13.60    7.80 
   3  -9   5   12.90    3.80 
   3   8  -5   69.69    6.50 
   3   8  -5   68.29    7.00 
   3   8  -5   78.69    5.80 
  -3  -8   5   85.19    6.90 
  -3  -8   5   81.79    5.90 
   2   8  -5  105.59    7.50 
   2   8  -5   85.29    8.80 
   2   8  -5  114.39   10.30 
  -2  -8   5  134.29    9.90 
  -2  -8   5   92.89    6.40 
  -2  -8   5  126.39   10.20 
  -2  -8   5  112.09    7.90 
   1   8  -5   51.89    7.00 
   1   8  -5   56.09    7.60 
   1   8  -5   38.50    6.30 
  -1  -8   5   56.19    7.80 
  -1  -8   5   64.79    6.90 
  -1  -8   5   62.19    8.00 
   0   8  -5    3.90    4.70 
   0   8  -5    0.50    2.80 
   0   8  -5    7.00    4.20 
   0   8  -5    5.90    2.90 
   0  -8   5    6.70    3.50 
   0  -8   5    9.40    3.50 
   0  -8   5    4.00    3.50 
  -1   8  -5  258.27   14.70 
  -1   8  -5  240.38   17.30 
  -1   8  -5  270.67   18.30 
  -1   8  -5  294.27   23.30 
   1  -8   5  287.27   20.80 
   1  -8   5  277.07   18.50 
   1  -8   5  242.38   28.10 
   1  -8   5  268.67   22.40 
  -2   8  -5   24.90    4.80 
  -2   8  -5   30.00    3.60 
  -2   8  -5   24.90    4.00 
  -2   8  -5   24.50    3.90 
  -2   8  -5   23.90    4.40 
   2  -8   5   19.50    5.80 
   2  -8   5   25.50    4.80 
   2  -8   5   15.80    8.00 
   2  -8   5   32.30    6.50 
  -3   8  -5   29.40    4.40 
  -3   8  -5   39.00    4.20 
  -3   8  -5   44.90    5.90 
  -3   8  -5   35.00    5.20 
   3  -8   5   49.30    6.20 
   3  -8   5   35.50   11.10 
   3  -8   5   42.10    5.50 
   3  -8   5   29.50    5.70 
   3  -8   5   40.90    7.60 
  -4   8  -5   48.40    5.00 
  -4   8  -5   44.70    3.70 
   4  -8   5   45.00    5.20 
   4  -8   5   33.80    5.60 
   4  -8   5   38.60    4.40 
   4  -8   5   38.50    5.40 
   3   7  -5   44.20    5.10 
   3   7  -5   36.30    6.20 
   3   7  -5   42.30    4.60 
  -3  -7   5   43.40    5.60 
  -3  -7   5   46.00    5.80 
  -3  -7   5   44.70    3.90 
   2   7  -5   22.00    5.40 
   2   7  -5   22.20    4.60 
   2   7  -5   21.10    4.60 
   2   7  -5   17.30    5.90 
   2   7  -5   27.80    6.10 
   2   7  -5   16.90    4.30 
  -2  -7   5   26.80    3.30 
  -2  -7   5   35.50    6.10 
  -2  -7   5   22.60    4.50 
   1   7  -5  371.26   22.10 
   1   7  -5  370.26   23.30 
   1   7  -5  381.46   25.10 
   1   7  -5  375.66   24.00 
   1   7  -5  344.17   24.00 
   1   7  -5  383.06   22.50 
   1   7  -5  387.86   26.50 
   1   7  -5  396.66   29.30 
  -1  -7   5  415.26   24.70 
  -1  -7   5  372.16   20.60 
  -1  -7   5  369.36   25.10 
  -1  -7   5  418.46   24.10 
   0   7  -5  180.78   13.10 
   0   7  -5  187.08   12.20 
   0   7  -5  189.98   15.20 
   0   7  -5  185.08   14.30 
   0   7  -5  178.28   13.70 
   0   7  -5  190.58   18.60 
   0  -7   5  183.58   15.70 
   0  -7   5  167.28   17.60 
   0  -7   5  182.18   13.40 
   0  -7   5  188.08   14.20 
  -1   7  -5  110.39    9.00 
  -1   7  -5   99.99   12.00 
  -1   7  -5  111.29   10.30 
  -1   7  -5  104.99    7.50 
  -1   7  -5  101.09    8.90 
  -1   7  -5  109.09    8.20 
   1  -7   5  120.49   18.30 
   1  -7   5  101.09   11.10 
   1  -7   5  122.79    9.80 
   1  -7   5  107.49   13.40 
   1  -7   5  101.79   11.30 
  -2   7  -5    5.90    3.50 
  -2   7  -5    7.90    2.30 
  -2   7  -5    4.80    2.40 
  -2   7  -5    5.10    2.40 
  -2   7  -5    6.20    2.40 
  -2   7  -5    8.40    2.90 
   2  -7   5   15.50    4.40 
   2  -7   5    6.40    2.80 
   2  -7   5    0.30    3.50 
   2  -7   5    2.30    5.70 
   2  -7   5    6.90    2.90 
   2  -7   5   10.40    4.20 
   2  -7   5    7.90    2.80 
  -3   7  -5   76.69    6.30 
  -3   7  -5   82.49    7.50 
  -3   7  -5   63.49    6.90 
  -3   7  -5   74.29    6.30 
   3  -7   5   77.19    9.70 
   3  -7   5   71.99    7.10 
   3  -7   5   73.09    7.90 
   3  -7   5   74.99    7.20 
   3  -7   5   68.29    8.70 
   3  -7   5   65.79   10.30 
  -4   7  -5   -0.80    2.20 
  -4   7  -5    2.80    1.70 
  -4   7  -5   -0.50    1.30 
   4  -7   5   -2.40    1.60 
   4  -7   5    0.00    2.70 
   4  -7   5   -1.10    3.90 
   4  -7   5    0.60    2.60 
   4  -7   5   -0.40    1.60 
   4  -7   5    3.90    2.20 
   4   6  -5   61.19    5.30 
   4   6  -5   72.69    6.90 
   4   6  -5   60.39    7.50 
  -4  -6   5   71.09    4.90 
  -4  -6   5   74.69    5.60 
   3   6  -5   18.70    4.10 
   3   6  -5   20.70    3.60 
   3   6  -5   20.20    5.30 
   3   6  -5    8.90    4.90 
   3   6  -5   12.30    3.50 
   3   6  -5   16.60    3.80 
   3   6  -5   31.30    9.00 
  -3  -6   5   15.50    3.40 
  -3  -6   5   17.20    4.30 
  -3  -6   5   18.30    4.20 
   2   6  -5  346.37   22.90 
   2   6  -5  376.66   22.10 
   2   6  -5  350.36   35.30 
  -2  -6   5  380.56   23.10 
  -2  -6   5  345.97   23.10 
   1   6  -5  146.19   12.70 
   1   6  -5  154.58   12.80 
   1   6  -5  143.49   20.40 
   1   6  -5  135.99   11.80 
   1   6  -5  170.48   14.30 
   1   6  -5  169.38   14.90 
   1   6  -5  182.48   17.20 
  -1  -6   5  164.18   13.30 
  -1  -6   5  162.28   12.40 
   0   6  -5   78.09    7.60 
   0   6  -5   62.59   11.70 
   0   6  -5   89.49    7.00 
   0   6  -5   87.79    8.90 
   0  -6   5   76.89    7.70 
  -1   6  -5  152.18   10.80 
  -1   6  -5  140.59   10.60 
  -1   6  -5  147.69   11.50 
  -1   6  -5  145.39    9.80 
  -1   6  -5  127.49   10.50 
   1  -6   5  139.09   11.30 
  -2   6  -5  186.18   13.80 
  -2   6  -5  183.98   12.60 
  -2   6  -5  177.08   14.10 
  -2   6  -5  201.18   13.50 
  -2   6  -5  231.88   16.20 
   2  -6   5  210.18   13.70 
   2  -6   5  193.38   14.50 
   2  -6   5  216.68   19.10 
   2  -6   5  221.38   26.90 
   2  -6   5  172.28   16.40 
  -3   6  -5   47.40    6.00 
  -3   6  -5   38.70    5.40 
  -3   6  -5   34.80    6.30 
  -3   6  -5   42.50    5.10 
   3  -6   5   30.60    9.60 
   3  -6   5   55.49    6.20 
   3  -6   5   49.10   19.00 
  -4   6  -5   25.60    3.50 
  -4   6  -5   32.80    4.50 
  -4   6  -5   27.30    4.70 
  -4   6  -5   24.80    4.20 
   4  -6   5   17.10    8.60 
   4  -6   5   33.90    9.00 
   4  -6   5   23.10    4.90 
   4  -6   5   31.80    4.90 
   4  -6   5   26.30    4.70 
   4  -6   5   21.20    7.20 
  -5   6  -5   38.00    4.70 
   5  -6   5   37.40    4.10 
   5  -6   5   27.70    5.20 
   5  -6   5   34.30    4.60 
   5  -6   5   23.30    5.70 
   5  -6   5   36.90    5.00 
   4   5  -5   11.00    2.80 
   4   5  -5   12.60    3.90 
   4   5  -5   12.80    2.90 
   4   5  -5    9.30    2.40 
  -4  -5   5    9.50    2.40 
   3   5  -5  201.08   18.50 
   3   5  -5  214.88   15.70 
   3   5  -5  223.68   21.80 
   3   5  -5  218.28   14.60 
   3   5  -5  202.38   15.40 
   3   5  -5  215.28   15.30 
   3   5  -5  195.68   16.80 
   3   5  -5  217.38   14.70 
   3   5  -5  210.38   14.00 
  -3  -5   5  204.98   15.00 
  -3  -5   5  218.88   15.20 
  -3  -5   5  209.48   13.50 
  -3  -5   5  190.08   15.10 
   2   5  -5   94.19   10.10 
   2   5  -5   95.09   14.50 
   2   5  -5  116.09   10.50 
   2   5  -5  102.09    9.80 
   2   5  -5   94.39   11.20 
   2   5  -5  112.69    9.90 
   2   5  -5   97.19    8.60 
   2   5  -5   99.19   12.30 
   2   5  -5   88.29   10.60 
   2   5  -5  103.19    8.60 
  -2  -5   5   94.99    7.90 
  -2  -5   5   90.09    9.40 
  -2  -5   5   84.99    7.80 
  -2  -5   5   98.69    9.40 
  -2  -5   5   84.29    8.80 
   1   5  -5  282.67   18.90 
   1   5  -5  291.37   20.60 
   1   5  -5  279.97   18.30 
   1   5  -5  289.47   17.80 
  -1  -5   5  286.47   18.60 
   0   5  -5 1530.25   78.99 
   0   5  -5 1434.26   78.19 
   0   5  -5 1580.24   78.09 
   0   5  -5 1543.05   81.19 
   0  -5   5 1504.45   79.39 
  -1   5  -5   65.69    6.40 
  -1   5  -5   74.89    6.00 
  -1   5  -5   75.29    6.60 
  -1   5  -5   57.89    6.80 
  -1   5  -5   69.09    6.80 
   1  -5   5   73.19    7.00 
   1  -5   5   65.89    6.40 
  -2   5  -5   91.49    8.00 
  -2   5  -5   85.29    8.30 
  -2   5  -5   91.49    7.10 
  -2   5  -5   91.19    8.20 
   2  -5   5   89.59    8.00 
  -3   5  -5  675.83   37.50 
  -3   5  -5  688.23   40.80 
  -3   5  -5  767.82   38.10 
  -3   5  -5  726.73   39.40 
   3  -5   5  753.12   39.30 
   3  -5   5  755.82   38.50 
   3  -5   5  675.63   43.30 
   3  -5   5  702.23   39.10 
   3  -5   5  672.63   39.60 
   3  -5   5  647.84   56.09 
   3  -5   5  685.73   42.10 
  -4   5  -5   79.99    7.50 
  -4   5  -5   96.19    7.10 
  -4   5  -5   78.79    6.40 
   4  -5   5   87.49    8.50 
   4  -5   5   85.69   17.20 
   4  -5   5   83.09    8.10 
   4  -5   5   77.39    7.90 
   4  -5   5   89.39    7.30 
   4  -5   5   89.29   10.00 
   4  -5   5   76.59   11.60 
  -5   5  -5  153.58   10.40 
  -5   5  -5  144.79    9.30 
  -5   5  -5  152.08   10.50 
   5  -5   5  154.38   10.40 
   5  -5   5  178.78   13.90 
   5  -5   5  165.58   10.30 
   4   4  -5  100.09   12.20 
   4   4  -5   91.69    9.30 
   4   4  -5   96.39    8.70 
   4   4  -5   80.79    9.10 
   4   4  -5   87.69    7.60 
   4   4  -5   94.59    8.50 
   4   4  -5   98.99    7.50 
  -4  -4   5  104.89    8.50 
  -4  -4   5   95.59    7.30 
  -4  -4   5   90.19    7.50 
   3   4  -5  326.37   21.30 
   3   4  -5  322.47   26.00 
   3   4  -5  335.07   21.60 
   3   4  -5  315.27   20.90 
   3   4  -5  352.46   24.30 
   3   4  -5  309.37   21.20 
   3   4  -5  364.26   30.60 
   3   4  -5  316.77   23.30 
   3   4  -5  337.17   20.00 
   3   4  -5  305.57   21.50 
  -3  -4   5  300.37   19.80 
  -3  -4   5  312.57   20.60 
  -3  -4   5  320.77   22.50 
  -3  -4   5  313.77   19.40 
   2   4  -5 2321.77  115.79 
   2   4  -5 2114.19  118.89 
   2   4  -5 2360.26  126.69 
   2   4  -5 2278.17  116.89 
   2   4  -5 2260.27  112.69 
   2   4  -5 2357.36  113.89 
   2   4  -5 2400.96  113.79 
   2   4  -5 2064.29  115.59 
   2   4  -5 2062.79  118.09 
   2   4  -5 2116.49  113.59 
  -2  -4   5 2085.09  113.69 
  -2  -4   5 1986.90  113.89 
  -2  -4   5 2122.29  111.89 
  -2  -4   5 2215.78  111.99 
  -2  -4   5 2320.37  116.59 
  -2  -4   5 2066.19  110.69 
   1   4  -5  496.75   28.90 
   1   4  -5  502.15   31.00 
   1   4  -5  523.85   29.80 
   1   4  -5  536.15   28.80 
  -1  -4   5  483.65   29.40 
  -1  -4   5  500.25   29.10 
  -1  -4   5  493.15   27.10 
   0   4  -5  238.38   16.80 
   0   4  -5  255.27   15.80 
   0   4  -5  246.88   15.00 
   0   4  -5  250.27   15.00 
   0   4  -5  255.87   14.80 
   0  -4   5  250.57   20.90 
   0  -4   5  254.17   16.00 
  -1   4  -5  396.36   20.90 
  -1   4  -5  358.96   21.80 
  -1   4  -5  317.87   21.90 
  -1   4  -5  393.26   21.60 
  -1   4  -5  410.16   22.30 
   1  -4   5  379.46   22.30 
   1  -4   5  396.06   29.70 
   1  -4   5  348.67   21.40 
   1  -4   5  377.56   21.50 
  -2   4  -5 1384.36   68.99 
  -2   4  -5 1286.27   70.49 
  -2   4  -5 1317.57   71.29 
   2  -4   5 1408.26   69.49 
   2  -4   5 1382.66   70.19 
   2  -4   5 1308.57   70.59 
  -3   4  -5  626.74   32.70 
  -3   4  -5  578.54   35.20 
  -3   4  -5  621.94   33.80 
   3  -4   5  693.43   41.90 
   3  -4   5  558.64   36.40 
   3  -4   5  562.04   34.50 
   3  -4   5  668.53   39.00 
   3  -4   5  677.23   51.99 
   3  -4   5  492.75   33.60 
   3  -4   5  586.64   32.90 
  -4   4  -5   94.49    9.20 
  -4   4  -5  100.79    7.90 
  -4   4  -5   95.59    8.20 
   4  -4   5   89.59    9.60 
   4  -4   5   90.39    8.70 
   4  -4   5   86.89   12.30 
   4  -4   5  109.89   10.90 
   4  -4   5  117.39   11.40 
   4  -4   5  104.09    8.30 
   4  -4   5  121.19   19.10 
   5  -4   5   59.09    5.70 
   5  -4   5   49.00    5.60 
   5  -4   5   37.60    7.40 
   5  -4   5   53.69    6.80 
   5  -4   5   58.09    6.10 
   5  -4   5   39.90   11.30 
   4   3  -5   91.09   13.20 
   4   3  -5   98.79    9.20 
   4   3  -5   88.19    8.30 
   4   3  -5   86.59    9.30 
   4   3  -5   85.09    9.80 
   4   3  -5   97.69    8.60 
   4   3  -5   91.89    7.60 
  -4  -3   5   89.99    7.70 
  -4  -3   5   93.99    7.40 
  -4  -3   5   83.99    8.40 
   3   3  -5  382.96   21.80 
   3   3  -5  318.37   31.20 
   3   3  -5  370.46   22.90 
   3   3  -5  361.86   27.30 
   3   3  -5  364.66   23.20 
   3   3  -5  408.26   26.50 
   3   3  -5  362.06   23.30 
   3   3  -5  342.67   24.30 
   3   3  -5  372.66   23.30 
   3   3  -5  353.86   24.70 
   3   3  -5  343.97   22.80 
  -3  -3   5  352.56   23.40 
  -3  -3   5  363.46   21.20 
  -3  -3   5  302.27   21.60 
   2   3  -5  332.07   19.60 
   2   3  -5  282.87   19.10 
   2   3  -5  287.97   20.40 
   2   3  -5  321.47   17.70 
   2   3  -5  324.27   21.70 
   2   3  -5  311.27   19.70 
   2   3  -5  244.08   21.40 
  -2  -3   5  267.07   16.70 
  -2  -3   5  307.27   19.90 
  -2  -3   5  326.97   19.30 
   1   3  -5   19.90    5.00 
   1   3  -5   20.80    2.50 
   1   3  -5   15.30    3.50 
   1   3  -5   15.60    3.00 
   1   3  -5   17.50    4.30 
   1   3  -5   17.00    2.90 
   1   3  -5   19.10    4.10 
  -1  -3   5   19.80    3.70 
  -1  -3   5   18.80    5.40 
  -1  -3   5   19.50    2.40 
  -1  -3   5   18.20    3.40 
  -1  -3   5   16.60    2.20 
   0   3  -5  314.17   18.90 
   0   3  -5  326.07   20.40 
   0   3  -5  326.67   18.70 
   0   3  -5  337.47   19.70 
   0   3  -5  337.57   18.90 
   0  -3   5  333.27   19.80 
   0  -3   5  346.77   18.70 
   0  -3   5  359.86   24.60 
  -1   3  -5 3714.13  187.68 
  -1   3  -5 4015.60  189.08 
  -1   3  -5 3387.96  187.38 
  -1   3  -5 3954.10  188.58 
  -1   3  -5 3515.95  189.18 
   1  -3   5 3795.12  197.48 
   1  -3   5 3707.33  188.88 
   1  -3   5 3970.00  188.68 
  -2   3  -5 1561.24   83.79 
  -2   3  -5 1528.65   84.89 
  -2   3  -5 1740.13   83.69 
  -2   3  -5 1619.14   82.69 
   2  -3   5 1618.34   84.59 
   2  -3   5 1693.83   83.19 
   2  -3   5 1688.13   83.89 
   2  -3   5 1598.04   99.69 
  -3   3  -5  174.18   13.50 
  -3   3  -5  177.88   11.40 
  -3   3  -5  197.48   12.10 
   3  -3   5  177.68   11.90 
   3  -3   5  174.48   12.60 
   3  -3   5  175.18   12.90 
  -4   3  -5   34.80    4.30 
  -4   3  -5   39.40    4.70 
  -4   3  -5   51.69    6.30 
   4  -3   5   29.00    9.80 
   4  -3   5   36.70    6.60 
   4  -3   5   43.10    5.30 
   4  -3   5   47.90    6.30 
   4  -3   5   38.40    5.50 
   4  -3   5   43.10    7.10 
   4  -3   5   46.70    8.90 
   5  -3   5    1.20    2.60 
   5  -3   5    4.60    2.50 
   5  -3   5   -0.30    4.40 
   5  -3   5    4.20    2.50 
   5  -3   5    3.00    2.80 
   5  -3   5    4.60    3.80 
   5   2  -5    0.00    1.30 
   5   2  -5    1.50    1.90 
   4   2  -5   65.79    9.20 
   4   2  -5   87.49    8.50 
   4   2  -5   96.69   11.20 
   4   2  -5   72.79    8.90 
   4   2  -5   80.19    7.00 
  -4  -2   5   83.99    7.00 
  -4  -2   5   75.79    8.00 
   3   2  -5   51.59    7.30 
   3   2  -5   42.60    7.50 
   3   2  -5   52.69    6.10 
   3   2  -5   46.20    6.50 
   3   2  -5   60.79    9.00 
   3   2  -5   56.79    6.50 
   3   2  -5   53.89    7.10 
   3   2  -5   61.59    8.00 
   3   2  -5   47.90    6.90 
   3   2  -5   34.30   10.60 
   3   2  -5   47.00    8.50 
  -3  -2   5   48.30    5.60 
  -3  -2   5   53.49    6.60 
   2   2  -5    8.80    3.30 
   2   2  -5   14.40    3.80 
   2   2  -5   13.50    3.50 
   2   2  -5   12.20    3.70 
   2   2  -5   12.80    3.40 
   2   2  -5   15.80    3.30 
  -2  -2   5   14.10    3.20 
  -2  -2   5   13.10    2.70 
   1   2  -5  861.11   45.50 
   1   2  -5  914.71   46.90 
   1   2  -5  904.21   47.90 
   1   2  -5  823.22   48.80 
   1   2  -5  891.11   47.10 
   1   2  -5  899.81   48.50 
   1   2  -5  927.91   47.00 
  -1  -2   5  854.81   47.00 
  -1  -2   5  895.91   47.70 
   0   2  -5 1976.00   88.99 
   0   2  -5 1713.43   91.09 
   0   2  -5 1839.72   90.49 
   0   2  -5 1796.72   90.69 
   0   2  -5 1795.12   91.99 
   0  -2   5 1762.42   91.29 
   0  -2   5 1749.43   90.49 
   0  -2   5 1837.42   95.99 
   0  -2   5 1600.24   88.69 
  -1   2  -5 1207.38   64.69 
  -1   2  -5 1323.57   63.59 
  -1   2  -5 1306.77   62.89 
   1  -2   5 1212.88   63.49 
   1  -2   5 1166.18   63.99 
   1  -2   5 1235.18   70.79 
   1  -2   5 1194.18   63.99 
  -2   2  -5  121.09    8.00 
  -2   2  -5  140.29    8.50 
  -2   2  -5  107.19    7.90 
  -2   2  -5  111.49    8.70 
   2  -2   5  128.09    8.30 
   2  -2   5  128.59    8.90 
   2  -2   5  133.99    9.60 
   2  -2   5  135.69    9.40 
   2  -2   5  113.69   14.50 
  -3   2  -5  281.07   16.10 
  -3   2  -5  283.57   16.20 
  -3   2  -5  285.47   18.80 
   3  -2   5  285.17   18.20 
   3  -2   5  254.07   17.10 
   3  -2   5  291.97   16.70 
  -4   2  -5  483.45   29.60 
  -4   2  -5  424.36   26.30 
   4  -2   5  467.25   28.70 
   4  -2   5  495.75   27.80 
   4  -2   5  493.85   29.00 
   4  -2   5  517.85   28.40 
   4  -2   5  491.95   27.30 
   4  -2   5  469.95   29.90 
   4  -2   5  487.75   32.60 
   4  -2   5  517.45   41.80 
  -5   2  -5  251.47   16.30 
  -5   2  -5  267.97   16.20 
   5  -2   5  302.37   16.90 
   5  -2   5  271.97   17.00 
   5  -2   5  296.67   18.60 
   5  -2   5  249.38   21.60 
   5  -2   5  251.27   24.70 
   5  -2   5  331.07   22.30 
   5  -2   5  299.07   18.80 
   5   1  -5   85.89    7.50 
   5   1  -5   79.69    7.00 
   5   1  -5   86.09    7.00 
   5   1  -5   86.29    6.20 
  -5  -1   5   89.99    5.90 
  -5  -1   5   78.09    6.60 
   4   1  -5   64.39    8.00 
   4   1  -5   48.80    8.30 
   4   1  -5   74.59    7.50 
   4   1  -5   54.39   12.00 
   4   1  -5   72.29    8.10 
   4   1  -5   58.39    8.70 
   4   1  -5   64.59   10.50 
  -4  -1   5   59.89    6.90 
  -4  -1   5   60.59    8.60 
  -4  -1   5   67.29    6.30 
   3   1  -5   12.10    3.10 
   3   1  -5    4.50    3.40 
   3   1  -5   15.70    4.00 
   3   1  -5    8.90    3.50 
   3   1  -5   13.20    4.50 
   3   1  -5    8.50    5.80 
   3   1  -5   16.20    4.90 
   3   1  -5   11.60    3.20 
   3   1  -5   17.10    5.10 
   3   1  -5   17.60    4.60 
  -3  -1   5    9.10    3.50 
  -3  -1   5   16.90    3.70 
  -3  -1   5   11.20    2.90 
   2   1  -5 1168.58   67.29 
   2   1  -5 1264.37   63.89 
   2   1  -5 1108.59   64.29 
   2   1  -5 1217.68   62.59 
   2   1  -5 1169.78   63.99 
   2   1  -5 1306.47   66.29 
   2   1  -5 1267.17   65.19 
  -2  -1   5 1249.18   64.39 
  -2  -1   5 1091.49   66.99 
   1   1  -5  488.15   28.10 
   1   1  -5  523.25   27.00 
   1   1  -5  480.25   28.80 
   1   1  -5  499.95   27.20 
   1   1  -5  504.15   27.80 
   1   1  -5  444.16   27.10 
   1   1  -5  469.05   27.10 
  -1  -1   5  462.05   27.00 
  -1  -1   5  527.35   31.30 
   0   1  -5 9039.40  460.95 
   0   1  -5 9690.93  462.05 
   0   1  -5 9426.36  462.35 
   0  -1   5 9068.19  462.45 
  -1   1  -5 9245.28  450.35 
  -1   1  -5 9551.44  453.35 
  -1   1  -5 8941.61  450.45 
   1  -1   5 8566.14  451.65 
  -2   1  -5 4424.46  220.18 
  -2   1  -5 3958.50  222.18 
   2  -1   5 4440.96  230.08 
   2  -1   5 4520.65  222.08 
   2  -1   5 4638.34  220.58 
   2  -1   5 4535.45  222.58 
  -3   1  -5  136.39   10.20 
   3  -1   5  143.79   10.90 
   3  -1   5  128.79   10.60 
   3  -1   5  169.08   10.80 
  -4   1  -5   47.10    6.50 
   4  -1   5   49.50    9.30 
   4  -1   5   42.60   11.00 
   4  -1   5   46.80    5.80 
   4  -1   5   47.60    7.20 
   4  -1   5   40.80    5.60 
   4  -1   5   51.59    6.60 
   4  -1   5   53.19    5.40 
  -5   1  -5  691.23   39.50 
  -5   1  -5  618.84   39.20 
   5  -1   5  699.33   44.10 
   5  -1   5  726.33   48.10 
   5  -1   5  848.42   41.40 
   5  -1   5  805.12   40.10 
   5  -1   5  697.33   39.10 
   5   0  -5   26.40    3.90 
   5   0  -5   23.00    3.70 
   5   0  -5   29.60    4.10 
   5   0  -5   32.00    4.90 
  -5   0   5   27.20    3.20 
  -5   0   5   29.30    4.10 
   4   0  -5  561.44   40.20 
   4   0  -5  478.15   28.60 
   4   0  -5  549.85   34.40 
   4   0  -5  468.95   29.90 
   4   0  -5  461.05   28.80 
   4   0  -5  473.35   28.60 
   4   0  -5  500.65   28.50 
   4   0  -5  451.45   28.00 
  -4   0   5  440.76   26.90 
  -4   0   5  431.26   28.30 
  -4   0   5  484.85   26.90 
  -4   0   5  468.05   31.90 
   3   0  -5  128.39   11.60 
   3   0  -5  132.99   10.80 
   3   0  -5  138.49   12.00 
   3   0  -5  125.99   11.90 
   3   0  -5  159.48   18.60 
   3   0  -5  110.99   11.50 
   3   0  -5  132.49   10.70 
   3   0  -5  137.99   15.20 
  -3   0   5  144.89   18.30 
  -3   0   5  123.99   11.20 
  -3   0   5  127.79   10.90 
  -3   0   5  137.19    9.70 
   2   0  -5  267.27   16.70 
   2   0  -5  269.67   18.00 
   2   0  -5  235.28   17.10 
   2   0  -5  268.87   17.30 
   2   0  -5  258.87   15.50 
   2   0  -5  260.77   19.40 
   2   0  -5  258.37   16.20 
  -2   0   5  261.37   17.00 
  -2   0   5  229.98   17.70 
  -2   0   5  247.78   15.70 
   1   0  -5  534.45   29.80 
   1   0  -5  498.65   27.70 
   1   0  -5  522.95   28.60 
   1   0  -5  510.55   28.70 
   1   0  -5  495.85   27.40 
   1   0  -5  465.95   26.80 
   1   0  -5  470.55   28.10 
  -1   0   5  469.45   27.60 
  -1   0   5  541.15   27.20 
  -1   0   5  540.15   31.80 
   0   0  -5 7779.82  370.26 
   0   0  -5 6797.12  369.06 
   0   0  -5 7577.04  369.86 
   0   0  -5 7386.36  369.66 
   0   0   5 7677.43  370.66 
  -1   0  -5 1339.87   68.29 
  -1   0  -5 1334.37   67.79 
  -1   0  -5 1303.47   69.49 
   1   0   5 1409.16   69.79 
   1   0   5 1342.27   73.69 
  -2   0  -5  710.13   35.60 
  -2   0  -5  674.33   37.50 
   2   0   5  642.24   41.90 
   2   0   5  675.43   37.30 
   2   0   5  687.43   37.90 
   2   0   5  748.93   35.90 
  -3   0  -5  206.08   19.80 
  -3   0  -5  220.38   12.90 
  -3   0  -5  201.68   14.30 
   3   0   5  227.68   13.80 
   3   0   5  217.58   20.20 
   3   0   5  226.58   13.10 
   3   0   5  231.98   14.80 
   3   0   5  227.08   18.90 
  -4   0  -5  117.99   13.20 
   4   0   5   85.99   13.20 
   4   0   5  113.99   21.30 
   4   0   5  114.29    8.30 
   4   0   5  100.99   11.30 
   4   0   5  121.39   16.00 
   4   0   5  111.59    9.90 
   5   0   5  184.58   14.80 
   5   0   5  160.08   15.50 
   5   0   5  167.78   13.50 
   5  -1  -5   84.09    6.80 
   5  -1  -5   81.19   10.40 
   5  -1  -5   84.69    6.80 
  -5   1   5   79.49    7.60 
  -5   1   5   87.19    5.80 
   4  -1  -5   99.49    9.10 
   4  -1  -5  110.99    9.50 
   4  -1  -5   99.19    9.50 
   4  -1  -5  116.39    9.70 
   4  -1  -5   86.89   12.90 
   4  -1  -5  106.59   10.50 
   4  -1  -5  120.99   15.60 
   4  -1  -5  111.09    9.90 
  -4   1   5  113.99    8.40 
  -4   1   5  118.39   11.90 
  -4   1   5  100.09    9.30 
   3  -1  -5  143.69   13.40 
   3  -1  -5  154.88   14.60 
   3  -1  -5  197.08   20.10 
   3  -1  -5  175.18   13.70 
   3  -1  -5  155.28   12.90 
   3  -1  -5  169.68   12.70 
   3  -1  -5  142.39   12.70 
   3  -1  -5  169.08   14.60 
   3  -1  -5  172.48   12.60 
  -3   1   5  177.08   12.80 
  -3   1   5  159.38   15.20 
  -3   1   5  162.58   11.30 
   2  -1  -5  204.98   14.70 
   2  -1  -5  213.28   14.40 
   2  -1  -5  200.58   13.40 
   2  -1  -5  206.88   15.40 
   2  -1  -5  229.68   15.60 
   2  -1  -5  202.08   15.30 
   2  -1  -5  242.58   17.80 
  -2   1   5  208.18   16.00 
  -2   1   5  221.18   14.40 
   1  -1  -5  633.54   33.80 
   1  -1  -5  685.73   35.30 
   1  -1  -5  668.53   34.50 
   1  -1  -5  627.14   34.70 
   1  -1  -5  571.44   35.00 
   1  -1  -5  647.14   34.00 
  -1   1   5  636.14   35.70 
  -1   1   5  711.33   38.80 
  -1   1   5  625.24   34.40 
  -1   1   5  601.74   33.80 
   0  -1  -5 1681.03   94.29 
   0  -1  -5 2106.09   95.39 
   0  -1  -5 1735.83   95.09 
   0  -1  -5 1931.61   94.69 
   0  -1  -5 1990.60   96.19 
   0   1   5 1859.61   95.69 
  -1  -1  -5 1721.03   87.59 
  -1  -1  -5 1672.83   87.39 
  -1  -1  -5 1717.63   89.49 
   1   1   5 1836.12   92.29 
   1   1   5 1782.32   89.59 
  -2  -1  -5 1730.13   86.09 
  -2  -1  -5 1750.32   87.09 
  -2  -1  -5 1628.44   85.69 
  -2  -1  -5 1739.43   88.79 
   2   1   5 1917.81   86.49 
   2   1   5 1683.03   88.79 
   2   1   5 1821.72   89.19 
   2   1   5 1633.54   88.49 
   2   1   5 1563.64   91.39 
  -3  -1  -5  200.78   14.40 
  -3  -1  -5  221.68   12.10 
  -3  -1  -5  203.38   12.90 
   3   1   5  212.38   14.20 
   3   1   5  213.38   13.20 
   3   1   5  237.18   15.60 
   3   1   5  206.68   14.30 
   3   1   5  195.88   18.40 
   3   1   5  221.58   12.50 
  -4  -1  -5  838.52   45.90 
   4   1   5  900.01   64.19 
   4   1   5  755.22   46.30 
   4   1   5  810.82   51.29 
   5  -2  -5  128.79    8.60 
   5  -2  -5  143.39    8.80 
   5  -2  -5  149.39    9.40 
  -5   2   5  132.29    8.40 
  -5   2   5  143.39    8.20 
   4  -2  -5  173.98   19.20 
   4  -2  -5  190.48   12.80 
   4  -2  -5  186.08   14.00 
   4  -2  -5  208.18   13.80 
   4  -2  -5  179.28   14.50 
  -4   2   5  188.88   12.00 
  -4   2   5  182.58   15.80 
  -4   2   5  166.08   13.10 
  -4   2   5  179.48   14.50 
   3  -2  -5  239.18   18.70 
   3  -2  -5  257.37   16.70 
   3  -2  -5  222.08   17.90 
   3  -2  -5  223.88   15.70 
   3  -2  -5  235.88   16.00 
   3  -2  -5  247.08   17.20 
   3  -2  -5  249.88   16.70 
   3  -2  -5  209.18   16.40 
   3  -2  -5  235.68   23.00 
  -3   2   5  240.78   16.50 
  -3   2   5  247.08   14.90 
  -3   2   5  240.98   19.20 
   2  -2  -5  318.17   18.70 
   2  -2  -5  315.67   19.70 
   2  -2  -5  364.06   20.10 
   2  -2  -5  309.27   18.70 
  -2   2   5  274.97   20.60 
  -2   2   5  302.87   23.80 
   1  -2  -5  683.33   35.90 
   1  -2  -5  682.53   35.00 
   1  -2  -5  608.14   35.50 
   1  -2  -5  692.23   35.60 
   1  -2  -5  637.94   36.50 
  -1   2   5  613.24   35.10 
  -1   2   5  702.03   39.60 
   0  -2  -5 6326.87  349.07 
   0  -2  -5 6921.71  349.17 
   0  -2  -5 7220.98  349.96 
   0  -2  -5 6554.84  350.16 
   0  -2  -5 6864.41  350.66 
   0   2   5 6708.23  350.46 
   0   2   5 7666.63  352.86 
   0   2   5 7988.20  352.36 
  -1  -2  -5  557.04   29.20 
  -1  -2  -5  555.24   31.20 
  -1  -2  -5  600.14   29.90 
  -1  -2  -5  481.05   28.50 
  -1  -2  -5  604.44   29.80 
   1   2   5  526.65   31.10 
   1   2   5  573.64   31.40 
   1   2   5  564.74   30.60 
   1   2   5  556.34   30.90 
  -2  -2  -5 2166.38  113.09 
  -2  -2  -5 1974.50  110.19 
  -2  -2  -5 2284.57  111.59 
  -2  -2  -5 2239.38  111.09 
   2   2   5 2130.79  114.39 
   2   2   5 2259.47  112.89 
   2   2   5 2228.28  113.29 
   2   2   5 2385.36  113.79 
  -3  -2  -5  316.27   17.90 
  -3  -2  -5  321.37   19.30 
   3   2   5  331.37   21.80 
   3   2   5  353.36   26.00 
   3   2   5  353.76   20.70 
  -4  -2  -5  564.54   31.80 
   4   2   5  530.25   31.30 
   4   2   5  502.35   30.70 
   4   2   5  495.15   30.30 
   4   2   5  539.15   31.60 
   4   2   5  512.35   31.20 
   4   2   5  542.35   30.90 
   4  -3  -5   43.70    7.80 
   4  -3  -5   48.10    5.70 
   4  -3  -5   59.99   10.80 
   4  -3  -5   47.40    5.80 
   4  -3  -5   58.19    6.10 
   4  -3  -5   44.70    8.30 
   4  -3  -5   52.29    6.20 
  -4   3   5   48.20    6.10 
  -4   3   5   73.89   12.80 
  -4   3   5   42.50    5.70 
   3  -3  -5  695.73   36.40 
   3  -3  -5  589.24   35.60 
   3  -3  -5  612.04   35.40 
   3  -3  -5  664.83   45.00 
   3  -3  -5  604.94   35.80 
   3  -3  -5  626.24   39.00 
   3  -3  -5  634.84   38.30 
   3  -3  -5  613.14   36.50 
   3  -3  -5  645.44   35.50 
  -3   3   5  605.64   39.10 
  -3   3   5  648.94   36.00 
  -3   3   5  630.34   34.20 
  -3   3   5  631.14   36.20 
   2  -3  -5  610.54   38.20 
   2  -3  -5  628.04   35.50 
   2  -3  -5  625.34   36.50 
   2  -3  -5  689.83   37.00 
   2  -3  -5  636.64   35.80 
  -2   3   5  669.13   39.10 
  -2   3   5  717.83   36.80 
  -2   3   5  632.24   35.50 
   1  -3  -5  760.52   38.60 
   1  -3  -5  689.63   38.90 
   1  -3  -5  746.13   39.20 
   1  -3  -5  789.42   39.10 
   1  -3  -5  711.73   40.30 
  -1   3   5  614.94   38.60 
  -1   3   5  770.52   40.90 
  -1   3   5  733.83   42.60 
   0  -3  -5 1657.93   92.39 
   0  -3  -5 1882.61   92.19 
   0  -3  -5 1761.42   92.69 
   0  -3  -5 1812.22   91.39 
   0  -3  -5 1958.80   93.19 
   0   3   5 1821.62   92.89 
   0   3   5 1606.14   93.69 
   0   3   5 1989.10   93.79 
  -1  -3  -5 1166.28   58.09 
  -1  -3  -5 1164.18   58.99 
  -1  -3  -5 1105.89   60.09 
  -1  -3  -5 1106.49   58.79 
   1   3   5 1226.38   60.39 
   1   3   5 1114.99   61.69 
   1   3   5 1121.89   60.19 
  -2  -3  -5    1.70    1.30 
  -2  -3  -5   -0.10    1.10 
   2   3   5    0.70    1.30 
   2   3   5    2.40    1.50 
   2   3   5    9.00    3.00 
   2   3   5    0.10    1.80 
  -3  -3  -5  281.97   16.90 
  -3  -3  -5  293.17   15.50 
  -3  -3  -5  276.67   16.40 
   3   3   5  282.07   18.00 
   3   3   5  309.37   19.30 
   3   3   5  224.98   19.60 
   3   3   5  270.77   18.80 
  -4  -3  -5  150.38   12.10 
   4   3   5  140.79   11.10 
   4   3   5  126.39   10.60 
   4   3   5  148.89   12.60 
   4   3   5  152.88   17.20 
   4   3   5  118.49   11.00 
   4   3   5  142.69   12.00 
   4   3   5  127.09   11.20 
   5   3   5   55.59    6.10 
   4  -4  -5   16.70    3.30 
   4  -4  -5   14.70    4.30 
   4  -4  -5   11.00    2.70 
   4  -4  -5   14.00    4.50 
   4  -4  -5   17.60    3.20 
   4  -4  -5   15.40    3.40 
  -4   4   5   14.70    2.70 
  -4   4   5    9.90    2.70 
  -4   4   5   10.70    2.70 
   3  -4  -5  616.64   42.70 
   3  -4  -5  747.13   42.80 
   3  -4  -5  702.03   43.80 
   3  -4  -5  773.02   41.30 
   3  -4  -5  745.03   48.60 
   3  -4  -5  681.03   39.40 
   3  -4  -5  786.22   40.80 
   3  -4  -5  693.03   40.20 
   3  -4  -5  720.83   39.90 
  -3   4   5  719.13   38.20 
  -3   4   5  720.03   40.10 
  -3   4   5  682.13   40.00 
  -3   4   5  764.92   44.20 
   2  -4  -5 1507.95   84.29 
   2  -4  -5 1426.96   82.79 
   2  -4  -5 1677.43   84.19 
   2  -4  -5 1657.53   87.29 
   2  -4  -5 1604.54   84.19 
  -2   4   5 1723.03   84.19 
  -2   4   5 1606.44   83.89 
  -2   4   5 1706.63   87.49 
   1  -4  -5 2349.17  120.29 
   1  -4  -5 2349.96  120.49 
   1  -4  -5 2334.67  122.69 
   1  -4  -5 2398.46  120.89 
   1  -4  -5 2287.67  122.39 
  -1   4   5 2351.06  121.29 
  -1   4   5 2570.74  123.39 
  -1   4   5 2353.56  124.19 
   0  -4  -5  868.21   46.10 
   0  -4  -5  828.72   45.60 
   0  -4  -5  878.11   45.00 
   0  -4  -5  743.53   45.50 
   0  -4  -5  882.91   44.50 
   0   4   5  811.02   45.10 
   0   4   5  889.01   46.10 
   0   4   5  920.41   47.30 
  -1  -4  -5  222.38   15.30 
  -1  -4  -5  249.08   14.90 
  -1  -4  -5  238.98   14.60 
  -1  -4  -5  250.47   14.50 
  -1  -4  -5  231.28   13.50 
   1   4   5  220.88   14.80 
   1   4   5  245.68   20.70 
   1   4   5  226.98   15.40 
   1   4   5  251.37   15.80 
  -2  -4  -5  317.67   19.10 
  -2  -4  -5  349.37   18.90 
  -2  -4  -5  307.67   17.80 
  -2  -4  -5  317.17   19.00 
   2   4   5  333.87   21.10 
   2   4   5  313.67   24.00 
   2   4   5  367.56   21.40 
   2   4   5  294.17   23.10 
  -3  -4  -5  118.69    8.00 
  -3  -4  -5  120.89    7.70 
  -3  -4  -5  113.89    8.70 
  -3  -4  -5  119.89    9.10 
   3   4   5  120.69   10.90 
   3   4   5  126.79   10.90 
   3   4   5  107.89    9.70 
   3   4   5   96.19   11.90 
  -4  -4  -5  266.27   15.20 
   4   4   5  237.08   16.90 
   4   4   5  258.57   16.90 
   4   4   5  260.37   17.00 
   4   4   5  207.58   18.30 
   4   4   5  255.77   18.40 
   4   4   5  253.57   16.40 
   4   4   5  277.97   23.40 
   5   4   5   65.99    6.20 
   5   4   5   82.19    7.10 
   5   4   5   64.29    6.10 
   4  -5  -5  138.99    9.60 
   4  -5  -5  121.79   11.60 
   4  -5  -5  132.39   10.00 
   4  -5  -5  130.49   10.20 
   4  -5  -5  120.59   11.10 
   4  -5  -5  111.79   13.30 
   4  -5  -5  145.89   11.60 
  -4   5   5  158.18   10.10 
  -4   5   5  150.68    8.50 
  -4   5   5  136.29    9.10 
   3  -5  -5  123.19   10.80 
   3  -5  -5  128.29   13.10 
   3  -5  -5  159.38   16.30 
   3  -5  -5  128.59    9.70 
   3  -5  -5  142.89   10.50 
   3  -5  -5  141.89   10.30 
   3  -5  -5  135.49   12.20 
   3  -5  -5  121.79   13.20 
  -3   5   5   97.49   17.70 
  -3   5   5  120.49   10.00 
  -3   5   5  136.69    8.90 
  -3   5   5  132.89   10.20 
   2  -5  -5  257.07   15.30 
   2  -5  -5  249.68   16.10 
   2  -5  -5  222.88   17.60 
   2  -5  -5  259.17   26.00 
   2  -5  -5  250.97   22.80 
  -2   5   5  239.98   15.40 
  -2   5   5  234.58   16.30 
  -2   5   5  284.17   19.90 
  -2   5   5  243.48   18.00 
   1  -5  -5  647.74   35.30 
   1  -5  -5  595.94   35.00 
   1  -5  -5  648.44   37.80 
  -1   5   5  650.83   36.20 
  -1   5   5  657.33   37.90 
   0  -5  -5  138.99   10.30 
   0  -5  -5  138.79   10.60 
   0  -5  -5  127.89    9.90 
   0  -5  -5  126.49    9.90 
   0  -5  -5  139.19    9.20 
   0   5   5  135.69   11.50 
   0   5   5  139.89   10.60 
   0   5   5  125.69    9.30 
  -1  -5  -5  304.27   18.40 
  -1  -5  -5  283.87   16.50 
  -1  -5  -5  300.27   17.50 
  -1  -5  -5  285.37   17.90 
   1   5   5  282.47   17.80 
   1   5   5  285.07   21.10 
   1   5   5  279.27   18.60 
   1   5   5  281.27   18.80 
  -2  -5  -5  339.97   19.20 
  -2  -5  -5  316.47   20.70 
  -2  -5  -5  369.66   20.90 
  -2  -5  -5  335.97   20.40 
   2   5   5  356.96   22.60 
   2   5   5  349.07   21.50 
   2   5   5  338.87   22.50 
  -3  -5  -5   36.50    4.90 
   3   5   5   46.40    9.90 
   3   5   5   48.70    8.30 
   3   5   5   48.60    7.00 
   3   5   5   45.50    5.80 
   3   5   5   39.90   10.10 
  -4  -5  -5  293.67   17.60 
   4   5   5  301.57   18.20 
   4   5   5  296.37   20.90 
   4   5   5  244.68   23.50 
   4   5   5  292.67   18.30 
   4   5   5  299.77   18.90 
   4   5   5  275.47   18.40 
   4   5   5  244.48   19.30 
  -5  -5  -5   75.19    6.30 
   5   5   5  103.99    8.30 
   5   5   5  112.89   12.30 
   5   5   5   87.39    7.40 
   5   5   5   81.19    8.40 
   4  -6  -5   77.59    6.80 
   4  -6  -5   78.39    6.30 
   4  -6  -5   87.49    7.80 
   4  -6  -5   67.69    7.90 
  -4   6   5   90.29    6.80 
  -4   6   5   82.39    4.90 
   3  -6  -5   28.90    4.70 
   3  -6  -5   36.50    5.20 
   3  -6  -5   31.10    5.70 
   3  -6  -5   30.50    6.10 
  -3   6   5   31.40    6.80 
  -3   6   5   34.20    3.70 
  -3   6   5   29.20    4.90 
  -3   6   5   37.10    6.70 
   2  -6  -5   45.50    7.50 
   2  -6  -5   54.49    6.60 
   2  -6  -5   47.20    7.60 
   2  -6  -5   62.59    8.40 
  -2   6   5   41.40    6.00 
  -2   6   5   48.90    6.30 
  -2   6   5   49.30    5.80 
  -2   6   5   60.29    8.40 
  -2   6   5   50.79    4.40 
   1  -6  -5   45.50    6.50 
   1  -6  -5   40.30    5.60 
  -1   6   5   49.50    7.40 
  -1   6   5   43.80    5.70 
   0  -6  -5  330.17   19.60 
   0  -6  -5  347.27   21.90 
   0  -6  -5  321.77   20.30 
   0  -6  -5  340.57   21.30 
   0  -6  -5  297.37   19.40 
   0   6   5  339.77   23.10 
   0   6   5  335.37   21.30 
  -1  -6  -5 1497.95   77.29 
  -1  -6  -5 1487.45   75.89 
  -1  -6  -5 1527.65   75.19 
  -1  -6  -5 1514.95   77.19 
   1   6   5 1413.16   77.79 
   1   6   5 1395.26   77.39 
   1   6   5 1380.46   76.09 
   1   6   5 1443.36   81.39 
  -2  -6  -5  210.88   15.10 
  -2  -6  -5  196.88   14.40 
  -2  -6  -5  211.48   13.10 
  -2  -6  -5  230.28   15.20 
   2   6   5  193.48   19.80 
   2   6   5  193.78   19.30 
   2   6   5  225.48   16.60 
   2   6   5  226.88   15.30 
   2   6   5  217.38   16.10 
  -3  -6  -5   76.99    7.30 
  -3  -6  -5   54.49    6.60 
   3   6   5   73.59    9.20 
   3   6   5   80.29   12.00 
   3   6   5   61.89    7.00 
   3   6   5   79.19    8.90 
   3   6   5   62.89    8.70 
   3   6   5   80.89    8.30 
   3   6   5   80.19    7.80 
   3   6   5   66.79    7.70 
   3   6   5   64.39   10.90 
   3   6   5   67.49    9.50 
  -4  -6  -5   72.39    6.90 
   4   6   5   80.69    7.40 
   4   6   5   76.69    7.40 
   4   6   5   64.39    8.80 
   4   6   5   72.99    9.10 
   4   6   5   54.79   14.60 
   4   6   5   70.69    7.30 
   4   6   5   77.69    7.20 
   5   6   5   83.09    6.10 
   5   6   5   77.59    6.70 
   5   6   5   79.59    6.20 
   5   6   5   90.59    7.80 
   4  -7  -5    4.00    3.10 
   4  -7  -5   12.90    2.80 
   4  -7  -5   10.80    1.70 
  -4   7   5    7.80    1.60 
  -4   7   5    9.40    2.00 
   3  -7  -5   92.09    9.10 
   3  -7  -5   92.69    8.30 
   3  -7  -5  109.99   10.50 
   3  -7  -5   92.79    7.70 
  -3   7   5   96.99   10.50 
  -3   7   5   95.89    5.90 
  -3   7   5  110.19    8.50 
  -3   7   5  113.49   11.20 
   2  -7  -5    3.90    3.20 
   2  -7  -5    2.20    3.00 
   2  -7  -5   -4.40    7.00 
   2  -7  -5    4.20    1.90 
   2  -7  -5    3.20    3.10 
  -2   7   5    3.70    2.30 
  -2   7   5    2.40    2.80 
  -2   7   5    5.70    2.40 
  -2   7   5    6.70    2.90 
   1  -7  -5   69.79   13.40 
   1  -7  -5   65.69   10.00 
   1  -7  -5   71.19    8.90 
   1  -7  -5   76.19    7.20 
   1  -7  -5   71.69    8.70 
  -1   7   5   91.59    8.20 
  -1   7   5   78.99    8.00 
  -1   7   5   69.89   12.70 
  -1   7   5   80.29    8.80 
  -1   7   5   90.79   10.20 
  -1   7   5   71.19    7.90 
   0  -7  -5   34.40    5.60 
   0  -7  -5   29.70    4.20 
   0  -7  -5   39.30    6.60 
   0  -7  -5   25.60    4.80 
   0   7   5   36.90    5.60 
   0   7   5   20.60    7.80 
   0   7   5   34.50    6.40 
   0   7   5   39.30    5.40 
   0   7   5   36.10    6.70 
  -1  -7  -5 1101.59   58.49 
  -1  -7  -5 1144.89   61.29 
  -1  -7  -5 1156.48   61.09 
  -1  -7  -5 1095.29   60.59 
   1   7   5 1178.68   61.89 
   1   7   5 1105.99   61.69 
   1   7   5 1005.50   59.39 
   1   7   5 1062.59   60.49 
   1   7   5 1118.59   65.59 
   1   7   5 1096.79   60.09 
   1   7   5 1130.09   59.49 
   1   7   5 1134.59   60.99 
   1   7   5 1169.38   70.69 
  -2  -7  -5 1703.53   96.79 
  -2  -7  -5 1976.40   98.29 
  -2  -7  -5 1767.12   95.09 
   2   7   5 1852.91   97.09 
   2   7   5 2020.80   99.39 
   2   7   5 1845.42   96.19 
   2   7   5 1768.12   98.49 
   2   7   5 1936.81   96.99 
   2   7   5 1788.22   96.49 
   2   7   5 1936.41   99.09 
   2   7   5 1862.21  105.29 
   2   7   5 1807.62   98.49 
  -3  -7  -5  219.48   15.80 
  -3  -7  -5  168.28   14.10 
   3   7   5  215.88   20.50 
   3   7   5  226.88   16.70 
   3   7   5  213.78   15.10 
   3   7   5  219.98   15.10 
   3   7   5  220.78   29.30 
   3   7   5  214.78   14.40 
   3   7   5  191.48   16.20 
   3   7   5  188.38   16.10 
  -4  -7  -5   14.20    3.20 
   4   7   5   10.80    3.10 
   4   7   5   12.30    3.80 
   4   7   5   11.40    3.30 
   4   7   5   11.80    2.80 
   4   7   5   13.40    3.60 
   4   7   5   12.30    2.80 
   5   7   5   12.70    2.10 
   5   7   5   11.50    2.50 
   3  -8  -5    5.10    2.80 
   3  -8  -5   10.00    3.30 
   3  -8  -5    9.80    2.20 
  -3   8   5   11.90    2.80 
  -3   8   5    7.10    1.90 
   2  -8  -5   80.79   16.60 
   2  -8  -5   73.39    9.00 
  -2   8   5   64.99    9.80 
  -2   8   5   84.49    9.60 
  -2   8   5   68.49    7.40 
   1  -8  -5  113.19   18.50 
   1  -8  -5  159.88   17.40 
   1  -8  -5  115.29   13.60 
  -1   8   5  129.79   12.30 
  -1   8   5  106.19   12.20 
  -1   8   5  165.18   15.00 
  -1   8   5  134.99   13.80 
  -1   8   5  142.19   13.30 
   0  -8  -5  191.58   15.70 
   0  -8  -5  202.08   11.90 
   0  -8  -5  223.98   23.80 
   0  -8  -5  179.08   14.60 
   0   8   5  179.28   14.20 
   0   8   5  194.58   15.00 
   0   8   5  157.48   13.40 
   0   8   5  216.08   22.50 
   0   8   5  194.98   17.60 
   0   8   5  190.68   15.00 
  -1  -8  -5   45.90    5.10 
  -1  -8  -5   40.40    5.90 
  -1  -8  -5   51.99    6.50 
  -1  -8  -5   40.80    7.40 
  -1  -8  -5   39.60    6.50 
   1   8   5   43.10    5.30 
   1   8   5   38.20    6.00 
   1   8   5   39.80   10.10 
   1   8   5   45.30    6.80 
   1   8   5   53.19    8.60 
   1   8   5   52.49    7.10 
   1   8   5   45.80    6.10 
   1   8   5   51.39    6.80 
   1   8   5   49.50    6.10 
   1   8   5   51.09    5.80 
  -2  -8  -5  350.86   21.60 
  -2  -8  -5  306.27   24.00 
  -2  -8  -5  358.06   23.20 
   2   8   5  375.76   26.20 
   2   8   5  384.16   25.40 
   2   8   5  367.36   23.70 
   2   8   5  375.56   32.80 
   2   8   5  339.47   21.50 
   2   8   5  348.07   23.60 
   2   8   5  310.87   27.90 
   2   8   5  336.77   24.60 
   2   8   5  372.36   23.30 
   2   8   5  341.67   28.30 
  -3  -8  -5   24.70    4.40 
   3   8   5   32.10    5.20 
   3   8   5   26.40    5.90 
   3   8   5   23.10    3.90 
   3   8   5   25.60    5.10 
   3   8   5   14.90    7.60 
   3   8   5   17.60    4.60 
   3   8   5   26.80    4.50 
   3   8   5   16.50    6.80 
  -4  -8  -5  101.59    8.20 
  -4  -8  -5   95.09    7.10 
   4   8   5  106.69    8.50 
   4   8   5  101.99    9.10 
   4   8   5   98.69    7.70 
   4   8   5   97.89    7.40 
   4   8   5  101.19    8.90 
   3  -9  -5   59.59    6.10 
  -3   9   5   59.99    5.20 
  -3   9   5   52.79    5.10 
   2  -9  -5   18.50    6.40 
   2  -9  -5   20.60    5.00 
  -2   9   5   21.80    4.00 
  -2   9   5   19.70    3.90 
   1  -9  -5    0.70    5.10 
   1  -9  -5    7.40    3.30 
  -1   9   5   13.00    3.20 
  -1   9   5    7.20    3.40 
   0  -9  -5   47.60    6.80 
   0  -9  -5   46.40   11.30 
   0   9   5   54.49    6.90 
   0   9   5   45.50    6.50 
   0   9   5   50.29    8.60 
   0   9   5   46.00    6.30 
   0   9   5   63.39   11.30 
  -1  -9  -5   17.20    8.10 
  -1  -9  -5   25.20    3.40 
   1   9   5   19.50    4.40 
   1   9   5   13.50    4.30 
   1   9   5   15.20    6.50 
   1   9   5   17.20    4.00 
   1   9   5   25.90    8.20 
   1   9   5   16.70    3.50 
  -2  -9  -5    4.40    4.50 
  -2  -9  -5    5.20    2.00 
  -2  -9  -5    2.00    2.20 
   2   9   5    5.60    2.30 
   2   9   5    2.40    2.40 
   2   9   5    0.90    3.40 
   2   9   5    1.30    3.20 
   2   9   5    6.60    3.10 
   2   9   5    2.50    2.40 
   2   9   5    1.30    2.20 
   2   9   5    7.10    3.00 
  -3  -9  -5    1.10    3.20 
  -3  -9  -5    3.20    2.00 
  -3  -9  -5    1.20    1.70 
   3   9   5   -1.70    1.80 
   3   9   5    1.60    3.30 
   3   9   5    0.70    1.50 
   3   9   5    2.80    1.80 
   3   9   5    3.10    2.00 
   3   9   5    2.60    2.60 
   3   9   5    4.00    2.30 
   4   9   5   -0.50    0.80 
   4   9   5    5.20    1.90 
   4   9   5    1.00    1.80 
   4   9   5    2.20    1.60 
   2 -10  -5   15.50    3.40 
   2 -10  -5    8.80    4.70 
  -2  10   5   16.30    2.90 
  -2  10   5   14.00    2.80 
   1 -10  -5    3.90    4.00 
   1 -10  -5    9.70    3.40 
  -1  10   5    2.30    2.30 
  -1  10   5    6.90    2.40 
   0 -10  -5    3.20    4.50 
   0 -10  -5    8.90    3.10 
   0 -10  -5    3.20    2.40 
   0  10   5   -1.60    3.30 
   0  10   5    2.40    2.30 
   0  10   5    3.20    2.00 
   0  10   5    6.70    2.60 
   0  10   5    2.90    2.40 
  -1 -10  -5    5.90    5.10 
  -1 -10  -5    7.70    1.80 
   1  10   5    5.90    3.90 
   1  10   5    7.60    2.60 
   1  10   5   11.50    3.20 
   1  10   5   12.20    3.10 
   1  10   5    3.80    4.60 
  -2 -10  -5   33.70    3.80 
  -2 -10  -5   26.10    8.00 
  -2 -10  -5   24.20    5.60 
   2  10   5   43.20    5.10 
   2  10   5   37.30    4.50 
   2  10   5   39.30    5.40 
   2  10   5   22.50    6.80 
   2  10   5   30.40    4.80 
   2  10   5   28.30    5.00 
   3  10   5    9.20    1.80 
   3  10   5    8.60    2.30 
   3  10   5    8.60    2.20 
   3  10   5    8.80    2.50 
   3  10   5    5.40    1.90 
   1 -11  -5    3.30    3.60 
   1 -11  -5    5.90    2.80 
  -1  11   5    2.30    1.40 
   0 -11  -5   33.00    8.50 
   0  11   5   41.60    7.40 
  -1 -11  -5    4.00    2.00 
  -1 -11  -5   -1.40    2.70 
   1  11   5    2.70    2.30 
   1  11   5    5.10    2.10 
   1  11   5    2.90    1.70 
  -2 -11  -5   46.10    4.90 
   2  11   5   37.90    4.10 
   2  11   5   28.50    4.20 
   1  10  -6   16.90    4.20 
  -1 -10   6   19.60    3.60 
  -1 -10   6   21.00    4.30 
   0  10  -6   34.30    4.60 
   0 -10   6   32.80    5.10 
  -1  10  -6   31.80    4.50 
   1 -10   6   33.30    5.20 
  -2  10  -6   46.30    4.80 
   2 -10   6   43.90    6.20 
   2   9  -6   38.00    4.70 
  -2  -9   6   45.30    4.90 
   1   9  -6   50.59    6.30 
   1   9  -6   37.60    5.40 
  -1  -9   6   36.60    5.30 
  -1  -9   6   34.00    5.30 
   0   9  -6   20.90    5.50 
   0   9  -6   21.10    4.60 
   0  -9   6   22.50    4.90 
   0  -9   6   20.50    4.50 
  -1   9  -6   20.70    5.50 
  -1   9  -6   21.50    4.40 
  -1   9  -6   24.20    4.30 
   1  -9   6   24.80    5.20 
   1  -9   6   15.90    7.10 
   1  -9   6   28.90    7.00 
  -2   9  -6   42.80    5.10 
  -2   9  -6   35.90    9.80 
  -2   9  -6   44.50    5.50 
   2  -9   6   28.60    7.20 
   2  -9   6   45.40    6.10 
   2  -9   6   41.60    9.30 
  -3   9  -6   49.99    6.70 
   3  -9   6   43.20    6.20 
   3  -9   6   50.69    9.60 
   2   8  -6   65.69    6.80 
   2   8  -6   76.29    5.50 
   2   8  -6   74.19    7.80 
  -2  -8   6   72.99    8.00 
  -2  -8   6   87.09    7.60 
  -2  -8   6   78.39    5.80 
   1   8  -6   42.20    9.80 
   1   8  -6   36.50    6.30 
   1   8  -6   22.70    6.40 
  -1  -8   6   28.10    7.60 
  -1  -8   6   24.60    5.00 
   0   8  -6   31.40    4.50 
   0   8  -6   28.60    6.90 
   0   8  -6   42.10    6.80 
   0   8  -6   44.50    6.20 
   0  -8   6   41.30    6.10 
   0  -8   6   19.30    5.20 
   0  -8   6   27.80    4.60 
  -1   8  -6   29.00    7.50 
  -1   8  -6   21.50    4.20 
  -1   8  -6   25.00    5.20 
  -1   8  -6   24.90    4.10 
   1  -8   6   27.00    6.10 
   1  -8   6   31.90    5.50 
   1  -8   6   16.30    9.10 
   1  -8   6   28.60    7.60 
  -2   8  -6  119.39    9.10 
  -2   8  -6  124.19   10.80 
   2  -8   6  105.29   21.20 
   2  -8   6   89.59   11.30 
   2  -8   6   87.99   13.60 
  -3   8  -6   84.39    7.30 
  -3   8  -6   72.39    6.90 
  -3   8  -6   78.59    5.70 
   3  -8   6   69.49   13.20 
   3  -8   6   75.99    5.70 
   3  -8   6   71.49    6.70 
   3  -8   6   83.09    9.10 
   3  -8   6   77.79    9.60 
  -4   8  -6   11.90    2.90 
  -4   8  -6   17.10    2.20 
   4  -8   6   15.00    5.20 
   4  -8   6   11.60    3.30 
   4  -8   6   17.20    2.90 
   4  -8   6   13.20    4.20 
   4  -8   6   18.90    3.10 
   3   7  -6   18.00    3.00 
   3   7  -6   28.60    4.00 
   3   7  -6   17.80    3.80 
  -3  -7   6   20.40    3.60 
  -3  -7   6   22.10    3.00 
   2   7  -6   31.00    7.30 
   2   7  -6   26.70    5.30 
   2   7  -6   38.20    5.50 
   2   7  -6   40.60    4.80 
   2   7  -6   48.80    7.10 
  -2  -7   6   36.40    7.10 
  -2  -7   6   35.10    4.50 
  -2  -7   6   45.60    6.20 
   1   7  -6  193.08   12.80 
   1   7  -6  153.98   12.80 
   1   7  -6  181.98   11.80 
   1   7  -6  192.98   15.00 
   1   7  -6  166.88   13.50 
   1   7  -6  144.79   16.70 
  -1  -7   6  183.28   14.20 
  -1  -7   6  194.58   14.00 
  -1  -7   6  191.78   14.80 
  -1  -7   6  193.78   11.90 
   0   7  -6  252.27   29.20 
   0   7  -6  303.97   18.50 
   0   7  -6  322.87   19.60 
   0  -7   6  314.37   19.60 
  -1   7  -6  157.58   11.60 
  -1   7  -6  145.99    9.60 
  -1   7  -6  148.59   10.70 
   1  -7   6  111.59   17.00 
   1  -7   6  167.48   18.30 
   1  -7   6  152.08   16.40 
   1  -7   6  140.19   23.30 
  -2   7  -6   57.49    6.80 
  -2   7  -6   71.99    7.60 
  -2   7  -6   75.29    8.00 
  -2   7  -6   68.39    6.90 
  -2   7  -6   70.49    5.80 
   2  -7   6   69.69    7.50 
   2  -7   6   75.19    6.50 
   2  -7   6   58.09    7.60 
   2  -7   6   79.59   15.50 
   2  -7   6   74.99   11.40 
   2  -7   6   61.39    9.00 
  -3   7  -6  109.39    9.10 
  -3   7  -6  115.49    8.40 
  -3   7  -6   94.19    8.90 
  -3   7  -6  114.89    8.50 
   3  -7   6  114.19   13.60 
   3  -7   6  113.09    8.70 
   3  -7   6  111.29    9.10 
   3  -7   6  125.39   15.20 
   3  -7   6   93.19   18.50 
   3  -7   6  112.89   13.10 
  -4   7  -6   33.60    4.20 
  -4   7  -6   25.00    4.00 
   4  -7   6   28.90    3.80 
   4  -7   6   23.50    4.00 
   4  -7   6   29.00    3.70 
   4  -7   6   17.40    5.60 
   3   6  -6   21.50    4.90 
   3   6  -6   26.70    4.70 
   3   6  -6   24.60    5.40 
   3   6  -6   21.10    3.60 
   3   6  -6   22.30    6.40 
   3   6  -6   29.00    4.40 
  -3  -6   6   27.50    3.00 
  -3  -6   6   33.40    6.10 
  -3  -6   6   22.80    3.90 
  -3  -6   6   36.10    4.90 
   2   6  -6  309.77   18.20 
   2   6  -6  285.87   19.30 
   2   6  -6  287.77   18.50 
   2   6  -6  279.97   20.80 
   2   6  -6  290.97   19.40 
   2   6  -6  240.48   24.20 
  -2  -6   6  319.07   20.00 
  -2  -6   6  291.87   16.70 
  -2  -6   6  325.07   19.80 
   1   6  -6   26.20    6.00 
   1   6  -6   40.70    5.90 
   1   6  -6   38.80    6.30 
   1   6  -6   37.40    7.20 
   1   6  -6   34.10    4.70 
   1   6  -6   26.10    8.10 
  -1  -6   6   46.10    6.70 
  -1  -6   6   32.80    5.10 
  -1  -6   6   50.29    6.20 
  -1  -6   6   40.40    7.80 
   0   6  -6    6.80    4.10 
   0   6  -6    6.90    2.90 
   0   6  -6    6.60    4.40 
   0   6  -6    4.90    2.50 
   0  -6   6    1.00    4.20 
   0  -6   6    7.80    3.70 
   0  -6   6   10.20    3.90 
   0  -6   6    6.00    2.70 
  -1   6  -6 1255.97   66.99 
  -1   6  -6 1348.86   68.99 
  -1   6  -6 1381.06   68.09 
  -1   6  -6 1120.49   71.19 
  -1   6  -6 1323.57   69.59 
   1  -6   6 1246.48   69.09 
   1  -6   6 1313.87   70.79 
   1  -6   6 1216.38   72.59 
   1  -6   6 1522.25   89.09 
   1  -6   6 1366.66   76.29 
  -2   6  -6   99.09    8.60 
  -2   6  -6   98.49    7.50 
  -2   6  -6  106.39    9.10 
  -2   6  -6  102.59    7.90 
  -2   6  -6  100.79    9.20 
   2  -6   6  100.59    9.40 
   2  -6   6   94.99   11.20 
   2  -6   6  124.59   18.90 
   2  -6   6   99.09    8.60 
   2  -6   6   75.89    8.60 
   2  -6   6   82.89    8.00 
  -3   6  -6   28.60    5.00 
  -3   6  -6   37.20    4.30 
  -3   6  -6   32.40    4.60 
  -3   6  -6   32.10    4.70 
   3  -6   6   32.90    5.30 
   3  -6   6   20.80    6.00 
   3  -6   6   29.50   10.70 
   3  -6   6   43.20    5.80 
   3  -6   6   41.50    6.70 
   3  -6   6   32.10    5.10 
  -4   6  -6   22.40    3.20 
  -4   6  -6   18.90    3.90 
  -4   6  -6   18.20    3.60 
   4  -6   6   16.60    3.30 
   4  -6   6   18.70    3.50 
   4  -6   6   17.10    6.80 
   4  -6   6   19.40    3.60 
   4  -6   6   15.70    4.00 
   4  -6   6   21.10    5.90 
   4   5  -6    6.50    1.70 
   4   5  -6    5.00    2.50 
  -4  -5   6    8.50    1.60 
  -4  -5   6    6.60    1.90 
   3   5  -6    6.50    2.70 
   3   5  -6   11.30    4.10 
   3   5  -6    8.90    3.90 
   3   5  -6   12.10    3.00 
   3   5  -6    5.40    4.50 
   3   5  -6   11.80    2.80 
  -3  -5   6    4.90    2.20 
  -3  -5   6    6.70    2.10 
  -3  -5   6    7.00    4.10 
  -3  -5   6   12.70    3.50 
   2   5  -6    5.40    4.30 
   2   5  -6    9.80    3.20 
   2   5  -6   10.20    7.40 
   2   5  -6    6.00    4.80 
   2   5  -6    9.80    4.90 
   2   5  -6   13.60    4.30 
  -2  -5   6   12.50    3.50 
   1   5  -6 1213.78   66.39 
   1   5  -6 1217.68   63.99 
   1   5  -6 1202.28   72.39 
   1   5  -6 1200.18   67.59 
  -1  -5   6 1295.57   62.19 
  -1  -5   6 1026.20   65.29 
  -1  -5   6 1051.29   63.69 
  -1  -5   6 1193.28   63.69 
   0   5  -6 1960.60  105.09 
   0   5  -6 1966.30  102.79 
   0   5  -6 1995.70  101.69 
   0  -5   6 2017.60  103.39 
  -1   5  -6  324.67   20.50 
  -1   5  -6  334.77   21.00 
  -1   5  -6  332.57   21.90 
  -1   5  -6  356.86   20.90 
  -1   5  -6  338.17   19.60 
   1  -5   6  322.97   21.10 
  -2   5  -6  132.49    9.70 
  -2   5  -6  130.89    9.90 
  -2   5  -6  130.99   11.20 
  -2   5  -6  111.29   10.80 
  -2   5  -6  119.19    8.70 
   2  -5   6  102.19    9.90 
   2  -5   6  113.29    9.80 
   2  -5   6  132.29   25.00 
   2  -5   6  131.79    9.90 
   2  -5   6  128.99   19.70 
   2  -5   6  125.39   11.60 
  -3   5  -6  229.98   14.40 
  -3   5  -6  243.58   17.60 
  -3   5  -6  257.37   16.10 
  -3   5  -6  237.88   16.20 
  -3   5  -6  252.77   14.90 
   3  -5   6  267.37   30.30 
   3  -5   6  245.68   16.00 
   3  -5   6  225.58   16.00 
   3  -5   6  235.88   19.20 
   3  -5   6  225.08   15.70 
   3  -5   6  232.38   20.90 
   3  -5   6  227.88   17.80 
  -4   5  -6    1.30    1.50 
  -4   5  -6    2.30    2.00 
  -4   5  -6    0.40    2.50 
  -4   5  -6    2.30    1.60 
   4  -5   6   -3.20    2.40 
   4  -5   6    0.90    3.10 
   4  -5   6    3.20    4.30 
   4  -5   6    0.20    2.40 
   4  -5   6    1.00    4.60 
   4  -5   6   -1.80    2.20 
   5  -5   6  165.58   10.50 
   5  -5   6  181.78   11.50 
   5  -5   6  127.39   15.30 
   5  -5   6  165.58   11.60 
   5  -5   6  158.68   13.10 
   4   4  -6   25.90    3.20 
   4   4  -6   17.60    5.00 
   4   4  -6   30.50    4.90 
   4   4  -6   33.40    4.40 
   4   4  -6   28.90    4.80 
  -4  -4   6   27.70    3.20 
  -4  -4   6   25.60    3.30 
   3   4  -6   61.19    8.80 
   3   4  -6   46.00   10.50 
   3   4  -6   75.89    7.80 
   3   4  -6   69.29    6.70 
   3   4  -6   59.79    9.70 
   3   4  -6   57.99    8.10 
   3   4  -6   69.39    7.00 
  -3  -4   6   73.59    6.80 
  -3  -4   6   50.89    7.00 
  -3  -4   6   58.79    7.10 
  -3  -4   6   65.39    6.00 
   2   4  -6 1775.42   87.59 
   2   4  -6 1751.92   88.59 
   2   4  -6 1712.73   88.59 
   2   4  -6 1608.74   90.39 
   2   4  -6 1829.72   90.79 
   2   4  -6 1491.55   88.79 
   2   4  -6 1790.62   92.29 
   2   4  -6 1756.42  101.29 
  -2  -4   6 1672.43   86.39 
  -2  -4   6 1559.94   88.49 
  -2  -4   6 1503.85   88.39 
  -2  -4   6 1746.63   88.89 
   1   4  -6  437.96   27.40 
   1   4  -6  465.35   28.40 
   1   4  -6  478.65   30.10 
   1   4  -6  457.65   27.10 
  -1  -4   6  474.05   27.90 
   0   4  -6 1658.73   91.19 
   0   4  -6 1846.12   94.19 
   0   4  -6 1795.32   92.19 
   0   4  -6 1782.72   91.09 
   0  -4   6 1789.32   92.49 
  -1   4  -6  232.98   15.50 
  -1   4  -6  228.38   14.10 
  -1   4  -6  233.18   15.20 
  -1   4  -6  226.08   14.90 
   1  -4   6  242.68   15.90 
   1  -4   6  235.28   14.80 
  -2   4  -6   65.29    6.80 
  -2   4  -6   69.29    5.90 
  -2   4  -6   58.79    6.90 
  -2   4  -6   66.49    6.80 
   2  -4   6   66.59    8.00 
   2  -4   6   66.69    6.90 
   2  -4   6   66.79    6.70 
  -3   4  -6  855.81   48.00 
  -3   4  -6  894.51   50.19 
  -3   4  -6  915.91   46.90 
   3  -4   6  930.81   67.29 
   3  -4   6  954.20   47.40 
   3  -4   6  816.32   47.50 
   3  -4   6  805.62   51.49 
   3  -4   6  825.12   48.30 
   3  -4   6  920.71   48.10 
   3  -4   6  801.12   50.39 
   3  -4   6 1037.10   56.29 
  -4   4  -6    1.30    2.20 
   4  -4   6    2.70    4.20 
   4  -4   6    7.30    3.70 
   4  -4   6    7.10    3.00 
   4  -4   6    3.60    5.30 
   4  -4   6   -0.70    2.60 
   4  -4   6    9.90    4.50 
   4  -4   6    6.60    3.00 
   4  -4   6    5.10    2.50 
  -5   4  -6  302.97   19.90 
  -5   4  -6  347.77   22.10 
  -5   4  -6  337.27   19.90 
   5  -4   6  275.17   26.60 
   5  -4   6  394.06   21.30 
   5  -4   6  345.77   19.90 
   5  -4   6  341.17   18.90 
   5  -4   6  354.56   25.20 
   5  -4   6  328.77   21.90 
   4   3  -6   19.90    3.70 
   4   3  -6   14.90    4.00 
   4   3  -6   15.20    4.00 
   4   3  -6   19.00    4.40 
   4   3  -6   17.10    5.90 
   4   3  -6   21.50    3.80 
   4   3  -6   13.50    3.30 
  -4  -3   6   23.30    3.30 
   3   3  -6  108.29   16.00 
   3   3  -6  111.99    8.60 
   3   3  -6   90.89    9.40 
   3   3  -6   96.29    9.10 
   3   3  -6   89.69   10.70 
   3   3  -6  110.69   12.80 
   3   3  -6  105.39    9.80 
   3   3  -6   94.89   10.60 
   3   3  -6  102.59    9.00 
  -3  -3   6   81.29   10.40 
  -3  -3   6  101.19    8.50 
  -3  -3   6  104.59    7.80 
  -3  -3   6   95.09    8.70 
  -3  -3   6   87.99    8.90 
   2   3  -6  551.14   33.30 
   2   3  -6  499.05   28.30 
   2   3  -6  507.25   32.90 
   2   3  -6  506.15   39.90 
   2   3  -6  455.75   30.40 
  -2  -3   6  500.25   29.10 
  -2  -3   6  433.36   28.90 
  -2  -3   6  465.95   27.20 
   1   3  -6  431.96   25.10 
   1   3  -6  427.96   27.20 
   1   3  -6  433.36   25.50 
   1   3  -6  421.86   26.10 
  -1  -3   6  420.66   25.60 
   0   3  -6 1063.19   52.49 
   0   3  -6 1008.40   52.79 
   0   3  -6  975.20   52.89 
   0   3  -6 1056.29   55.19 
   0   3  -6 1013.50   53.99 
   0  -3   6  910.41   54.79 
   0  -3   6  996.30   54.49 
  -1   3  -6  349.77   21.80 
  -1   3  -6  369.76   20.20 
  -1   3  -6  378.66   21.60 
  -1   3  -6  391.76   21.20 
  -1   3  -6  333.17   19.90 
   1  -3   6  313.97   20.70 
   1  -3   6  371.46   21.80 
  -2   3  -6  869.91   49.30 
  -2   3  -6  895.01   48.20 
  -2   3  -6  881.91   46.90 
  -2   3  -6  908.21   47.80 
   2  -3   6  907.21   49.20 
   2  -3   6  929.01   48.00 
   2  -3   6  901.91   48.90 
  -3   3  -6   11.30    4.10 
  -3   3  -6   11.30    2.80 
   3  -3   6   17.70    6.80 
   3  -3   6   26.80    6.40 
   3  -3   6   15.40    4.40 
   3  -3   6   17.50    3.80 
   3  -3   6   16.40    3.20 
   3  -3   6   18.00    4.00 
   3  -3   6   11.20    3.80 
   3  -3   6   23.70   10.50 
  -4   3  -6  246.78   18.80 
  -4   3  -6  266.47   16.30 
  -4   3  -6  258.77   17.20 
   4  -3   6  251.27   17.10 
   4  -3   6  276.97   16.90 
   4  -3   6  293.17   20.70 
   4  -3   6  273.87   20.00 
   4  -3   6  315.67   24.20 
   4  -3   6  270.07   18.30 
   4  -3   6  255.27   20.20 
   4  -3   6  312.77   31.50 
  -5   3  -6  214.18   12.90 
  -5   3  -6  171.88   12.30 
   5  -3   6  199.28   13.40 
   5  -3   6  193.98   22.40 
   5  -3   6  212.68   14.50 
   5  -3   6  190.58   16.60 
   5  -3   6  218.68   13.10 
   5  -3   6  205.68   12.60 
   4   2  -6    9.10    4.60 
   4   2  -6   10.60    3.10 
   4   2  -6   10.10    2.70 
   4   2  -6   13.60    2.80 
   4   2  -6   21.40    4.50 
   4   2  -6   14.70    3.20 
  -4  -2   6    8.40    2.10 
  -4  -2   6    5.40    2.70 
   3   2  -6  135.89    9.80 
   3   2  -6  124.49   10.90 
   3   2  -6  125.79   12.40 
   3   2  -6  131.69   16.10 
   3   2  -6  122.99   17.70 
   3   2  -6  120.09   12.10 
   3   2  -6  130.59   10.40 
   3   2  -6  124.39   10.90 
   3   2  -6  110.89   10.40 
   3   2  -6  130.19   11.40 
  -3  -2   6  110.69   10.70 
  -3  -2   6  124.29    9.90 
  -3  -2   6  118.39    9.10 
   2   2  -6    5.90    5.40 
   2   2  -6   10.90    4.10 
   2   2  -6    4.50    2.90 
   2   2  -6   -4.40    5.60 
   2   2  -6   13.60    4.20 
   2   2  -6    5.00    2.70 
   2   2  -6   14.50    3.50 
   2   2  -6   12.80    4.50 
   2   2  -6    8.50    3.20 
  -2  -2   6   10.20    2.60 
  -2  -2   6   11.70    3.20 
  -2  -2   6    9.00    2.50 
  -2  -2   6    7.70    2.90 
   1   2  -6  435.26   27.00 
   1   2  -6  398.76   23.30 
   1   2  -6  386.26   23.60 
   1   2  -6  410.46   24.40 
  -1  -2   6  368.36   23.50 
   0   2  -6 1384.36   72.69 
   0   2  -6 1413.46   74.29 
   0   2  -6 1426.06   73.39 
   0   2  -6 1442.36   72.49 
   0  -2   6 1422.06   72.39 
   0  -2   6 1353.66   73.29 
   0  -2   6 1423.36   79.29 
  -1   2  -6  185.28   11.10 
  -1   2  -6  187.98   11.80 
  -1   2  -6  192.08   12.30 
  -1   2  -6  174.68   11.00 
  -1   2  -6  179.18   12.50 
   1  -2   6  171.18   12.10 
   1  -2   6  167.48   11.90 
  -2   2  -6 2470.95  123.29 
  -2   2  -6 2459.85  124.09 
  -2   2  -6 2388.36  125.69 
   2  -2   6 2474.75  125.59 
   2  -2   6 2430.46  124.19 
   2  -2   6 2468.25  125.59 
  -3   2  -6  729.13   37.60 
  -3   2  -6  698.63   37.90 
   3  -2   6  666.23   40.00 
   3  -2   6  707.43   38.70 
   3  -2   6  739.53   38.10 
  -4   2  -6  994.40   55.89 
  -4   2  -6 1051.49   52.49 
   4  -2   6  940.71   54.59 
   4  -2   6 1000.70   54.29 
   4  -2   6 1071.59   52.99 
   4  -2   6  991.50   56.79 
   4  -2   6  873.81   67.39 
   4  -2   6 1065.49   53.79 
   4  -2   6 1003.60   55.99 
  -5   2  -6   37.10    4.10 
   5  -2   6   45.80    5.50 
   5  -2   6   50.29    6.30 
   5  -2   6   37.20    7.20 
   5  -2   6   48.00    5.50 
   5  -2   6   32.90    9.00 
   4   1  -6   52.89    5.90 
   4   1  -6   43.10    9.60 
   4   1  -6   48.40    5.50 
   4   1  -6   45.40    6.20 
   4   1  -6   39.70    6.70 
   4   1  -6   52.19    6.50 
  -4  -1   6   42.50    5.40 
  -4  -1   6   39.60    4.60 
  -4  -1   6   50.09    4.80 
   3   1  -6  176.78   13.60 
   3   1  -6  167.48   14.60 
   3   1  -6  195.88   17.00 
   3   1  -6  147.39   18.20 
   3   1  -6  162.58   14.70 
   3   1  -6  157.78   20.50 
   3   1  -6  186.18   16.40 
   3   1  -6  171.88   13.40 
  -3  -1   6  158.18   15.10 
  -3  -1   6  175.98   11.80 
  -3  -1   6  166.88   13.80 
  -3  -1   6  166.78   13.00 
   2   1  -6  105.19    8.30 
   2   1  -6  121.69   12.00 
   2   1  -6  121.69   11.50 
   2   1  -6  110.29   10.00 
   2   1  -6  110.59    9.40 
   2   1  -6  125.39   10.20 
   2   1  -6  110.99   10.30 
  -2  -1   6   95.59   10.20 
  -2  -1   6  114.59    9.40 
  -2  -1   6  113.39    9.70 
   1   1  -6   41.00    4.40 
   1   1  -6   36.80    3.50 
   1   1  -6   32.80    5.20 
   1   1  -6   39.40    4.60 
   1   1  -6   33.80    5.20 
   1   1  -6   31.50    4.50 
  -1  -1   6   35.60    4.70 
   0   1  -6  254.67   15.40 
   0   1  -6  236.38   14.20 
   0   1  -6  236.18   14.90 
   0   1  -6  226.18   14.30 
   0   1  -6  238.08   15.50 
   0  -1   6  247.48   19.10 
   0  -1   6  231.88   14.40 
   0  -1   6  238.28   15.00 
  -1   1  -6 1503.45   69.39 
  -1   1  -6 1396.26   68.59 
  -1   1  -6 1277.57   67.99 
  -1   1  -6 1266.57   69.49 
  -1   1  -6 1351.66   67.79 
   1  -1   6 1303.37   76.09 
   1  -1   6 1213.78   68.99 
   1  -1   6 1325.07   69.39 
  -2   1  -6 4764.52  220.28 
  -2   1  -6 4319.77  219.08 
  -2   1  -6 4489.75  219.88 
  -2   1  -6 4156.88  219.28 
  -2   1  -6 4204.68  221.28 
   2  -1   6 4427.96  220.08 
   2  -1   6 4284.57  221.38 
   2  -1   6 4495.35  221.98 
  -3   1  -6   83.59    8.50 
  -3   1  -6   89.69    6.50 
  -3   1  -6   81.19    6.40 
   3  -1   6   91.79    7.60 
   3  -1   6   86.69    8.50 
   3  -1   6   90.09    6.90 
   3  -1   6   80.79    8.20 
  -4   1  -6  193.58   14.70 
  -4   1  -6  186.98   11.60 
  -4   1  -6  190.68   11.80 
   4  -1   6  172.68   13.70 
   4  -1   6  183.88   13.50 
   4  -1   6  193.88   13.00 
   4  -1   6  196.68   17.80 
   4  -1   6  200.98   12.40 
   4  -1   6  194.48   15.00 
   4  -1   6  191.38   23.10 
   4  -1   6  159.98   14.00 
  -5   1  -6  473.75   26.00 
   5  -1   6  420.56   34.40 
   5  -1   6  476.45   27.80 
   5  -1   6  496.85   31.30 
   5  -1   6  496.95   27.10 
   5  -1   6  512.25   26.90 
   4   0  -6  259.17   17.60 
   4   0  -6  275.27   19.10 
   4   0  -6  319.17   18.10 
   4   0  -6  267.47   16.90 
   4   0  -6  292.77   18.30 
  -4   0   6  239.78   17.60 
  -4   0   6  297.77   16.60 
   3   0  -6   12.70    3.90 
   3   0  -6   20.70    7.80 
   3   0  -6   11.30    4.00 
   3   0  -6    8.70    3.30 
   3   0  -6   17.00    4.50 
   3   0  -6    8.80    5.60 
   3   0  -6    9.20    3.30 
   3   0  -6    7.90    3.10 
   3   0  -6   14.70    2.80 
   3   0  -6   15.00    4.30 
   3   0  -6   15.50    6.30 
  -3   0   6   14.70    5.00 
  -3   0   6   10.70    2.70 
  -3   0   6   11.00    2.40 
  -3   0   6   12.70    3.50 
   2   0  -6   67.89    7.70 
   2   0  -6   73.89    6.60 
   2   0  -6   87.89    9.30 
   2   0  -6   74.29    7.10 
   2   0  -6   61.39    8.80 
   2   0  -6   79.09    7.40 
   2   0  -6   73.29    8.00 
  -2   0   6   70.29    8.30 
  -2   0   6   70.49    7.10 
  -2   0   6   62.09    6.50 
   1   0  -6  369.86   21.70 
   1   0  -6  365.16   20.40 
   1   0  -6  386.36   22.10 
   1   0  -6  370.26   21.20 
   1   0  -6  372.56   22.60 
   1   0  -6  393.26   24.10 
  -1   0   6  361.16   25.60 
  -1   0   6  336.77   22.10 
  -1   0   6  372.56   21.70 
   0   0  -6   30.80    2.90 
   0   0  -6   35.30    4.50 
   0   0  -6   45.10    4.50 
   0   0  -6   38.60    3.80 
   0   0  -6   38.70    4.00 
   0   0   6   37.40    4.30 
   0   0   6   42.60    6.60 
   0   0   6   38.10    4.00 
  -1   0  -6 2480.95  127.69 
  -1   0  -6 2497.95  127.69 
  -1   0  -6 2839.82  128.79 
  -1   0  -6 2497.15  127.09 
  -1   0  -6 2482.15  129.19 
   1   0   6 2538.35  134.69 
   1   0   6 2541.35  129.19 
   1   0   6 2404.06  128.79 
  -2   0  -6  211.38   12.20 
  -2   0  -6  200.08   12.10 
  -2   0  -6  197.98   13.70 
  -2   0  -6  208.88   11.70 
  -2   0  -6  208.88   12.30 
   2   0   6  204.98   14.00 
   2   0   6  190.98   13.30 
   2   0   6  173.88   17.30 
   2   0   6  209.98   12.40 
  -3   0  -6  235.88   16.00 
  -3   0  -6  240.38   14.60 
   3   0   6  241.88   14.80 
   3   0   6  238.68   16.00 
   3   0   6  236.28   16.60 
  -4   0  -6   84.39    6.60 
  -4   0  -6   83.89    8.60 
   4   0   6   76.09    7.70 
   4   0   6   90.29    8.90 
   4   0   6   85.09    8.90 
   4   0   6   72.99   13.30 
   4   0   6   83.69    7.00 
   4   0   6   79.99    9.30 
   4   0   6   93.79    7.70 
   5   0   6  235.88   13.80 
   5   0   6  233.08   14.50 
   5   0   6  183.08   19.50 
   4  -1  -6  283.47   16.60 
   4  -1  -6  288.17   17.90 
   4  -1  -6  279.37   18.10 
   4  -1  -6  271.97   18.60 
   4  -1  -6  289.27   17.50 
  -4   1   6  277.67   17.70 
  -4   1   6  276.37   16.00 
  -4   1   6  223.78   16.90 
   3  -1  -6  470.25   29.00 
   3  -1  -6  509.25   29.70 
   3  -1  -6  580.24   40.00 
   3  -1  -6  484.15   28.70 
   3  -1  -6  475.45   31.10 
   3  -1  -6  453.15   31.10 
   3  -1  -6  442.26   29.30 
   3  -1  -6  499.65   30.40 
   3  -1  -6  536.95   29.30 
  -3   1   6  505.75   32.30 
  -3   1   6  493.05   27.40 
  -3   1   6  477.75   27.60 
  -3   1   6  478.45   29.30 
   2  -1  -6   50.69    5.80 
   2  -1  -6   62.09    6.80 
   2  -1  -6   53.79    6.80 
   2  -1  -6   55.19    6.80 
   2  -1  -6   60.89    8.10 
   2  -1  -6   51.49    7.70 
  -2   1   6   53.99    7.10 
  -2   1   6   50.59    5.90 
  -2   1   6   61.59    5.80 
   1  -1  -6  557.64   31.70 
   1  -1  -6  576.34   31.10 
   1  -1  -6  569.14   30.10 
   1  -1  -6  534.75   30.30 
   1  -1  -6  568.34   31.90 
   1  -1  -6  539.65   31.10 
  -1   1   6  532.25   30.80 
  -1   1   6  590.04   35.70 
  -1   1   6  569.44   30.60 
  -1   1   6  544.65   31.90 
   0  -1  -6  309.17   18.40 
   0  -1  -6  272.47   18.60 
   0  -1  -6  282.87   17.30 
   0  -1  -6  270.17   16.60 
   0  -1  -6  330.47   18.30 
   0  -1  -6  307.97   17.50 
   0   1   6  296.87   18.00 
   0   1   6  336.77   21.50 
  -1  -1  -6  337.67   18.70 
  -1  -1  -6  301.07   17.20 
  -1  -1  -6  323.17   19.50 
  -1  -1  -6  327.07   18.30 
  -1  -1  -6  312.27   16.90 
   1   1   6  316.77   19.40 
   1   1   6  335.07   22.60 
   1   1   6  310.97   19.20 
  -2  -1  -6  214.88   11.90 
  -2  -1  -6  182.58   10.90 
  -2  -1  -6  194.08   12.00 
  -2  -1  -6  189.78   13.50 
   2   1   6  191.68   13.10 
   2   1   6  206.38   14.00 
   2   1   6  174.68   15.50 
  -3  -1  -6  361.06   18.80 
  -3  -1  -6  318.77   19.30 
  -3  -1  -6  345.07   21.40 
   3   1   6  328.07   21.60 
   3   1   6  332.27   21.00 
   3   1   6  320.57   21.00 
  -4  -1  -6  866.41   47.80 
   4   1   6  842.42   45.90 
   4   1   6  865.31   58.89 
   4   1   6  823.92   47.00 
   4   1   6  929.31   48.90 
   4   1   6  844.62   48.50 
   4   1   6  850.31   47.50 
   4   1   6  852.81   47.50 
   5   1   6   64.69    8.80 
   5   1   6   51.79   11.60 
   4  -2  -6   79.69    8.10 
   4  -2  -6   76.29    8.40 
   4  -2  -6   84.49    7.00 
   4  -2  -6   86.99    7.90 
   4  -2  -6   91.49   12.00 
   4  -2  -6   89.79    7.10 
   4  -2  -6   81.49    7.80 
  -4   2   6   65.99    7.40 
  -4   2   6   83.19    7.60 
  -4   2   6   88.19    6.40 
   3  -2  -6   35.20    8.90 
   3  -2  -6   33.90    5.70 
   3  -2  -6   38.90    5.20 
   3  -2  -6   43.10   10.20 
  -3   2   6   33.40    5.00 
  -3   2   6   43.30    4.90 
  -3   2   6   30.70    6.80 
   2  -2  -6    8.30    3.50 
   2  -2  -6   14.70    3.50 
   2  -2  -6   10.70    3.40 
   2  -2  -6   12.40    3.30 
   2  -2  -6   15.90    3.80 
  -2   2   6    5.80    3.30 
  -2   2   6   17.90    3.80 
   1  -2  -6  817.02   41.70 
   1  -2  -6  744.13   40.30 
   1  -2  -6  728.23   41.10 
   1  -2  -6  791.72   41.30 
   1  -2  -6  832.42   42.20 
   1  -2  -6  709.93   41.90 
  -1   2   6  769.22   40.90 
  -1   2   6  783.82   42.50 
  -1   2   6  742.63   40.90 
  -1   2   6  688.73   48.60 
   0  -2  -6 1715.43   82.89 
   0  -2  -6 1600.04   80.99 
   0  -2  -6 1598.34   82.89 
   0  -2  -6 1599.34   81.89 
   0  -2  -6 1509.45   81.99 
   0  -2  -6 1446.46   80.79 
   0   2   6 1758.72   83.19 
   0   2   6 1584.34   82.59 
   0   2   6 1581.74   82.59 
  -1  -2  -6  269.27   15.80 
  -1  -2  -6  292.17   16.30 
  -1  -2  -6  245.88   14.50 
  -1  -2  -6  271.37   17.10 
   1   2   6  273.77   16.80 
   1   2   6  268.47   18.10 
   1   2   6  256.77   16.80 
  -2  -2  -6  410.56   24.90 
  -2  -2  -6  360.16   21.50 
  -2  -2  -6  453.65   22.90 
   2   2   6  424.86   24.50 
   2   2   6  418.86   25.10 
   2   2   6  402.36   24.60 
  -3  -2  -6   92.39    7.50 
  -3  -2  -6   87.49    8.90 
  -3  -2  -6   98.69    6.50 
   3   2   6   99.69    8.80 
   3   2   6   95.79    9.00 
   3   2   6   95.79    9.20 
  -4  -2  -6  131.59   11.10 
   4   2   6  126.59   11.40 
   4   2   6  138.39   17.40 
   4   2   6  109.19   10.50 
   4   2   6  138.69   10.80 
   4   2   6  138.89   11.40 
   4   2   6  136.69   10.90 
   4   2   6  131.29   11.00 
   4   2   6  110.99   10.20 
   4  -3  -6  148.69   12.10 
   4  -3  -6  144.29   10.70 
   4  -3  -6  146.09    9.60 
   4  -3  -6  159.98   10.80 
   4  -3  -6  129.89   11.40 
   4  -3  -6  139.89   14.80 
  -4   3   6  141.49   10.20 
  -4   3   6  151.78    9.20 
   3  -3  -6  204.58   16.30 
   3  -3  -6  186.48   15.90 
   3  -3  -6  177.38   14.00 
   3  -3  -6  176.98   15.70 
   3  -3  -6  213.98   14.30 
   3  -3  -6  212.58   20.30 
   3  -3  -6  199.68   13.50 
  -3   3   6  196.78   14.20 
  -3   3   6  190.88   12.10 
  -3   3   6  187.78   16.80 
   2  -3  -6 1173.28   65.29 
   2  -3  -6 1146.89   65.89 
   2  -3  -6 1155.88   63.89 
   2  -3  -6 1264.97   63.69 
   2  -3  -6 1146.19   63.69 
   2  -3  -6 1263.77   66.79 
  -2   3   6 1177.18   63.69 
  -2   3   6 1216.58   63.59 
  -2   3   6 1238.08   66.39 
  -2   3   6 1155.08   61.29 
   1  -3  -6  134.89   10.90 
   1  -3  -6  133.69    9.10 
   1  -3  -6  147.29   10.20 
   1  -3  -6  123.39    9.80 
   1  -3  -6  140.19    9.40 
   1  -3  -6  142.09   10.50 
  -1   3   6  149.49   11.50 
  -1   3   6  131.79    9.50 
  -1   3   6  116.69   15.20 
  -1   3   6  121.69    9.70 
   0  -3  -6 2292.87  112.09 
   0  -3  -6 2306.57  111.49 
   0  -3  -6 2116.19  111.19 
   0  -3  -6 2163.98  109.49 
   0  -3  -6 1996.60  110.79 
   0   3   6 2099.39  111.19 
   0   3   6 2309.27  112.79 
   0   3   6 2068.59  110.69 
  -1  -3  -6 1431.86   71.19 
  -1  -3  -6 1373.16   72.19 
  -1  -3  -6 1362.06   70.69 
  -1  -3  -6 1347.77   69.49 
  -1  -3  -6 1321.77   70.99 
   1   3   6 1362.06   71.69 
   1   3   6 1389.56   72.19 
   1   3   6 1370.46   72.09 
  -2  -3  -6  301.47   16.90 
  -2  -3  -6  250.07   23.60 
  -2  -3  -6  280.97   15.70 
  -2  -3  -6  286.77   17.20 
   2   3   6  291.37   18.20 
   2   3   6  275.67   19.80 
  -3  -3  -6  138.59   12.40 
  -3  -3  -6  153.28   10.80 
  -3  -3  -6  150.28    9.60 
   3   3   6  143.79   12.20 
   3   3   6  157.68   12.90 
   3   3   6  147.19   11.70 
  -4  -3  -6  180.68   10.60 
  -4  -3  -6  168.18   13.40 
   4   3   6  159.28   14.00 
   4   3   6  162.98   12.60 
   4   3   6  151.28   18.10 
   4   3   6  169.38   13.20 
   4   3   6  164.98   14.30 
   4   3   6  150.38   14.20 
   4   3   6  153.38   12.10 
   5   3   6  173.28   14.10 
   4  -4  -6   33.30    3.90 
   4  -4  -6   25.00    5.60 
   4  -4  -6   35.60    5.80 
   4  -4  -6   30.90    4.60 
  -4   4   6   31.90    4.20 
  -4   4   6   30.80    3.90 
  -4   4   6   33.00    4.60 
   3  -4  -6  327.47   22.00 
   3  -4  -6  314.37   18.70 
   3  -4  -6  286.67   19.30 
   3  -4  -6  288.27   18.60 
   3  -4  -6  323.37   19.80 
   3  -4  -6  303.07   21.90 
   3  -4  -6  294.57   25.10 
  -3   4   6  306.27   19.30 
  -3   4   6  319.47   22.50 
  -3   4   6  313.67   17.50 
   2  -4  -6 1386.36   67.89 
   2  -4  -6 1145.99   76.09 
   2  -4  -6 1283.07   68.09 
   2  -4  -6 1264.97   68.99 
   2  -4  -6 1234.68   70.89 
   2  -4  -6 1243.08   66.09 
  -2   4   6 1282.77   64.79 
  -2   4   6 1275.47   67.39 
   1  -4  -6  234.58   16.90 
   1  -4  -6  226.68   14.90 
   1  -4  -6  237.38   15.70 
  -1   4   6  245.98   17.20 
  -1   4   6  245.68   16.00 
   0  -4  -6 1700.73   87.79 
   0  -4  -6 1749.82   89.69 
   0  -4  -6 1718.13   88.49 
   0  -4  -6 1664.13   89.29 
   0   4   6 1623.84   88.59 
   0   4   6 1710.43   89.69 
   0   4   6 1873.11   91.09 
  -1  -4  -6  428.36   26.00 
  -1  -4  -6  417.76   24.30 
  -1  -4  -6  438.66   23.10 
  -1  -4  -6  428.36   24.20 
  -1  -4  -6  414.36   25.40 
   1   4   6  443.26   25.80 
   1   4   6  410.06   24.70 
   1   4   6  428.96   25.50 
   1   4   6  388.06   26.80 
  -2  -4  -6    9.00    2.30 
  -2  -4  -6    8.20    2.10 
  -2  -4  -6    4.20    2.00 
  -2  -4  -6    8.80    3.00 
  -2  -4  -6    9.10    2.30 
   2   4   6    7.10    2.80 
   2   4   6   10.80    2.90 
   2   4   6    4.80    3.40 
   2   4   6    6.70    2.70 
  -3  -4  -6   83.79    6.70 
  -3  -4  -6   89.89   10.20 
   3   4   6   64.49   10.10 
   3   4   6   81.19   12.40 
   3   4   6   75.99    9.00 
   3   4   6   80.89   10.00 
   3   4   6   97.39   12.70 
   3   4   6   76.19    8.00 
  -4  -4  -6  131.99   11.60 
  -4  -4  -6  107.69    8.90 
   4   4   6  127.69   10.50 
   4   4   6  132.99   11.60 
   4   4   6  118.99   11.80 
   4   4   6  125.79   10.60 
   4   4   6  113.49   14.80 
   4   4   6  125.89    9.90 
   5   4   6   21.50    4.60 
   5   4   6   29.70    4.40 
   4  -5  -6   99.89   10.30 
   4  -5  -6  107.49    7.30 
   4  -5  -6  114.99    9.40 
   4  -5  -6  110.19    8.20 
  -4   5   6  118.09    8.00 
   3  -5  -6  160.98   12.30 
   3  -5  -6  155.78   19.80 
   3  -5  -6  166.08   16.60 
   3  -5  -6  160.38   14.40 
   3  -5  -6  163.88   13.70 
  -3   5   6  159.18    9.90 
  -3   5   6  170.38   12.00 
  -3   5   6  173.68   14.40 
  -3   5   6  158.18   11.60 
   2  -5  -6  675.13   44.00 
   2  -5  -6  739.03   42.80 
   2  -5  -6  736.43   41.30 
   2  -5  -6  771.42   43.80 
  -2   5   6  732.73   41.10 
  -2   5   6  812.42   44.60 
  -2   5   6  686.13   41.40 
  -2   5   6  701.23   38.20 
  -2   5   6  789.12   40.90 
   1  -5  -6   17.10    4.30 
   1  -5  -6   15.20    3.40 
   1  -5  -6   24.10    4.50 
  -1   5   6   21.70    3.90 
  -1   5   6   22.60    5.40 
   0  -5  -6  260.37   15.30 
   0  -5  -6  259.37   16.50 
   0  -5  -6  235.18   16.70 
   0  -5  -6  216.68   16.60 
   0  -5  -6  239.88   15.50 
   0   5   6  244.88   16.90 
   0   5   6  219.48   18.90 
   0   5   6  264.97   18.10 
  -1  -5  -6  146.29   11.50 
  -1  -5  -6  134.89   10.90 
  -1  -5  -6  129.39   10.50 
  -1  -5  -6  148.29   10.60 
  -1  -5  -6  148.89    9.60 
   1   5   6  141.99   10.80 
   1   5   6  143.39   13.60 
   1   5   6  135.09   11.30 
   1   5   6  142.59   11.70 
  -2  -5  -6  261.57   17.10 
  -2  -5  -6  302.67   18.50 
  -2  -5  -6  297.97   18.40 
  -2  -5  -6  306.97   20.40 
  -2  -5  -6  315.17   19.00 
   2   5   6  253.87   22.30 
   2   5   6  305.57   20.60 
   2   5   6  311.37   19.60 
   2   5   6  302.77   20.40 
  -3  -5  -6  252.67   18.10 
  -3  -5  -6  249.88   15.80 
   3   5   6  248.98   23.40 
   3   5   6  239.18   16.70 
   3   5   6  240.28   16.80 
   3   5   6  214.58   17.90 
   3   5   6  226.08   15.80 
   3   5   6  242.18   17.90 
   3   5   6  232.78   17.00 
   3   5   6  237.38   18.50 
  -4  -5  -6  345.77   20.30 
   4   5   6  294.97   25.80 
   4   5   6  338.67   21.30 
   4   5   6  350.86   20.80 
   4   5   6  352.86   21.20 
   4   5   6  351.26   21.20 
   4   5   6  320.77   23.10 
   5   5   6   69.79    7.40 
   5   5   6   78.39    8.00 
   5   5   6   72.09    6.10 
   5   5   6   82.39    6.00 
   4  -6  -6   27.60    3.70 
  -4   6   6   22.10    3.00 
   3  -6  -6   61.29    8.10 
   3  -6  -6   59.89    5.80 
   3  -6  -6   68.29    8.50 
   3  -6  -6   60.09    6.70 
  -3   6   6   65.89    8.60 
  -3   6   6   58.29    5.90 
  -3   6   6   65.59    6.50 
  -3   6   6   59.99    4.00 
   2  -6  -6  147.19   13.70 
   2  -6  -6  145.29   12.00 
   2  -6  -6  156.88   14.30 
   2  -6  -6  141.79   12.50 
  -2   6   6  165.38   14.30 
  -2   6   6  155.08   12.20 
  -2   6   6  163.18   11.80 
  -2   6   6  144.39   12.00 
   1  -6  -6  179.28   14.50 
   1  -6  -6  186.48   14.20 
   1  -6  -6  160.18   13.30 
   1  -6  -6  115.59   24.10 
  -1   6   6  169.38   12.00 
  -1   6   6  170.78   24.60 
  -1   6   6  154.98   12.60 
  -1   6   6  152.88   12.60 
  -1   6   6  163.68   15.50 
   0  -6  -6  191.38   16.90 
   0  -6  -6  219.58   15.70 
   0  -6  -6  222.68   16.80 
   0  -6  -6  217.08   14.70 
   0  -6  -6  233.38   16.80 
   0  -6  -6  230.98   16.30 
   0  -6  -6  221.58   14.30 
   0   6   6  211.38   16.00 
   0   6   6  237.48   16.60 
   0   6   6  212.68   17.60 
   0   6   6  242.78   18.20 
  -1  -6  -6  438.56   26.40 
  -1  -6  -6  420.96   25.90 
  -1  -6  -6  410.06   25.00 
  -1  -6  -6  435.36   24.10 
  -1  -6  -6  412.96   25.90 
   1   6   6  398.96   29.10 
   1   6   6  407.56   25.10 
   1   6   6  424.76   26.30 
   1   6   6  410.26   26.70 
   1   6   6  464.85   34.40 
  -2  -6  -6  903.31   49.00 
  -2  -6  -6  996.00   58.29 
  -2  -6  -6  949.60   50.59 
  -2  -6  -6  960.90   51.09 
   2   6   6  926.11   49.70 
   2   6   6  878.91   50.59 
   2   6   6  971.10   50.99 
   2   6   6 1019.20   58.69 
   2   6   6  841.22   52.59 
   2   6   6  999.80   60.89 
   2   6   6  865.41   56.39 
   2   6   6  842.62   54.49 
   2   6   6  815.12   54.19 
  -3  -6  -6  482.35   28.30 
  -3  -6  -6  488.15   30.90 
   3   6   6  459.55   28.80 
   3   6   6  454.75   27.70 
   3   6   6  402.56   32.90 
   3   6   6  410.36   31.50 
   3   6   6  565.24   35.10 
   3   6   6  473.65   29.60 
   3   6   6  559.64   37.40 
   3   6   6  537.45   32.00 
   3   6   6  385.36   30.80 
  -4  -6  -6   98.49    8.40 
   4   6   6  101.79   12.00 
   4   6   6   81.59    9.40 
   4   6   6  101.79    8.70 
   5   6   6   67.49    5.80 
   5   6   6   71.29    9.60 
   5   6   6   84.09    5.60 
   3  -7  -6    4.90    2.50 
   3  -7  -6    6.60    2.70 
   3  -7  -6    5.40    2.00 
  -3   7   6    8.80    2.40 
  -3   7   6    6.40    2.20 
  -3   7   6    7.50    2.00 
   2  -7  -6   76.29    8.60 
   2  -7  -6   67.69    7.80 
  -2   7   6   65.79    7.00 
  -2   7   6   56.99    8.50 
  -2   7   6   59.49    6.90 
   1  -7  -6   88.79    9.80 
   1  -7  -6   78.19    8.90 
   1  -7  -6   72.79    9.50 
   1  -7  -6   83.59   13.80 
  -1   7   6   88.29    8.00 
  -1   7   6   90.29   10.30 
  -1   7   6   88.09    8.60 
  -1   7   6   80.19    8.60 
  -1   7   6   81.99   12.90 
   0  -7  -6  115.89    8.40 
   0  -7  -6  121.79   11.40 
   0  -7  -6  109.29   10.60 
   0   7   6  119.69   16.30 
   0   7   6  113.79   10.00 
   0   7   6  119.59   12.30 
   0   7   6  125.29   10.90 
   0   7   6  113.49   10.90 
  -1  -7  -6  535.65   32.60 
  -1  -7  -6  536.55   31.70 
  -1  -7  -6  540.05   32.50 
  -1  -7  -6  566.24   32.50 
  -1  -7  -6  551.24   30.10 
   1   7   6  517.55   30.90 
   1   7   6  536.45   36.20 
   1   7   6  588.84   32.60 
   1   7   6  544.45   31.30 
   1   7   6  534.25   30.60 
   1   7   6  549.15   33.30 
   1   7   6  526.95   31.20 
   1   7   6  545.65   33.00 
   1   7   6  537.65   40.60 
   1   7   6  447.76   30.20 
   1   7   6  528.35   32.00 
  -2  -7  -6  628.24   36.80 
  -2  -7  -6  609.44   34.70 
  -2  -7  -6  580.54   36.30 
  -2  -7  -6  729.93   38.20 
  -2  -7  -6  683.73   38.40 
   2   7   6  678.03   38.40 
   2   7   6  558.54   44.00 
   2   7   6  610.64   36.10 
   2   7   6  644.44   37.90 
   2   7   6  674.63   38.90 
   2   7   6  630.14   36.70 
   2   7   6  607.04   35.50 
   2   7   6  648.34   35.90 
   2   7   6  597.74   42.70 
   2   7   6  661.43   36.60 
   2   7   6  636.24   38.30 
  -3  -7  -6  137.99   11.40 
  -3  -7  -6  133.69    9.70 
   3   7   6  136.19   11.20 
   3   7   6  143.09   10.90 
   3   7   6  100.39   14.00 
   3   7   6  138.49   10.80 
   3   7   6  115.69   15.20 
   3   7   6  134.29   10.30 
   3   7   6  121.59   11.60 
   3   7   6  127.69   12.20 
  -4  -7  -6   42.60    5.10 
  -4  -7  -6   51.09    5.20 
   4   7   6   41.50    5.30 
   4   7   6   39.50    6.40 
   4   7   6   43.00    4.90 
   4   7   6   40.90    4.90 
   4   7   6   45.30    5.40 
   3  -8  -6   39.60    4.60 
   3  -8  -6   43.50    5.40 
  -3   8   6   41.70    4.40 
   2  -8  -6   28.70    5.20 
   2  -8  -6   32.10    6.10 
  -2   8   6   46.50    5.70 
  -2   8   6   34.50    5.20 
   1  -8  -6   77.99   14.20 
   1  -8  -6   79.69    9.50 
  -1   8   6   84.49    8.20 
  -1   8   6   96.69    9.00 
  -1   8   6  102.89   11.00 
   0  -8  -6  185.58   15.40 
   0  -8  -6  179.58   14.10 
   0  -8  -6  183.68   11.40 
   0  -8  -6  158.38   21.60 
   0   8   6  171.78   14.70 
   0   8   6  183.68   14.50 
   0   8   6  181.98   16.70 
   0   8   6  176.68   14.20 
   0   8   6  174.28   20.10 
  -1  -8  -6  110.89   10.50 
  -1  -8  -6   93.79    9.00 
  -1  -8  -6   82.39    9.90 
   1   8   6  103.89   12.80 
   1   8   6   98.89    9.20 
   1   8   6   98.29    8.80 
   1   8   6  111.19   11.30 
   1   8   6  106.19   14.10 
   1   8   6   95.39   16.00 
   1   8   6   97.99   10.00 
   1   8   6   83.99   11.30 
   1   8   6   77.39    9.60 
  -2  -8  -6  298.17   20.10 
  -2  -8  -6  299.37   17.70 
   2   8   6  296.57   18.40 
   2   8   6  262.57   25.30 
   2   8   6  299.97   20.70 
   2   8   6  287.17   20.00 
   2   8   6  304.07   19.30 
   2   8   6  304.87   18.30 
   2   8   6  287.67   18.50 
   2   8   6  276.97   24.30 
  -3  -8  -6   47.70    5.10 
  -3  -8  -6   45.10    5.80 
   3   8   6   52.39    8.30 
   3   8   6   46.00    6.00 
   3   8   6   46.80    5.80 
   3   8   6   35.10    6.00 
  -4  -8  -6   48.70    4.70 
  -4  -8  -6   53.19    5.30 
   4   8   6   48.40    6.00 
   4   8   6   48.70    5.10 
   4   8   6   54.19    5.00 
   4   8   6   52.79    5.60 
   4   8   6   58.79    5.20 
   4   8   6   59.29    6.20 
   2  -9  -6   43.60    6.40 
  -2   9   6   49.70    5.40 
   1  -9  -6   93.69    9.40 
   1  -9  -6   78.29   13.00 
  -1   9   6   91.69    8.30 
  -1   9   6   93.29    8.10 
  -1   9   6   79.79   10.20 
   0  -9  -6   77.49   13.80 
   0  -9  -6   68.19    8.30 
   0   9   6   73.79    8.70 
   0   9   6   77.19   12.50 
   0   9   6   72.59    7.60 
   0   9   6   67.59    9.50 
  -1  -9  -6   55.59    5.10 
  -1  -9  -6   62.19   12.30 
   1   9   6   59.39   11.30 
   1   9   6   58.49    6.30 
   1   9   6   54.29    7.10 
   1   9   6   60.29    6.10 
   1   9   6   57.49    8.50 
   1   9   6   47.50    6.70 
  -2  -9  -6   41.90    4.80 
  -2  -9  -6   35.80    9.30 
   2   9   6   40.60    5.80 
   2   9   6   38.00    5.30 
   2   9   6   41.90    9.00 
   2   9   6   33.00    4.50 
   2   9   6   34.50    4.40 
   2   9   6   24.90    9.70 
   2   9   6   50.69    8.20 
   2   9   6   42.10    5.00 
  -3  -9  -6   46.80    4.50 
  -3  -9  -6   36.90    4.80 
   3   9   6   39.80    6.60 
   3   9   6   41.70    5.80 
   3   9   6   41.50    4.50 
   3   9   6   47.40    4.90 
   3   9   6   44.60    5.80 
   3   9   6   48.10    5.30 
   2 -10  -6    1.40    1.80 
  -2  10   6    2.90    1.60 
   1 -10  -6    3.80    3.00 
   1 -10  -6    3.90    3.20 
  -1  10   6    1.80    1.90 
   0 -10  -6   35.70    9.00 
   0 -10  -6   44.00    6.30 
   0  10   6   30.10    4.90 
   0  10   6   45.20    6.80 
  -1 -10  -6   50.89    3.90 
  -1 -10  -6   48.00   10.30 
   1  10   6   50.19    9.50 
   1  10   6   52.99    6.00 
   1  10   6   47.00    5.10 
   1  10   6   47.50    5.80 
  -2 -10  -6    3.10    4.70 
  -2 -10  -6    1.60    1.30 
   2  10   6   -0.50    3.00 
   2  10   6    3.30    2.20 
   2  10   6    2.70    1.30 
   2  10   6    1.50    2.00 
   2  10   6    3.70    2.10 
   2  10   6    5.20    2.00 
  -3 -10  -6    0.60    3.20 
  -3 -10  -6    5.10    1.50 
   3  10   6    2.70    1.50 
   3  10   6    0.70    2.00 
   3  10   6    4.00    2.20 
   3  10   6    6.20    2.00 
   0 -11  -6   22.90    7.10 
   0  11   6   23.80    3.60 
  -1 -11  -6    1.80    2.80 
  -1 -11  -6    8.10    2.40 
   1  11   6    4.80    2.70 
   1  11   6    6.50    1.70 
   1  11   6    5.00    1.90 
  -2 -11  -6   16.60    3.30 
   2  11   6   12.70    2.60 
   2  11   6   18.50    2.70 
   1   9  -7   45.20    5.30 
  -1  -9   7   50.59    5.30 
  -1  -9   7   48.30    6.80 
   0   9  -7   12.60    4.00 
   0  -9   7   14.40    3.70 
   0  -9   7   14.80    3.10 
  -1   9  -7    6.40    3.40 
   1  -9   7   12.50    4.90 
  -2   9  -7    0.20    1.80 
  -2   9  -7    3.60    2.40 
   2  -9   7    1.00    2.40 
   2  -9   7    1.60    3.50 
   2  -9   7    2.80    2.40 
   2   8  -7   92.59    7.90 
  -2  -8   7   90.49    6.00 
  -2  -8   7   97.99    7.80 
   1   8  -7    5.70    3.20 
   1   8  -7    6.60    3.40 
  -1  -8   7    4.60    2.70 
  -1  -8   7   11.20    2.80 
  -1  -8   7   10.30    3.30 
   0   8  -7   49.50    6.90 
   0   8  -7   50.49    6.20 
   0   8  -7   40.00    7.60 
   0  -8   7   46.40    7.30 
   0  -8   7   38.70    5.50 
   0  -8   7   53.59    6.50 
  -1   8  -7   56.79    6.30 
  -1   8  -7   52.19    8.90 
  -1   8  -7   53.49    6.60 
   1  -8   7   51.19   10.40 
   1  -8   7   60.69    9.10 
   1  -8   7   51.09    6.80 
   1  -8   7   66.69    8.20 
  -2   8  -7    8.40    4.40 
  -2   8  -7    8.30    1.60 
  -2   8  -7    7.70    3.00 
  -2   8  -7   10.50    3.30 
   2  -8   7    7.50    3.20 
   2  -8   7   11.60    4.40 
   2  -8   7    4.80    4.60 
  -3   8  -7   48.00    4.90 
   3  -8   7   46.00    6.90 
   3  -8   7   39.90    5.80 
   3  -8   7   33.30    8.00 
   2   7  -7    3.30    2.90 
   2   7  -7    2.00    2.60 
  -2  -7   7    2.50    2.60 
  -2  -7   7   -1.20    1.70 
   1   7  -7  136.09   14.80 
   1   7  -7  113.79   12.60 
   1   7  -7  129.09   10.20 
  -1  -7   7  146.79    9.50 
  -1  -7   7  150.58   11.90 
  -1  -7   7  151.98   11.50 
   0   7  -7   17.40    4.30 
   0   7  -7   12.10    5.10 
   0   7  -7   15.70    4.00 
   0   7  -7   24.00    4.10 
   0  -7   7   18.90    3.90 
   0  -7   7   20.90    5.10 
   0  -7   7   24.30    5.20 
  -1   7  -7  223.78   16.50 
  -1   7  -7  233.98   16.30 
  -1   7  -7  249.78   15.50 
  -1   7  -7  261.17   22.50 
  -1   7  -7  231.68   13.50 
   1  -7   7  230.48   17.00 
   1  -7   7  222.58   24.70 
   1  -7   7  237.18   19.10 
   1  -7   7  271.47   22.50 
  -2   7  -7   69.49    7.40 
  -2   7  -7   65.99    7.10 
  -2   7  -7   63.99    5.70 
  -2   7  -7   63.29    6.30 
   2  -7   7   52.19   13.00 
   2  -7   7   68.39    9.20 
   2  -7   7   83.69    6.90 
  -3   7  -7  168.78   11.40 
  -3   7  -7  161.58   10.00 
  -3   7  -7  172.48   11.50 
  -3   7  -7  137.39   11.00 
   3  -7   7  189.58   15.90 
   3  -7   7  148.69   10.80 
   3  -7   7  166.08   13.60 
   3  -7   7  131.29   19.70 
   3  -7   7  141.59   11.20 
   3  -7   7  143.79    9.90 
  -4   7  -7   42.80    3.60 
  -4   7  -7   34.80    5.40 
   4  -7   7   24.30    7.60 
   4  -7   7   48.00    4.80 
   4  -7   7   32.30    5.70 
   4  -7   7   37.80    3.70 
   3   6  -7   10.80    3.20 
   3   6  -7    7.30    3.70 
   3   6  -7    7.60    2.00 
  -3  -6   7    9.90    2.10 
  -3  -6   7   18.70    4.80 
   2   6  -7   91.99    7.30 
   2   6  -7   73.89   11.50 
   2   6  -7   84.69    9.30 
   2   6  -7   87.79    8.80 
  -2  -6   7   96.39    7.30 
  -2  -6   7   85.59   11.30 
  -2  -6   7   95.19    8.70 
   1   6  -7  239.68   14.80 
   1   6  -7  228.28   22.00 
   1   6  -7  207.88   17.30 
   1   6  -7  241.58   16.80 
   1   6  -7  228.68   15.50 
  -1  -6   7  230.48   14.70 
  -1  -6   7  232.48   17.20 
  -1  -6   7  246.78   17.30 
  -1  -6   7  246.38   16.80 
   0   6  -7  642.64   41.50 
   0   6  -7  592.34   33.70 
   0   6  -7  560.54   37.30 
   0   6  -7  581.14   32.40 
   0   6  -7  534.05   41.40 
   0  -6   7  575.34   33.70 
   0  -6   7  511.95   41.10 
   0  -6   7  607.34   44.20 
   0  -6   7  577.24   37.50 
  -1   6  -7  226.28   21.10 
  -1   6  -7  211.58   14.80 
  -1   6  -7  201.38   13.70 
  -1   6  -7  187.68   14.90 
  -1   6  -7  200.98   12.50 
  -1   6  -7  205.28   16.40 
   1  -6   7  188.98   17.10 
   1  -6   7  233.78   20.70 
   1  -6   7  211.68   15.70 
   1  -6   7  177.88   23.00 
   1  -6   7  197.28   14.60 
  -2   6  -7  170.78   14.00 
  -2   6  -7  178.68   11.60 
  -2   6  -7  174.68   13.30 
  -2   6  -7  186.98   12.70 
   2  -6   7  163.08   12.70 
   2  -6   7  168.68   23.40 
   2  -6   7  183.68   16.40 
   2  -6   7  200.98   15.40 
   2  -6   7  178.68   12.40 
   2  -6   7  203.98   13.80 
  -3   6  -7   32.70    4.10 
  -3   6  -7   27.60    4.70 
  -3   6  -7   32.30    4.00 
  -3   6  -7   30.30    5.20 
   3  -6   7   29.40    6.50 
   3  -6   7   24.40    6.70 
   3  -6   7   30.80    5.40 
   3  -6   7   32.50   11.40 
   3  -6   7   27.30    6.20 
   3  -6   7   26.40    5.90 
  -4   6  -7   63.79    6.30 
  -4   6  -7   67.39    5.50 
  -4   6  -7   76.09    6.30 
  -4   6  -7   81.89    6.20 
   4  -6   7   76.79    7.50 
   4  -6   7   73.19   13.20 
   4  -6   7   71.59    6.20 
   4  -6   7   59.49    7.60 
   4  -6   7   69.19    5.80 
   4  -6   7   69.39    6.00 
   3   5  -7   25.00    8.30 
   3   5  -7   30.20    5.50 
   3   5  -7   26.20    4.30 
   3   5  -7   22.30    4.40 
   3   5  -7   29.70    3.80 
  -3  -5   7   27.20    4.00 
  -3  -5   7   27.40    2.60 
  -3  -5   7   36.30    5.00 
  -3  -5   7   27.90    5.10 
   2   5  -7   17.70    4.10 
   2   5  -7   26.20    8.40 
   2   5  -7   24.30    5.60 
   2   5  -7   29.40    4.70 
   2   5  -7   24.70    5.20 
  -2  -5   7   21.00    3.00 
  -2  -5   7   29.40    5.10 
  -2  -5   7   32.40    4.30 
  -2  -5   7   17.50    4.20 
   1   5  -7 1273.77   68.19 
   1   5  -7 1223.98   65.29 
   1   5  -7 1203.88   62.89 
   1   5  -7 1157.38   65.69 
   1   5  -7 1235.28   63.99 
   1   5  -7 1105.39   72.79 
  -1  -5   7 1232.68   65.09 
  -1  -5   7 1138.89   65.19 
  -1  -5   7 1171.78   62.79 
   0   5  -7 1100.09   60.49 
   0   5  -7  905.61   54.59 
   0   5  -7 1109.49   66.99 
   0   5  -7 1069.09   58.59 
   0   5  -7 1104.29   58.09 
   0   5  -7 1108.49   56.79 
   0  -5   7 1221.98   57.59 
   0  -5   7 1050.39   58.99 
   0  -5   7  944.81   64.49 
   0  -5   7 1101.69   58.29 
   0  -5   7  990.70   59.79 
  -1   5  -7  405.56   25.30 
  -1   5  -7  386.96   27.90 
  -1   5  -7  433.76   24.20 
  -1   5  -7  433.26   25.20 
   1  -5   7  449.06   45.10 
   1  -5   7  390.36   28.00 
   1  -5   7  399.86   26.50 
   1  -5   7  426.26   25.70 
  -2   5  -7   84.89    7.00 
  -2   5  -7   77.19    6.40 
  -2   5  -7   79.89    8.30 
  -2   5  -7   74.39    7.60 
  -2   5  -7   82.89    7.90 
  -2   5  -7   74.79    7.80 
   2  -5   7   93.99   16.20 
   2  -5   7   71.99    8.50 
   2  -5   7   55.69   10.40 
   2  -5   7   76.29   10.20 
   2  -5   7   75.99   10.10 
   2  -5   7   73.79    7.20 
   2  -5   7   79.79    7.70 
  -3   5  -7   37.50    5.10 
  -3   5  -7   33.30    4.30 
  -3   5  -7   33.50    5.20 
  -3   5  -7   40.90    5.70 
   3  -5   7   34.90    5.50 
   3  -5   7   40.80    8.70 
   3  -5   7   41.10    7.90 
   3  -5   7   47.50    7.10 
   3  -5   7   32.30    5.60 
   3  -5   7   34.20    5.40 
   3  -5   7   27.80   10.10 
  -4   5  -7   70.69    5.90 
  -4   5  -7   73.59    7.10 
  -4   5  -7   91.19    7.40 
  -4   5  -7   80.19    7.40 
   4  -5   7   69.89   14.30 
   4  -5   7   75.59    7.10 
   4  -5   7   81.29    8.80 
   4  -5   7   89.59   10.80 
   4  -5   7   77.69    6.50 
   4  -5   7   83.49    7.60 
   4  -5   7   73.69    8.80 
   5  -5   7    0.40    1.80 
   5  -5   7    1.50    2.90 
   5  -5   7    0.60    1.60 
   5  -5   7    1.10    1.50 
   3   4  -7   57.39    7.70 
   3   4  -7   77.49   11.40 
   3   4  -7   58.99    8.00 
   3   4  -7   70.79    6.30 
   3   4  -7   51.39    6.20 
  -3  -4   7   70.69    6.20 
  -3  -4   7   61.49    6.50 
  -3  -4   7   68.69    5.10 
   2   4  -7   76.39    9.10 
   2   4  -7   61.39   12.00 
   2   4  -7   75.69   11.40 
   2   4  -7   36.70    8.20 
   2   4  -7   61.59    8.90 
   2   4  -7   54.89    7.00 
   2   4  -7   65.39    6.70 
  -2  -4   7   67.99    7.40 
  -2  -4   7   74.89   10.70 
  -2  -4   7   59.89    6.50 
  -2  -4   7   54.89    5.10 
   1   4  -7 2463.95  124.19 
   1   4  -7 2741.93  137.19 
   1   4  -7 2189.08  125.39 
   1   4  -7 2525.75  125.79 
   1   4  -7 2389.16  123.19 
  -1  -4   7 2248.08  125.09 
  -1  -4   7 2440.16  125.09 
  -1  -4   7 2285.57  122.99 
   0   4  -7   60.79   10.00 
   0   4  -7   64.89    7.80 
   0   4  -7   64.09    6.80 
   0   4  -7   73.39    8.80 
   0   4  -7   60.09   11.90 
   0  -4   7   76.59   11.80 
   0  -4   7   83.69    9.50 
   0  -4   7   75.09    7.80 
  -1   4  -7   69.79    6.50 
  -1   4  -7   61.29    7.10 
  -1   4  -7   53.89    7.00 
  -1   4  -7   54.99    6.80 
  -1   4  -7   62.29    6.20 
  -1   4  -7   49.30    6.30 
   1  -4   7   61.69   14.40 
   1  -4   7   68.59   10.90 
   1  -4   7   62.59    7.20 
   1  -4   7   68.99    6.20 
  -2   4  -7   61.59    7.30 
  -2   4  -7   57.29    6.60 
  -2   4  -7   64.99    7.80 
  -2   4  -7   49.10    8.20 
  -2   4  -7   54.89    5.80 
  -2   4  -7   58.59    6.60 
   2  -4   7   60.09   14.30 
   2  -4   7   51.79    7.30 
   2  -4   7   52.19    7.20 
   2  -4   7   54.09   18.30 
   2  -4   7   79.29    8.60 
   2  -4   7   56.39   10.20 
   2  -4   7   47.60    9.70 
   2  -4   7   63.19    6.70 
  -3   4  -7  394.86   22.00 
  -3   4  -7  361.06   21.60 
  -3   4  -7  417.36   23.20 
  -3   4  -7  375.16   23.20 
  -3   4  -7  378.46   24.90 
   3  -4   7  373.46   28.60 
   3  -4   7  373.56   23.30 
   3  -4   7  373.46   37.70 
   3  -4   7  369.86   25.00 
   3  -4   7  376.56   26.90 
   3  -4   7  365.76   22.50 
   3  -4   7  403.26   23.10 
  -4   4  -7  290.07   16.60 
  -4   4  -7  286.67   17.70 
  -4   4  -7  269.57   16.10 
  -4   4  -7  268.57   17.60 
   4  -4   7  282.87   22.60 
   4  -4   7  271.77   17.80 
   4  -4   7  320.97   27.80 
   4  -4   7  263.17   19.20 
   4  -4   7  264.37   16.90 
   4  -4   7  290.97   17.70 
   4  -4   7  276.37   29.70 
  -5   4  -7  105.39    6.70 
   5  -4   7  112.99    7.70 
   5  -4   7  105.59    8.40 
   5  -4   7   88.69   12.70 
   5  -4   7   84.49    9.20 
   4   3  -7   21.10    4.50 
   4   3  -7   26.30    4.00 
  -4  -3   7   26.50    3.60 
  -4  -3   7   28.20    2.40 
  -4  -3   7   24.20    4.10 
   3   3  -7    5.00    3.80 
   3   3  -7   25.00    5.60 
   3   3  -7   17.60    8.50 
  -3  -3   7   14.50    3.70 
   2   3  -7  212.78   23.60 
   2   3  -7  190.88   15.30 
   2   3  -7  213.28   16.50 
   2   3  -7  225.88   15.30 
   2   3  -7  216.48   14.60 
   2   3  -7  216.88   16.80 
   2   3  -7  204.58   17.30 
  -2  -3   7  207.78   13.10 
  -2  -3   7  212.38   15.70 
  -2  -3   7  224.08   15.70 
  -2  -3   7  225.98   14.60 
   1   3  -7 1937.41  102.49 
   1   3  -7 1724.03   89.19 
   1   3  -7 1658.43   89.79 
   1   3  -7 1599.24   93.29 
   1   3  -7 1783.42   93.09 
  -1  -3   7 1727.83   89.19 
  -1  -3   7 1625.34   90.69 
   0   3  -7 1341.47   69.39 
   0   3  -7 1329.47   70.49 
   0   3  -7 1345.27   72.19 
   0   3  -7 1267.97   69.49 
   0  -3   7 1347.47   70.69 
  -1   3  -7  404.96   24.30 
  -1   3  -7  403.46   24.10 
  -1   3  -7  410.36   23.20 
  -1   3  -7  396.16   25.30 
  -1   3  -7  415.66   24.80 
   1  -3   7  420.06   25.00 
   1  -3   7  402.96   23.90 
  -2   3  -7  461.05   27.90 
  -2   3  -7  477.05   27.70 
  -2   3  -7  473.05   28.50 
  -2   3  -7  459.75   26.90 
  -2   3  -7  479.75   26.10 
   2  -3   7  485.35   28.60 
   2  -3   7  452.25   26.80 
   2  -3   7  453.15   27.70 
  -3   3  -7  316.17   22.00 
  -3   3  -7  349.47   20.20 
  -3   3  -7  322.47   20.20 
  -3   3  -7  320.77   19.00 
   3  -3   7  350.16   20.40 
   3  -3   7  370.56   26.60 
   3  -3   7  307.87   20.40 
   3  -3   7  287.07   23.00 
   3  -3   7  312.77   32.90 
   3  -3   7  307.27   20.90 
   3  -3   7  308.87   23.30 
   3  -3   7  323.17   22.40 
  -4   3  -7   62.39    6.80 
  -4   3  -7   57.09    6.30 
  -4   3  -7   61.49    5.90 
   4  -3   7   65.79    8.40 
   4  -3   7   66.69   14.20 
   4  -3   7   60.89    7.40 
   4  -3   7   63.29    6.80 
   4  -3   7   69.49   10.20 
   4  -3   7   63.19    8.90 
  -5   3  -7  345.47   21.70 
   5  -3   7  442.66   23.80 
   5  -3   7  383.46   25.30 
   5  -3   7  436.16   26.70 
   5  -3   7  343.17   29.80 
   4   2  -7   37.20    3.80 
   4   2  -7   31.60    5.00 
   4   2  -7   26.30    6.00 
   4   2  -7   37.40    4.80 
  -4  -2   7   34.80    3.00 
  -4  -2   7   31.90    3.60 
  -4  -2   7   30.30    4.30 
   3   2  -7   61.69    8.60 
   3   2  -7   69.89    6.30 
   3   2  -7   65.29    7.70 
   3   2  -7   60.09    6.70 
   3   2  -7   53.69   11.70 
   3   2  -7   77.89    7.00 
   3   2  -7   46.70    7.70 
  -3  -2   7   61.29    5.40 
  -3  -2   7   73.59    6.50 
  -3  -2   7   52.19    7.60 
   2   2  -7  967.20   54.39 
   2   2  -7 1001.70   52.89 
   2   2  -7 1020.60   54.09 
   2   2  -7  918.21   64.99 
   2   2  -7  994.80   56.99 
   2   2  -7  954.30   54.99 
   2   2  -7 1019.80   54.39 
  -2  -2   7 1025.80   54.19 
  -2  -2   7  987.80   52.99 
  -2  -2   7  993.00   51.59 
  -2  -2   7  962.20   53.89 
   1   2  -7 1198.88   64.19 
   1   2  -7 1140.79   62.69 
   1   2  -7 1225.58   65.39 
   1   2  -7 1165.08   63.39 
  -1  -2   7 1168.78   63.29 
   0   2  -7   44.50    5.20 
   0   2  -7   39.40    5.90 
   0   2  -7   42.30    6.00 
   0   2  -7   39.90    5.60 
   0   2  -7   36.90    5.20 
   0  -2   7   51.59    5.80 
  -1   2  -7  547.85   29.50 
  -1   2  -7  527.95   31.60 
  -1   2  -7  557.64   31.30 
  -1   2  -7  544.15   30.40 
   1  -2   7  550.74   31.20 
   1  -2   7  509.25   30.40 
  -2   2  -7 1025.20   57.69 
  -2   2  -7 1090.49   55.69 
  -2   2  -7 1086.79   56.59 
  -2   2  -7 1116.09   57.39 
   2  -2   7 1096.89   58.39 
   2  -2   7 1050.69   57.89 
   2  -2   7 1041.00   56.39 
  -3   2  -7 1986.20   94.29 
  -3   2  -7 1964.60   94.69 
  -3   2  -7 1854.91   97.19 
  -3   2  -7 1776.12  100.39 
   3  -2   7 1614.14  109.19 
   3  -2   7 1969.30   94.79 
   3  -2   7 1656.33  101.69 
   3  -2   7 1781.12   96.99 
   3  -2   7 1855.41  100.19 
   3  -2   7 1776.72   95.99 
   3  -2   7 1857.11   95.29 
   3  -2   7 1788.12   95.59 
  -4   2  -7  214.78   13.50 
  -4   2  -7  220.28   14.30 
  -4   2  -7  190.28   17.70 
  -4   2  -7  208.78   14.10 
   4  -2   7  234.18   14.60 
   4  -2   7  196.88   16.00 
   4  -2   7  221.48   19.30 
   4  -2   7  208.08   15.10 
   4  -2   7  245.08   26.30 
   4  -2   7  218.38   16.70 
   4  -2   7  206.38   19.40 
  -5   2  -7   53.09    4.80 
   5  -2   7   60.89    5.70 
   5  -2   7   41.50    7.00 
   5  -2   7   56.39    8.00 
   5  -2   7   51.89    6.10 
   5  -2   7   47.80   10.50 
   4   1  -7   14.60    3.40 
   4   1  -7   20.70    4.60 
   4   1  -7   19.20    3.60 
   4   1  -7   17.30    3.00 
  -4  -1   7   16.30    3.70 
  -4  -1   7   22.00    3.30 
  -4  -1   7   23.10    2.60 
   3   1  -7  259.97   15.30 
   3   1  -7  236.28   16.10 
   3   1  -7  229.98   24.00 
   3   1  -7  233.28   16.50 
   3   1  -7  207.28   16.40 
   3   1  -7  222.98   16.50 
   3   1  -7  231.28   17.60 
  -3  -1   7  223.88   15.00 
  -3  -1   7  239.68   14.20 
   2   1  -7 1239.98   68.39 
   2   1  -7 1291.17   67.09 
   2   1  -7 1387.86   70.69 
   2   1  -7 1280.07   67.99 
   2   1  -7 1126.39   67.09 
   2   1  -7 1246.48   65.59 
   2   1  -7 1182.68   77.99 
   2   1  -7 1328.67   67.19 
  -2  -1   7 1238.58   64.39 
  -2  -1   7 1243.28   65.69 
  -2  -1   7 1159.58   66.29 
   1   1  -7 1094.29   57.99 
   1   1  -7 1086.79   56.69 
   1   1  -7 1048.10   58.79 
  -1  -1   7 1028.70   57.19 
   0   1  -7  147.79   11.00 
   0   1  -7  132.89   10.00 
   0   1  -7  148.09   11.00 
   0   1  -7  140.69   14.50 
   0  -1   7  141.09   10.70 
   0  -1   7  133.49    9.70 
  -1   1  -7 1537.15   76.49 
  -1   1  -7 1392.26   73.39 
  -1   1  -7 1445.86   71.19 
  -1   1  -7 1389.06   71.89 
  -1   1  -7 1264.07   72.39 
   1  -1   7 1402.36   72.79 
   1  -1   7 1270.37   83.79 
  -2   1  -7  791.42   41.80 
  -2   1  -7  718.73   42.40 
  -2   1  -7  824.52   42.60 
  -2   1  -7  869.91   43.40 
  -2   1  -7  774.92   44.10 
   2  -1   7  798.52   44.50 
   2  -1   7  789.02   42.50 
   2  -1   7  806.52   44.30 
  -3   1  -7  739.83   39.00 
  -3   1  -7  753.92   38.90 
  -3   1  -7  736.93   40.60 
  -3   1  -7  613.04   37.60 
   3  -1   7  758.42   39.10 
   3  -1   7  680.13   42.50 
   3  -1   7  676.43   41.50 
   3  -1   7  740.63   50.29 
   3  -1   7  717.53   39.90 
   3  -1   7  741.03   54.49 
   3  -1   7  685.63   40.90 
   3  -1   7  739.53   44.80 
   3  -1   7  744.53   40.90 
  -4   1  -7  586.14   32.80 
  -4   1  -7  587.54   35.90 
  -4   1  -7  589.34   34.20 
   4  -1   7  600.04   34.60 
   4  -1   7  581.84   36.30 
   4  -1   7  616.74   35.70 
   4  -1   7  687.93   49.20 
   4  -1   7  529.15   34.60 
  -5   1  -7   59.89    4.80 
   5  -1   7   57.59   10.00 
   5  -1   7   62.89    5.70 
   5  -1   7   65.49    6.50 
   4   0  -7  121.69   17.50 
   4   0  -7  132.39   10.30 
   4   0  -7  130.59    9.30 
   4   0  -7  134.79    9.20 
  -4   0   7  139.69    8.40 
   3   0  -7  203.68   15.30 
   3   0  -7  182.88   14.00 
   3   0  -7  188.48   14.90 
   3   0  -7  157.58   20.00 
   3   0  -7  187.38   14.10 
   3   0  -7  192.38   13.20 
   3   0  -7  191.68   13.60 
  -3   0   7  170.18   15.10 
  -3   0   7  183.48   11.80 
  -3   0   7  182.68   12.30 
   2   0  -7 1401.96   80.49 
   2   0  -7 1558.94   79.19 
   2   0  -7 1734.73   92.39 
   2   0  -7 1537.05   80.49 
   2   0  -7 1519.05   79.39 
  -2   0   7 1510.95   76.89 
  -2   0   7 1487.25   77.99 
  -2   0   7 1354.96   78.29 
  -2   0   7 1415.46   80.39 
   1   0  -7  684.93   39.20 
   1   0  -7  729.83   40.40 
   1   0  -7  707.73   38.30 
   1   0  -7  706.53   39.20 
  -1   0   7  679.23   38.90 
   0   0  -7  186.58   12.20 
   0   0  -7  185.48   12.90 
   0   0  -7  194.38   13.40 
   0   0  -7  168.48   12.20 
   0   0  -7  177.98   11.50 
   0   0   7  184.88   12.30 
   0   0   7  177.18   16.40 
  -1   0  -7 1222.68   63.39 
  -1   0  -7 1159.48   60.69 
  -1   0  -7 1157.98   61.39 
  -1   0  -7 1252.77   62.59 
   1   0   7 1223.08   63.09 
   1   0   7 1080.59   62.39 
  -2   0  -7  235.08   14.80 
  -2   0  -7  245.18   14.40 
  -2   0  -7  228.78   13.60 
  -2   0  -7  243.28   16.40 
  -2   0  -7  235.18   14.30 
   2   0   7  251.27   16.10 
   2   0   7  225.88   16.20 
   2   0   7  220.28   21.00 
  -3   0  -7  652.23   38.40 
  -3   0  -7  685.73   36.30 
  -3   0  -7  672.33   35.40 
  -3   0  -7  699.63   36.20 
   3   0   7  672.93   36.20 
   3   0   7  604.94   39.60 
   3   0   7  710.83   38.70 
   3   0   7  684.93   38.30 
   3   0   7  664.43   39.10 
   3   0   7  734.13   51.89 
   3   0   7  616.14   38.20 
  -4   0  -7  201.48   12.40 
   4   0   7  196.78   18.00 
  -5   0  -7  165.08   11.40 
   5   0   7  133.49   15.70 
   5   0   7  160.58   10.40 
   5   0   7  180.18   11.40 
   4  -1  -7  130.09   15.50 
   4  -1  -7  147.29   10.20 
   4  -1  -7  127.69   10.60 
   4  -1  -7  136.09    9.60 
  -4   1   7  149.88    8.50 
   3  -1  -7  573.94   30.10 
   3  -1  -7  539.85   30.90 
   3  -1  -7  496.25   32.00 
   3  -1  -7  500.85   29.70 
   3  -1  -7  499.55   31.40 
   3  -1  -7  475.55   30.10 
   3  -1  -7  520.15   39.20 
  -3   1   7  537.45   32.90 
  -3   1   7  503.45   28.70 
  -3   1   7  525.25   28.20 
  -3   1   7  524.65   30.60 
   2  -1  -7 1084.59   65.79 
   2  -1  -7 1032.10   56.69 
   2  -1  -7 1040.30   56.29 
   2  -1  -7 1043.70   60.89 
   2  -1  -7 1010.40   55.29 
  -2   1   7 1036.00   53.59 
  -2   1   7 1007.00   54.59 
  -2   1   7 1007.20   57.99 
  -2   1   7 1023.40   55.89 
   1  -1  -7   50.99    6.70 
   1  -1  -7   48.30    6.20 
   1  -1  -7   56.99    5.50 
   1  -1  -7   63.69    5.30 
   1  -1  -7   58.29    6.30 
  -1   1   7   63.09    6.10 
   0  -1  -7  692.93   37.00 
   0  -1  -7  667.93   37.70 
   0  -1  -7  767.22   39.10 
   0  -1  -7  651.33   38.10 
   0  -1  -7  723.83   38.10 
   0  -1  -7  759.82   39.50 
   0   1   7  620.04   38.10 
   0   1   7  703.73   39.10 
  -1  -1  -7 1686.93   89.89 
  -1  -1  -7 1658.63   88.69 
  -1  -1  -7 1791.92   91.79 
  -1  -1  -7 1925.41   90.99 
  -1  -1  -7 1657.23   89.39 
   1   1   7 1803.22   96.49 
   1   1   7 1732.43   91.19 
   1   1   7 1794.02   91.69 
  -2  -1  -7  981.90   48.30 
  -2  -1  -7  883.01   49.70 
  -2  -1  -7  853.31   46.90 
  -2  -1  -7  913.31   47.80 
   2   1   7  914.41   50.09 
   2   1   7  868.01   49.20 
  -3  -1  -7  301.07   18.50 
  -3  -1  -7  293.47   16.40 
  -3  -1  -7  277.37   18.70 
   3   1   7  259.57   18.00 
   3   1   7  257.17   20.50 
   3   1   7  257.77   18.70 
   3   1   7  270.47   18.40 
   3   1   7  257.77   19.50 
  -4  -1  -7  149.59    9.40 
   4   1   7  124.69   23.40 
   4   1   7  128.59   11.50 
   4   1   7  163.78   15.30 
   5   1   7   31.40    6.00 
   5   1   7   29.30    6.70 
   4  -2  -7    6.20    2.60 
   4  -2  -7    6.60    2.50 
   4  -2  -7    4.60    3.30 
  -4   2   7    5.80    2.40 
  -4   2   7    8.70    1.60 
   3  -2  -7  404.86   26.50 
   3  -2  -7  377.16   23.80 
   3  -2  -7  447.56   24.40 
   3  -2  -7  417.36   25.00 
   3  -2  -7  384.46   24.80 
   3  -2  -7  344.37   30.40 
  -3   2   7  410.16   26.70 
  -3   2   7  418.86   24.70 
  -3   2   7  417.16   22.10 
  -3   2   7  373.86   22.80 
   2  -2  -7   13.80    4.20 
   2  -2  -7   17.70    4.00 
   2  -2  -7   17.80    6.50 
   2  -2  -7   18.20    4.50 
   2  -2  -7   18.40    3.80 
   2  -2  -7   18.60    4.10 
   2  -2  -7   11.40    4.20 
  -2   2   7   18.90    7.40 
  -2   2   7   19.00    3.10 
  -2   2   7   18.60    3.60 
  -2   2   7   25.70    5.00 
   1  -2  -7  404.16   26.20 
   1  -2  -7  543.65   32.00 
   1  -2  -7  437.16   27.30 
   1  -2  -7  446.16   28.00 
   1  -2  -7  481.65   26.60 
   1  -2  -7  520.45   29.00 
  -1   2   7  482.55   27.40 
  -1   2   7  448.76   27.00 
  -1   2   7  520.65   28.80 
   0  -2  -7 1305.07   66.29 
   0  -2  -7 1163.88   64.49 
   0  -2  -7 1331.07   66.09 
   0  -2  -7 1252.67   64.99 
   0  -2  -7 1201.28   63.59 
   0  -2  -7 1157.58   63.59 
   0   2   7 1285.57   69.69 
   0   2   7 1231.38   65.59 
  -1  -2  -7  615.34   33.20 
  -1  -2  -7  596.94   31.30 
  -1  -2  -7  464.05   36.50 
   1   2   7  567.04   32.50 
  -2  -2  -7  470.45   27.40 
  -2  -2  -7  508.05   27.60 
  -2  -2  -7  486.75   29.40 
   2   2   7  479.85   28.70 
   2   2   7  491.25   29.60 
  -3  -2  -7  882.81   44.90 
  -3  -2  -7  871.81   48.10 
   3   2   7  837.22   48.60 
   3   2   7  825.62   50.19 
   3   2   7  836.62   48.20 
   3   2   7  810.32   46.20 
   3   2   7  844.02   46.70 
   3   2   7  842.52   47.70 
  -4  -2  -7    5.30    2.90 
   4   2   7   -3.20    2.20 
   4   2   7   -0.70    2.90 
   4   2   7    2.90    2.90 
   4   2   7   -2.70    2.60 
   4   2   7   -1.70    2.60 
   4   2   7    1.90    2.20 
   4   2   7   -0.50    3.60 
   5   2   7  141.99   15.80 
   4  -3  -7   94.59    8.30 
   4  -3  -7   93.89    7.20 
   4  -3  -7   80.89    9.70 
  -4   3   7  105.69    7.10 
  -4   3   7  100.99    7.40 
   3  -3  -7   87.19    7.80 
   3  -3  -7   78.29    8.40 
   3  -3  -7   67.99   10.90 
   3  -3  -7   83.89    7.00 
   3  -3  -7   75.29    7.80 
   3  -3  -7   81.29    9.60 
  -3   3   7   86.89    8.00 
  -3   3   7   81.29    9.50 
  -3   3   7   78.69    5.90 
   2  -3  -7 1708.63   89.39 
   2  -3  -7 1765.12   87.09 
   2  -3  -7 1542.55   88.79 
   2  -3  -7 1539.35   89.39 
   2  -3  -7 1608.44   86.19 
   2  -3  -7 1693.83   95.69 
   2  -3  -7 1659.23   87.39 
   2  -3  -7 1691.73   87.99 
  -2   3   7 1746.53   89.79 
  -2   3   7 1626.34   85.69 
  -2   3   7 1716.83   87.39 
  -2   3   7 1688.53   84.29 
   1  -3  -7 1901.21  104.09 
   1  -3  -7 1933.61  105.99 
   1  -3  -7 2116.99  105.89 
   1  -3  -7 1887.31  103.19 
   1  -3  -7 2116.39  105.29 
  -1   3   7 2241.38  106.59 
  -1   3   7 1980.20  104.19 
  -1   3   7 2046.10  104.89 
   0  -3  -7 1583.04   82.19 
   0  -3  -7 1492.25   80.89 
   0  -3  -7 1635.24   83.29 
   0  -3  -7 1501.45   83.49 
   0   3   7 1740.03   86.69 
   0   3   7 1562.84   82.49 
  -1  -3  -7  784.12   40.70 
  -1  -3  -7  749.73   41.00 
  -1  -3  -7  693.13   38.80 
  -1  -3  -7  760.12   42.10 
   1   3   7  748.43   41.90 
   1   3   7  740.33   41.40 
  -2  -3  -7  199.78   13.60 
  -2  -3  -7  205.68   15.30 
  -2  -3  -7  206.28   13.70 
   2   3   7  209.08   14.60 
   2   3   7  206.58   15.20 
   2   3   7  203.68   15.40 
  -3  -3  -7  348.17   24.20 
  -3  -3  -7  345.67   20.00 
   3   3   7  335.97   21.60 
   3   3   7  328.47   22.10 
   3   3   7  355.66   23.40 
   3   3   7  345.97   22.70 
   3   3   7  282.87   23.60 
   3   3   7  272.57   24.70 
   3   3   7  334.47   22.70 
   3   3   7  408.96   31.90 
  -4  -3  -7   61.89    5.60 
   4   3   7   58.49    7.40 
   4   3   7   60.69    6.80 
   4   3   7   63.79    6.80 
   4   3   7   73.29   11.70 
   4   3   7   61.79    7.40 
   4   3   7   61.09    7.10 
   5   3   7  102.89   14.00 
   5   3   7  121.39    8.30 
   5   3   7  109.59    8.30 
   4  -4  -7   21.40    4.20 
   4  -4  -7   23.90    3.40 
   4  -4  -7   34.20    4.70 
  -4   4   7   31.80    3.40 
   3  -4  -7  173.28   15.20 
   3  -4  -7  173.98   13.50 
   3  -4  -7  180.98   12.50 
   3  -4  -7  163.68   16.30 
  -3   4   7  199.78   14.90 
  -3   4   7  177.28   10.20 
  -3   4   7  180.48   13.10 
   2  -4  -7  403.76   28.20 
   2  -4  -7  402.86   27.10 
   2  -4  -7  395.86   27.40 
   2  -4  -7  426.26   27.00 
   2  -4  -7  421.96   25.10 
  -2   4   7  437.56   24.60 
  -2   4   7  453.35   27.80 
  -2   4   7  408.16   25.10 
  -2   4   7  397.36   22.00 
   1  -4  -7  372.96   24.10 
   1  -4  -7  376.86   23.50 
   1  -4  -7  360.26   24.00 
   1  -4  -7  338.27   22.50 
  -1   4   7  372.06   23.80 
  -1   4   7  367.66   23.10 
  -1   4   7  369.56   23.40 
  -1   4   7  375.16   23.30 
  -1   4   7  428.46   24.90 
  -1   4   7  342.87   23.40 
   0  -4  -7  720.93   41.40 
   0  -4  -7  711.23   41.30 
   0  -4  -7  714.33   39.50 
   0  -4  -7  678.33   41.10 
   0  -4  -7  815.32   45.60 
   0   4   7  718.53   40.50 
   0   4   7  731.73   41.60 
   0   4   7  829.12   46.70 
  -1  -4  -7  887.01   46.70 
  -1  -4  -7  833.42   44.80 
  -1  -4  -7  857.01   47.80 
  -1  -4  -7  904.11   47.30 
   1   4   7  798.72   47.50 
   1   4   7  845.12   46.80 
  -2  -4  -7  256.67   18.60 
  -2  -4  -7  258.07   16.90 
  -2  -4  -7  269.87   17.10 
   2   4   7  263.67   19.00 
   2   4   7  261.17   18.40 
   2   4   7  262.27   17.80 
  -3  -4  -7  259.67   16.30 
  -3  -4  -7  259.97   18.80 
   3   4   7  288.37   25.80 
   3   4   7  243.08   18.40 
   3   4   7  253.17   17.00 
   3   4   7  247.98   17.80 
   3   4   7  255.87   18.30 
   3   4   7  244.08   16.50 
   3   4   7  256.47   19.60 
   3   4   7  269.27   17.90 
   3   4   7  239.08   18.90 
  -4  -4  -7   61.59    6.00 
   4   4   7   69.59    7.80 
   4   4   7   77.39    7.10 
   4   4   7   63.59    9.10 
   4   4   7   78.49    7.80 
   4   4   7   71.59    7.60 
   4   4   7   61.89   10.80 
   5   4   7   96.99    7.10 
   5   4   7   97.69    7.40 
   5   4   7   95.99    7.20 
   3  -5  -7  267.47   16.50 
   3  -5  -7  257.37   17.90 
   3  -5  -7  220.38   17.40 
  -3   5   7  268.37   16.10 
  -3   5   7  269.07   16.40 
   2  -5  -7  518.15   31.80 
   2  -5  -7  433.86   35.60 
   2  -5  -7  533.95   32.60 
   2  -5  -7  524.05   30.20 
  -2   5   7  530.35   30.50 
  -2   5   7  555.34   29.80 
   1  -5  -7  172.58   13.60 
   1  -5  -7  157.38   11.90 
   1  -5  -7  161.58   13.10 
   1  -5  -7  142.89   13.50 
  -1   5   7  158.58   11.70 
  -1   5   7  174.28   14.40 
  -1   5   7  170.68   12.60 
  -1   5   7  172.28   11.90 
  -1   5   7  179.78   13.30 
   0  -5  -7   54.49    6.80 
   0  -5  -7   51.49    6.70 
   0  -5  -7   48.20    5.00 
   0  -5  -7   65.59    6.70 
   0  -5  -7   50.79    5.60 
   0  -5  -7   59.19    6.90 
   0   5   7   51.49    6.70 
   0   5   7   48.20    6.00 
   0   5   7   53.09    7.50 
   0   5   7   60.19    7.00 
   0   5   7   51.59    5.90 
  -1  -5  -7  131.59   11.20 
  -1  -5  -7  125.99   10.60 
  -1  -5  -7  107.29    9.60 
  -1  -5  -7  126.39    9.00 
   1   5   7  115.49   10.90 
   1   5   7  147.29   17.40 
   1   5   7  115.99   12.40 
   1   5   7  126.49   10.20 
  -2  -5  -7 1078.69   60.29 
  -2  -5  -7 1213.18   65.79 
   2   5   7 1097.99   60.89 
   2   5   7 1104.29   70.29 
   2   5   7 1283.27   66.49 
   2   5   7  975.00   63.19 
  -3  -5  -7  447.06   27.70 
  -3  -5  -7  422.36   25.00 
   3   5   7  392.86   27.30 
   3   5   7  387.36   24.70 
   3   5   7  401.06   25.40 
   3   5   7  420.86   27.50 
   3   5   7  405.76   25.90 
   3   5   7  407.66   26.90 
   3   5   7  422.96   25.70 
   3   5   7  401.66   24.00 
  -4  -5  -7  160.78   11.20 
   4   5   7  143.59   18.00 
   4   5   7  117.09   17.20 
   4   5   7  158.08   11.80 
   4   5   7  166.78   12.30 
   4   5   7  161.48   11.90 
   4   5   7  152.98   12.90 
   5   5   7   19.30    3.50 
   5   5   7   24.10    3.40 
   3  -6  -7   48.00    6.20 
   3  -6  -7   53.59    6.20 
  -3   6   7   46.80    5.00 
   2  -6  -7   56.89    7.10 
   2  -6  -7   51.39    7.60 
  -2   6   7   51.69    6.00 
  -2   6   7   50.19    7.10 
  -2   6   7   48.60    6.10 
   1  -6  -7   47.80   12.40 
   1  -6  -7   51.69    6.70 
   1  -6  -7   58.69    7.20 
   1  -6  -7   46.70    7.30 
  -1   6   7   38.60    5.80 
  -1   6   7   54.69    6.10 
  -1   6   7   49.00    7.50 
  -1   6   7   48.60    9.70 
  -1   6   7   45.10    6.40 
   0  -6  -7  454.85   27.60 
   0  -6  -7  427.56   26.60 
   0  -6  -7  440.76   28.10 
   0  -6  -7  418.66   24.50 
   0   6   7  526.15   36.20 
   0   6   7  396.76   25.10 
   0   6   7  433.76   27.90 
   0   6   7  416.56   27.10 
   0   6   7  443.76   29.80 
   0   6   7  453.35   27.20 
   0   6   7  443.76   26.20 
  -1  -6  -7  357.36   22.90 
  -1  -6  -7  384.46   23.60 
  -1  -6  -7  348.67   20.70 
   1   6   7  422.76   31.90 
   1   6   7  354.06   25.60 
   1   6   7  350.06   21.80 
   1   6   7  350.26   22.30 
   1   6   7  291.27   29.60 
   1   6   7  341.47   22.90 
   1   6   7  332.67   23.50 
   1   6   7  358.76   22.20 
   1   6   7  342.67   23.40 
   1   6   7  350.06   21.80 
  -2  -6  -7 1957.70  101.49 
  -2  -6  -7 2028.40  103.09 
  -2  -6  -7 1960.20   99.19 
   2   6   7 1736.93  101.19 
   2   6   7 2021.40  102.89 
   2   6   7 1919.21  100.29 
   2   6   7 1923.51  103.39 
   2   6   7 1920.51  100.89 
   2   6   7 1897.01   99.99 
   2   6   7 1903.81  101.09 
   2   6   7 2037.50  101.39 
   2   6   7 1886.71  102.69 
  -3  -6  -7  242.08   16.90 
   3   6   7  242.38   17.00 
   3   6   7  240.18   17.20 
   3   6   7  239.68   17.20 
   3   6   7  250.37   23.30 
   3   6   7  252.57   17.20 
   3   6   7  247.38   16.40 
   3   6   7  257.57   18.70 
  -4  -6  -7  207.48   14.70 
   4   6   7  188.08   18.30 
   4   6   7  231.98   14.80 
   4   6   7  234.78   15.00 
   4   6   7  222.08   14.70 
   4   6   7  237.08   16.30 
   4   6   7  228.38   14.20 
   5   6   7   35.30    3.40 
   5   6   7   39.10    3.30 
   3  -7  -7   21.40    3.90 
   3  -7  -7   26.50    4.20 
  -3   7   7   25.90    4.10 
  -3   7   7   31.00    3.70 
   2  -7  -7   77.19    8.70 
   2  -7  -7   74.89    7.60 
  -2   7   7   68.59    7.20 
  -2   7   7   79.29    7.20 
   1  -7  -7  110.39   10.60 
   1  -7  -7   99.79    9.20 
   1  -7  -7   88.69   14.40 
  -1   7   7   94.89   13.70 
  -1   7   7  105.49    8.90 
  -1   7   7  104.89   11.40 
  -1   7   7  104.29    9.70 
   0  -7  -7  422.86   25.00 
   0  -7  -7  527.85   36.10 
   0  -7  -7  442.26   30.40 
   0   7   7  514.75   32.80 
   0   7   7  441.46   38.30 
   0   7   7  430.06   30.50 
  -1  -7  -7  821.12   46.80 
  -1  -7  -7  808.62   46.60 
  -1  -7  -7  876.11   47.10 
  -1  -7  -7  833.72   43.80 
  -1  -7  -7  813.42   46.10 
   1   7   7  754.62   47.10 
   1   7   7  831.52   44.80 
   1   7   7  821.22   45.60 
   1   7   7  825.02   45.70 
   1   7   7  809.42   50.09 
   1   7   7  830.62   47.20 
   1   7   7  793.92   45.70 
   1   7   7  781.32   45.00 
  -2  -7  -7   26.30    5.30 
  -2  -7  -7   24.00    5.20 
  -2  -7  -7   36.80    5.50 
  -2  -7  -7   30.10    4.50 
   2   7   7   20.10    5.70 
   2   7   7   31.10    5.80 
   2   7   7   21.90    4.30 
   2   7   7   21.30    7.30 
   2   7   7   29.70    6.20 
   2   7   7   22.90    5.40 
   2   7   7   31.30    5.10 
   2   7   7   20.40    4.50 
   2   7   7   39.40    5.40 
   2   7   7   31.10    5.60 
  -3  -7  -7  146.59   12.40 
  -3  -7  -7  174.68   11.50 
   3   7   7  162.78   12.40 
   3   7   7  129.89   12.50 
   3   7   7  172.78   12.50 
   3   7   7  164.08   17.40 
   3   7   7  168.68   13.80 
   3   7   7  157.58   11.50 
   3   7   7  163.48   12.20 
  -4  -7  -7   26.70    3.50 
  -4  -7  -7   29.50    3.80 
   4   7   7   24.40    3.50 
   4   7   7   27.30    4.10 
   4   7   7   30.40    4.00 
   4   7   7   31.60    4.10 
   2  -8  -7   61.99    6.90 
   2  -8  -7   51.39    5.70 
  -2   8   7   56.69    5.80 
  -2   8   7   62.99    5.90 
   1  -8  -7    7.40    5.70 
  -1   8   7    9.60    3.30 
  -1   8   7    9.10    3.70 
  -1   8   7   13.50    4.30 
   0  -8  -7  118.19    7.50 
   0  -8  -7  124.39   16.70 
   0  -8  -7  121.59   11.00 
   0   8   7  106.79    9.60 
   0   8   7  127.29   11.00 
   0   8   7  120.79   15.60 
   0   8   7  106.59   12.00 
  -1  -8  -7   59.99    7.50 
  -1  -8  -7   68.39    6.20 
  -1  -8  -7   77.59    8.10 
   1   8   7   73.19    6.60 
   1   8   7   63.39    7.60 
   1   8   7   81.79   13.00 
   1   8   7   76.29    8.60 
   1   8   7   70.49    7.20 
   1   8   7   79.89   11.20 
   1   8   7   87.49   10.60 
  -2  -8  -7   78.19    6.20 
  -2  -8  -7   77.79    7.20 
  -2  -8  -7   60.89    7.20 
   2   8   7   60.99   11.30 
   2   8   7   70.89    6.60 
   2   8   7   53.49   10.40 
   2   8   7   59.39    6.40 
   2   8   7   67.19    7.20 
   2   8   7   59.59    7.90 
   2   8   7   62.09   15.50 
   2   8   7   69.79    8.00 
  -3  -8  -7   30.60    4.50 
  -3  -8  -7   32.60    3.70 
   3   8   7   30.90    4.90 
   3   8   7   37.40    5.70 
   3   8   7   28.00    6.60 
   3   8   7   28.50    4.40 
   3   8   7   31.50    4.20 
   3   8   7   31.50    4.70 
   3   8   7   23.10    4.40 
   4   8   7   22.10    3.20 
   4   8   7   26.10    4.50 
   4   8   7   21.30    3.10 
   4   8   7   20.60    2.70 
   2  -9  -7    3.00    1.90 
  -2   9   7    2.80    1.50 
   1  -9  -7   48.00    6.30 
   1  -9  -7   39.90    9.60 
  -1   9   7   47.30    5.40 
   0  -9  -7   65.49   12.10 
   0  -9  -7   85.19    8.20 
   0   9   7   69.79    7.20 
   0   9   7   53.29   10.40 
   0   9   7   84.49    8.10 
  -1  -9  -7   -0.20    3.70 
  -1  -9  -7    5.40    1.80 
  -1  -9  -7   11.40    3.10 
   1   9   7    5.90    2.20 
   1   9   7    3.70    1.90 
   1   9   7    2.40    4.00 
   1   9   7    4.20    2.10 
   1   9   7    3.80    2.70 
  -2  -9  -7  134.19   10.90 
  -2  -9  -7  165.28    9.70 
  -2  -9  -7  118.59   16.40 
   2   9   7  167.98   10.80 
   2   9   7  152.48   11.20 
   2   9   7  129.39    9.40 
   2   9   7  138.69    9.70 
   2   9   7  148.69   11.60 
   2   9   7  160.78   12.10 
   2   9   7  118.69   15.00 
  -3  -9  -7   26.60    3.30 
   3   9   7   29.50    3.70 
   3   9   7   27.20    3.10 
   3   9   7   25.10    3.80 
   3   9   7   19.00    3.30 
   3   9   7   31.90    4.50 
   1 -10  -7   30.10    4.60 
   1 -10  -7   17.20    5.10 
  -1  10   7   26.10    3.60 
   0 -10  -7    0.50    2.50 
   0 -10  -7    1.90    2.20 
   0  10   7    2.00    1.80 
   0  10   7    4.80    1.90 
  -1 -10  -7   45.10    4.80 
  -1 -10  -7   29.10    9.70 
   1  10   7   36.00    4.10 
   1  10   7   39.50    8.20 
   1  10   7   31.00    5.20 
   1  10   7   34.00    4.40 
  -2 -10  -7   28.20    2.80 
   2  10   7   25.80    3.50 
   2  10   7   22.60    2.70 
   2  10   7   24.80    3.10 
   2  10   7   24.80    4.00 
   2  10   7   20.40    5.30 
   0   9  -8    0.70    2.40 
   0   9  -8    2.30    2.80 
   0  -9   8    1.40    2.00 
   0  -9   8    5.70    1.90 
  -1   9  -8    9.50    2.80 
  -1   9  -8    7.30    2.80 
   1  -9   8   15.80    3.20 
   1   8  -8   14.40    3.50 
   1   8  -8    9.90    3.30 
  -1  -8   8   19.00    3.50 
   0   8  -8    2.80    2.70 
   0  -8   8    2.90    2.30 
  -1   8  -8    5.20    3.40 
  -1   8  -8    3.80    3.30 
  -1   8  -8    6.60    3.90 
   1  -8   8   11.20    3.20 
   1  -8   8    8.40    3.30 
  -2   8  -8   27.30    4.70 
  -2   8  -8   33.60    6.50 
  -2   8  -8   30.90    4.30 
   2  -8   8   33.00    6.00 
   2  -8   8   21.30    6.60 
  -3   8  -8    6.70    2.70 
  -3   8  -8    9.70    1.90 
   3  -8   8    4.10    3.30 
   3  -8   8    6.70    2.90 
   3  -8   8   10.40    3.60 
   2   7  -8   12.40    3.00 
   2   7  -8   10.60    3.40 
  -2  -7   8   16.40    2.60 
  -2  -7   8   15.10    3.20 
   1   7  -8  140.69   11.10 
   1   7  -8  131.99   13.80 
   1   7  -8  119.79   10.90 
  -1  -7   8  142.29    8.80 
  -1  -7   8  151.98   10.80 
  -1  -7   8  144.89   11.30 
   0   7  -8   56.99    7.20 
   0   7  -8   62.49    7.10 
   0  -7   8   76.59    7.80 
   0  -7   8   67.69    6.90 
  -1   7  -8   57.39    7.10 
  -1   7  -8   55.19    5.60 
  -1   7  -8   54.89    9.90 
  -1   7  -8   66.89    8.60 
   1  -7   8   63.09    7.60 
   1  -7   8   60.29    8.40 
   1  -7   8   58.79    9.80 
  -2   7  -8   16.10    3.70 
  -2   7  -8    9.60    4.60 
  -2   7  -8   18.80    2.90 
  -2   7  -8   16.90    3.60 
   2  -7   8   14.90    4.80 
   2  -7   8    9.50    4.30 
  -3   7  -8   83.49    6.80 
  -3   7  -8   92.19    8.60 
   3  -7   8   67.09    9.60 
   3  -7   8   91.09    6.60 
   3  -7   8   62.09   13.30 
   3  -7   8   86.09    6.10 
   3  -7   8  101.69   12.70 
   2   6  -8  158.08   16.30 
   2   6  -8  140.99   10.90 
  -2  -6   8  166.58   12.60 
  -2  -6   8  157.18   14.10 
   1   6  -8    1.10    3.00 
   1   6  -8   -0.30    2.60 
   1   6  -8    0.90    3.10 
   1   6  -8    4.70    2.40 
  -1  -6   8    3.50    2.20 
  -1  -6   8   -1.50    1.60 
   0   6  -8  101.89   10.40 
   0   6  -8  115.39   14.60 
   0   6  -8  110.89   10.10 
   0   6  -8  104.69    8.90 
   0  -6   8  116.49   10.10 
   0  -6   8  107.09   11.00 
   0  -6   8  107.29   10.90 
  -1   6  -8  176.78   12.90 
  -1   6  -8  196.18   14.10 
  -1   6  -8  189.88   11.40 
  -1   6  -8  182.58   14.00 
  -1   6  -8  204.68   20.10 
   1  -6   8  188.38   19.00 
   1  -6   8  190.88   13.90 
   1  -6   8  188.08   15.00 
   1  -6   8  189.88   16.30 
  -2   6  -8   10.90    3.70 
  -2   6  -8   11.40    2.90 
  -2   6  -8   17.20    4.00 
  -2   6  -8    7.30    4.20 
   2  -6   8   21.00    5.00 
   2  -6   8   21.60    6.80 
   2  -6   8    9.90    6.40 
   2  -6   8   18.20    5.40 
  -3   6  -8   88.29    7.40 
  -3   6  -8   93.79    8.10 
  -3   6  -8   90.79    6.80 
   3  -6   8   86.89    7.90 
   3  -6   8   87.89    9.80 
   3  -6   8   85.89    7.30 
   3  -6   8  107.09   15.90 
  -4   6  -8   48.80    4.10 
   4  -6   8   47.70    9.10 
   4  -6   8   47.50    4.50 
   4  -6   8   49.99    5.10 
   4  -6   8   45.10    6.90 
   3   5  -8    8.90    3.20 
  -3  -5   8   10.00    2.10 
   2   5  -8   40.90    8.90 
   2   5  -8   41.10    6.40 
   2   5  -8   32.50    6.20 
  -2  -5   8   47.00    5.00 
  -2  -5   8   32.50    5.90 
  -2  -5   8   47.80    6.10 
   1   5  -8  187.88   15.30 
   1   5  -8  193.78   13.90 
   1   5  -8  216.28   21.00 
   1   5  -8  208.28   15.70 
  -1  -5   8  187.48   15.20 
  -1  -5   8  192.38   14.90 
  -1  -5   8  208.48   13.30 
   0   5  -8  330.27   25.10 
   0   5  -8  319.37   23.40 
   0   5  -8  309.47   20.20 
   0   5  -8  347.17   21.80 
   0   5  -8  363.26   30.40 
   0  -5   8  314.97   19.50 
   0  -5   8  298.87   22.60 
   0  -5   8  310.57   25.30 
   0  -5   8  338.87   21.80 
  -1   5  -8  281.77   26.30 
  -1   5  -8  240.88   17.50 
  -1   5  -8  242.18   16.40 
  -1   5  -8  301.07   25.70 
  -1   5  -8  235.78   15.60 
   1  -5   8  233.48   17.30 
   1  -5   8  205.38   31.90 
   1  -5   8  280.17   27.80 
   1  -5   8  285.47   26.20 
   1  -5   8  296.27   23.80 
  -2   5  -8   21.80    5.40 
  -2   5  -8   20.90    4.20 
  -2   5  -8   17.50    4.70 
  -2   5  -8   23.90    3.90 
  -2   5  -8   17.20    5.50 
   2  -5   8   17.80    5.20 
   2  -5   8   19.90    3.70 
   2  -5   8   27.50    8.10 
   2  -5   8   25.40    4.70 
   2  -5   8   18.80    8.20 
   2  -5   8   32.80    6.70 
  -3   5  -8   30.20    5.30 
  -3   5  -8   38.70    5.40 
  -3   5  -8   38.20    4.60 
  -3   5  -8   41.20    4.80 
  -3   5  -8   49.99    6.40 
   3  -5   8   44.30    7.70 
   3  -5   8   55.89    8.20 
   3  -5   8   33.40    5.70 
   3  -5   8   50.39    5.90 
   3  -5   8   27.90    9.90 
  -4   5  -8   34.90    4.20 
  -4   5  -8   41.70    5.60 
   4  -5   8   33.10    6.50 
   4  -5   8   35.80    6.20 
   4  -5   8   42.20    4.80 
   4  -5   8   43.30    5.80 
   4  -5   8   38.50    9.30 
   3   4  -8   16.60    5.30 
   3   4  -8   18.50    3.40 
   3   4  -8   14.10    3.40 
  -3  -4   8   13.80    3.20 
  -3  -4   8   12.50    2.70 
   2   4  -8    7.30    5.10 
   2   4  -8    7.20    2.40 
   2   4  -8   11.30    3.90 
   2   4  -8    7.50    5.40 
   2   4  -8    3.70    2.20 
  -2  -4   8    0.10    2.60 
  -2  -4   8    4.90    4.00 
  -2  -4   8    4.40    2.70 
  -2  -4   8    3.70    2.60 
   1   4  -8  129.89   11.70 
   1   4  -8  105.99    9.40 
   1   4  -8  106.99   10.80 
   1   4  -8   96.59   14.20 
   1   4  -8  114.69   11.90 
  -1  -4   8  101.19   10.90 
  -1  -4   8  106.19   10.00 
  -1  -4   8   97.99    9.10 
   0   4  -8  359.86   21.90 
   0   4  -8  309.17   17.50 
   0   4  -8  359.86   23.70 
   0   4  -8  279.07   21.00 
   0   4  -8  295.37   27.60 
   0   4  -8  330.87   20.10 
   0  -4   8  319.87   22.50 
   0  -4   8  325.27   22.10 
   0  -4   8  314.67   19.40 
   0  -4   8  329.67   21.50 
   0  -4   8  301.17   19.30 
  -1   4  -8   43.60    6.90 
  -1   4  -8   33.70    5.90 
  -1   4  -8   25.80    4.30 
  -1   4  -8   21.10    4.50 
  -1   4  -8   30.40    8.70 
  -1   4  -8   20.50    4.70 
  -1   4  -8   25.70    4.30 
   1  -4   8   30.90    5.20 
   1  -4   8   30.60    9.50 
   1  -4   8   31.20    8.40 
   1  -4   8   37.50    6.90 
   1  -4   8   32.10    6.90 
   1  -4   8   40.40    5.10 
  -2   4  -8  105.69    8.20 
  -2   4  -8  129.99    9.30 
  -2   4  -8  111.79    9.80 
  -2   4  -8  123.29   11.10 
  -2   4  -8  108.69    9.90 
  -2   4  -8  108.89   10.00 
   2  -4   8  106.19   10.00 
   2  -4   8  105.89    9.10 
   2  -4   8  114.69   12.50 
   2  -4   8  131.59   19.30 
   2  -4   8  109.99   13.90 
   2  -4   8  103.59    9.20 
   2  -4   8  108.09   11.40 
   2  -4   8  117.49   10.30 
  -3   4  -8  276.67   18.20 
  -3   4  -8  282.27   17.20 
  -3   4  -8  267.57   16.60 
  -3   4  -8  274.37   18.70 
   3  -4   8  290.57   21.60 
   3  -4   8  267.17   19.40 
   3  -4   8  254.27   19.70 
   3  -4   8  330.07   32.50 
   3  -4   8  287.67   18.10 
   3  -4   8  324.17   24.20 
  -4   4  -8   39.90    5.40 
  -4   4  -8   44.90    4.30 
  -4   4  -8   34.70    4.90 
   4  -4   8   26.50    9.20 
   4  -4   8   42.60    7.90 
   4  -4   8   46.20    6.90 
   4  -4   8   42.70    6.20 
   4  -4   8   39.90    5.40 
  -5   4  -8  105.69    6.50 
   5  -4   8   90.09   11.40 
   5  -4   8  120.69    7.70 
   3   3  -8   -3.00    2.30 
   3   3  -8    0.60    3.80 
   3   3  -8    2.30    3.20 
  -3  -3   8    4.40    1.60 
   2   3  -8  119.39   17.40 
   2   3  -8  165.58   12.20 
   2   3  -8  156.98   13.30 
   2   3  -8  158.98   11.30 
   2   3  -8  143.29   13.10 
   2   3  -8  175.48   12.10 
  -2  -3   8  168.88   12.50 
  -2  -3   8  152.88   11.30 
  -2  -3   8  150.68   12.20 
   1   3  -8   95.09    9.10 
   1   3  -8   89.39   10.00 
   1   3  -8  123.59   10.90 
   1   3  -8  106.19   10.60 
   1   3  -8   84.39   13.60 
   1   3  -8  107.09   11.50 
  -1  -3   8  114.09   10.10 
  -1  -3   8  108.09   10.30 
  -1  -3   8   79.49    8.20 
   0   3  -8  493.15   28.50 
   0   3  -8  482.45   30.80 
   0   3  -8  468.85   29.20 
   0   3  -8  505.25   37.20 
   0  -3   8  462.65   29.70 
   0  -3   8  461.05   29.10 
  -1   3  -8  209.08   17.40 
  -1   3  -8  191.38   14.70 
  -1   3  -8  197.68   13.90 
  -1   3  -8  202.08   13.40 
  -1   3  -8  195.38   14.20 
   1  -3   8  189.88   22.70 
   1  -3   8  210.18   23.10 
   1  -3   8  221.18   18.20 
   1  -3   8  169.88   18.20 
   1  -3   8  193.88   13.10 
   1  -3   8  174.98   14.80 
   1  -3   8  148.79   16.30 
   1  -3   8  185.98   14.40 
  -2   3  -8    5.90    2.90 
  -2   3  -8    4.30    2.60 
  -2   3  -8    2.90    2.40 
  -2   3  -8    5.30    2.50 
  -2   3  -8    5.60    2.60 
  -2   3  -8    5.40    2.30 
   2  -3   8    9.90    4.50 
   2  -3   8    6.50    2.80 
   2  -3   8   10.80    5.70 
   2  -3   8    2.60    3.50 
   2  -3   8    8.10    2.80 
   2  -3   8    8.60    2.40 
   2  -3   8    1.30    3.30 
  -3   3  -8  322.77   20.10 
  -3   3  -8  330.77   20.80 
  -3   3  -8  306.27   19.10 
  -3   3  -8  290.67   19.30 
   3  -3   8  357.86   23.80 
   3  -3   8  323.27   37.00 
   3  -3   8  329.77   20.00 
   3  -3   8  363.96   29.40 
  -4   3  -8  613.04   35.80 
  -4   3  -8  629.44   34.50 
   4  -3   8  577.14   61.29 
   4  -3   8  690.33   39.90 
   4  -3   8  691.33   41.10 
   4  -3   8  643.04   39.20 
  -5   3  -8   59.49    4.70 
   5  -3   8   54.59    9.10 
   5  -3   8   59.89    6.90 
   5  -3   8   66.49    5.50 
   5  -3   8   70.99    6.10 
   3   2  -8   30.20    5.00 
   3   2  -8   27.30    5.00 
   3   2  -8   16.40    6.40 
   3   2  -8   23.10    5.30 
  -3  -2   8   24.90    4.00 
  -3  -2   8   32.40    4.60 
   2   2  -8  289.27   27.60 
   2   2  -8  258.27   19.40 
   2   2  -8  255.37   18.40 
   2   2  -8  258.57   18.30 
   2   2  -8  287.07   18.20 
   2   2  -8  267.27   18.40 
  -2  -2   8  264.17   15.00 
  -2  -2   8  288.87   17.50 
  -2  -2   8  276.57   18.30 
  -2  -2   8  264.47   18.00 
   1   2  -8 1464.55   83.59 
   1   2  -8 1406.66   73.09 
   1   2  -8 1404.86   74.49 
   1   2  -8 1367.86   71.49 
   1   2  -8 1327.27   71.69 
  -1  -2   8 1297.97   70.39 
  -1  -2   8 1353.96   72.09 
  -1  -2   8 1225.38   70.49 
  -1  -2   8 1249.97   71.89 
   0   2  -8  101.09    7.40 
   0   2  -8  106.09   14.60 
   0   2  -8  101.29    9.70 
   0   2  -8   92.19    8.30 
   0   2  -8  105.69   10.20 
   0   2  -8  117.29   11.30 
   0  -2   8   91.19    8.60 
   0  -2   8   83.99    9.50 
   0  -2   8  104.69    9.60 
  -1   2  -8  112.29    9.10 
  -1   2  -8  120.69   10.00 
  -1   2  -8  105.89    9.70 
  -1   2  -8  112.09    8.70 
  -1   2  -8  118.79   10.70 
   1  -2   8  109.59    8.90 
   1  -2   8  109.99   10.00 
  -2   2  -8  445.26   27.30 
  -2   2  -8  506.55   30.10 
  -2   2  -8  496.45   29.40 
  -2   2  -8  487.75   27.60 
   2  -2   8  509.95   42.00 
   2  -2   8  463.75   29.30 
   2  -2   8  558.64   36.20 
   2  -2   8  493.35   34.60 
   2  -2   8  536.95   35.40 
  -3   2  -8 1060.69   59.79 
  -3   2  -8 1084.19   55.89 
  -3   2  -8 1116.09   57.69 
  -3   2  -8  938.41   56.19 
   3  -2   8 1149.39   60.09 
   3  -2   8 1053.49   58.89 
   3  -2   8 1048.10   57.19 
   3  -2   8 1056.89   60.89 
   3  -2   8  985.30   58.29 
   3  -2   8 1120.39   58.89 
   3  -2   8 1071.49   56.59 
   3  -2   8 1216.08   64.29 
   3  -2   8  979.00   72.49 
  -4   2  -8  417.86   25.40 
  -4   2  -8  420.86   25.70 
  -4   2  -8  467.95   25.80 
   4  -2   8  418.86   38.30 
   4  -2   8  461.85   25.60 
   4  -2   8  466.15   27.70 
   4  -2   8  426.26   30.80 
   4  -2   8  465.05   26.10 
   4  -2   8  452.15   28.60 
   5  -2   8    7.20    2.60 
   5  -2   8    5.10    1.90 
   5  -2   8    4.00    3.10 
   5  -2   8    1.10    2.70 
   3   1  -8    2.90    2.60 
   3   1  -8    3.40    3.40 
   3   1  -8    1.50    2.70 
   3   1  -8    0.50    2.70 
  -3  -1   8    5.90    2.40 
  -3  -1   8    1.90    1.80 
   2   1  -8  171.28   13.10 
   2   1  -8  177.78   15.70 
   2   1  -8  162.58   12.70 
   2   1  -8  168.48   15.40 
   2   1  -8  131.19   18.60 
   2   1  -8  154.18   13.20 
  -2  -1   8  170.88   11.80 
  -2  -1   8  155.58    9.70 
  -2  -1   8  161.88   12.40 
   1   1  -8 1266.17   69.49 
   1   1  -8 1279.77   73.09 
   1   1  -8 1291.07   70.89 
   1   1  -8 1391.36   79.69 
   1   1  -8 1277.67   68.59 
  -1  -1   8 1275.07   68.89 
  -1  -1   8 1219.78   67.39 
   0   1  -8  136.79   11.00 
   0   1  -8  146.69   10.70 
   0   1  -8  123.89    9.80 
   0   1  -8  135.59   11.80 
   0  -1   8  137.29   11.00 
  -1   1  -8  260.57   15.50 
  -1   1  -8  248.08   17.60 
  -1   1  -8  250.17   16.40 
  -1   1  -8  250.97   15.90 
  -1   1  -8  251.77   17.10 
   1  -1   8  258.37   17.30 
   1  -1   8  245.68   16.70 
  -2   1  -8   23.10    4.30 
  -2   1  -8   20.10    3.20 
  -2   1  -8   19.80    4.20 
   2  -1   8   15.80    3.60 
   2  -1   8   18.70    5.30 
   2  -1   8   26.10    4.30 
   2  -1   8   23.10    5.00 
   2  -1   8   15.40    3.60 
  -3   1  -8  889.61   45.80 
  -3   1  -8  882.61   46.60 
  -3   1  -8  870.21   48.70 
  -3   1  -8  875.31   47.30 
   3  -1   8  743.03   48.30 
   3  -1   8  898.11   63.39 
   3  -1   8  934.81   49.30 
   3  -1   8  852.91   48.70 
   3  -1   8  837.72   47.20 
   3  -1   8  909.51   49.70 
   3  -1   8  951.60   53.29 
   3  -1   8  799.32   50.29 
  -4   1  -8  106.99    8.70 
  -4   1  -8  123.49   10.00 
   4  -1   8  122.79    9.50 
   4  -1   8  106.19   11.40 
   4  -1   8  115.89   11.30 
   4  -1   8  105.29   12.20 
   4  -1   8  123.19   17.70 
   4  -1   8  105.19   10.10 
   5  -1   8   31.20    7.50 
   5  -1   8   41.50    5.30 
   5  -1   8   31.40    3.90 
   5  -1   8   42.10    5.50 
   4   0  -8   28.00    7.80 
   3   0  -8  378.46   25.80 
   3   0  -8  395.96   24.60 
   3   0  -8  361.46   26.50 
   3   0  -8  428.16   24.80 
   3   0  -8  449.36   23.50 
   3   0  -8  393.76   32.10 
  -3   0   8  402.36   21.30 
  -3   0   8  397.36   23.00 
  -3   0   8  408.86   24.20 
   2   0  -8  917.81   49.40 
   2   0  -8  710.83   61.29 
   2   0  -8  927.91   53.39 
   2   0  -8  864.01   47.70 
  -2   0   8  896.31   47.80 
   1   0  -8  630.34   36.90 
   1   0  -8  559.24   33.40 
   1   0  -8  659.83   40.10 
   1   0  -8  550.74   52.09 
  -1   0   8  535.65   34.00 
  -1   0   8  656.83   38.70 
  -1   0   8  578.94   35.20 
   0   0  -8  226.78   15.20 
   0   0  -8  202.28   13.90 
   0   0  -8  231.28   15.80 
   0   0  -8  227.08   16.40 
   0   0  -8  224.38   15.00 
   0   0   8  229.38   15.70 
  -1   0  -8    1.80    2.10 
  -1   0  -8    7.20    2.40 
  -1   0  -8    5.40    1.90 
  -1   0  -8   12.30    3.80 
  -1   0  -8    5.10    2.30 
   1   0   8    4.20    2.10 
   1   0   8    4.80    2.10 
  -2   0  -8  100.19    9.30 
  -2   0  -8   88.49    6.60 
  -2   0  -8   85.59    9.50 
  -2   0  -8   78.09    7.30 
  -2   0  -8   83.39    8.10 
   2   0   8   96.69    8.70 
   2   0   8   84.09    8.60 
  -3   0  -8 2007.70   97.89 
  -3   0  -8 1908.51   99.69 
   3   0   8 1955.40   99.69 
   3   0   8 1811.62   98.89 
   3   0   8 1807.82  101.09 
   3   0   8 1868.91   99.99 
   3   0   8 1796.62   97.39 
   3   0   8 1787.52   99.79 
   3   0   8 2097.29  116.39 
  -4   0  -8  341.67   20.50 
   4   0   8  324.17   31.20 
   4   0   8  358.86   23.50 
   4   0   8  342.97   20.80 
   4   0   8  352.86   22.10 
   4   0   8  370.66   23.00 
   4   0   8  349.87   23.30 
   5   0   8  163.08   10.10 
   5   0   8  140.19   15.80 
   5   0   8  173.78   11.30 
   5   0   8  169.88   11.60 
   4  -1  -8   63.19    7.90 
   3  -1  -8   76.59    6.40 
   3  -1  -8   74.89    7.80 
   3  -1  -8   54.79    7.60 
   3  -1  -8   67.09   11.20 
  -3   1   8   68.59    7.30 
  -3   1   8   68.29    4.80 
  -3   1   8   70.39    5.90 
   2  -1  -8 1427.86   80.39 
   2  -1  -8 1754.52  100.79 
   2  -1  -8 1462.25   81.79 
   1  -1  -8  319.67   21.30 
   1  -1  -8  324.47   26.50 
   1  -1  -8  275.67   18.40 
   0  -1  -8  393.06   24.10 
   0  -1  -8  392.06   24.60 
   0  -1  -8  410.16   23.60 
   0  -1  -8  364.26   22.80 
   0   1   8  385.46   23.60 
   0   1   8  394.96   24.00 
  -1  -1  -8  531.65   31.40 
  -1  -1  -8  496.95   29.10 
  -1  -1  -8  540.15   30.70 
  -1  -1  -8  520.55   29.70 
   1   1   8  525.05   31.00 
   1   1   8  533.25   30.90 
  -2  -1  -8  715.93   39.10 
  -2  -1  -8  695.13   38.50 
  -2  -1  -8  711.03   40.80 
   2   1   8  701.03   40.10 
   2   1   8  691.93   40.60 
  -3  -1  -8 1646.04   84.99 
  -3  -1  -8 1643.54   82.39 
   3   1   8 1544.15   84.79 
   3   1   8 1556.24   83.39 
   3   1   8 1738.03   99.19 
   3   1   8 1511.65   83.29 
   3   1   8 1546.85   84.49 
   3   1   8 1638.24   84.39 
   3   1   8 1556.74   85.69 
   3   1   8 1464.65   81.79 
  -4  -1  -8   82.69    7.00 
   4   1   8   93.89    7.60 
   4   1   8   92.09   14.80 
   4   1   8   92.39    9.00 
   4   1   8   89.59    9.40 
   4   1   8   92.39    8.40 
   4   1   8   77.49    8.90 
   5   1   8   15.60    3.20 
   5   1   8   15.40    5.30 
   5   1   8   16.70    3.20 
   3  -2  -8   81.09   11.80 
   3  -2  -8  103.49    8.10 
   3  -2  -8   93.59    9.60 
   3  -2  -8   99.79    9.10 
   3  -2  -8  101.79    9.00 
  -3   2   8  108.89    7.10 
  -3   2   8  102.29    8.60 
  -3   2   8  102.99    7.50 
   2  -2  -8  410.16   25.20 
   2  -2  -8  409.46   27.00 
   2  -2  -8  394.66   30.90 
   2  -2  -8  424.36   23.60 
   2  -2  -8  361.36   24.20 
  -2   2   8  384.66   23.00 
  -2   2   8  368.16   25.20 
   1  -2  -8  380.36   29.60 
   1  -2  -8  343.27   21.50 
   1  -2  -8  378.76   23.90 
   1  -2  -8  401.86   28.20 
  -1   2   8  358.96   22.30 
  -1   2   8  375.76   24.20 
   0  -2  -8   52.49    5.40 
   0  -2  -8   54.99    6.40 
   0  -2  -8   58.59    7.00 
   0  -2  -8   61.19    7.10 
   0   2   8   50.79    6.10 
   0   2   8   55.99    6.20 
  -1  -2  -8   25.90    4.80 
  -1  -2  -8   19.60    4.50 
  -1  -2  -8   20.80    4.00 
   1   2   8   20.30    4.30 
   1   2   8   11.50    3.10 
  -2  -2  -8 1419.26   71.89 
  -2  -2  -8 1380.66   73.69 
  -2  -2  -8 1335.67   71.49 
   2   2   8 1247.28   73.79 
   2   2   8 1544.35   86.39 
   2   2   8 1295.47   73.39 
   2   2   8 1355.36   72.79 
   2   2   8 1316.37   72.29 
   2   2   8 1349.66   74.69 
   2   2   8 1370.76   73.79 
  -3  -2  -8  837.02   44.00 
  -3  -2  -8  832.52   46.70 
   3   2   8  813.42   56.79 
   3   2   8  770.82   44.60 
   3   2   8  803.12   46.00 
   3   2   8  768.32   46.50 
   3   2   8  843.12   45.90 
   3   2   8  856.41   45.20 
   3   2   8  768.52   43.30 
   3   2   8  793.42   46.80 
  -4  -2  -8   11.90    2.60 
   4   2   8   13.90    3.10 
   4   2   8    7.40    3.50 
   4   2   8   11.00    3.70 
   4   2   8    9.50    6.00 
   4   2   8   12.90    3.80 
   4   2   8   11.10    3.60 
   4   2   8   14.30    3.40 
   5   2   8  118.39    8.40 
   5   2   8   99.59   11.40 
   3  -3  -8  354.36   22.20 
   3  -3  -8  287.47   19.10 
   3  -3  -8  295.37   23.90 
   3  -3  -8  318.67   21.60 
  -3   3   8  353.56   20.20 
  -3   3   8  367.06   19.30 
   2  -3  -8  711.43   44.40 
   2  -3  -8  814.12   42.90 
   2  -3  -8  797.52   45.40 
   2  -3  -8  755.92   43.20 
   2  -3  -8  776.92   42.60 
   2  -3  -8  812.02   50.69 
  -2   3   8  825.82   42.40 
  -2   3   8  745.73   41.90 
  -2   3   8  808.72   43.50 
   1  -3  -8  380.16   24.30 
   1  -3  -8  383.36   24.70 
   1  -3  -8  411.46   29.70 
  -1   3   8  381.26   23.50 
  -1   3   8  370.86   23.80 
  -1   3   8  377.86   22.90 
  -1   3   8  377.06   22.40 
   0  -3  -8 1073.59   56.99 
   0  -3  -8 1018.70   56.69 
   0  -3  -8 1016.10   54.29 
   0  -3  -8 1100.39   57.39 
   0   3   8 1056.79   56.59 
   0   3   8 1045.30   56.79 
   0   3   8  953.80   58.49 
   0   3   8 1021.60   56.39 
   0   3   8 1081.79   56.29 
   0   3   8 1013.30   55.09 
  -1  -3  -8 1320.87   67.79 
  -1  -3  -8 1226.28   66.89 
  -1  -3  -8 1281.97   68.79 
   1   3   8 1270.57   67.89 
   1   3   8 1226.28   68.49 
  -2  -3  -8 3178.08  161.08 
   2   3   8 3047.70  158.78 
   2   3   8 2694.53  166.28 
   2   3   8 3691.33  163.48 
   2   3   8 3254.77  164.38 
   2   3   8 3343.57  164.08 
   2   3   8 2814.12  164.08 
   2   3   8 3358.66  167.68 
   2   3   8 2840.82  161.28 
  -3  -3  -8  683.03   37.60 
  -3  -3  -8  699.13   40.30 
   3   3   8  652.33   37.60 
   3   3   8  645.14   40.10 
   3   3   8  656.73   39.60 
   3   3   8  675.43   38.90 
   3   3   8  710.63   49.50 
   3   3   8  684.63   38.10 
   3   3   8  655.13   39.00 
  -4  -3  -8   87.79    7.20 
   4   3   8   81.29    7.90 
   4   3   8   87.59    8.30 
   4   3   8   99.69   13.20 
   4   3   8   80.89    8.30 
   4   3   8   97.29    9.20 
   4   3   8   94.99    8.80 
   5   3   8  229.48   13.80 
   5   3   8  222.58   14.40 
   3  -4  -8   87.09    9.00 
   3  -4  -8   78.49    9.40 
  -3   4   8   94.39    7.70 
  -3   4   8   89.89    8.60 
   2  -4  -8   95.19    8.60 
   2  -4  -8  101.39   10.30 
   2  -4  -8  102.39   10.70 
  -2   4   8  103.29    7.70 
  -2   4   8  102.49    9.10 
  -2   4   8  110.89    8.50 
  -2   4   8  103.69   10.40 
   1  -4  -8  993.00   54.39 
   1  -4  -8  866.81   51.79 
   1  -4  -8 1002.80   53.99 
  -1   4   8 1061.49   52.09 
  -1   4   8  937.71   51.59 
  -1   4   8 1026.60   53.29 
  -1   4   8  903.31   57.29 
  -1   4   8  973.90   53.59 
   0  -4  -8  348.67   22.90 
   0  -4  -8  349.37   21.80 
   0   4   8  322.27   24.00 
   0   4   8  333.17   23.80 
   0   4   8  315.17   26.90 
   0   4   8  392.36   29.30 
  -1  -4  -8  384.26   24.30 
  -1  -4  -8  419.06   26.20 
  -1  -4  -8  408.66   23.40 
  -1  -4  -8  442.96   26.50 
   1   4   8  369.46   24.90 
   1   4   8  443.66   25.60 
   1   4   8  466.35   28.10 
   1   4   8  432.76   26.40 
   1   4   8  375.06   25.80 
   1   4   8  396.06   23.90 
   1   4   8  367.06   26.10 
  -2  -4  -8  445.46   28.30 
  -2  -4  -8  438.06   26.60 
  -2  -4  -8  430.76   27.00 
   2   4   8  420.56   27.40 
   2   4   8  434.46   26.30 
   2   4   8  441.16   27.20 
   2   4   8  426.86   26.20 
   2   4   8  479.45   36.50 
   2   4   8  437.96   27.60 
   2   4   8  454.35   28.60 
   2   4   8  437.86   28.50 
  -3  -4  -8  183.08   13.10 
   3   4   8  202.58   14.30 
   3   4   8  157.48   23.60 
  -4  -4  -8   57.39    6.00 
   4   4   8   76.49    6.70 
   4   4   8   73.69    7.20 
   4   4   8   68.09    8.90 
   4   4   8   72.09   13.80 
   5   4   8  123.69    8.00 
  -3   5   8   19.80    3.60 
  -3   5   8   14.70    2.70 
   2  -5  -8  111.49   11.30 
  -2   5   8  138.29   12.80 
  -2   5   8  134.29   10.60 
  -1   5   8  135.49   10.70 
  -1   5   8  139.29   12.50 
  -1   5   8   95.99   10.80 
   0  -5  -8  105.49    9.80 
   0  -5  -8  116.59   10.70 
   0  -5  -8  108.79    8.20 
   0  -5  -8  128.19   10.90 
   0   5   8  108.99    9.10 
   0   5   8  103.49    9.00 
   0   5   8  118.79   10.20 
   0   5   8  129.79   15.20 
   0   5   8  132.79   10.80 
   0   5   8   98.89   10.10 
   0   5   8  113.39   10.60 
  -1  -5  -8  728.03   41.60 
  -1  -5  -8  815.62   43.80 
  -1  -5  -8  720.33   42.60 
  -1  -5  -8  731.93   40.30 
   1   5   8  753.92   42.00 
   1   5   8  720.93   43.50 
   1   5   8  770.92   42.00 
   1   5   8  762.52   42.10 
   1   5   8  734.33   41.20 
   1   5   8  779.72   43.50 
   1   5   8  711.53   41.70 
  -2  -5  -8  339.07   20.90 
  -2  -5  -8  354.76   23.00 
  -2  -5  -8  378.96   24.60 
   2   5   8  317.27   24.10 
   2   5   8  366.56   23.10 
   2   5   8  354.66   22.10 
   2   5   8  378.66   22.60 
   2   5   8  351.66   30.80 
   2   5   8  367.46   23.10 
   2   5   8  372.56   23.20 
   2   5   8  368.16   24.30 
  -3  -5  -8  793.22   42.20 
   3   5   8  625.94   49.00 
   3   5   8  752.32   42.30 
   3   5   8  742.43   41.30 
   3   5   8  748.13   42.40 
   3   5   8  748.33   40.60 
   3   5   8  763.72   43.70 
   3   5   8  759.02   42.20 
  -4  -5  -8  257.97   16.90 
   4   5   8  282.07   17.50 
   4   5   8  290.47   16.90 
   4   5   8  268.07   17.30 
   4   5   8  242.38   17.70 
   4   5   8  263.87   22.50 
   4   5   8  294.37   17.80 
   5   5   8   26.10    3.60 
   5   5   8   27.60    2.80 
   5   5   8   21.60    3.00 
   3  -6  -8   74.69    6.50 
  -3   6   8   66.79    5.60 
  -3   6   8   62.39    6.90 
   2  -6  -8   50.59    7.60 
   2  -6  -8   75.09    7.70 
  -2   6   8   61.39    6.70 
  -2   6   8   71.49    6.20 
   1  -6  -8   41.50    5.80 
   1  -6  -8   16.70    4.50 
  -1   6   8   27.20    4.50 
  -1   6   8   27.40    5.20 
  -1   6   8   29.90    6.70 
   0   6   8  151.48   20.50 
   0   6   8  156.08   21.00 
  -1  -6  -8   83.79    9.20 
  -1  -6  -8   68.49    7.70 
  -1  -6  -8   86.09    6.90 
  -1  -6  -8   69.89    8.10 
   1   6   8   83.09   10.60 
   1   6   8   64.49    7.10 
   1   6   8   77.99    8.50 
   1   6   8   77.39   12.40 
   1   6   8   91.89    8.50 
   1   6   8   53.69    8.50 
   1   6   8   94.39    9.50 
   1   6   8   61.59    7.80 
  -2  -6  -8 1589.74   82.99 
  -2  -6  -8 1653.33   84.09 
  -2  -6  -8 1532.15   79.99 
   2   6   8 1425.46   83.99 
   2   6   8 1429.66   90.79 
   2   6   8 1549.54   81.09 
   2   6   8 1608.64   83.79 
   2   6   8 1585.74   81.29 
   2   6   8 1543.45   81.59 
   2   6   8 1548.55   81.89 
  -3  -6  -8   53.49    6.20 
   3   6   8   63.89    6.40 
   3   6   8   43.20    9.40 
   3   6   8   58.79    6.70 
   3   6   8   44.80    7.00 
   3   6   8   54.19    6.60 
   3   6   8   56.09    7.70 
  -4  -6  -8  136.09    8.90 
  -4  -6  -8  110.79    9.30 
   4   6   8  135.09    9.50 
   4   6   8  131.29    9.70 
   4   6   8  108.39   10.90 
   4   6   8  128.89    9.50 
   4   6   8  134.69    9.20 
   2  -7  -8   59.09    6.60 
  -2   7   8   42.20    6.00 
  -2   7   8   60.59    7.70 
   1  -7  -8  108.49    9.80 
   1  -7  -8  124.39   16.70 
  -1   7   8  139.09   10.60 
   0  -7  -8   14.80    4.40 
   0  -7  -8   16.20    2.90 
   0   7   8   16.70    4.40 
   0   7   8    8.60    4.80 
   0   7   8   11.90    2.90 
   0   7   8    8.40    4.90 
  -1  -7  -8  236.18   14.30 
  -1  -7  -8  211.58   16.20 
  -1  -7  -8  233.08   16.30 
   1   7   8  222.38   15.00 
   1   7   8  228.68   15.80 
   1   7   8  256.17   23.80 
   1   7   8  224.38   15.00 
   1   7   8  242.78   17.30 
   1   7   8  191.38   15.30 
   1   7   8  223.08   14.90 
   1   7   8  237.08   15.00 
  -2  -7  -8  276.87   16.40 
  -2  -7  -8  234.98   18.10 
  -2  -7  -8  270.97   17.80 
   2   7   8  266.57   17.60 
   2   7   8  266.77   18.90 
   2   7   8  286.37   17.40 
   2   7   8  282.87   25.00 
   2   7   8  281.97   17.50 
   2   7   8  254.07   16.90 
   2   7   8  258.17   17.50 
  -3  -7  -8  351.16   23.40 
  -3  -7  -8  344.77   21.30 
   3   7   8  379.66   22.80 
   3   7   8  397.46   24.30 
   3   7   8  389.06   29.10 
   3   7   8  390.36   22.20 
   3   7   8  388.96   22.70 
   3   7   8  384.16   23.00 
  -4  -7  -8   38.30    6.20 
   4   7   8   58.29    4.80 
   4   7   8   57.29    5.10 
   4   7   8   52.89    5.00 
   4   7   8   58.99    5.90 
   2  -8  -8  163.58   10.20 
   2  -8  -8  175.08   11.90 
  -2   8   8  152.18   10.40 
   1  -8  -8    6.40    3.00 
   1  -8  -8    3.50    4.80 
  -1   8   8    3.50    1.80 
  -1   8   8    2.60    2.00 
   0  -8  -8  145.49   18.20 
   0  -8  -8  170.98   13.10 
   0   8   8  148.29   16.80 
   0   8   8  150.08   11.30 
   0   8   8  164.78   13.00 
  -1  -8  -8  111.89   10.20 
   1   8   8  102.49    8.70 
   1   8   8   98.29    7.80 
   1   8   8   78.29   18.60 
   1   8   8  110.79    8.40 
  -2  -8  -8   63.29    6.20 
  -2  -8  -8   65.59    5.50 
  -2  -8  -8   55.29    6.50 
   2   8   8   59.49    5.80 
   2   8   8   63.49    6.20 
   2   8   8   58.89    5.80 
   2   8   8   43.30    9.30 
   2   8   8   49.99    6.40 
   2   8   8   45.60    5.40 
   2   8   8   70.19    7.60 
  -3  -8  -8    2.80    1.70 
   3   8   8    0.60    2.00 
   3   8   8    2.00    2.20 
   3   8   8    5.60    1.90 
   3   8   8    8.80    3.00 
   3   8   8    3.60    4.20 
   3   8   8    3.80    1.80 
   1  -9  -8    9.60    2.90 
   1  -9  -8    4.70    4.30 
  -1   9   8    4.20    1.90 
   0  -9  -8   12.60    5.60 
   0  -9  -8   17.50    3.80 
   0   9   8   12.60    3.40 
  -1  -9  -8   29.00    7.80 
   1   9   8   29.10    5.10 
   1   9   8   34.30    5.90 
   1   9   8   38.30    4.00 
   1   9   8   26.60    3.50 
   1   9   8   21.20    6.90 
  -2  -9  -8   50.19    4.30 
  -2  -9  -8   46.40   10.00 
   2   9   8   43.90    4.90 
   2   9   8   45.70    4.10 
   2   9   8   51.19    4.30 
   2   9   8   44.30    4.70 
   2   9   8   45.80    9.20 
  -3  -9  -8   24.80    2.90 
   3   9   8   23.70    3.40 
   3   9   8   26.80    4.00 
   3   9   8   19.90    2.90 
   0 -10  -8   13.30    6.60 
   0 -10  -8   30.00    5.00 
   0  10   8   22.90    4.10 
   0  10   8   26.10    5.00 
  -1 -10  -8    1.60    2.50 
   1  10   8    3.60    1.80 
   1  10   8    2.90    1.70 
  -2 -10  -8    6.90    5.10 
   2  10   8   11.20    4.60 
   0   8  -9   20.30    3.40 
   0  -8   9   24.40    5.80 
  -1   8  -9   20.70    3.60 
   1  -8   9   22.60    3.80 
   1  -8   9   16.70    3.70 
  -2   8  -9    3.80    3.10 
   2  -8   9    0.90    2.30 
   1   7  -9   94.79   10.20 
  -1  -7   9  121.09    8.70 
   0   7  -9   20.80    3.70 
   0   7  -9   17.10    3.60 
   0  -7   9   28.60    5.30 
  -1   7  -9    6.50    2.10 
  -1   7  -9    2.80    2.70 
  -1   7  -9    4.70    2.20 
   1  -7   9    0.60    2.30 
  -2   7  -9   16.80    3.20 
  -2   7  -9   20.20    3.30 
   2  -7   9   13.50    4.90 
  -3   7  -9   12.40    3.80 
   3  -7   9   12.50    4.80 
   3  -7   9   16.30    4.10 
   2   6  -9   13.90    2.50 
   2   6  -9   11.00    3.50 
  -2  -6   9   13.50    2.30 
  -2  -6   9   14.60    2.70 
   1   6  -9    3.80    2.80 
   1   6  -9    4.30    2.70 
  -1  -6   9    5.50    2.50 
  -1  -6   9    3.10    1.70 
  -1  -6   9    4.80    2.40 
   0   6  -9  153.18   12.10 
   0  -6   9  153.58   12.40 
   0  -6   9  154.48   12.50 
   0  -6   9  156.28   11.80 
  -1   6  -9  119.29   12.30 
  -1   6  -9   97.69   13.30 
  -1   6  -9  109.89    9.50 
  -1   6  -9  116.49    8.70 
   1  -6   9  120.39   12.00 
   1  -6   9  119.19    9.70 
   1  -6   9  121.79   10.80 
  -2   6  -9    2.90    3.70 
  -2   6  -9    0.70    2.70 
  -2   6  -9    1.90    1.50 
   2  -6   9    1.90    3.30 
   2  -6   9    6.60    3.20 
   2  -6   9   -3.30    2.90 
   2  -6   9   -1.60    2.50 
   2  -6   9   -1.10    1.80 
  -3   6  -9   78.29    7.40 
  -3   6  -9   73.69    5.70 
  -3   6  -9   76.09   11.40 
   3  -6   9   55.69   12.10 
   3  -6   9   60.79    5.80 
   3  -6   9   66.79   11.50 
   3  -6   9   68.59    9.90 
   3  -6   9   71.99    5.80 
   2   5  -9   43.20    8.00 
   2   5  -9   51.59    5.80 
  -2  -5   9   62.49    5.10 
  -2  -5   9   72.29    6.10 
   1   5  -9   15.10    5.70 
   1   5  -9   25.60    4.80 
   1   5  -9   19.50    4.10 
  -1  -5   9   18.20    4.30 
  -1  -5   9   15.30    2.70 
  -1  -5   9   18.60    4.50 
   0   5  -9   64.59    6.60 
   0   5  -9   84.69   12.00 
   0   5  -9   76.19   12.10 
   0   5  -9   67.79    7.90 
   0  -5   9   64.99    7.90 
   0  -5   9   79.39    8.80 
   0  -5   9   71.29    9.30 
  -1   5  -9   64.89    7.70 
  -1   5  -9   86.69   12.50 
  -1   5  -9   63.09    6.70 
  -1   5  -9   70.89    5.50 
   1  -5   9   78.99    8.10 
   1  -5   9   82.49    8.80 
   1  -5   9   63.59    6.60 
   1  -5   9   74.39   11.40 
   1  -5   9   68.59    9.40 
  -2   5  -9   44.30    4.80 
  -2   5  -9   41.50    6.60 
  -2   5  -9   45.20    5.30 
  -2   5  -9   45.30    9.20 
   2  -5   9   44.00    8.50 
   2  -5   9   37.10    6.10 
   2  -5   9   47.20    7.70 
   2  -5   9   38.30   13.50 
  -3   5  -9   37.60    5.30 
  -3   5  -9   47.30    6.00 
   3  -5   9   41.70    5.40 
   3  -5   9   51.89    7.80 
   3  -5   9   45.90   10.80 
   3  -5   9   50.89    5.60 
   3  -5   9   48.70    8.40 
   4  -5   9   18.80    3.50 
   4  -5   9   10.80    5.40 
   4  -5   9   11.50    3.60 
   2   4  -9   67.39   10.40 
   2   4  -9   56.79    6.80 
   2   4  -9   52.99    6.30 
  -2  -4   9   67.79    7.30 
  -2  -4   9   73.69    5.90 
  -2  -4   9   64.49    6.70 
   1   4  -9   25.20    5.50 
   1   4  -9   18.80    7.20 
   1   4  -9   22.10    4.90 
   1   4  -9   20.50    3.90 
  -1  -4   9   33.50    5.80 
  -1  -4   9   26.50    5.10 
  -1  -4   9   31.60    4.50 
   0   4  -9  111.19   15.30 
   0   4  -9  121.99   11.40 
   0   4  -9  133.09   12.30 
   0   4  -9  125.19   10.10 
   0   4  -9  137.99   10.30 
   0  -4   9  127.89   11.30 
   0  -4   9  121.49    9.50 
   0  -4   9  120.59   11.90 
   0  -4   9  128.39    9.40 
   0  -4   9  119.79   11.80 
  -1   4  -9   52.69    5.30 
  -1   4  -9   55.69    7.60 
  -1   4  -9   51.29    9.40 
  -1   4  -9   45.80    9.90 
   1  -4   9   51.59    7.40 
   1  -4   9   49.10    6.20 
   1  -4   9   45.90    7.90 
   1  -4   9   47.10    9.20 
  -2   4  -9   23.00    4.60 
  -2   4  -9   37.90    9.00 
  -2   4  -9   32.40    4.90 
  -2   4  -9   25.40    4.80 
  -2   4  -9   36.70    4.60 
   2  -4   9   23.80    5.80 
   2  -4   9   33.80    6.70 
   2  -4   9   26.50    5.10 
   2  -4   9   35.40    8.00 
   2  -4   9   34.30   10.40 
   2  -4   9   39.00    5.40 
   2  -4   9   36.60    5.70 
  -3   4  -9  195.58   13.40 
  -3   4  -9  203.28   14.00 
  -3   4  -9  179.88   14.20 
  -3   4  -9  210.98   16.40 
   3  -4   9  234.58   19.70 
   3  -4   9  216.18   20.60 
   3  -4   9  194.98   15.00 
   3  -4   9  229.68   21.80 
  -4   4  -9   11.10    3.30 
  -4   4  -9   16.70    2.80 
   4  -4   9   17.20    4.80 
   4  -4   9   17.60    6.50 
   4  -4   9   24.30    3.70 
   4  -4   9   16.80    4.40 
   4  -4   9   21.10    4.80 
   3   3  -9    6.70    3.40 
   2   3  -9    6.00    3.60 
   2   3  -9   10.30    4.30 
   2   3  -9    4.40    4.60 
  -2  -3   9    9.20    2.30 
  -2  -3   9    8.30    3.30 
  -2  -3   9    8.60    2.80 
   1   3  -9    9.00    3.60 
   1   3  -9   -2.00    2.50 
   1   3  -9    1.00    2.60 
   1   3  -9   -0.60    3.20 
  -1  -3   9   -1.40    2.60 
  -1  -3   9   -0.40    1.80 
  -1  -3   9   -3.60    1.90 
   0   3  -9  102.29   10.20 
   0   3  -9   87.49    8.50 
   0   3  -9  109.69   17.70 
   0  -3   9  106.29    9.90 
  -1   3  -9  390.46   24.90 
  -1   3  -9  370.06   23.10 
  -1   3  -9  381.06   21.00 
  -1   3  -9  328.67   22.70 
  -1   3  -9  351.46   21.60 
  -1   3  -9  344.37   29.20 
   1  -3   9  369.76   22.00 
   1  -3   9  344.57   24.70 
   1  -3   9  345.87   24.20 
   1  -3   9  354.76   21.30 
   1  -3   9  378.46   23.60 
   1  -3   9  338.97   28.80 
  -2   3  -9   37.30    5.30 
  -2   3  -9   38.20    5.70 
  -2   3  -9   53.29    9.60 
  -2   3  -9   50.39    5.80 
  -2   3  -9   46.10    7.60 
  -2   3  -9   43.60    6.00 
  -2   3  -9   42.60    6.30 
   2  -3   9   57.09    9.50 
   2  -3   9   32.50    5.30 
   2  -3   9   44.50    9.70 
   2  -3   9   42.60    8.20 
   2  -3   9   53.69   11.10 
   2  -3   9   52.79    6.50 
   2  -3   9   28.00    8.40 
  -3   3  -9  297.17   16.90 
  -3   3  -9  275.97   18.70 
  -3   3  -9  271.87   17.80 
  -3   3  -9  257.87   16.90 
   3  -3   9  258.97   22.50 
   3  -3   9  297.97   18.10 
   3  -3   9  288.77   19.10 
   3  -3   9  310.07   21.70 
   3  -3   9  293.97   19.80 
   3  -3   9  246.28   28.50 
  -4   3  -9  230.58   15.40 
  -4   3  -9  235.68   16.30 
   4  -3   9  241.88   16.90 
   4  -3   9  215.08   17.90 
   4  -3   9  245.08   14.90 
   4  -3   9  233.88   15.60 
   3   2  -9   14.30    5.00 
  -3  -2   9   14.70    2.90 
  -3  -2   9   17.60    2.90 
   2   2  -9   66.69   12.90 
   2   2  -9   67.39    7.20 
   2   2  -9   75.39    9.30 
   2   2  -9   78.19    8.20 
   2   2  -9   69.09    8.40 
  -2  -2   9   83.09    7.20 
  -2  -2   9   77.29    9.20 
  -2  -2   9   88.99   10.00 
  -2  -2   9  101.29   10.60 
   1   2  -9   46.50    7.90 
   1   2  -9   44.50   10.30 
   1   2  -9   56.59    6.90 
   1   2  -9   55.19   12.00 
  -1  -2   9   57.39    9.90 
  -1  -2   9   50.99    6.80 
  -1  -2   9   50.69    5.80 
   0   2  -9  105.49   14.10 
   0   2  -9   84.19    8.10 
   0   2  -9   85.89    9.20 
   0   2  -9   87.39   10.50 
   0   2  -9   97.39    6.90 
   0   2  -9   98.79    9.20 
   0  -2   9   82.39    9.30 
   0  -2   9   80.59    8.20 
   0  -2   9   81.29    8.00 
   0  -2   9   93.59    9.10 
  -1   2  -9   -1.70    1.70 
  -1   2  -9    2.40    3.90 
  -1   2  -9    8.70    3.30 
  -1   2  -9    2.70    2.10 
  -1   2  -9   -1.00    1.70 
   1  -2   9    3.80    3.10 
   1  -2   9    5.70    2.70 
   1  -2   9   -0.70    2.40 
   1  -2   9    2.30    2.60 
   1  -2   9    1.90    3.80 
   1  -2   9    4.60    2.50 
   1  -2   9    1.80    2.50 
   1  -2   9    4.30    6.50 
   1  -2   9    8.50    3.80 
  -2   2  -9  135.39   11.70 
  -2   2  -9  132.39   11.10 
  -2   2  -9  141.89    9.80 
  -2   2  -9  113.99    9.90 
  -2   2  -9  105.59   14.40 
   2  -2   9  115.99   12.20 
   2  -2   9  128.99   14.60 
   2  -2   9  165.08   20.70 
   2  -2   9  133.69   11.70 
   2  -2   9  134.19   11.00 
   2  -2   9  127.29   10.50 
   2  -2   9  122.29   10.40 
   2  -2   9  120.89   12.70 
  -3   2  -9  135.99   10.50 
  -3   2  -9  118.49    9.50 
  -3   2  -9  131.59    9.40 
  -3   2  -9  130.39   11.00 
   3  -2   9  152.78   15.10 
   3  -2   9  149.19   12.00 
   3  -2   9  161.18   12.80 
   3  -2   9  122.49   11.70 
   3  -2   9  145.19   11.00 
   3  -2   9  131.39   12.90 
  -4   2  -9   29.80    4.80 
  -4   2  -9   30.80    4.60 
  -4   2  -9   37.00    4.00 
   4  -2   9   37.10    5.60 
   4  -2   9   45.30    6.50 
   4  -2   9   29.10    5.10 
   4  -2   9   25.50    8.90 
   4  -2   9   27.90    6.40 
   5  -2   9    2.50    3.30 
   5  -2   9    6.40    2.10 
   3   1  -9    9.10    2.60 
   3   1  -9   10.50    4.20 
  -3  -1   9   12.80    2.20 
  -3  -1   9    9.80    2.30 
   2   1  -9  115.69   12.00 
   2   1  -9  119.79    9.50 
   2   1  -9  108.39   15.40 
   2   1  -9  110.79   11.00 
  -2  -1   9  101.89   13.20 
  -2  -1   9  118.99    9.10 
   1   1  -9  174.18   13.90 
   1   1  -9  213.48   23.90 
   1   1  -9  160.68   12.50 
   1   1  -9  158.68   17.70 
  -1  -1   9  175.28   13.40 
   0   1  -9  186.18   15.10 
   0   1  -9  185.98   13.00 
   0   1  -9  173.28   13.70 
   0   1  -9  198.68   14.40 
   0   1  -9  188.78   11.70 
   0   1  -9  204.68   20.20 
   0  -1   9  179.18   12.80 
   0  -1   9  166.18   14.30 
   0  -1   9  186.38   14.20 
   0  -1   9  176.08   13.50 
  -1   1  -9   70.59    6.60 
  -1   1  -9   73.39    8.30 
  -1   1  -9   78.19   11.20 
  -1   1  -9   61.39    6.30 
  -1   1  -9   66.09    7.60 
  -1   1  -9   55.99    6.90 
   1  -1   9   61.09    8.60 
   1  -1   9   64.89    6.70 
   1  -1   9   65.39    7.60 
   1  -1   9   58.09    8.80 
   1  -1   9   64.69   14.00 
   1  -1   9   69.69    8.40 
   1  -1   9   72.49   11.00 
   1  -1   9   69.39    7.50 
   1  -1   9   74.29    7.70 
  -2   1  -9   16.60    3.30 
  -2   1  -9   17.30    4.50 
  -2   1  -9   15.10    5.50 
  -2   1  -9   20.80    3.90 
  -2   1  -9   23.20    4.40 
  -2   1  -9   20.90    3.80 
   2  -1   9   29.70    6.60 
   2  -1   9   24.70    5.50 
   2  -1   9   21.50    6.90 
   2  -1   9   27.10    5.30 
   2  -1   9   27.30    9.40 
   2  -1   9   22.10    4.30 
   2  -1   9   33.00    5.40 
   2  -1   9   25.30    4.90 
   2  -1   9   21.90    4.40 
  -3   1  -9   43.50    7.20 
  -3   1  -9   43.00    6.40 
  -3   1  -9   33.30    6.60 
  -3   1  -9   42.90    5.90 
   3  -1   9   37.00    8.10 
   3  -1   9   47.90    7.40 
   3  -1   9   46.40    6.30 
   3  -1   9   60.29   10.50 
   3  -1   9   35.90    5.90 
   3  -1   9   38.60   11.40 
   3  -1   9   48.20    7.40 
   3  -1   9   40.90    5.90 
  -4   1  -9   -0.20    1.50 
   4  -1   9   -1.90    2.60 
   4  -1   9    2.50    4.00 
   4  -1   9   -0.70    2.00 
   4  -1   9    2.50    2.60 
   5  -1   9   83.49    6.30 
   5  -1   9   73.19    9.90 
   5  -1   9   69.39    6.60 
   5  -1   9   77.79    6.20 
   3   0  -9  126.39   14.70 
   3   0  -9  133.69   13.40 
   3   0  -9  127.39    9.80 
  -3   0   9  141.99    9.00 
  -3   0   9  154.98   12.40 
   2   0  -9  377.66   24.90 
   2   0  -9  342.77   30.70 
   2   0  -9  401.96   23.90 
   2   0  -9  428.46   25.80 
   2   0  -9  404.76   24.50 
  -2   0   9  404.16   23.80 
  -2   0   9  417.96   23.40 
   1   0  -9  493.75   30.50 
   1   0  -9  546.55   33.30 
   1   0  -9  500.65   38.60 
   1   0  -9  387.46   28.00 
   1   0  -9  456.15   27.60 
  -1   0   9  456.95   28.40 
  -1   0   9  496.75   27.70 
  -1   0   9  401.16   30.60 
  -1   0   9  534.45   29.60 
   0   0  -9  117.49   14.20 
   0   0  -9  132.59   11.30 
   0   0  -9   99.59    8.20 
   0   0  -9  108.29   10.70 
   0   0  -9   97.89    9.40 
   0   0  -9  101.69    8.10 
   0   0   9  123.09   10.40 
   0   0   9   97.69    8.70 
   0   0   9  104.29   10.40 
   0   0   9  109.69    9.90 
   0   0   9  120.39    9.90 
  -1   0  -9   61.59    7.10 
  -1   0  -9   61.29    5.40 
  -1   0  -9   60.89    6.30 
  -1   0  -9   65.79   10.70 
  -1   0  -9   67.79    8.10 
   1   0   9   56.09    7.10 
   1   0   9   72.59    8.30 
   1   0   9   60.49    7.40 
   1   0   9   69.49   17.90 
   1   0   9   68.29    8.90 
   1   0   9   51.59    7.80 
  -2   0  -9   81.19    6.30 
  -2   0  -9   61.59    6.50 
  -2   0  -9   72.39    7.60 
  -2   0  -9   65.39    6.50 
  -2   0  -9   75.49    8.70 
   2   0   9   64.09    7.50 
   2   0   9   75.79    8.20 
   2   0   9   76.99    7.60 
   2   0   9   75.49    8.90 
   2   0   9   95.39    8.00 
   2   0   9   84.09    9.50 
   2   0   9   81.49   14.50 
   2   0   9   72.99    7.90 
  -3   0  -9   38.20    5.70 
  -3   0  -9   27.90    4.50 
   3   0   9   19.80    5.80 
   3   0   9   30.30   10.30 
   3   0   9   31.80    5.40 
   3   0   9   27.80    7.40 
   3   0   9   18.10    4.90 
   3   0   9   37.90    5.60 
   3   0   9   23.00    4.80 
   3   0   9   27.30    6.20 
  -4   0  -9  151.88   11.10 
   4   0   9  160.98   11.20 
   4   0   9  173.28   12.80 
   5   0   9  165.78   12.10 
   5   0   9  139.09    8.80 
   5   0   9  149.29    9.60 
   5   0   9  139.39   13.80 
   3  -1  -9  232.78   20.00 
   3  -1  -9  261.77   16.40 
  -3   1   9  263.47   14.70 
   2  -1  -9   71.99    9.00 
   2  -1  -9   63.29   10.60 
   2  -1  -9   69.49    6.80 
   2  -1  -9   66.49    8.40 
  -2   1   9   77.59    6.70 
  -2   1   9   78.59    7.50 
   1  -1  -9  508.75   36.80 
   1  -1  -9  424.36   27.80 
   1  -1  -9  493.95   32.50 
   1  -1  -9  540.55   31.80 
   1  -1  -9  442.16   27.00 
  -1   1   9  400.16   27.50 
  -1   1   9  489.25   28.50 
  -1   1   9  484.05   27.40 
   0  -1  -9  429.86   26.30 
   0  -1  -9  423.36   23.70 
   0  -1  -9  390.76   24.60 
   0  -1  -9  422.86   27.50 
   0  -1  -9  439.46   27.20 
   0  -1  -9  423.16   32.70 
   0   1   9  396.36   26.10 
   0   1   9  428.66   26.10 
   0   1   9  404.86   25.50 
   0   1   9  420.06   25.30 
   0   1   9  413.16   24.70 
   0   1   9  443.46   25.80 
  -1  -1  -9   94.69    9.20 
  -1  -1  -9  107.49    8.20 
  -1  -1  -9  100.39   10.10 
   1   1   9  110.59   11.90 
   1   1   9   99.09   11.00 
   1   1   9  111.49    8.80 
   1   1   9   94.89   10.00 
  -2  -1  -9  465.15   28.90 
  -2  -1  -9  475.15   27.80 
  -2  -1  -9  443.26   25.70 
   2   1   9  465.15   26.80 
   2   1   9  464.55   28.30 
   2   1   9  437.36   28.30 
   2   1   9  441.96   29.20 
   2   1   9  459.35   28.70 
   2   1   9  468.25   27.40 
   2   1   9  414.16   36.60 
   2   1   9  471.85   27.30 
  -3  -1  -9  136.99   13.20 
  -3  -1  -9  145.09   11.10 
   3   1   9  175.88   22.10 
   3   1   9  133.39   13.40 
   3   1   9  119.09   11.90 
   3   1   9  161.08   17.50 
   3   1   9  177.58   15.40 
   3   1   9  136.79   12.00 
   3   1   9  124.89   12.40 
   3   1   9  156.08   12.30 
  -4  -1  -9   47.60    5.30 
   4   1   9   60.09    5.50 
   4   1   9   62.89    7.20 
   4   1   9   74.69    9.80 
   4   1   9   46.50    7.90 
   5   1   9    8.90    3.80 
   3  -2  -9  274.57   18.30 
   3  -2  -9  251.97   20.60 
  -3   2   9  337.17   17.30 
   2  -2  -9  107.79   12.50 
   2  -2  -9   92.59   14.30 
   2  -2  -9   87.99   10.00 
   2  -2  -9   88.49    8.50 
  -2   2   9   94.99    8.30 
   1  -2  -9  472.65   36.10 
   1  -2  -9  402.06   25.70 
   1  -2  -9  404.66   25.70 
  -1   2   9  450.75   26.00 
   0  -2  -9  229.88   14.10 
   0  -2  -9  215.78   16.50 
   0  -2  -9  237.08   16.30 
   0   2   9  224.48   15.80 
   0   2   9  229.78   16.10 
   0   2   9  229.08   14.90 
   0   2   9  226.78   15.80 
   0   2   9  233.98   15.80 
   0   2   9  214.48   15.50 
   0   2   9  206.88   15.60 
  -1  -2  -9   52.29    5.70 
  -1  -2  -9   44.00    6.10 
  -1  -2  -9   55.39    7.10 
   1   2   9   56.99    8.90 
   1   2   9   54.99   11.00 
   1   2   9   52.59    7.20 
   1   2   9   47.50    6.40 
   1   2   9   54.59    6.40 
   1   2   9   54.89    6.00 
   1   2   9   46.50    6.80 
   1   2   9   51.39    6.60 
  -2  -2  -9  306.17   19.80 
  -2  -2  -9  278.67   17.80 
  -2  -2  -9  319.37   21.40 
   2   2   9  294.17   19.10 
   2   2   9  299.77   21.00 
   2   2   9  330.67   19.10 
   2   2   9  304.67   20.40 
   2   2   9  321.97   29.20 
   2   2   9  278.97   20.30 
   2   2   9  304.07   19.50 
   2   2   9  255.37   20.00 
  -3  -2  -9  690.33   38.90 
  -3  -2  -9  637.34   36.50 
   3   2   9  589.94   37.80 
   3   2   9  632.44   35.10 
   3   2   9  618.94   38.10 
   3   2   9  666.53   36.60 
   3   2   9  666.93   36.50 
   3   2   9  597.74   41.40 
   3   2   9  647.74   37.60 
  -4  -2  -9   30.80    5.30 
   4   2   9   27.00    5.10 
   4   2   9   33.40    6.10 
   4   2   9   27.10    4.70 
   4   2   9   33.50    5.00 
   4   2   9   28.70    5.30 
   4   2   9   29.80    4.00 
   4   2   9   20.70    7.20 
   5   2   9    4.20    2.00 
   3  -3  -9   11.90    3.10 
   3  -3  -9    3.40    2.60 
  -3   3   9   10.00    2.70 
  -3   3   9    7.10    1.70 
   2  -3  -9   14.20    4.90 
  -2   3   9   11.80    2.50 
  -2   3   9   12.50    2.90 
   1  -3  -9  116.99   11.30 
   1  -3  -9  127.69   11.30 
  -1   3   9  124.39   10.60 
  -1   3   9  123.09   10.30 
  -1   3   9  116.69    9.30 
   0  -3  -9  148.19    9.90 
   0  -3  -9  151.88   12.70 
   0  -3  -9  139.19   11.80 
   0   3   9  142.99   11.70 
   0   3   9  148.19   10.70 
   0   3   9  143.49   11.40 
   0   3   9  132.99   11.60 
   0   3   9  136.39   11.60 
   0   3   9  124.89   11.10 
   0   3   9  150.18   11.60 
  -1  -3  -9 1149.19   62.29 
  -1  -3  -9 1237.58   65.99 
  -1  -3  -9 1204.38   63.99 
  -1  -3  -9 1178.58   64.89 
   1   3   9 1223.58   65.19 
   1   3   9 1182.08   64.79 
   1   3   9 1190.38   64.69 
   1   3   9 1221.78   63.59 
   1   3   9 1202.58   64.09 
   1   3   9 1172.18   63.39 
   1   3   9 1104.39   65.09 
   1   3   9 1268.77   65.09 
  -2  -3  -9  333.37   20.00 
  -2  -3  -9  359.56   23.70 
  -2  -3  -9  334.97   21.80 
   2   3   9  342.67   22.80 
   2   3   9  329.97   23.00 
   2   3   9  303.07   22.60 
   2   3   9  356.96   21.50 
   2   3   9  347.47   21.70 
   2   3   9  353.56   22.40 
   2   3   9  364.06   20.90 
   2   3   9  311.37   29.70 
   2   3   9  355.06   22.60 
  -3  -3  -9  257.37   16.70 
   3   3   9  232.78   17.50 
   3   3   9  257.97   16.70 
   3   3   9  261.77   16.90 
   3   3   9  259.07   18.20 
   3   3   9  223.58   24.10 
   3   3   9  255.57   17.60 
   3   3   9  243.48   15.70 
  -4  -3  -9   70.59    6.70 
   4   3   9   83.99    7.90 
   4   3   9   84.09    7.10 
   4   3   9   80.09   12.10 
   4   3   9   80.19    8.10 
   4   3   9   94.09    8.30 
   4   3   9   84.09    7.10 
   5   3   9   35.20    3.60 
   5   3   9   27.90    4.20 
   3  -4  -9   99.49    8.80 
  -3   4   9  110.69    9.00 
  -3   4   9  132.79    8.60 
   2  -4  -9    3.30    2.80 
   2  -4  -9   -1.70    3.10 
  -2   4   9    0.80    1.60 
  -2   4   9   -0.10    1.70 
  -2   4   9    3.50    2.30 
   1  -4  -9  764.12   43.60 
   1  -4  -9  763.52   43.40 
  -1   4   9  728.43   41.10 
  -1   4   9  788.52   42.90 
   0  -4  -9  233.18   16.50 
   0  -4  -9  221.18   13.60 
   0  -4  -9  258.17   18.20 
   0  -4  -9  213.38   15.70 
   0   4   9  218.08   16.40 
   0   4   9  221.68   15.30 
   0   4   9  213.98   22.90 
   0   4   9  221.18   15.10 
   0   4   9  223.68   16.50 
   0   4   9  224.58   16.30 
  -1  -4  -9  344.27   22.80 
  -1  -4  -9  336.07   20.90 
  -1  -4  -9  333.87   19.80 
  -1  -4  -9  329.57   21.90 
   1   4   9  340.57   21.20 
   1   4   9  319.77   20.60 
   1   4   9  350.76   21.40 
   1   4   9  337.07   22.30 
   1   4   9  337.57   21.50 
   1   4   9  337.97   21.50 
   1   4   9  327.37   20.50 
   1   4   9  293.77   22.20 
  -2  -4  -9 1413.96   73.49 
  -2  -4  -9 1337.87   79.69 
  -2  -4  -9 1231.68   71.59 
   2   4   9 1381.16   89.89 
   2   4   9 1341.17   71.99 
   2   4   9 1346.67   75.99 
  -3  -4  -9   19.40    3.80 
  -3  -4  -9   16.00    3.50 
   3   4   9   13.60    5.00 
   3   4   9   16.40    4.00 
   3   4   9   17.40    7.10 
   3   4   9   16.00    3.50 
   3   4   9   16.40    4.40 
   3   4   9   13.80    3.80 
   3   4   9   18.10    4.60 
  -4  -4  -9   88.39    7.90 
   4   4   9  116.79    8.30 
   4   4   9   86.09   12.00 
   4   4   9  103.79    8.90 
   4   4   9  109.69    8.80 
   4   4   9  118.79    9.50 
   4   4   9  118.49    9.30 
   2  -5  -9   47.30    6.10 
  -2   5   9   44.10    5.50 
  -2   5   9   43.90    5.40 
   1  -5  -9  121.59   10.90 
   1  -5  -9  118.89   11.20 
  -1   5   9  129.89   12.30 
  -1   5   9  123.49   10.60 
   0  -5  -9  206.18   15.60 
   0  -5  -9  206.18   14.60 
   0  -5  -9  191.38   12.30 
   0   5   9  206.98   20.20 
   0   5   9  217.28   15.30 
   0   5   9  222.18   14.10 
   0   5   9  202.28   19.00 
   0   5   9  206.38   13.90 
   0   5   9  198.48   15.20 
  -1  -5  -9   55.59    6.00 
  -1  -5  -9   61.89    8.30 
  -1  -5  -9   60.39    7.10 
  -1  -5  -9   57.79    7.00 
   1   5   9   81.79    8.30 
   1   5   9   56.89    7.90 
   1   5   9   84.39   12.20 
   1   5   9   61.39    7.90 
   1   5   9   71.69    9.30 
   1   5   9   71.69    7.10 
   1   5   9   61.29    6.60 
   1   5   9   62.29    7.70 
  -2  -5  -9   49.10    6.40 
  -2  -5  -9   41.00    5.30 
   2   5   9   60.19    6.50 
   2   5   9   52.79    6.80 
   2   5   9   50.29   11.10 
   2   5   9   51.49    6.80 
   2   5   9   49.30    6.40 
   2   5   9   50.29    6.60 
   2   5   9   37.40    6.90 
  -3  -5  -9  627.64   35.40 
  -3  -5  -9  614.94   33.20 
   3   5   9  566.54   42.50 
   3   5   9  655.73   35.60 
   3   5   9  626.44   35.30 
   3   5   9  628.64   35.40 
   3   5   9  521.85   36.70 
   3   5   9  638.54   34.50 
  -4  -5  -9   45.20    5.00 
  -4  -5  -9   55.09    5.10 
   4   5   9   46.90    5.40 
   4   5   9   63.39    7.00 
   4   5   9   50.09    5.70 
   4   5   9   40.00    8.20 
   4   5   9   54.09    5.80 
   2  -6  -9   32.30    5.20 
   2  -6  -9   39.10    5.20 
  -2   6   9   37.50    3.90 
   1  -6  -9   74.09    8.10 
   1  -6  -9   63.79    7.50 
  -1   6   9   76.29    7.50 
  -1   6   9   63.39    6.00 
  -1   6   9   64.99    6.10 
   0  -6  -9   22.90    4.90 
   0  -6  -9   31.20    3.80 
   0  -6  -9   24.60    4.70 
   0   6   9   26.30    4.20 
   0   6   9   23.00    4.90 
   0   6   9   25.90    5.10 
   0   6   9   23.30    6.70 
  -1  -6  -9  609.34   35.70 
  -1  -6  -9  563.14   35.60 
  -1  -6  -9  638.84   33.30 
   1   6   9  624.34   35.30 
   1   6   9  607.84   36.20 
   1   6   9  562.64   33.80 
   1   6   9  624.14   34.00 
   1   6   9  701.43   44.70 
   1   6   9  572.94   34.20 
   1   6   9  600.34   34.30 
  -2  -6  -9   47.80    6.30 
  -2  -6  -9   56.79    5.50 
   2   6   9   58.89    6.80 
   2   6   9   62.39    6.50 
   2   6   9   45.50    6.10 
   2   6   9   56.29    6.30 
   2   6   9   45.30   10.40 
   2   6   9   58.09    7.50 
   2   6   9   61.09    6.50 
  -3  -6  -9  120.39   10.40 
  -3  -6  -9  116.49    8.80 
   3   6   9  146.89   11.50 
   3   6   9  135.89   10.70 
   3   6   9  137.29   10.70 
   3   6   9  136.69    9.80 
   3   6   9  141.39   10.70 
   3   6   9  112.59   14.60 
   3   6   9  132.19    9.40 
  -4  -6  -9   39.30    4.90 
   4   6   9   46.90    5.10 
   4   6   9   41.30    4.40 
   4   6   9   31.20    4.30 
   4   6   9   32.10    3.80 
   2  -7  -9  115.29   10.30 
  -2   7   9  104.99    8.10 
  -2   7   9  109.29    7.20 
   1  -7  -9   46.90    5.90 
   1  -7  -9   43.70    6.10 
  -1   7   9   40.80    5.70 
  -1   7   9   37.70    5.30 
   0  -7  -9   16.80    6.50 
   0   7   9   15.20    3.40 
   0   7   9   10.80    5.20 
   1   7   9   87.19    7.90 
   1   7   9   90.39    9.20 
   1   7   9   93.39    7.50 
   1   7   9   83.59   13.30 
  -2  -7  -9   50.39    6.30 
  -2  -7  -9   60.09    6.50 
  -2  -7  -9   66.59    5.70 
   2   7   9   54.69   10.00 
   2   7   9   58.69    6.20 
   2   7   9   53.39    6.80 
   2   7   9   59.09    6.00 
   2   7   9   51.59    5.90 
   2   7   9   55.29    5.80 
   2   7   9   60.99    5.50 
  -3  -7  -9  271.67   16.20 
  -3  -7  -9  230.78   17.20 
  -3  -7  -9  290.37   16.40 
   3   7   9  274.87   16.70 
   3   7   9  234.78   21.10 
   3   7   9  285.07   16.20 
   3   7   9  275.07   17.30 
   3   7   9  264.77   16.50 
   3   7   9  278.77   15.60 
  -4  -7  -9   20.70    2.60 
   4   7   9   21.30    4.00 
   1  -8  -9   60.99    6.10 
  -1   8   9   51.89    5.60 
  -1   8   9   40.80    5.90 
   0  -8  -9   57.99    6.40 
   0  -8  -9   33.10    8.20 
   0   8   9   49.70    5.00 
   0   8   9   35.90    7.30 
   0   8   9   48.20    6.10 
  -1  -8  -9   11.50    3.00 
  -1  -8  -9    4.10    4.80 
  -1  -8  -9   14.30    2.20 
   1   8   9   11.10    2.90 
   1   8   9    5.80    4.40 
   1   8   9   13.30    3.40 
  -2  -8  -9    6.80    1.90 
  -2  -8  -9    6.70    2.40 
   2   8   9    8.90    3.10 
   2   8   9    4.20    2.70 
   2   8   9    7.50    1.90 
   2   8   9    5.40    2.40 
   2   8   9    4.00    3.50 
  -3  -8  -9   39.50    3.70 
   3   8   9   33.80    3.60 
   3   8   9   41.70    4.70 
   3   8   9   36.50    4.10 
   3   8   9   28.70    3.60 
   0  -9  -9   16.20    5.30 
   0  -9  -9   24.80    3.80 
   0   9   9   21.10    3.30 
   0   9   9   26.70    3.90 
  -1  -9  -9   75.99    6.10 
  -1  -9  -9   59.19    9.60 
   1   9   9   54.39    8.30 
   1   9   9   73.79    6.60 
   1   9   9   53.09    5.10 
  -2  -9  -9   16.30    2.20 
   2   9   9   16.30    3.30 
   2   9   9   17.10    2.50 
   2   9   9   17.20    2.40 
   0   7 -10   26.30    5.70 
   0  -7  10   32.50    6.30 
   1  -7  10   22.50    4.50 
  -2   7 -10   14.00    4.50 
   1   6 -10   36.20    5.90 
  -1  -6  10   39.20    5.70 
   0   6 -10   45.30    8.10 
   0   6 -10   57.19    8.50 
   0  -6  10   69.49    7.10 
  -1   6 -10   16.80    4.80 
  -1   6 -10   11.20    4.70 
  -2   6 -10   22.10    5.50 
  -2   6 -10   13.00    3.80 
   2  -6  10   23.70    4.90 
   2  -6  10   26.50    4.30 
   2  -6  10   13.50    4.80 
  -3   6 -10    2.90    1.60 
  -3   6 -10    1.10    2.30 
   3  -6  10    1.40    1.80 
   3  -6  10    3.40    1.30 
   3  -6  10    5.10    2.20 
   3  -6  10    3.60    3.10 
   1   5 -10   10.50    3.40 
  -1  -5  10   13.20    2.40 
  -1  -5  10   12.80    3.60 
  -1  -5  10   15.00    3.70 
   0   5 -10   15.60    3.70 
   0   5 -10    7.10    4.30 
   0  -5  10   23.90    3.60 
   0  -5  10   23.80    4.80 
   0  -5  10   14.60    3.30 
  -1   5 -10   11.70    5.10 
  -1   5 -10    8.80    3.60 
  -1   5 -10    4.50    3.00 
   1  -5  10   10.30    3.20 
   1  -5  10   12.40    4.00 
   1  -5  10   10.60    3.00 
   1  -5  10    9.70    3.60 
  -2   5 -10   25.40    3.40 
  -2   5 -10   14.40    3.30 
  -2   5 -10   29.70    7.10 
   2  -5  10   26.60    6.70 
   2  -5  10   22.40    4.90 
   2  -5  10   31.00    5.40 
   2  -5  10   19.30    3.50 
   2  -5  10   18.50    7.10 
  -3   5 -10    7.70    3.90 
   3  -5  10   13.90    3.50 
   3  -5  10    6.80    4.10 
   3  -5  10   14.30    2.50 
   3  -5  10   13.70    2.50 
   2   4 -10   11.60    4.10 
  -2  -4  10   14.70    2.30 
   1   4 -10   20.00    6.00 
   1   4 -10   28.80    4.90 
  -1  -4  10   32.50    5.50 
  -1  -4  10   33.40    3.80 
  -1  -4  10   28.60    4.80 
   0   4 -10   -1.60    3.30 
   0   4 -10   -0.10    2.70 
   0   4 -10   -1.70    2.80 
   0  -4  10    1.20    3.00 
   0  -4  10    4.00    1.70 
   0  -4  10   -5.50    3.20 
   0  -4  10    2.80    2.10 
  -1   4 -10   13.30    3.30 
  -1   4 -10    6.30    2.20 
  -1   4 -10    9.10    5.20 
  -1   4 -10    2.80    2.90 
   1  -4  10    6.50    4.20 
   1  -4  10    1.90    2.50 
   1  -4  10   11.20    4.40 
   1  -4  10    8.60    3.00 
  -2   4 -10   14.90    3.40 
  -2   4 -10   18.30    6.00 
  -2   4 -10   10.70    5.20 
  -2   4 -10   12.40    3.20 
  -2   4 -10   20.80    3.60 
   2  -4  10   13.00    5.60 
   2  -4  10   10.70    3.30 
   2  -4  10   16.20    3.20 
   2  -4  10   20.40    3.60 
   2  -4  10   22.40    4.80 
   2  -4  10   15.10    4.70 
   2  -4  10   13.50    5.30 
  -3   4 -10   79.09   10.10 
  -3   4 -10   62.89    6.50 
  -3   4 -10   82.69    6.10 
  -3   4 -10   62.29    6.80 
   3  -4  10   62.19   12.20 
   3  -4  10   77.79    8.50 
   3  -4  10   76.69    9.60 
   3  -4  10   66.29    6.70 
   3  -4  10   93.99    7.90 
   3  -4  10   69.09    6.50 
  -4   4 -10   46.30    4.00 
  -4   4 -10   35.30    5.30 
   4  -4  10   44.20    6.60 
   4  -4  10   45.10    7.90 
   4  -4  10   47.20    4.70 
   4  -4  10   49.99    4.40 
   2   3 -10    4.90    3.40 
  -2  -3  10    3.10    1.70 
   1   3 -10   65.69   11.20 
   1   3 -10   60.19   10.10 
   1   3 -10   52.69    7.90 
  -1  -3  10   68.09    7.70 
  -1  -3  10   67.69    7.60 
  -1  -3  10   61.19    6.10 
   0   3 -10    3.10    3.00 
   0   3 -10   -1.60    3.30 
   0   3 -10    5.20    2.70 
   0   3 -10    2.90    3.90 
   0  -3  10    5.60    2.20 
   0  -3  10    6.10    3.20 
   0  -3  10    5.80    3.60 
   0  -3  10    5.50    3.90 
  -1   3 -10   43.60    4.40 
  -1   3 -10   28.20    4.70 
  -1   3 -10   27.40    5.10 
  -1   3 -10   33.30    8.80 
   1  -3  10   39.70    6.80 
   1  -3  10   35.00    5.80 
   1  -3  10   37.20    7.40 
   1  -3  10   34.60    5.50 
   1  -3  10   43.80    5.30 
  -2   3 -10  182.68   11.90 
  -2   3 -10  189.18   11.90 
  -2   3 -10  191.38   18.70 
  -2   3 -10  159.88   12.70 
   2  -3  10  181.28   13.60 
   2  -3  10  171.08   24.10 
   2  -3  10  183.68   14.70 
   2  -3  10  175.38   17.60 
   2  -3  10  168.58   12.70 
   2  -3  10  185.08   15.70 
  -3   3 -10   25.40    4.30 
  -3   3 -10   23.60    6.20 
  -3   3 -10   31.00    5.00 
  -3   3 -10   34.40    4.30 
   3  -3  10   30.60    6.30 
   3  -3  10   40.20    5.70 
   3  -3  10   27.20    6.30 
   3  -3  10   23.30    8.30 
   3  -3  10   30.60    5.00 
   3  -3  10   28.90    5.10 
  -4   3 -10  187.68   11.10 
   4  -3  10  198.88   13.30 
   4  -3  10  174.68   18.40 
   4  -3  10  198.28   11.80 
   4  -3  10  145.99   14.60 
   4  -3  10  194.88   12.20 
   2   2 -10   32.10    8.10 
   2   2 -10   54.29    8.10 
  -2  -2  10   48.80    4.70 
   1   2 -10   65.39    8.20 
   1   2 -10   69.19    7.60 
   1   2 -10   77.09    8.40 
   1   2 -10   69.09   12.80 
  -1  -2  10   73.99    8.00 
  -1  -2  10   66.69    7.90 
   0   2 -10   54.39    7.10 
   0   2 -10   50.19   10.00 
   0   2 -10   48.10    7.10 
   0   2 -10   52.59    5.90 
   0  -2  10   53.29    6.50 
   0  -2  10   49.70    5.80 
   0  -2  10   54.19    6.80 
   0  -2  10   56.29    7.80 
  -1   2 -10   71.79    7.30 
  -1   2 -10   87.69   12.30 
  -1   2 -10   72.09    8.40 
  -1   2 -10   83.29    6.90 
   1  -2  10   78.79    8.80 
   1  -2  10   90.09    8.50 
   1  -2  10   79.19    7.70 
   1  -2  10   86.09    9.70 
   1  -2  10   80.89    9.70 
   1  -2  10   84.99    7.50 
  -2   2 -10  212.58   15.00 
  -2   2 -10  203.38   14.00 
  -2   2 -10  210.18   20.30 
  -2   2 -10  201.28   15.50 
  -2   2 -10  232.28   14.30 
   2  -2  10  251.37   25.30 
   2  -2  10  217.28   20.10 
   2  -2  10  227.98   16.40 
   2  -2  10  226.78   15.40 
   2  -2  10  242.98   18.10 
   2  -2  10  231.18   15.40 
   2  -2  10  234.08   17.50 
  -3   2 -10   15.60    3.60 
  -3   2 -10   13.50    3.60 
  -3   2 -10   12.50    5.10 
  -3   2 -10   16.60    3.00 
   3  -2  10   19.80    4.60 
   3  -2  10   20.60    6.10 
   3  -2  10   14.80    4.90 
   3  -2  10   13.20    3.40 
   3  -2  10   20.50    8.40 
  -4   2 -10   48.90    4.40 
   4  -2  10   55.29    9.60 
   4  -2  10   47.40    5.70 
   4  -2  10   47.80    5.90 
   4  -2  10   48.10    9.20 
   2   1 -10   56.79    7.70 
   2   1 -10   67.79    7.30 
   2   1 -10   61.09   10.20 
  -2  -1  10   69.59    6.00 
  -2  -1  10   81.99    6.20 
   1   1 -10   56.19    8.10 
   1   1 -10   58.79    7.40 
   1   1 -10   50.89    6.10 
   1   1 -10   61.09   10.20 
  -1  -1  10   71.69    9.90 
  -1  -1  10   51.99    6.10 
  -1  -1  10   56.39    5.80 
  -1  -1  10   54.59    7.10 
   0   1 -10  100.89   13.30 
   0   1 -10  102.09    7.20 
   0   1 -10  117.49   10.40 
   0   1 -10  106.29    8.80 
   0   1 -10  101.09    9.90 
   0  -1  10  108.09   10.00 
   0  -1  10   90.59    9.90 
   0  -1  10  111.19    9.80 
   0  -1  10   98.79    8.70 
  -1   1 -10  128.89   15.10 
  -1   1 -10  154.58   13.00 
  -1   1 -10  143.19    9.80 
  -1   1 -10  108.09   11.20 
   1  -1  10  133.49   12.60 
   1  -1  10  146.69   12.50 
   1  -1  10  135.29   11.30 
   1  -1  10  126.29   10.50 
   1  -1  10  144.39   10.40 
   1  -1  10  133.19   11.90 
  -2   1 -10   36.90    8.10 
  -2   1 -10   44.20    5.90 
  -2   1 -10   49.10    5.80 
  -2   1 -10   40.10    5.80 
  -2   1 -10   41.90    5.20 
   2  -1  10   44.80    7.50 
   2  -1  10   57.49    7.10 
   2  -1  10   51.99    6.40 
   2  -1  10   54.39   11.00 
   2  -1  10   41.10    5.90 
   2  -1  10   41.60    6.30 
   2  -1  10   46.00    8.80 
   2  -1  10   64.69    7.90 
  -3   1 -10   21.30    4.30 
   3  -1  10   34.50    5.50 
   3  -1  10   28.20    6.00 
   3  -1  10   30.50    5.10 
   3  -1  10   27.80    5.10 
   3  -1  10   28.10    6.20 
   3  -1  10   31.00    9.50 
   3  -1  10   27.60    7.50 
  -4   1 -10   27.90    4.00 
  -4   1 -10   36.20    3.80 
   4  -1  10   32.10    4.80 
   4  -1  10   38.30    5.50 
   4  -1  10   40.30    5.90 
   4  -1  10   34.20    4.40 
   4  -1  10   27.70    7.40 
   2   0 -10   19.90    4.70 
   2   0 -10   12.90    4.00 
   2   0 -10   15.50    5.20 
  -2   0  10   19.00    3.20 
  -2   0  10   18.30    3.50 
   1   0 -10  227.78   16.40 
   1   0 -10  184.08   20.10 
   1   0 -10  217.08   14.40 
   1   0 -10  208.78   15.30 
  -1   0  10  247.48   14.80 
  -1   0  10  225.88   15.70 
   0   0 -10  306.87   22.50 
   0   0 -10  371.36   20.20 
   0   0 -10  339.47   23.90 
   0   0 -10  395.96   25.10 
   0   0 -10  384.96   24.00 
   0   0 -10  347.57   28.60 
   0   0  10  358.16   23.40 
   0   0  10  387.86   22.30 
   0   0  10  343.37   21.90 
   0   0  10  392.36   23.40 
  -1   0 -10   27.00    8.60 
  -1   0 -10   50.19    6.20 
  -1   0 -10   39.00    5.40 
  -1   0 -10   38.80    6.10 
   1   0  10   38.00    5.80 
   1   0  10   41.40   13.00 
   1   0  10   41.10    8.30 
  -2   0 -10    1.20    3.10 
  -2   0 -10    7.30    2.00 
   2   0  10    7.60    3.20 
   2   0  10    5.20    4.90 
   2   0  10    1.20    2.90 
   2   0  10    6.90    2.80 
   2   0  10   10.20    3.40 
   2   0  10    3.90    2.80 
  -3   0 -10   55.49    6.30 
  -3   0 -10   52.69    5.80 
   3   0  10   54.79    6.40 
   3   0  10   58.09    7.60 
   3   0  10   67.99    6.90 
   3   0  10   37.50    6.20 
   3   0  10   52.79   11.50 
   3   0  10   60.19    7.30 
   3   0  10   60.99    7.80 
  -4   0 -10   57.19    5.20 
  -4   0 -10   57.29    5.80 
   4   0  10   72.99    9.40 
   4   0  10   61.39    6.30 
   4   0  10   67.29    5.90 
   4   0  10   59.09   10.30 
   4   0  10   66.39    7.00 
   2  -1 -10   15.70    4.10 
   2  -1 -10    9.30    4.30 
   2  -1 -10   14.60    4.40 
  -2   1  10   15.40    3.10 
  -2   1  10   16.40    2.90 
   1  -1 -10   70.29   10.50 
   1  -1 -10   89.09    9.50 
   1  -1 -10   78.89    8.80 
   1  -1 -10   90.39   14.10 
  -1   1  10   87.19    7.80 
  -1   1  10   90.69    8.40 
  -1   1  10   95.09    8.10 
   0  -1 -10   13.70    2.80 
   0  -1 -10   23.20    4.70 
   0  -1 -10   16.20    4.10 
   0   1  10   22.30    4.30 
   0   1  10   20.90    4.70 
   0   1  10   19.80    4.60 
   0   1  10   21.40    4.40 
  -1  -1 -10   56.29    6.90 
   1   1  10   67.09   15.60 
   1   1  10   67.19    7.50 
  -2  -1 -10  103.09   11.40 
  -2  -1 -10  125.09   11.40 
  -2  -1 -10  118.29    8.60 
   2   1  10  124.99   10.10 
   2   1  10  129.99   10.20 
   2   1  10  107.89   15.90 
   2   1  10  132.49   10.10 
   2   1  10  113.29   10.90 
   2   1  10   90.59    9.90 
   2   1  10  115.79   10.80 
  -3  -1 -10   96.29    9.40 
  -3  -1 -10   80.49    8.10 
   3   1  10   89.79   11.20 
   3   1  10   83.99    7.80 
   3   1  10   93.49    9.00 
   3   1  10   88.99    9.50 
   3   1  10   91.49    9.20 
   3   1  10   98.09    8.80 
   3   1  10   88.39   14.20 
  -4  -1 -10  170.88   11.00 
  -4  -1 -10  148.79   11.00 
   4   1  10  163.98   12.10 
   4   1  10  153.18   11.80 
   4   1  10  127.09   15.90 
   4   1  10  180.98   11.90 
   4   1  10  169.88   11.30 
   2  -2 -10   15.50    3.90 
   2  -2 -10    8.40    3.90 
  -2   2  10   12.80    3.20 
  -2   2  10   11.60    2.40 
   1  -2 -10  393.96   25.00 
   1  -2 -10  353.96   25.30 
  -1   2  10  444.56   27.80 
  -1   2  10  380.96   22.90 
  -1   2  10  386.76   23.60 
   0  -2 -10  231.18   16.80 
   0  -2 -10  236.18   14.10 
   0   2  10  246.18   17.00 
   0   2  10  228.68   16.30 
   0   2  10  245.08   16.60 
   0   2  10  230.58   15.60 
   0   2  10  249.08   16.60 
   0   2  10  239.88   16.40 
  -1  -2 -10  165.48   14.60 
  -1  -2 -10  141.29   12.50 
  -1  -2 -10  176.68   12.70 
  -1  -2 -10  160.08   15.00 
   1   2  10  174.68   15.80 
   1   2  10  151.58   13.00 
   1   2  10  158.98   13.80 
   1   2  10  143.39   14.70 
   1   2  10  157.18   14.60 
   1   2  10  170.68   18.70 
   1   2  10  150.88   12.50 
   1   2  10  167.58   13.00 
   1   2  10  185.88   15.60 
  -2  -2 -10  463.85   29.20 
  -2  -2 -10  393.46   23.40 
  -2  -2 -10  385.56   25.90 
   2   2  10  412.36   24.70 
   2   2  10  419.36   24.50 
   2   2  10  425.16   25.20 
   2   2  10  390.66   27.90 
   2   2  10  444.56   34.80 
   2   2  10  347.87   28.40 
   2   2  10  415.56   26.30 
   2   2  10  415.56   26.30 
  -3  -2 -10  329.47   21.40 
  -3  -2 -10  342.87   20.40 
   3   2  10  352.76   22.50 
   3   2  10  327.47   29.60 
   3   2  10  349.87   22.90 
   3   2  10  355.36   22.20 
   3   2  10  356.96   24.50 
   3   2  10  353.06   21.50 
  -4  -2 -10   55.09    5.30 
  -4  -2 -10   67.19    6.60 
   4   2  10   57.59    6.50 
   4   2  10   60.19    6.40 
   4   2  10   48.80    5.30 
   4   2  10   69.39    6.10 
   4   2  10   53.99    9.50 
   4   2  10   61.89    8.20 
   4   2  10   47.70    5.40 
   2  -3 -10    6.90    3.20 
  -2   3  10    7.60    2.40 
  -2   3  10   10.20    2.10 
   1  -3 -10   29.30    5.40 
   1  -3 -10   28.10    6.00 
  -1   3  10   38.20    7.10 
   0  -3 -10  383.16   23.80 
   0  -3 -10  365.76   20.50 
   0  -3 -10  388.26   24.10 
   0   3  10  375.86   22.50 
   0   3  10  354.36   22.90 
   0   3  10  355.76   22.60 
   0   3  10  389.06   23.50 
   0   3  10  370.36   23.40 
  -1  -3 -10  282.27   21.10 
  -1  -3 -10  276.67   16.40 
  -1  -3 -10  240.48   18.10 
  -1  -3 -10  256.37   17.70 
   1   3  10  261.17   18.10 
   1   3  10  264.87   17.40 
   1   3  10  291.57   24.80 
   1   3  10  260.27   17.50 
   1   3  10  265.47   17.20 
   1   3  10  267.47   17.80 
   1   3  10  268.57   18.30 
   1   3  10  229.68   19.40 
  -2  -3 -10  203.18   12.90 
  -2  -3 -10  189.28   14.50 
  -2  -3 -10  209.78   14.00 
   2   3  10  200.18   14.70 
   2   3  10  188.28   14.90 
   2   3  10  216.08   21.60 
   2   3  10  200.68   13.90 
   2   3  10  200.48   14.30 
   2   3  10  194.08   14.70 
   2   3  10  200.28   13.40 
   2   3  10  173.78   15.00 
  -3  -3 -10  145.09   10.90 
  -3  -3 -10  164.98   12.70 
   3   3  10  183.08   19.90 
   3   3  10  178.58   13.20 
   3   3  10  191.28   17.60 
   3   3  10  194.88   15.70 
   3   3  10  183.08   11.50 
  -4  -3 -10   18.00    3.50 
  -4  -3 -10   16.00    3.10 
   4   3  10   11.40    2.70 
   4   3  10   16.70    2.70 
   4   3  10   13.80    4.00 
   4   3  10   19.80    3.90 
   4   3  10   14.80    5.30 
   2  -4 -10   44.20    7.20 
  -2   4  10   45.80    5.90 
   1  -4 -10   35.90    6.00 
   1  -4 -10   31.00    5.40 
  -1   4  10   36.80    5.30 
  -1   4  10   34.50    4.30 
   0  -4 -10   34.70    6.00 
   0  -4 -10   31.00    3.90 
   0  -4 -10   31.50    5.80 
   0   4  10   25.90    4.40 
   0   4  10   34.90    4.80 
   0   4  10   38.40    5.90 
   0   4  10   35.70    5.40 
  -1  -4 -10  301.27   18.70 
  -1  -4 -10  255.37   19.00 
  -1  -4 -10  299.67   17.40 
   1   4  10  283.27   18.80 
   1   4  10  321.67   26.30 
   1   4  10  280.27   18.20 
   1   4  10  302.07   19.00 
   1   4  10  283.47   18.90 
   1   4  10  267.87   17.90 
   1   4  10  291.77   19.60 
  -2  -4 -10   56.69    8.00 
  -2  -4 -10   71.79    6.30 
  -2  -4 -10   58.99    7.20 
   2   4  10   57.29    7.70 
   2   4  10   79.79   12.30 
   2   4  10   78.49    7.70 
   2   4  10   63.59    7.30 
   2   4  10   78.29    7.70 
   2   4  10   77.59    9.50 
   2   4  10   78.39    7.40 
   2   4  10   76.59    7.60 
  -3  -4 -10   24.90    5.50 
  -3  -4 -10   27.80    4.00 
   3   4  10   33.20    8.60 
   3   4  10   45.60    5.90 
   3   4  10   30.70    4.70 
   3   4  10   42.50    5.70 
   3   4  10   34.10    4.90 
  -4  -4 -10  136.99   10.70 
   4   4  10  155.48   10.10 
   4   4  10  169.78   11.80 
   4   4  10  146.09   14.70 
   4   4  10  160.98    9.90 
   4   4  10  170.08   11.10 
   2  -5 -10   59.19    6.30 
  -2   5  10   62.09    5.80 
   1  -5 -10   71.49    7.40 
   1  -5 -10   85.79    8.10 
  -1   5  10   80.79    7.70 
  -1   5  10   71.49    6.60 
   0  -5 -10   21.80    4.50 
   0   5  10   24.30    5.10 
  -1  -5 -10  202.08   14.70 
  -1  -5 -10  195.88   12.40 
   1   5  10  195.78   14.70 
   1   5  10  211.08   14.40 
   1   5  10  174.18   19.60 
   1   5  10  196.98   13.50 
   1   5  10  188.08   13.60 
  -2  -5 -10   33.30    5.10 
   2   5  10   44.00    6.00 
   2   5  10   42.20    6.80 
   2   5  10   38.70    8.10 
   2   5  10   37.10    5.20 
   2   5  10   39.40    5.70 
   2   5  10   21.60    9.40 
  -3  -5 -10  214.88   14.40 
  -3  -5 -10  235.38   16.20 
   3   5  10  261.77   16.30 
   3   5  10  246.98   16.00 
   3   5  10  260.67   16.30 
   3   5  10  269.37   15.70 
   3   5  10  253.97   15.40 
   3   5  10  213.08   20.80 
  -4  -5 -10   39.10    3.50 
   4   5  10   34.30    4.10 
   4   5  10   30.10    6.10 
   4   5  10   36.80    4.20 
   4   5  10   41.50    3.80 
   1  -6 -10   30.60    4.50 
  -1   6  10   27.60    4.60 
   0  -6 -10   27.00    4.90 
   0  -6 -10   23.70    4.80 
   0  -6 -10   22.40    9.30 
   0   6  10   24.30    4.80 
   0   6  10   23.30    6.00 
   0   6  10   19.60    3.30 
  -1  -6 -10   96.39    7.10 
  -1  -6 -10   95.29    9.00 
   1   6  10   93.99    7.80 
   1   6  10   94.69    9.00 
   1   6  10  109.09    8.20 
   1   6  10   94.49    8.10 
   1   6  10   77.89   11.70 
   1   6  10   93.29    8.50 
  -2  -6 -10   22.80    3.40 
  -2  -6 -10   15.90    3.70 
   2   6  10   23.70    4.50 
   2   6  10   19.00    6.20 
   2   6  10   18.40    4.00 
   2   6  10   18.50    3.40 
   2   6  10   25.70    4.00 
   2   6  10   22.00    3.90 
   2   6  10   23.00    3.60 
  -3  -6 -10  194.98   12.50 
  -3  -6 -10  175.28   13.30 
  -3  -6 -10  192.48   12.00 
   3   6  10  172.58   11.80 
   3   6  10  204.48   16.20 
   3   6  10  184.58   12.30 
   3   6  10  205.38   14.30 
   3   6  10  193.88   12.90 
   1  -7 -10  122.69    9.00 
   1  -7 -10  111.09    7.70 
  -1   7  10  108.49    8.60 
   0  -7 -10  171.48   12.20 
   0   7  10  162.28   12.20 
   0   7  10  162.78   10.20 
  -1  -7 -10   11.70    2.90 
  -1  -7 -10   17.20    3.20 
   1   7  10   12.40    3.20 
   1   7  10    7.10    4.20 
   1   7  10   12.90    2.60 
  -2  -7 -10    1.40    2.60 
  -2  -7 -10    4.90    1.50 
   2   7  10    1.80    2.60 
   2   7  10    5.50    1.70 
   2   7  10    4.50    1.60 
   2   7  10    7.00    2.60 
  -3  -7 -10  159.98    9.20 
   3   7  10  154.18    9.50 
   3   7  10  140.99    9.50 
   3   7  10  139.29    9.60 
   0  -8 -10   43.40    5.00 
   0   8  10   50.49    5.30 
  -1  -8 -10   15.10    5.80 
   1   8  10   27.40    4.30 
   1   8  10   20.60    3.60 
   1   8  10   18.10    4.80 
  -2  -8 -10    2.40    3.20 
  -2  -8 -10    8.10    1.50 
  -2  -8 -10   11.50    2.50 
   2   8  10   12.30    2.20 
   2   8  10    8.70    1.70 
   2   8  10    7.70    2.10 
   2   8  10    3.70    2.90 
   0   5 -11   24.10    5.10 
   0  -5  11   27.40    4.50 
  -1   5 -11    7.10    4.20 
  -1   5 -11    1.60    2.40 
   1  -5  11    3.70    2.70 
  -2   5 -11    0.40    1.70 
   2  -5  11    1.70    2.40 
   2  -5  11   -2.10    1.70 
   2  -5  11   -0.60    2.20 
   1   4 -11   13.20    4.70 
  -1  -4  11   11.20    4.30 
  -1  -4  11   13.30    2.50 
   0   4 -11    9.80    5.30 
   0   4 -11   10.50    3.30 
   0  -4  11   10.90    4.60 
   0  -4  11   11.80    2.80 
  -1   4 -11    6.50    2.80 
  -1   4 -11   11.40    4.20 
  -1   4 -11   11.20    3.70 
   1  -4  11    7.70    2.90 
   1  -4  11    9.90    3.50 
  -2   4 -11   22.00    4.50 
  -2   4 -11   29.20    6.40 
   2  -4  11   25.30    6.50 
   2  -4  11   26.90    4.20 
   2  -4  11   38.50    6.90 
  -3   4 -11   27.60    3.10 
   3  -4  11   21.10    3.30 
   3  -4  11   22.40    4.20 
   3  -4  11   20.80    3.30 
   3  -4  11   20.00    3.30 
   1   3 -11   56.29    8.80 
  -1  -3  11   60.49    6.40 
  -1  -3  11   67.79    5.40 
   0   3 -11    3.90    3.50 
   0   3 -11    1.90    2.60 
   0  -3  11    7.40    2.60 
   0  -3  11    2.30    1.80 
   0  -3  11    7.20    2.80 
  -1   3 -11   45.70    5.30 
  -1   3 -11   29.60    3.60 
  -1   3 -11   34.50    7.30 
   1  -3  11   37.10    5.90 
   1  -3  11   37.20    6.50 
   1  -3  11   36.60    5.80 
   1  -3  11   40.60    4.80 
  -2   3 -11    8.30    3.60 
  -2   3 -11   21.20    3.80 
   2  -3  11   16.30    3.40 
   2  -3  11   16.10    3.30 
   2  -3  11   27.20    5.30 
   2  -3  11   12.80    4.00 
   2  -3  11   12.90    6.20 
  -3   3 -11   15.20    2.80 
   3  -3  11    7.70    4.10 
   3  -3  11   12.40    4.30 
   3  -3  11   16.40    3.70 
   3  -3  11    9.00    3.30 
   3  -3  11   14.10    2.70 
   1   2 -11    9.80    4.70 
   1   2 -11    9.00    2.70 
   1   2 -11    7.60    2.90 
  -1  -2  11   12.20    2.90 
  -1  -2  11   13.10    3.10 
   0   2 -11   29.30    5.10 
   0   2 -11   39.60    8.10 
   0   2 -11   39.40    5.60 
   0  -2  11   41.50    6.30 
   0  -2  11   40.80    4.80 
   0  -2  11   48.30    5.80 
  -1   2 -11   59.39    4.90 
  -1   2 -11   41.40    8.20 
  -1   2 -11   49.80    6.90 
  -1   2 -11   63.59    7.00 
   1  -2  11   88.19   11.50 
   1  -2  11   59.59    7.80 
   1  -2  11   71.59    7.30 
   1  -2  11   55.39    5.60 
   1  -2  11   51.59    6.30 
  -2   2 -11   -0.90    1.80 
  -2   2 -11   -4.90    2.30 
  -2   2 -11    1.70    2.90 
  -2   2 -11    4.40    1.80 
   2  -2  11   -3.20    3.00 
   2  -2  11    0.20    2.20 
   2  -2  11   -1.60    3.30 
   2  -2  11   -2.10    1.80 
   2  -2  11   -0.10    1.90 
   2  -2  11    2.20    2.40 
  -3   2 -11    1.60    2.00 
  -3   2 -11    0.90    1.70 
  -3   2 -11   -0.40    2.80 
   3  -2  11    0.00    1.70 
   3  -2  11    4.70    2.60 
   3  -2  11    0.60    2.00 
   3  -2  11    2.30    2.10 
   3  -2  11    3.00    3.10 
  -4   2 -11   19.90    2.90 
   4  -2  11   24.20    3.60 
   4  -2  11   21.50    3.30 
   4  -2  11   25.50    4.00 
   2   1 -11   31.30    5.70 
  -2  -1  11   43.20    3.90 
   1   1 -11   11.30    4.20 
   1   1 -11   14.10    5.50 
   1   1 -11   11.70    4.60 
  -1  -1  11   17.90    3.60 
  -1  -1  11   13.80    2.70 
  -1  -1  11   20.00    5.30 
   0   1 -11   47.30    6.30 
   0   1 -11   28.20    6.90 
   0   1 -11   38.00    5.90 
   0  -1  11   42.00    5.50 
   0  -1  11   42.30    6.40 
   0  -1  11   41.60   10.20 
   0  -1  11   46.00    5.20 
  -1   1 -11  109.09    9.80 
  -1   1 -11  112.49   13.00 
  -1   1 -11  119.69   11.20 
  -1   1 -11  115.59   10.00 
   1  -1  11  121.59   10.50 
   1  -1  11  118.79   13.10 
   1  -1  11  118.19    9.20 
   1  -1  11  119.99   11.00 
   1  -1  11  105.49   10.30 
  -2   1 -11   13.20    3.80 
  -2   1 -11   21.10    3.80 
  -2   1 -11   19.50    5.40 
   2  -1  11   19.00    3.40 
   2  -1  11   16.20    3.70 
   2  -1  11   22.60    5.90 
   2  -1  11   13.70    5.80 
   2  -1  11   16.20    5.70 
   2  -1  11   30.00    7.30 
   2  -1  11   12.80    3.90 
  -3   1 -11    2.70    2.10 
  -3   1 -11    7.50    2.10 
   3  -1  11    5.70    2.50 
   3  -1  11    5.40    2.40 
   3  -1  11    4.50    2.70 
   3  -1  11    6.60    2.80 
   3  -1  11    5.20    4.50 
  -4   1 -11    9.30    2.90 
   4  -1  11    5.10    3.60 
   4  -1  11   10.10    2.30 
   4  -1  11   11.40    2.30 
   4  -1  11   11.60    2.80 
   4  -1  11   10.70    2.70 
   2   0 -11   37.20    4.40 
   2   0 -11   21.70    4.70 
  -2   0  11   31.30    3.40 
  -2   0  11   30.70    3.80 
   1   0 -11   14.40    3.40 
   1   0 -11   12.40    6.30 
   1   0 -11   10.80    4.60 
  -1   0  11   19.20    3.20 
  -1   0  11   19.70    3.30 
  -1   0  11   35.80    6.60 
   0   0 -11   97.69   12.50 
   0   0 -11   72.69   10.30 
   0   0 -11   62.69    8.10 
   0   0  11   71.69    7.70 
   0   0  11   61.09    7.20 
  -1   0 -11   73.69    8.00 
  -1   0 -11   67.99    6.10 
   1   0  11   68.09    8.70 
   1   0  11   66.79    7.70 
   1   0  11   64.79    7.50 
   1   0  11   66.69    7.60 
   1   0  11   72.09    6.80 
  -2   0 -11   77.89    8.20 
  -2   0 -11   60.69    7.00 
   2   0  11   69.29    8.00 
   2   0  11   54.59   10.60 
   2   0  11   67.99    6.80 
   2   0  11   84.59   12.80 
   2   0  11   85.19   10.10 
  -3   0 -11   61.19    6.50 
  -3   0 -11   80.19    6.00 
   3   0  11   75.29    7.10 
   3   0  11   76.19    8.10 
   3   0  11   70.89    7.20 
   3   0  11   68.19   11.30 
   3   0  11   52.09    7.20 
   3   0  11   68.39    6.50 
   4   0  11    1.30    3.00 
   4   0  11    3.00    1.90 
   4   0  11    2.00    3.20 
   4   0  11    1.90    1.50 
   4   0  11    6.50    2.10 
   2  -1 -11    0.10    2.80 
   2  -1 -11   -0.30    2.30 
  -2   1  11   -0.20    1.20 
  -2   1  11    1.30    2.00 
   1  -1 -11    1.60    3.10 
   1  -1 -11    9.30    2.90 
  -1   1  11    6.40    2.30 
  -1   1  11    1.60    2.20 
   0  -1 -11   40.80    6.10 
   0   1  11   32.40    5.70 
   0   1  11   35.70    5.50 
   0   1  11   25.70    4.70 
  -1  -1 -11  284.77   16.70 
  -1  -1 -11  286.17   18.80 
   1   1  11  287.77   19.00 
   1   1  11  261.57   18.70 
   1   1  11  277.87   17.70 
   1   1  11  279.97   19.50 
   1   1  11  278.87   18.30 
   1   1  11  266.07   17.80 
  -2  -1 -11   33.00    4.90 
  -2  -1 -11   31.80    5.00 
   2   1  11   25.60    7.70 
   2   1  11   22.20    5.50 
   2   1  11   35.50    5.40 
   2   1  11   36.80    7.50 
   2   1  11   24.70    6.40 
  -3  -1 -11   20.30    3.00 
  -3  -1 -11   14.50    3.60 
   3   1  11   17.30    4.40 
   3   1  11   14.40    3.40 
   3   1  11   25.00    5.00 
   3   1  11   28.70    4.90 
   3   1  11   21.00    4.10 
   3   1  11   18.20    6.60 
   3   1  11   25.80    4.00 
   4   1  11   50.89    4.90 
   4   1  11   61.29    5.90 
   4   1  11   40.40    7.30 
   4   1  11   49.70    5.50 
   4   1  11   62.39    5.70 
   2  -2 -11   23.40    4.00 
  -2   2  11   26.20    2.80 
   1  -2 -11   43.10    6.00 
  -1   2  11   42.70    5.70 
  -1   2  11   39.30    4.50 
   0  -2 -11   67.59    8.70 
   0  -2 -11   63.09    7.40 
   0   2  11   76.39    7.30 
   0   2  11   86.09    9.20 
   0   2  11   53.89    6.30 
   0   2  11   72.79    7.40 
  -1  -2 -11   -4.00    2.20 
  -1  -2 -11    2.20    1.60 
   1   2  11   -2.70    1.60 
   1   2  11    2.70    2.20 
   1   2  11    0.40    1.90 
   1   2  11    6.20    3.60 
   1   2  11   -4.50    3.40 
   1   2  11   -0.10    2.70 
  -2  -2 -11  185.88   14.10 
  -2  -2 -11  169.68   13.80 
   2   2  11  188.18   13.80 
   2   2  11  212.38   15.10 
   2   2  11  180.08   19.00 
   2   2  11  189.78   13.90 
  -3  -2 -11   94.99    7.90 
  -3  -2 -11   88.69    7.20 
  -3  -2 -11   90.29    8.50 
   3   2  11   94.79   13.00 
   3   2  11  113.29    8.80 
   3   2  11  109.49    7.70 
   3   2  11  112.99    8.30 
   3   2  11  105.19    9.20 
   3   2  11  113.09    8.70 
   3   2  11  103.59    9.20 
  -4  -2 -11   44.30    4.10 
   4   2  11   50.89    5.20 
   4   2  11   47.40    4.60 
   4   2  11   51.59    5.10 
   4   2  11   35.10    6.90 
   2  -3 -11    9.60    4.20 
  -2   3  11    6.70    2.60 
   1  -3 -11   55.09    6.60 
   1  -3 -11   68.69    7.20 
  -1   3  11   58.19    5.80 
  -1   3  11   67.39    8.30 
   0  -3 -11  131.19   10.50 
   0  -3 -11  124.69   10.70 
   0   3  11  125.69   10.10 
   0   3  11  120.09    9.60 
   0   3  11  125.09    9.60 
   0   3  11  124.39    9.80 
  -1  -3 -11   54.19    9.10 
   1   3  11   50.79    6.60 
   1   3  11   57.79    6.80 
   1   3  11   68.89    7.30 
   1   3  11   47.70    9.00 
  -2  -3 -11    6.60    2.50 
  -2  -3 -11    9.10    2.50 
  -2  -3 -11    7.80    2.90 
   2   3  11    9.90    3.10 
   2   3  11   10.70    3.00 
   2   3  11   12.40    2.90 
   2   3  11   15.30    3.60 
   2   3  11    5.70    2.40 
   2   3  11    1.90    4.10 
  -3  -3 -11   76.39    7.50 
  -3  -3 -11   96.59    7.30 
  -3  -3 -11   93.19    6.80 
   3   3  11   97.59    7.50 
   3   3  11   85.69    6.70 
   3   3  11   86.99    8.10 
   3   3  11   95.19    8.20 
   3   3  11   90.89    7.60 
   3   3  11   79.39   11.80 
   3   3  11   89.99    7.70 
  -4  -3 -11   19.70    2.70 
   4   3  11   16.40    3.10 
   4   3  11   14.70    3.00 
   1  -4 -11   36.80    5.00 
   1  -4 -11   33.90    7.90 
  -1   4  11   26.40    4.10 
  -1   4  11   26.00    3.30 
   0  -4 -11   36.40    5.50 
   0   4  11   29.00    4.70 
   0   4  11   26.90    4.90 
   0   4  11   28.20    4.10 
  -1  -4 -11   94.29    8.80 
  -1  -4 -11   91.29    8.00 
  -1  -4 -11   94.69    6.80 
   1   4  11   85.69    8.30 
   1   4  11   91.59    8.10 
   1   4  11   94.19    8.00 
   1   4  11   97.39    8.50 
   1   4  11   84.59    7.90 
   1   4  11   80.89   11.20 
  -2  -4 -11   32.30    4.00 
  -2  -4 -11   20.80    4.00 
  -2  -4 -11   30.10    4.60 
   2   4  11   22.30    4.00 
   2   4  11   33.40    4.90 
   2   4  11   26.50    4.50 
   2   4  11   19.60    4.10 
   2   4  11   28.60    4.40 
   2   4  11   26.00    7.20 
  -3  -4 -11   49.30    6.40 
  -3  -4 -11   72.99    6.70 
   3   4  11   41.70    8.50 
   3   4  11   63.79    8.60 
   3   4  11   63.69    7.30 
   3   4  11   57.49    7.20 
   3   4  11   59.19    6.00 
  -4  -4 -11   69.39    4.80 
   4   4  11   64.39    5.80 
   1  -5 -11   16.80    4.40 
   1  -5 -11   21.40    3.80 
  -1   5  11   18.30    2.60 
  -1   5  11   11.60    2.60 
   0  -5 -11   22.00    4.30 
   0   5  11   23.40    4.40 
   0   5  11   27.50    4.40 
  -1  -5 -11    5.90    2.40 
  -1  -5 -11    6.40    1.70 
   1   5  11    5.30    4.50 
   1   5  11    4.10    1.90 
   1   5  11    6.30    2.40 
   1   5  11    5.70    2.30 
   1   5  11    3.50    2.40 
   1   5  11    1.20    2.60 
  -2  -5 -11   44.90    5.20 
  -2  -5 -11   43.00    4.10 
   2   5  11   36.00    4.60 
   2   5  11   29.30    7.00 
   2   5  11   33.60    4.60 
   2   5  11   44.40    5.00 
   2   5  11   40.90    5.20 
   2   5  11   39.00    5.50 
   2   5  11   36.20    4.70 
  -3  -5 -11   81.19    5.70 
  -3  -5 -11   74.29    6.40 
   3   5  11   73.19    6.00 
   3   5  11   73.79    6.00 
   3   5  11   75.49    6.50 
   3   5  11   72.09    6.20 
   1  -6 -11    2.70    1.80 
   1  -6 -11    3.60    1.80 
   0  -6 -11   -0.40    1.80 
   0   6  11    2.50    1.40 
   0   6  11    1.90    1.70 
  -1  -6 -11   24.90    2.60 
  -1  -6 -11   18.60    4.60 
   1   6  11   18.70    5.00 
   1   6  11   24.00    3.70 
   1   6  11   15.60    3.40 
  -2  -6 -11    6.60    2.40 
  -2  -6 -11   13.00    2.40 
   2   6  11    5.80    1.70 
   2   6  11    8.40    2.20 
   2   6  11    7.50    2.10 
   2   6  11    6.30    2.20 
   2   6  11    7.90    2.30 
   2   6  11    6.70    3.60 
  -3  -6 -11    1.60    1.20 
  -3  -6 -11    2.60    1.60 
   3   6  11   -0.20    1.30 
   3   6  11    1.30    1.10 
   3   6  11    0.90    1.90 
   0  -7 -11   15.60    3.30 
   0   7  11   20.40    4.10 
  -1  -7 -11   10.70    2.50 
  -1  -7 -11    5.20    3.30 
   1   7  11    9.50    2.50 
   1   7  11    2.10    2.30 
  -2  -7 -11   15.20    2.80 
   2   7  11   21.00    3.30 
   2   7  11   16.70    2.70 
  -1   4 -12    2.80    2.30 
   1  -4  12   11.00    2.80 
   0   3 -12   13.70    4.30 
   0  -3  12   16.80    2.30 
   0  -3  12   10.30    3.30 
  -1   3 -12    1.10    2.30 
  -1   3 -12    2.20    2.20 
   1  -3  12    6.90    2.40 
  -2   3 -12   20.60    2.60 
  -2   3 -12   18.30    3.40 
   2  -3  12   21.00    4.40 
   2  -3  12   22.70    4.10 
   2  -3  12   19.20    3.00 
   0   2 -12   10.90    2.70 
   0  -2  12   16.00    2.50 
   0  -2  12   11.30    3.00 
  -1   2 -12    2.20    2.70 
  -1   2 -12    1.40    1.80 
   1  -2  12    3.80    1.70 
   1  -2  12    5.80    2.00 
   1  -2  12    2.30    1.90 
  -2   2 -12    2.00    2.60 
  -2   2 -12    2.70    1.90 
  -2   2 -12    0.30    1.30 
   2  -2  12   -0.10    1.80 
   2  -2  12    2.30    1.90 
   2  -2  12   -1.00    1.60 
  -3   2 -12  144.29    8.10 
   3  -2  12  113.49    8.40 
   3  -2  12  126.29   10.50 
   3  -2  12  125.79    9.50 
   3  -2  12  127.59    8.50 
   1   1 -12   16.90    4.20 
   1   1 -12   10.40    2.50 
  -1  -1  12   15.70    2.60 
   0   1 -12   44.40    7.30 
   0   1 -12   49.10    5.40 
   0  -1  12   47.10    4.70 
   0  -1  12   40.20    5.20 
  -1   1 -12    6.30    4.50 
  -1   1 -12   10.10    2.70 
   1  -1  12   10.90    2.90 
   1  -1  12   13.70    3.50 
   1  -1  12    7.60    2.60 
   1  -1  12   18.00    3.10 
  -2   1 -12    8.40    2.90 
  -2   1 -12    4.40    2.40 
   2  -1  12    4.10    1.80 
   2  -1  12   10.60    3.10 
   2  -1  12    7.70    2.50 
   2  -1  12    8.20    3.00 
   2  -1  12    5.80    2.00 
   2  -1  12    3.60    4.10 
  -3   1 -12   72.79    5.50 
   3  -1  12   69.89    5.90 
   3  -1  12   69.99    6.60 
   3  -1  12   69.69    5.90 
   3  -1  12   74.89    6.80 
  -1   0  12   75.99    5.80 
   0   0  12    9.70    2.80 
   0   0  12   14.50    4.30 
   0   0  12   12.40    2.80 
  -1   0 -12    3.50    1.40 
  -1   0 -12   -1.10    2.00 
   1   0  12    2.40    1.80 
   1   0  12    5.80    2.00 
   1   0  12    5.70    2.50 
   1   0  12    4.80    2.30 
   1   0  12    0.00    1.80 
  -2   0 -12   35.70    5.00 
  -2   0 -12   30.40    3.60 
   2   0  12   35.50    5.20 
   2   0  12   26.10    4.50 
   2   0  12   29.30    4.50 
   2   0  12   24.90    3.80 
   2   0  12   22.50    6.00 
   2   0  12   22.60    4.80 
  -3   0 -12   81.29    5.80 
  -3   0 -12   74.69    6.30 
   3   0  12   79.49    6.50 
   3   0  12   69.39    6.00 
   3   0  12   74.99    6.90 
   3   0  12   72.99    6.90 
   1  -1 -12   37.90    4.60 
  -1   1  12   38.00    3.80 
   0  -1 -12   83.19    8.50 
   0   1  12   57.99    9.60 
   0   1  12   95.89    7.30 
   0   1  12   84.19    7.10 
  -1  -1 -12    2.70    2.60 
   1   1  12    9.30    2.60 
   1   1  12    8.40    2.40 
   1   1  12    7.10    3.00 
   1   1  12    8.30    2.90 
  -2  -1 -12   78.99    7.40 
  -2  -1 -12   78.69    6.20 
   2   1  12   78.09    6.80 
   2   1  12   85.49    7.80 
   2   1  12   72.79    6.80 
   2   1  12   78.39    6.90 
   2   1  12   76.39    7.00 
  -3  -1 -12   10.00    2.60 
   3   1  12   12.30    2.30 
   3   1  12   12.80    2.40 
   3   1  12   10.50    3.00 
   3   1  12   15.10    3.00 
   3   1  12   17.50    3.60 
   3   1  12    9.10    4.00 
   1  -2 -12   27.40    4.00 
  -1   2  12   28.20    3.40 
   0  -2 -12   57.39    7.40 
  -1  -2 -12  148.79    9.30 
  -1  -2 -12  148.99   11.00 
  -1  -2 -12  143.89   13.30 
   1   2  12  129.39   12.30 
   1   2  12  147.89   11.00 
   1   2  12  142.09   13.70 
   1   2  12  151.88   10.30 
  -2  -2 -12   72.79    5.50 
   2   2  12   54.69    6.80 
   2   2  12   69.49    6.70 
   2   2  12   49.90    8.00 
   2   2  12   68.59    6.20 
   2   2  12   65.89    6.40 
  -3  -2 -12   72.09    5.40 
   3   2  12   68.39    6.10 
   3   2  12   71.89    5.90 
   3   2  12   67.69    6.30 
   3   2  12   58.49    8.70 
   1  -3 -12   19.10    5.10 
  -1   3  12   19.50    2.40 
  -1   3  12   19.40    3.30 
   0  -3 -12   24.20    3.90 
   0  -3 -12   34.80    4.40 
   0   3  12   26.70    3.60 
  -1  -3 -12   19.50    2.80 
   1   3  12   29.60    3.90 
   1   3  12   29.40    3.90 
   1   3  12   26.90    4.30 
   1   3  12   21.10    5.00 
   2   3  12    3.50    2.10 
   2   3  12    0.70    2.30 
   2   3  12    6.30    1.70 
   2   3  12    4.70    3.30 
   2   3  12    2.10    2.80 
  -3  -3 -12   49.20    4.20 
   3   3  12   32.70    6.30 
   3   3  12   44.60    4.70 
   3   3  12   48.20    4.60 
   3   3  12   42.00    4.30 
   0  -4 -12    2.80    1.80 
   0  -4 -12    7.90    2.40 
   0   4  12    2.30    1.40 
  -1  -4 -12    7.20    2.40 
  -1  -4 -12    6.30    2.30 
   1   4  12   10.50    2.60 
   1   4  12    7.70    2.20 
  -2  -4 -12   59.59    4.70 
  -2  -4 -12   65.09    5.60 
  -2  -4 -12   63.19    6.00 
   2   4  12   70.99    5.50 
   2   4  12   58.99    5.50 
   2   4  12   48.10    5.30 
   2   4  12   49.70    5.00 
  -3  -4 -12   21.30    2.80 
   3   4  12   24.70    4.60 
   3   4  12   23.50    2.90 
   3   4  12   25.10    2.90 
   0  -5 -12    8.80    2.20 
   0  -5 -12   10.00    2.60 
   0   5  12   14.70    2.30 
  -1  -5 -12   19.10    3.50 
  -1  -5 -12   18.80    3.60 
   1   5  12   18.50    3.20 
   1   5  12   20.20    2.90 
   1   5  12   23.00    3.50 
  -2  -5 -12   33.50    3.00 
  -2  -5 -12   31.80    4.30 
   2   5  12   35.20    3.80 
   2   5  12   27.70    3.90 
   2   5  12   28.60    3.50 
  -1   0 -13    3.00    1.80 
   1   0  13    4.80    1.50 
   1   0  13    5.00    1.90 
   2   0  13   30.30    4.00 
  -1  -1 -13   66.49    5.90 
   1   1  13   67.19    5.60 
  -2  -1 -13   78.19    6.10 
  -2  -1 -13   78.09    7.40 
   2   1  13   75.69    5.60 
   2   1  13   68.99    8.20 
   2   1  13   75.79    5.60 
  -1  -2 -13   83.49    8.30 
  -1  -2 -13   86.29    7.30 
   1   2  13   78.19    6.80 
   1   2  13   70.59    5.70 
   2   2  13  177.98   11.50 
   2   2  13  172.28   11.90 
   0   0   0    0.00    0.00 
  
_computing_structure_solution     'SHELXT 2014/5 (Sheldrick, 2014)' 
;
_shelx_hkl_checksum              98724
loop_
_space_group_symop_operation_xyz
'x, y, z'
loop_
_atom_site_label
_atom_site_type_symbol
_atom_site_fract_x
_atom_site_fract_y
_atom_site_fract_z
_atom_site_U_iso_or_equiv
_atom_site_adp_type
_atom_site_occupancy
_atom_site_site_symmetry_order
_atom_site_calc_flag
_atom_site_refinement_flags_posn
_atom_site_refinement_flags_adp
_atom_site_refinement_flags_occupancy
_atom_site_disorder_assembly
_atom_site_disorder_group
O1 O 1.0200(3) 0.6538(2) 0.43407(17) 0.0596(5) Uani 1 1 d . . . . .
O2 O -0.0193(3) 0.3384(2) 0.5737(2) 0.0667(5) Uani 1 1 d . . . . .
N1 N 0.5710(3) 0.62687(19) 0.47609(17) 0.0470(5) Uani 1 1 d . . . . .
H1 H 0.4294 0.6286 0.4443 0.056 Uiso 1 1 calc R U . . .
N2 N 0.4107(3) 0.37758(19) 0.58161(18) 0.0480(5) Uani 1 1 d . . . . .
H2 H 0.5753 0.3544 0.5572 0.058 Uiso 1 1 calc R U . . .
C1 C 0.8083(4) 0.6453(2) 0.3971(2) 0.0454(5) Uani 1 1 d . . . . .
C2 C 0.8071(4) 0.6592(2) 0.2578(2) 0.0493(5) Uani 1 1 d . . . . .
C3 C 0.6238(6) 0.5939(3) 0.2063(3) 0.0719(8) Uani 1 1 d . . . . .
H3 H 0.4932 0.5404 0.2589 0.086 Uiso 1 1 calc R U . . .
C4 C 0.6344(8) 0.6081(5) 0.0769(3) 0.0973(12) Uani 1 1 d . . . . .
H4 H 0.5115 0.5630 0.0430 0.117 Uiso 1 1 calc R U . . .
C5 C 0.8201(8) 0.6863(5) -0.0012(3) 0.0950(12) Uani 1 1 d . . . . .
H5 H 0.8258 0.6941 -0.0882 0.114 Uiso 1 1 calc R U . . .
C6 C 1.0001(8) 0.7540(4) 0.0483(3) 0.0926(11) Uani 1 1 d . . . . .
H6 H 1.1239 0.8105 -0.0046 0.111 Uiso 1 1 calc R U . . .
C7 C 0.9972(6) 0.7379(3) 0.1776(3) 0.0710(8) Uani 1 1 d . . . . .
H7 H 1.1249 0.7808 0.2103 0.085 Uiso 1 1 calc R U . . .
C8 C 0.2214(4) 0.3128(2) 0.5415(2) 0.0477(5) Uani 1 1 d . . . . .
C9 C 0.3147(4) 0.2034(2) 0.4577(2) 0.0502(5) Uani 1 1 d . . . . .
C10 C 0.1505(6) 0.0952(3) 0.4674(3) 0.0670(7) Uani 1 1 d . . . . .
H10 H -0.0136 0.0921 0.5250 0.080 Uiso 1 1 calc R U . . .
C11 C 0.2273(7) -0.0092(3) 0.3919(4) 0.0810(9) Uani 1 1 d . . . . .
H11 H 0.1172 -0.0829 0.4006 0.097 Uiso 1 1 calc R U . . .
C12 C 0.4648(7) -0.0037(3) 0.3049(4) 0.0797(9) Uani 1 1 d . . . . .
H12 H 0.5145 -0.0727 0.2529 0.096 Uiso 1 1 calc R U . . .
C13 C 0.6298(7) 0.1035(4) 0.2941(4) 0.0828(9) Uani 1 1 d . . . . .
H13 H 0.7914 0.1071 0.2348 0.099 Uiso 1 1 calc R U . . .
C14 C 0.5568(5) 0.2065(3) 0.3712(3) 0.0668(7) Uani 1 1 d . . . . .
H14 H 0.6714 0.2782 0.3648 0.080 Uiso 1 1 calc R U . . .
C15 C 0.5388(4) 0.6040(2) 0.6132(2) 0.0455(5) Uani 1 1 d . . . . .
H15 H 0.7157 0.5832 0.6318 0.055 Uiso 1 1 calc R U . . .
C16 C 0.4347(5) 0.7278(3) 0.6796(2) 0.0569(6) Uani 1 1 d . . . . .
H16A H 0.2661 0.7532 0.6565 0.068 Uiso 1 1 calc R U . . .
H16B H 0.3985 0.7067 0.7709 0.068 Uiso 1 1 calc R U . . .
C17 C 0.6262(6) 0.8451(3) 0.6477(3) 0.0679(7) Uani 1 1 d . . . . .
H17A H 0.8002 0.8177 0.6634 0.081 Uiso 1 1 calc R U . . .
H17B H 0.6490 0.8719 0.5578 0.081 Uiso 1 1 calc R U . . .
C18 C 0.5325(8) 0.9600(3) 0.7222(4) 0.0865(10) Uani 1 1 d . . . . .
H18 H 0.3712 0.9985 0.7117 0.104 Uiso 1 1 calc R U . . .
C19 C 0.6539(14) 1.0106(5) 0.7995(6) 0.139(2) Uani 1 1 d . . . . .
H19A H 0.8159 0.9752 0.8129 0.167 Uiso 1 1 calc R U . . .
H19B H 0.5803 1.0829 0.8423 0.167 Uiso 1 1 calc R U . . .
C20 C 0.3521(4) 0.4854(2) 0.6645(2) 0.0470(5) Uani 1 1 d . . . . .
H20 H 0.1664 0.5136 0.6672 0.056 Uiso 1 1 calc R U . . .
C21 C 0.3786(6) 0.4387(3) 0.8000(3) 0.0675(7) Uani 1 1 d . . . . .
H21A H 0.5569 0.4022 0.7962 0.081 Uiso 1 1 calc R U . . .
H21B H 0.3637 0.5148 0.8501 0.081 Uiso 1 1 calc R U . . .
C22 C 0.1771(9) 0.3378(5) 0.8678(4) 0.0877(10) Uani 1 1 d D . . . .
C23 C 0.2642(19) 0.2901(11) 0.9965(9) 0.101(2) Uani 0.6 1 d D U P A 1
H23 H 0.4142 0.2361 0.9925 0.121 Uiso 0.6 1 calc R U P A 1
C24 C 0.1396(16) 0.3218(8) 1.1048(6) 0.1151(18) Uani 0.7 1 d D U P A 1
H24A H -0.0110 0.3756 1.1113 0.138 Uiso 0.7 1 calc R U P A 1
H24B H 0.1989 0.2911 1.1776 0.138 Uiso 0.7 1 calc R U P A 1
C23' C 0.152(3) 0.3068(19) 0.9986(14) 0.107(2) Uani 0.4 1 d D U P A 2
H23' H -0.0088 0.3374 1.0450 0.129 Uiso 0.4 1 calc R U P A 2
C24' C 0.277(4) 0.2541(19) 1.0632(17) 0.117(3) Uani 0.3 1 d D U P A 2
H24C H 0.4433 0.2188 1.0283 0.140 Uiso 0.3 1 calc R U P A 2
H24D H 0.2129 0.2463 1.1508 0.140 Uiso 0.3 1 calc R U P A 2
H22B H 0.002(12) 0.374(5) 0.869(5) 0.129(18) Uiso 1 1 d . . . . .
H22A H 0.174(9) 0.265(5) 0.812(4) 0.098(13) Uiso 1 1 d . . . . .
loop_
_atom_site_aniso_label
_atom_site_aniso_U_11
_atom_site_aniso_U_22
_atom_site_aniso_U_33
_atom_site_aniso_U_23
_atom_site_aniso_U_13
_atom_site_aniso_U_12
O1 0.0335(9) 0.0907(12) 0.0555(9) -0.0074(8) -0.0104(7) -0.0040(7)
O2 0.0336(9) 0.0761(12) 0.0946(14) -0.0255(10) -0.0162(8) 0.0022(7)
N1 0.0319(9) 0.0666(11) 0.0441(10) -0.0073(8) -0.0106(7) -0.0002(7)
N2 0.0307(9) 0.0592(11) 0.0552(11) -0.0106(8) -0.0093(7) 0.0009(7)
C1 0.0363(11) 0.0528(11) 0.0482(12) -0.0092(9) -0.0094(9) 0.0003(8)
C2 0.0427(12) 0.0595(13) 0.0460(12) -0.0102(10) -0.0081(9) 0.0059(9)
C3 0.0648(18) 0.100(2) 0.0533(15) -0.0159(14) -0.0134(13) -0.0100(15)
C4 0.088(3) 0.151(4) 0.0618(19) -0.029(2) -0.0273(17) -0.004(2)
C5 0.093(2) 0.147(3) 0.0444(15) -0.0096(18) -0.0147(16) 0.017(2)
C6 0.096(3) 0.117(3) 0.0541(17) 0.0107(17) 0.0032(17) -0.006(2)
C7 0.0644(17) 0.091(2) 0.0535(15) -0.0060(14) -0.0027(12) -0.0119(14)
C8 0.0367(12) 0.0536(12) 0.0541(13) -0.0027(9) -0.0131(9) -0.0013(8)
C9 0.0433(12) 0.0548(13) 0.0555(13) -0.0039(10) -0.0169(10) 0.0002(9)
C10 0.0581(16) 0.0624(15) 0.0796(18) -0.0096(13) -0.0102(13) -0.0103(12)
C11 0.082(2) 0.0608(16) 0.102(2) -0.0192(15) -0.0186(18) -0.0110(14)
C12 0.076(2) 0.0704(18) 0.101(2) -0.0299(16) -0.0283(17) 0.0112(14)
C13 0.0624(18) 0.096(2) 0.089(2) -0.0334(18) -0.0052(15) 0.0044(15)
C14 0.0520(15) 0.0710(17) 0.0760(18) -0.0180(13) -0.0052(12) -0.0097(12)
C15 0.0321(10) 0.0623(13) 0.0435(11) -0.0081(9) -0.0095(8) 0.0009(9)
C16 0.0483(13) 0.0669(15) 0.0538(13) -0.0134(11) -0.0035(10) 0.0010(10)
C17 0.0652(17) 0.0677(16) 0.0701(17) -0.0152(13) -0.0087(13) -0.0032(12)
C18 0.093(2) 0.0693(19) 0.097(2) -0.0197(17) -0.0160(19) 0.0069(16)
C19 0.188(6) 0.102(3) 0.148(4) -0.064(3) -0.060(4) 0.020(3)
C20 0.0352(11) 0.0593(13) 0.0467(11) -0.0083(9) -0.0072(8) -0.0004(9)
C21 0.0752(18) 0.0774(17) 0.0505(14) -0.0033(12) -0.0149(12) -0.0045(13)
C22 0.094(3) 0.093(2) 0.070(2) 0.0143(19) -0.0083(18) -0.012(2)
C23 0.111(5) 0.106(4) 0.073(3) 0.027(3) -0.006(4) 0.029(4)
C24 0.121(4) 0.134(4) 0.081(3) 0.019(3) -0.009(3) 0.025(3)
C23' 0.115(6) 0.119(5) 0.074(3) 0.027(3) -0.002(5) 0.024(5)
C24' 0.120(6) 0.135(6) 0.084(5) 0.017(5) -0.006(5) 0.034(5)
loop_
_atom_type_symbol
_atom_type_description
_atom_type_scat_dispersion_real
_atom_type_scat_dispersion_imag
_atom_type_scat_source
C C 0.0181 0.0091 'International Tables Vol C Tables 4.2.6.8 and 6.1.1.4'
H H 0.0000 0.0000 'International Tables Vol C Tables 4.2.6.8 and 6.1.1.4'
N N 0.0311 0.0180 'International Tables Vol C Tables 4.2.6.8 and 6.1.1.4'
O O 0.0492 0.0322 'International Tables Vol C Tables 4.2.6.8 and 6.1.1.4'
loop_
_geom_angle_atom_site_label_1
_geom_angle_atom_site_label_2
_geom_angle_atom_site_label_3
_geom_angle
_geom_angle_site_symmetry_1
_geom_angle_site_symmetry_3
_geom_angle_publ_flag
C1 N1 C15 123.41(18) . . ?
C1 N1 H1 118.3 . . ?
C15 N1 H1 118.3 . . ?
C8 N2 C20 123.28(17) . . ?
C8 N2 H2 118.4 . . ?
C20 N2 H2 118.4 . . ?
O1 C1 N1 123.0(2) . . ?
O1 C1 C2 120.46(19) . . ?
N1 C1 C2 116.51(18) . . ?
C7 C2 C3 118.6(2) . . ?
C7 C2 C1 119.2(2) . . ?
C3 C2 C1 122.3(2) . . ?
C4 C3 C2 120.0(3) . . ?
C4 C3 H3 120.0 . . ?
C2 C3 H3 120.0 . . ?
C5 C4 C3 121.1(4) . . ?
C5 C4 H4 119.4 . . ?
C3 C4 H4 119.4 . . ?
C4 C5 C6 119.8(3) . . ?
C4 C5 H5 120.1 . . ?
C6 C5 H5 120.1 . . ?
C5 C6 C7 119.8(3) . . ?
C5 C6 H6 120.1 . . ?
C7 C6 H6 120.1 . . ?
C2 C7 C6 120.6(3) . . ?
C2 C7 H7 119.7 . . ?
C6 C7 H7 119.7 . . ?
O2 C8 N2 122.4(2) . . ?
O2 C8 C9 120.9(2) . . ?
N2 C8 C9 116.66(18) . . ?
C10 C9 C14 118.9(2) . . ?
C10 C9 C8 118.2(2) . . ?
C14 C9 C8 122.9(2) . . ?
C9 C10 C11 120.6(3) . . ?
C9 C10 H10 119.7 . . ?
C11 C10 H10 119.7 . . ?
C12 C11 C10 120.0(3) . . ?
C12 C11 H11 120.0 . . ?
C10 C11 H11 120.0 . . ?
C11 C12 C13 120.0(3) . . ?
C11 C12 H12 120.0 . . ?
C13 C12 H12 120.0 . . ?
C12 C13 C14 120.2(3) . . ?
C12 C13 H13 119.9 . . ?
C14 C13 H13 119.9 . . ?
C9 C14 C13 120.3(3) . . ?
C9 C14 H14 119.8 . . ?
C13 C14 H14 119.8 . . ?
N1 C15 C16 110.77(19) . . ?
N1 C15 C20 111.02(18) . . ?
C16 C15 C20 110.98(18) . . ?
N1 C15 H15 108.0 . . ?
C16 C15 H15 108.0 . . ?
C20 C15 H15 108.0 . . ?
C17 C16 C15 114.4(2) . . ?
C17 C16 H16A 108.7 . . ?
C15 C16 H16A 108.7 . . ?
C17 C16 H16B 108.7 . . ?
C15 C16 H16B 108.7 . . ?
H16A C16 H16B 107.6 . . ?
C18 C17 C16 113.5(3) . . ?
C18 C17 H17A 108.9 . . ?
C16 C17 H17A 108.9 . . ?
C18 C17 H17B 108.9 . . ?
C16 C17 H17B 108.9 . . ?
H17A C17 H17B 107.7 . . ?
C19 C18 C17 125.7(4) . . ?
C19 C18 H18 117.1 . . ?
C17 C18 H18 117.1 . . ?
C18 C19 H19A 120.0 . . ?
C18 C19 H19B 120.0 . . ?
H19A C19 H19B 120.0 . . ?
N2 C20 C21 110.2(2) . . ?
N2 C20 C15 110.96(17) . . ?
C21 C20 C15 110.53(19) . . ?
N2 C20 H20 108.4 . . ?
C21 C20 H20 108.4 . . ?
C15 C20 H20 108.4 . . ?
C22 C21 C20 115.5(3) . . ?
C22 C21 H21A 108.4 . . ?
C20 C21 H21A 108.4 . . ?
C22 C21 H21B 108.4 . . ?
C20 C21 H21B 108.4 . . ?
H21A C21 H21B 107.5 . . ?
C23' C22 C21 119.8(9) . . ?
C21 C22 C23 107.0(5) . . ?
C23' C22 H22B 99(3) . . ?
C21 C22 H22B 108(3) . . ?
C23 C22 H22B 120(3) . . ?
C23' C22 H22A 119(3) . . ?
C21 C22 H22A 109(3) . . ?
C23 C22 H22A 113(3) . . ?
H22B C22 H22A 100(4) . . ?
C24 C23 C22 123.3(7) . . ?
C24 C23 H23 118.4 . . ?
C22 C23 H23 118.4 . . ?
C23 C24 H24A 120.0 . . ?
C23 C24 H24B 120.0 . . ?
H24A C24 H24B 120.0 . . ?
C24' C23' C22 136.9(17) . . ?
C24' C23' H23' 111.5 . . ?
C22 C23' H23' 111.5 . . ?
C23' C24' H24C 120.0 . . ?
C23' C24' H24D 120.0 . . ?
H24C C24' H24D 120.0 . . ?
loop_
_geom_bond_atom_site_label_1
_geom_bond_atom_site_label_2
_geom_bond_distance
_geom_bond_site_symmetry_2
_geom_bond_publ_flag
O1 C1 1.232(3) . ?
O2 C8 1.232(3) . ?
N1 C1 1.331(3) . ?
N1 C15 1.453(3) . ?
N1 H1 0.8600 . ?
N2 C8 1.336(3) . ?
N2 C20 1.454(3) . ?
N2 H2 0.8600 . ?
C1 C2 1.498(3) . ?
C2 C7 1.377(4) . ?
C2 C3 1.382(4) . ?
C3 C4 1.380(5) . ?
C3 H3 0.9300 . ?
C4 C5 1.350(6) . ?
C4 H4 0.9300 . ?
C5 C6 1.370(6) . ?
C5 H5 0.9300 . ?
C6 C7 1.387(4) . ?
C6 H6 0.9300 . ?
C7 H7 0.9300 . ?
C8 C9 1.495(3) . ?
C9 C10 1.376(4) . ?
C9 C14 1.380(3) . ?
C10 C11 1.388(4) . ?
C10 H10 0.9300 . ?
C11 C12 1.365(5) . ?
C11 H11 0.9300 . ?
C12 C13 1.369(5) . ?
C12 H12 0.9300 . ?
C13 C14 1.385(4) . ?
C13 H13 0.9300 . ?
C14 H14 0.9300 . ?
C15 C16 1.529(3) . ?
C15 C20 1.542(3) . ?
C15 H15 0.9800 . ?
C16 C17 1.524(4) . ?
C16 H16A 0.9700 . ?
C16 H16B 0.9700 . ?
C17 C18 1.484(4) . ?
C17 H17A 0.9700 . ?
C17 H17B 0.9700 . ?
C18 C19 1.276(6) . ?
C18 H18 0.9300 . ?
C19 H19A 0.9300 . ?
C19 H19B 0.9300 . ?
C20 C21 1.533(3) . ?
C20 H20 0.9800 . ?
C21 C22 1.498(5) . ?
C21 H21A 0.9700 . ?
C21 H21B 0.9700 . ?
C22 C23' 1.400(14) . ?
C22 C23 1.583(10) . ?
C22 H22B 0.96(6) . ?
C22 H22A 0.99(5) . ?
C23 C24 1.268(11) . ?
C23 H23 0.9300 . ?
C24 H24A 0.9300 . ?
C24 H24B 0.9300 . ?
C23' C24' 1.138(19) . ?
C23' H23' 0.9300 . ?
C24' H24C 0.9300 . ?
C24' H24D 0.9300 . ?
loop_
_geom_hbond_atom_site_label_D
_geom_hbond_atom_site_label_H
_geom_hbond_atom_site_label_A
_geom_hbond_distance_DH
_geom_hbond_distance_HA
_geom_hbond_distance_DA
_geom_hbond_angle_DHA
_geom_hbond_site_symmetry_A
N2 H2 O2 0.86 2.11 2.910(2) 153.9 1_655
N1 H1 O1 0.86 2.12 2.941(2) 158.9 1_455
N2 H2 O2 0.86 2.11 2.910(2) 153.9 1_655
N1 H1 O1 0.86 2.12 2.941(2) 158.9 1_455
N2 H2 O2 0.86 2.11 2.910(2) 153.9 1_655
N1 H1 O1 0.86 2.12 2.941(2) 158.9 1_455
loop_
_geom_torsion_atom_site_label_1
_geom_torsion_atom_site_label_2
_geom_torsion_atom_site_label_3
_geom_torsion_atom_site_label_4
_geom_torsion
_geom_torsion_site_symmetry_1
_geom_torsion_site_symmetry_2
_geom_torsion_site_symmetry_3
_geom_torsion_site_symmetry_4
_geom_torsion_publ_flag
C15 N1 C1 O1 -5.3(4) . . . . ?
C15 N1 C1 C2 176.3(2) . . . . ?
O1 C1 C2 C7 -30.0(4) . . . . ?
N1 C1 C2 C7 148.4(2) . . . . ?
O1 C1 C2 C3 148.9(3) . . . . ?
N1 C1 C2 C3 -32.6(3) . . . . ?
C7 C2 C3 C4 0.2(5) . . . . ?
C1 C2 C3 C4 -178.8(3) . . . . ?
C2 C3 C4 C5 -0.7(6) . . . . ?
C3 C4 C5 C6 -0.6(7) . . . . ?
C4 C5 C6 C7 2.5(6) . . . . ?
C3 C2 C7 C6 1.6(5) . . . . ?
C1 C2 C7 C6 -179.4(3) . . . . ?
C5 C6 C7 C2 -3.0(6) . . . . ?
C20 N2 C8 O2 -1.2(3) . . . . ?
C20 N2 C8 C9 -179.4(2) . . . . ?
O2 C8 C9 C10 -31.9(3) . . . . ?
N2 C8 C9 C10 146.3(2) . . . . ?
O2 C8 C9 C14 147.8(3) . . . . ?
N2 C8 C9 C14 -34.0(3) . . . . ?
C14 C9 C10 C11 0.3(4) . . . . ?
C8 C9 C10 C11 -179.9(3) . . . . ?
C9 C10 C11 C12 -1.7(5) . . . . ?
C10 C11 C12 C13 1.5(6) . . . . ?
C11 C12 C13 C14 0.0(6) . . . . ?
C10 C9 C14 C13 1.2(4) . . . . ?
C8 C9 C14 C13 -178.5(3) . . . . ?
C12 C13 C14 C9 -1.4(5) . . . . ?
C1 N1 C15 C16 104.3(2) . . . . ?
C1 N1 C15 C20 -132.0(2) . . . . ?
N1 C15 C16 C17 -64.0(3) . . . . ?
C20 C15 C16 C17 172.2(2) . . . . ?
C15 C16 C17 C18 -174.6(3) . . . . ?
C16 C17 C18 C19 118.1(6) . . . . ?
C8 N2 C20 C21 105.1(2) . . . . ?
C8 N2 C20 C15 -132.2(2) . . . . ?
N1 C15 C20 N2 42.2(2) . . . . ?
C16 C15 C20 N2 165.82(19) . . . . ?
N1 C15 C20 C21 164.7(2) . . . . ?
C16 C15 C20 C21 -71.6(2) . . . . ?
N2 C20 C21 C22 -66.1(4) . . . . ?
C15 C20 C21 C22 170.9(3) . . . . ?
C20 C21 C22 C23' -168.3(8) . . . . ?
C20 C21 C22 C23 172.5(4) . . . . ?
C23' C22 C23 C24 -22(2) . . . . ?
C21 C22 C23 C24 107.4(11) . . . . ?
C21 C22 C23' C24' -70(3) . . . . ?
C23 C22 C23' C24' -11.7(19) . . . . ?
