#------------------------------------------------------------------------------
#$Date: 2020-06-17 01:46:17 +0300 (Wed, 17 Jun 2020) $
#$Revision: 253180 $
#$URL: file:///home/coder/svn-repositories/cod/cif/4/13/50/4135073.cif $
#------------------------------------------------------------------------------
#
# This file is available in the Crystallography Open Database (COD),
# http://www.crystallography.net/
#
# All data on this site have been placed in the public domain by the
# contributors.
#
data_4135073
loop_
_publ_author_name
'Scholz, Alexander Stefan'
'Massoth, Julian'
'Bursch, Markus'
'Mewes, Jan'
'Hetzke, Thilo'
'Wolf, Bernd'
'Bolte, Michael'
'Lerner, Hans-Wolfram'
'Grimme, Stefan'
'Wagner, Matthias'
_publ_section_title
;
 BNB-Doped Phenalenyls: Modular Synthesis, Optoelectronic Properties, and
 One-Electron Reduction.
;
_journal_name_full               'Journal of the American Chemical Society'
_journal_paper_doi               10.1021/jacs.0c03118
_journal_year                    2020
_chemical_formula_moiety         'C19 H15 Br2 N'
_chemical_formula_sum            'C19 H15 Br2 N'
_chemical_formula_weight         417.14
_space_group_crystal_system      triclinic
_space_group_IT_number           2
_space_group_name_Hall           '-P 1'
_space_group_name_H-M_alt        'P -1'
_atom_sites_solution_hydrogens   mixed
_atom_sites_solution_primary     direct
_audit_creation_method           SHELXL-2016/6
_cell_angle_alpha                95.305(11)
_cell_angle_beta                 101.490(10)
_cell_angle_gamma                103.923(10)
_cell_formula_units_Z            2
_cell_length_a                   7.4924(9)
_cell_length_b                   9.6174(12)
_cell_length_c                   11.9767(16)
_cell_measurement_reflns_used    7348
_cell_measurement_temperature    173(2)
_cell_measurement_theta_max      26.6
_cell_measurement_theta_min      3.42
_cell_volume                     811.88(19)
_computing_cell_refinement       'X-Area (Stoe & Cie, 2001)'
_computing_data_collection       'X-Area (Stoe & Cie, 2001)'
_computing_data_reduction        'X-Area (Stoe & Cie, 2001)'
_computing_molecular_graphics    'XP in SHELXTL-Plus (Sheldrick, 2008)'
_computing_publication_material  SHELXL
_computing_structure_refinement  'SHELXL (Sheldrick, 2008)'
_computing_structure_solution    'SHELXS (Sheldrick, 2008)'
_diffrn_ambient_temperature      173(2)
_diffrn_measured_fraction_theta_full 0.998
_diffrn_measured_fraction_theta_max 0.998
_diffrn_measurement_device_type  'STOE IPDS II two-circle-diffractometer'
_diffrn_measurement_method       \w
_diffrn_radiation_type           MoK\a
_diffrn_radiation_wavelength     0.71073
_diffrn_reflns_av_unetI/netI     0.0792
_diffrn_reflns_Laue_measured_fraction_full 0.998
_diffrn_reflns_Laue_measured_fraction_max 0.998
_diffrn_reflns_limit_h_max       8
_diffrn_reflns_limit_h_min       -8
_diffrn_reflns_limit_k_max       11
_diffrn_reflns_limit_k_min       -11
_diffrn_reflns_limit_l_max       14
_diffrn_reflns_limit_l_min       -14
_diffrn_reflns_number            7348
_diffrn_reflns_point_group_measured_fraction_full 0.998
_diffrn_reflns_point_group_measured_fraction_max 0.998
_diffrn_reflns_theta_full        25.000
_diffrn_reflns_theta_max         25.026
_diffrn_reflns_theta_min         3.419
_diffrn_source                   'Genix 3D I\mS microfocus X-ray source'
_exptl_absorpt_coefficient_mu    4.988
_exptl_absorpt_correction_T_max  1.000
_exptl_absorpt_correction_T_min  0.708
_exptl_absorpt_correction_type   multi-scan
_exptl_absorpt_process_details   'X-Area (Stoe & Cie, 2001)'
_exptl_crystal_colour            colourless
_exptl_crystal_density_diffrn    1.706
_exptl_crystal_description       block
_exptl_crystal_F_000             412
_exptl_crystal_size_max          0.270
_exptl_crystal_size_mid          0.180
_exptl_crystal_size_min          0.160
_refine_diff_density_max         1.101
_refine_diff_density_min         -0.708
_refine_diff_density_rms         0.178
_refine_ls_extinction_method     none
_refine_ls_goodness_of_fit_ref   1.382
_refine_ls_hydrogen_treatment    constr
_refine_ls_matrix_type           full
_refine_ls_number_parameters     201
_refine_ls_number_reflns         7348
_refine_ls_number_restraints     0
_refine_ls_restrained_S_all      1.382
_refine_ls_R_factor_all          0.1105
_refine_ls_R_factor_gt           0.0822
_refine_ls_shift/su_max          0.000
_refine_ls_shift/su_mean         0.000
_refine_ls_structure_factor_coef Fsqd
_refine_ls_weighting_details
'w=1/[\s^2^(Fo^2^)+(0.0564P)^2^] where P=(Fo^2^+2Fc^2^)/3'
_refine_ls_weighting_scheme      calc
_refine_ls_wR_factor_gt          0.1612
_refine_ls_wR_factor_ref         0.1689
_reflns_Friedel_coverage         0.000
_reflns_number_gt                5418
_reflns_number_total             7348
_reflns_threshold_expression     'I > 2\s(I)'
_cod_data_source_file            ja0c03118_si_021.cif
_cod_data_source_block           wa2784
_cod_original_cell_volume        811.88(18)
_cod_database_code               4135073
_shelx_shelxl_version_number     2016/6
_shelx_space_group_comment
; 
The symmetry employed for this shelxl refinement is uniquely defined 
by the following loop, which should always be used as a source of 
symmetry information in preference to the above space-group names. 
They are only intended as comments. 
;
_shelx_estimated_absorpt_t_min   0.346
_shelx_estimated_absorpt_t_max   0.502
_shelx_res_file
; 
TITL wa2784 in P-1 
    wa2784.res 
    created by SHELXL-2016/6 at 11:32:03 on 29-Mar-2019 
CELL 0.71073   7.4924   9.6174  11.9767  95.305 101.490 103.923 
ZERR    2.00   0.0009   0.0012   0.0016   0.011   0.010   0.010 
LATT  1 
SFAC C H BR N 
UNIT 38 30 4 2 
TEMP-100 
SIZE.16 .18 .27 
REM colourless block 
SHEL999. .84 
ACTA50 
CONF 
HTAB 
EQIV $1 x-1, y, z 
HTAB N1 Br1_$1 
EQIV $2 -x+2, -y+1, -z+1 
HTAB N1 Br1_$2 
HTAB C13 Br2_$2 
L.S. 8 
BOND$H 
FMAP 2 
PLAN 20 
WGHT    0.056400 
BASF   0.26854 
FVAR       0.68128 
BR1   3    1.146749    0.522230    0.349551    11.00000    0.03363    0.04584 = 
         0.03411    0.00888    0.01259    0.01395 
BR2   3    0.512916   -0.000926    0.281050    11.00000    0.03794    0.04117 = 
         0.06772    0.01365    0.00312    0.01318 
N1    4    0.492182    0.373836    0.363285    11.00000    0.02998    0.04207 = 
         0.02937    0.00381    0.00925    0.00434 
AFIX   3 
H1A   2    0.396900    0.415239    0.359823    11.00000   -1.20000 
H1B   2    0.578387    0.398435    0.431939    11.00000   -1.20000 
AFIX   0 
C1    1    0.548929    0.376731    0.259119    11.00000    0.03601    0.03305 = 
         0.02408    0.01316    0.01387    0.01450 
C2    1    0.701283    0.485785    0.246125    11.00000    0.02811    0.02746 = 
         0.02456    0.00707    0.00915    0.00773 
C3    1    0.749555    0.485037    0.140188    11.00000    0.02197    0.02774 = 
         0.03910    0.01043    0.00965    0.00000 
AFIX  43 
H3    2    0.853706    0.559226    0.132082    11.00000   -1.20000 
AFIX   0 
C4    1    0.653708    0.381881    0.046192    11.00000    0.02807    0.02589 = 
         0.02962    0.00388    0.00632    0.00748 
C5    1    0.501214    0.276056    0.059678    11.00000    0.03305    0.03063 = 
         0.02560    0.00115    0.00646    0.00757 
AFIX  43 
H5    2    0.432131    0.204246   -0.004187    11.00000   -1.20000 
AFIX   0 
C6    1    0.445481    0.271245    0.163892    11.00000    0.02780    0.02638 = 
         0.03664    0.00908    0.00765    0.00859 
C7    1    0.709187    0.385692   -0.068499    11.00000    0.04612    0.05363 = 
         0.02551    0.00663    0.01960    0.00792 
AFIX 137 
H7A   2    0.632752    0.436350   -0.117292    11.00000   -1.50000 
H7B   2    0.687554    0.286467   -0.106557    11.00000   -1.50000 
H7C   2    0.843179    0.436727   -0.055916    11.00000   -1.50000 
AFIX   0 
C11   1    0.803428    0.609026    0.344535    11.00000    0.03951    0.03129 = 
         0.02426    0.00662    0.01143    0.00702 
C12   1    0.990383    0.634446    0.397598    11.00000    0.03237    0.03079 = 
         0.02727    0.00874    0.01379    0.00322 
C13   1    1.075726    0.744596    0.489173    11.00000    0.03854    0.03329 = 
         0.03009    0.00718    0.00603    0.00383 
AFIX  43 
H13   2    1.205655    0.760593    0.524568    11.00000   -1.20000 
AFIX   0 
C14   1    0.973298    0.830889    0.529090    11.00000    0.04264    0.03015 = 
         0.03359    0.00703    0.00955    0.00264 
AFIX  43 
H14   2    1.031120    0.905387    0.592897    11.00000   -1.20000 
AFIX   0 
C15   1    0.785198    0.808309    0.475524    11.00000    0.04641    0.03685 = 
         0.03776    0.01413    0.01583    0.01345 
AFIX  43 
H15   2    0.716874    0.870173    0.503076    11.00000   -1.20000 
AFIX   0 
C16   1    0.693429    0.702109    0.385530    11.00000    0.04055    0.03240 = 
         0.01502    0.00652    0.01096   -0.01479 
AFIX  43 
H16   2    0.563798    0.688569    0.350596    11.00000   -1.20000 
AFIX   0 
C21   1    0.270219    0.159106    0.172165    11.00000    0.03057    0.02647 = 
         0.02925    0.00000    0.01069   -0.00125 
C22   1    0.276729    0.033362    0.218435    11.00000    0.02470    0.03919 = 
         0.03174   -0.00044    0.00590    0.00334 
C23   1    0.115230   -0.070049    0.222734    11.00000    0.03864    0.03876 = 
         0.03631    0.00248    0.01120   -0.00005 
AFIX  43 
H23   2    0.123492   -0.155409    0.255166    11.00000   -1.20000 
AFIX   0 
C24   1   -0.057133   -0.046915    0.179235    11.00000    0.03415    0.03085 = 
         0.03627   -0.00540    0.01484   -0.00326 
AFIX  43 
H24   2   -0.169065   -0.117722    0.181018    11.00000   -1.20000 
AFIX   0 
C25   1   -0.071108    0.077268    0.132913    11.00000    0.02310    0.05959 = 
         0.04393    0.00979    0.00658    0.00869 
AFIX  43 
H25   2   -0.191243    0.093228    0.104779    11.00000   -1.20000 
AFIX   0 
C26   1    0.093105    0.178515    0.128062    11.00000    0.03594    0.03431 = 
         0.03983    0.00239    0.01377    0.00088 
AFIX  43 
H26   2    0.084274    0.262672    0.093951    11.00000   -1.20000 
AFIX   0 
HKLF 5 
  
  
  
  
REM  wa2784 in P-1 
REM R1 =  0.0822 for    5418 Fo > 4sig(Fo)  and  0.1105 for all    7348 data 
REM    201 parameters refined using      0 restraints 
  
END 
  
WGHT      0.1150      0.9216 
  
REM Instructions for potential hydrogen bonds 
HTAB N1 Br1_$1 
HTAB N1 Br1_$2 
  
REM Highest difference peak  1.101,  deepest hole -0.708,  1-sigma level  0.178 
Q1    1   0.7722  0.5277  0.3434  11.00000  0.05    1.10 
Q2    1   0.0330  0.2477  0.0756  11.00000  0.05    1.07 
Q3    1   1.0799  0.4299  0.2836  11.00000  0.05    0.99 
Q4    1   1.2130  0.6202  0.4138  11.00000  0.05    0.96 
Q5    1   0.4501 -0.1000  0.2202  11.00000  0.05    0.91 
Q6    1   1.0375  0.5632  0.3773  11.00000  0.05    0.90 
Q7    1  -0.1284  0.0039  0.2827  11.00000  0.05    0.88 
Q8    1   0.5939  0.1053  0.3409  11.00000  0.05    0.83 
Q9    1   0.5041  0.5245  0.3481  11.00000  0.05    0.82 
Q10   1  -0.0214 -0.0278  0.2338  11.00000  0.05    0.75 
Q11   1   0.1456 -0.0042  0.2830  11.00000  0.05    0.74 
Q12   1   1.0429  0.7829  0.4730  11.00000  0.05    0.69 
Q13   1   0.6723  0.6863  0.4065  11.00000  0.05    0.68 
Q14   1   0.6556  0.7614  0.3814  11.00000  0.05    0.67 
Q15   1   0.4287  0.0589  0.2646  11.00000  0.05    0.66 
Q16   1   0.6005  0.7210  0.3586  11.00000  0.05    0.64 
Q17   1   1.2352  0.4995  0.3007  11.00000  0.05    0.64 
Q18   1   0.4140  0.0195  0.3291  11.00000  0.05    0.62 
Q19   1   1.2871  0.6860  0.4835  11.00000  0.05    0.61 
Q20   1   0.6211 -0.0600  0.2518  11.00000  0.05    0.60 
;
_shelx_res_checksum              34550
_shelx_hkl_file
; 
  -7   3  -7   -4.28   16.21   1 
  -6   5   8   53.41   16.49   1 
  -4   0  -9   90.37   13.33   1 
  -4   1  -8  -12.85   12.06   1 
  -2  -4 -10   70.28    9.23   1 
  -2  -1  -8   13.37   12.24   1 
  -1  -4  14   57.60   16.39   1 
   1  -9  -7   -1.19   11.77   1 
   1  -5  -6  121.48   12.58   1 
   1  -5  10   66.93   15.34   1 
   1  -4  -5  100.01   15.02   1 
   1  -3   7   87.58   14.46   1 
   2 -11  -4   12.35   15.69   1 
  -7   5  10   52.08   14.29   1 
  -4  -2 -10   46.15   14.09   1 
  -4   2  12   22.47   12.81   1 
  -4   3  10   72.09   16.32   1 
  -3   3   7  863.91   19.93   1 
  -2  -5 -10   33.89   11.81   1 
  -2  -2  14   68.26   12.67   1 
  -2   2   7  734.20   21.02   1 
  -1  -5  -9  107.22   13.35   1 
  -1  -3  -8   98.34   12.72   1 
   1  -6  11   -4.24   11.44   1 
   1  -2  -1   95.36   16.69   1 
   2 -10  -4   11.90   14.98   1 
   2  -6  -3  680.37   20.85   1 
  -6   5   9   23.39   15.40   1 
  -4   1  14   -6.22   12.28   1 
  -4   4   7  458.34   17.30   1 
  -2   1  -5 2275.52   30.05   1 
  -2   1  10   15.59   11.51   1 
  -1  -6  -9   16.25   13.31   1 
  -1  -2  -7  413.61   16.17   1 
  -1  -1  -6   33.62   11.94   1 
  -1  -1  11   13.65   13.17   1 
  -1   0   9  579.28   17.41   1 
  -1   1  -2   42.71   15.74   1 
   1 -10  -6    8.10   15.93   1 
   1  -7  12    2.15   12.44   1 
   1  -6  -6  485.22   16.79   1 
   1  -2   5 1081.58   25.79   1 
   2  -9  -4   17.47   15.00   1 
   2  -9  10   40.01   16.67   1 
   2  -5   6   -0.55   13.67   1 
  -7   4  -5   60.79   17.20   1 
  -7   6   7  201.32   18.62   1 
  -6   4  12   43.72   14.47   1 
  -4  -1  -9   35.78   14.48   1 
  -4   2  -6   52.34   16.84   1 
  -2  -4  -9  155.67   14.19   1 
  -2  -2  -8    6.39   11.97   1 
  -1  -4  -8  192.11   14.84   1 
   1  -9  -6    4.59   12.22   1 
   1  -8  -6  118.25   16.51   1 
   1  -7  -6   28.65   12.35   1 
   1  -5  -5  273.36   16.49   1 
   1  -3  -3 2427.26   34.70   1 
   1  -3   8   73.33   15.28   1 
   2 -11  -3   25.08   15.92   1 
   2  -7   9   11.45   15.11   1 
   2  -6   8   25.07   13.89   1 
  -6   1  -8    2.87   12.32   1 
  -6   2  -7    3.27   16.13   1 
  -4   0  -8   29.56   12.50   1 
  -4   1  -7   13.09   15.73   1 
  -4   2  13   20.00   13.23   1 
  -4   4   8   16.58   13.63   1 
  -2  -5  -9   33.38   11.97   1 
  -2  -1  -7  181.91   13.51   1 
  -2   2   8  273.24   14.78   1 
  -1  -2  13   21.73   12.25   1 
  -1   0  -4 1829.36   29.61   1 
  -1   1   7   51.04   13.20   1 
   1  -6  12   -3.51   15.46   1 
   1  -5  11  101.13   13.89   1 
   1  -4  -4  580.79   19.38   1 
   1  -4  10  228.70   17.41   1 
   2  -7  -3  183.63   16.43   1 
  -7   2  -7  107.52   18.40   1 
  -7   3  -6   64.65   16.48   1 
  -7   6   8   19.53   16.72   1 
  -6   5  10   38.46   12.78   1 
  -4   3  -4  205.19   17.00   1 
  -2  -6  -9   72.04   13.14   1 
  -2  -3  -8   11.82   13.20   1 
  -2   1  11  277.43   14.24   1 
  -1  -8  -8    5.73   12.56   1 
  -1  -6  -8   41.42   12.35   1 
  -1  -5  -8  120.40   13.23   1 
  -1  -3  -7   15.97   12.03   1 
  -1  -1  12   62.00   14.44   1 
  -1   0  10   34.37   12.46   1 
   1  -2   6   30.80   11.95   1 
   2 -10  -3   68.12   17.03   1 
   2  -9  -3   -6.68   14.24   1 
   2  -4   4   14.06   14.92   1 
  -6   6   3   41.05   23.73   1 
  -6   6   4   35.43   20.00   1 
  -6   6   5  134.61   18.02   1 
  -5  -2  -9   27.40   14.31   1 
  -4   3  12   35.37   17.94   1 
  -2   2   9    4.97   12.34   1 
  -1  -7  -8   -9.64   13.99   1 
  -1  -2  -6    8.71   15.00   1 
  -1   1   8  184.88   14.80   1 
   1 -10  -5   31.49   13.96   1 
   1  -9  -5   14.16   15.93   1 
   1  -6  -5    6.09   12.84   1 
   1  -3   9   78.05   13.51   1 
   2 -11  -2    5.55   17.76   1 
   2  -6  -2  493.54   20.04   1 
   2  -6   9   80.91   17.00   1 
   2  -4   5   11.73   16.32   1 
  -7   6   9   29.68   13.96   1 
  -6   0  -8   70.99   14.53   1 
  -6   5  11   20.33   13.92   1 
  -4   2  14   12.94   13.25   1 
  -3   2  12  108.21   13.99   1 
  -2   1  -4  894.29   24.37   1 
  -2   2  -2   63.77   16.56   1 
  -2   3   3   12.27   15.55   1 
  -2   3   4    6.68   15.53   1 
  -1  -4  -7  266.10   14.57   1 
  -1  -2  14   30.29   13.41   1 
  -1  -1  -5   22.18   11.17   1 
  -1   0  11  192.34   13.63   1 
   1  -8  -5   69.02   12.89   1 
   1  -7  -5   16.09   13.13   1 
   1  -6  13   39.75   16.95   1 
   1  -5  12   41.76   13.28   1 
   1  -4  11   26.83   15.91   1 
   1  -2   7 1292.73   23.96   1 
   2  -5   8   90.65   15.61   1 
  -7   4  -4   68.60   20.63   1 
  -6   1  -7  110.95   17.17   1 
  -6   6   7   25.97   17.44   1 
  -4   0  -7  376.09   20.07   1 
  -4   2  -5  194.52   17.57   1 
  -4   4  10  122.64   15.54   1 
  -3   3  10   55.65   13.85   1 
  -3   4   5    9.91   12.02   1 
  -2  -7  -8   10.64   16.04   1 
  -2  -5  -8   27.83   13.29   1 
  -2   3   2   13.13   15.81   1 
  -2   3   5  292.43   16.49   1 
  -1  -1  13   59.15   12.64   1 
  -1   1   9    3.06   12.65   1 
   1  -5  -4   82.73   12.46   1 
   2 -10  -2  171.67   18.54   1 
   2  -7  -2   11.50   14.52   1 
   2  -4   6    0.40   14.23   1 
  -6   2  -6  227.86   17.99   1 
  -6   6   2   15.64   26.89   1 
  -4  -2  -8   38.35   13.57   1 
  -4   1  -6   20.09   16.81   1 
  -4   3  13  117.74   15.39   1 
  -3   4   6  123.21   13.71   1 
  -2  -1  -6  299.30   15.15   1 
  -2   0  -5   89.84   12.14   1 
  -2   3   6  122.01   13.65   1 
  -1  -8  -7   26.64   13.23   1 
  -1  -7  -7   23.61   17.93   1 
  -1  -6  -7  107.80   13.92   1 
  -1  -5  -7    5.83   13.22   1 
   1 -10  -4  103.54   17.85   1 
   1  -4  -3  453.33   19.99   1 
   1  -3  -2 1153.02   29.01   1 
   1  -3  10   89.71   13.89   1 
   1  -2   8  156.13   14.49   1 
   2  -9  -2   25.69   15.17   1 
   2  -8  -2  285.01   17.79   1 
   2  -7  11   27.20   16.10   1 
  -7   2  -6   32.22   17.67   1 
  -7   3  -5  152.90   18.40   1 
  -4   5   4   18.05   14.77   1 
  -4   5   5   14.11   12.94   1 
  -4   5   6    4.19   15.56   1 
  -2  -3  -7  129.24   13.21   1 
  -2   3   7  169.54   15.49   1 
  -1  -3  -6  184.24   14.46   1 
  -1   0  12  153.27   14.73   1 
  -1   1  10   44.91   12.70   1 
  -1   2   3   90.40   14.23   1 
  -1   2   4 1018.80   23.75   1 
   1  -9  -4    1.65   16.04   1 
   1  -5  13   90.94   14.12   1 
   1  -4  12   20.41   13.25   1 
   2 -11  -1   18.94   15.61   1 
   2  -5   9   49.00   15.33   1 
   2  -4   7    9.58   15.20   1 
  -4  -3  -8  107.42   14.27   1 
  -4   5   3  538.88   23.76   1 
  -4   5   7  130.72   17.80   1 
  -2  -4  -7  235.17   16.80   1 
  -1  -1  14    4.24   13.25   1 
  -1   2   6 1741.31   26.24   1 
   1 -11  -3   33.71   17.64   1 
   1  -7  -4   15.73   13.87   1 
   1  -3  11  184.07   14.95   1 
   1  -2   9  178.30   15.05   1 
   2  -6  -1   21.53   14.29   1 
  -6   0  -7  -12.26   13.01   1 
  -6   4  -3  275.84   23.55   1 
  -5  -3  -8   98.17   14.23   1 
  -4  -4  -8   48.54   13.70   1 
  -4  -1  -7   11.78   13.75   1 
  -4   3  -3 1112.90   28.69   1 
  -4   4  12   47.38   15.11   1 
  -4   5   8   33.41   16.63   1 
  -3   2  14   73.79   13.69   1 
  -2  -7  -7    8.13   17.15   1 
  -2  -5  -7    9.14   12.88   1 
  -2  -2  -6  226.19   17.41   1 
  -1  -9  -6   37.98   14.96   1 
  -1  -4  -6    4.07   12.41   1 
  -1   0  13   38.04   13.32   1 
  -1   1  11   30.13   12.70   1 
  -1   2   2   25.03   16.40   1 
  -1   2   7  519.03   17.80   1 
   1  -1   4   30.69   12.89   1 
   1  -1   5   27.40   12.66   1 
   2 -10  -1    6.38   15.85   1 
   2  -7  12   10.14   16.75   1 
   2  -5   0   18.25   19.49   1 
   2  -4   8   64.98   16.52   1 
  -6   5  -1  258.69   32.21   1 
  -4   5   9   55.55   16.62   1 
  -3   4   9  247.74   16.26   1 
  -2   1  14   95.62   14.05   1 
  -2   2  12   90.02   14.22   1 
  -2   3   9 1141.37   22.98   1 
  -1  -8  -6   38.54   14.13   1 
  -1   2   8  493.39   17.25   1 
   1 -10  -3   19.81   16.37   1 
   1  -5  -3  723.48   21.76   1 
   1  -4  13   33.06   12.82   1 
   1  -1   3 1214.36   29.41   1 
   1  -1   6   27.02   11.98   1 
  -7   1  -6   37.30   14.10   1 
  -7   7   6   28.46   20.11   1 
  -7   7   7   36.20   18.65   1 
  -7   7   8   79.27   21.98   1 
  -6  -1  -7   80.83   16.19   1 
  -4   0  -6    0.19   13.49   1 
  -4   4  13   50.38   15.13   1 
  -1  -6  -6   15.44   14.23   1 
  -1   1  12   66.67   16.51   1 
  -1   2   9   68.14   16.59   1 
   1  -3  12  102.62   14.47   1 
   1  -2   0  289.72   34.96   1 
   1  -1   7    4.77   13.23   1 
   2 -11   0   47.44   19.85   1 
   2  -9  -1   33.18   16.47   1 
   2  -8  -1    8.73   17.31   1 
   2  -7  -1   11.58   13.95   1 
   2  -6  12   49.21   16.98   1 
  -7   2  -5   85.83   17.42   1 
  -7   4  -3    6.48   16.73   1 
  -7   7   5   17.16   19.58   1 
  -6  -2  -7    4.67   14.02   1 
  -4  -3  -7   21.43   13.50   1 
  -4   1  -5   82.10   14.17   1 
  -4   2  -4  389.10   19.64   1 
  -4   5  10  134.44   14.99   1 
  -2   2  13   36.65   13.88   1 
  -1  -3  -5   23.36   12.49   1 
  -1   0  14   16.41   13.49   1 
  -1   1  -1   16.85   19.18   1 
   1 -11  -2   38.26   17.62   1 
   1  -9  -3   52.22   13.39   1 
   1  -8  -3   38.00   16.22   1 
   1  -6  -3   55.68   15.29   1 
   1  -4  14   32.45   17.54   1 
   1  -2  11    6.42   13.66   1 
   1  -1   8  153.77   14.73   1 
   2  -5  11    1.31   12.52   1 
   2  -3   5 1509.79   28.99   1 
   2  -3   6   14.07   15.02   1 
  -7   0  -6    7.74   17.52   1 
  -7   3  -4   24.07   17.08   1 
  -6   0  -6   91.71   18.18   1 
  -4  -5  -7   19.89   13.17   1 
  -4  -4  -7  254.71   15.55   1 
  -2  -8  -6   23.78   14.82   1 
  -2  -4  -6  218.49   14.27   1 
  -2   0  -4   38.82   12.23   1 
  -1  -9  -5   38.29   15.78   1 
  -1   1  13   89.91   18.60   1 
  -1   2  10  208.33   15.00   1 
   1  -4  -2   28.03   16.55   1 
   1  -3  13   35.38   14.42   1 
   1  -1   9   53.91   13.84   1 
   2  -4  10    9.16   13.20   1 
   2  -3   7  420.52   17.22   1 
  -7   7   4   16.50   22.15   1 
  -4  -1  -6   29.89   14.29   1 
  -2  -7  -6   37.90   13.31   1 
  -2   2  14    7.36   13.00   1 
  -1  -8  -5   89.23   18.23   1 
   1 -10  -2   86.80   18.20   1 
   1  -2  12    3.26   13.32   1 
   2 -10   0  121.81   19.18   1 
   2  -5  12   -1.23   13.55   1 
   2  -3   8  357.23   17.49   1 
  -4   5  12   17.47   16.10   1 
  -2  -2  -5   23.65   13.20   1 
  -2   3  12   74.30   14.59   1 
  -1 -10  -4   31.57   18.95   1 
  -1  -7  -5   23.00   12.96   1 
  -1  -6  -5  701.96   21.85   1 
  -1  -5  -5   14.73   11.78   1 
  -1   2  11  -32.61   13.38   1 
   1  -3  -1   90.55   17.26   1 
   1  -1  10    6.50   13.91   1 
   2 -11   1    7.03   19.61   1 
   2  -6   0  832.14   32.35   1 
   2  -3   9   44.76   14.68   1 
  -7   1  -5   35.58   14.16   1 
  -7   5  -1  259.81   28.62   1 
  -6   7   7   60.01   18.35   1 
  -6   7   8   38.87   18.54   1 
  -6   7   9   25.30   18.40   1 
  -4  -2  -6  131.03   15.09   1 
  -4   0  -5  698.12   22.29   1 
  -2  -9  -5   27.52   13.95   1 
  -2   4   5 1082.68   23.62   1 
  -1   1  14   34.68   13.62   1 
  -1   2  12   95.87   14.25   1 
   1 -11  -1   13.26   17.96   1 
   1  -2  13  -16.97   15.60   1 
   1  -1  11   62.37   18.04   1 
   2 -12   2   -2.86   20.58   1 
   2  -9   0    5.92   16.83   1 
   2  -3  10   15.64   16.68   1 
  -6  -2  -6  113.11   16.69   1 
  -6   7  10    2.97   17.29   1 
  -4  -6  -6   46.40   14.14   1 
  -4  -4  -6   19.32   16.54   1 
  -4  -3  -6   53.14   13.28   1 
  -2  -8  -5   38.67   15.16   1 
  -2   3  13   16.81   14.11   1 
  -2   4   4  721.15   24.33   1 
  -2   4   9    0.48   14.16   1 
  -1  -9  -4   29.87   18.18   1 
  -1   2   1  100.68   19.04   1 
  -1   3   5 1697.13   27.62   1 
  -1   3   6   22.24   13.10   1 
  -1   3   7   34.46   13.41   1 
  -1   3   8   48.66   13.76   1 
   1  -5  -2 2206.67   32.91   1 
   1   0   6  104.84   12.82   1 
   1   0   7  981.55   22.17   1 
   2  -7   0   35.26   17.87   1 
   2  -4  12   33.57   13.96   1 
  -7   0  -5  193.45   19.13   1 
  -7   2  -4   11.16   17.06   1 
  -7   6   1  310.99   49.63   1 
  -6  -3  -6   29.85   14.67   1 
  -6   7   5  294.01   24.91   1 
  -5  -4  -6   82.46   14.60   1 
  -4  -5  -6   16.68   13.65   1 
  -4   6   8   15.58   13.48   1 
  -2   3  14   31.13   18.22   1 
  -2   4  10   48.31   14.86   1 
  -1  -3  -4   13.33   12.32   1 
  -1   2  13   33.95   13.75   1 
  -1   3   9    3.02   12.91   1 
   1  -8  -2  110.72   14.68   1 
   1  -6  -2   18.01   14.97   1 
   1  -2  14    5.57   14.26   1 
   1  -1  12   68.07   14.76   1 
   1   0   8  448.59   17.57   1 
   1   0   9  315.19   19.49   1 
   2  -3  11   15.42   13.30   1 
   2  -2   6  376.34   19.27   1 
   2  -2   7  147.96   16.93   1 
  -7   4  -2   20.21   20.29   1 
  -4   1  -4   35.78   13.70   1 
  -4   3  -2  568.58   26.48   1 
  -4   6  10   46.10   14.44   1 
  -2  -6  -5    0.88   13.39   1 
  -2  -5  -5  230.56   15.75   1 
  -2   4  11   20.98   14.48   1 
  -1  -8  -4   41.60   14.53   1 
  -1   3   4   61.01   13.83   1 
  -1   3  10  244.04   15.50   1 
   1   0   4 1835.18   30.58   1 
   1   0  10   39.95   17.02   1 
   2 -10   1  171.89   22.27   1 
   2  -4  13   15.03   14.58   1 
   2  -2   5   45.44   16.15   1 
   2  -2   9  372.17   20.79   1 
  -7   7   3   60.36   34.99   1 
  -4   2  -3   -4.99   15.41   1 
  -2   4   3  713.70   26.55   1 
  -2   4  12   72.01   14.13   1 
  -1 -10  -3   49.67   15.44   1 
  -1  -7  -4    9.03   13.63   1 
  -1  -5  -4   31.52   16.18   1 
  -1   3  11    6.70   14.15   1 
   1  -1  13   14.13   15.77   1 
   2  -3  12   76.94   14.45   1 
   2  -2  10  160.50   17.68   1 
  -7   1  -4   -7.11   15.53   1 
  -6   7   4  287.80   28.33   1 
  -4  -2  -5  580.75   18.95   1 
  -4   6  12   19.82   15.01   1 
  -2  -8  -4   83.60   18.84   1 
  -2   0  -3   74.79   13.41   1 
  -1   3  12   22.82   13.57   1 
   1 -11   0  154.06   20.53   1 
   1  -1  14   86.90   19.25   1 
   1   0  11   22.58   13.15   1 
   2 -11   2   70.32   21.74   1 
   2  -3  13   41.40   18.59   1 
   2  -2  11  462.33   22.50   1 
  -6  -4  -5   29.27   15.40   1 
  -6  -3  -5   -1.28   14.79   1 
  -6  -2  -5  206.67   18.93   1 
  -4  -4  -5  571.82   21.83   1 
  -4  -3  -5   21.94   12.77   1 
  -4   6   4  758.56   26.98   1 
  -2   4  13   48.56   14.61   1 
  -1   3   3 2458.00   38.17   1 
  -1   3  13   57.66   17.45   1 
   1  -4  -1   15.05   16.54   1 
   2  -9   1   46.50   20.16   1 
  -4   5   1  101.95   38.34   1 
  -2  -7  -4   -1.37   14.63   1 
  -2  -3  -4   -6.71   12.67   1 
  -2   5   7  318.52   20.22   1 
  -2   5   8  185.64   16.74   1 
  -2   5   9  225.36   19.12   1 
  -1  -8  -3  106.40   17.62   1 
   1   0   3  669.24   22.62   1 
   1   0  13   22.52   13.88   1 
   1   1   7   -0.37   12.74   1 
   1   1   8  117.51   14.31   1 
   1   1   9  123.08   17.56   1 
   2  -2  12  193.36   17.59   1 
   2  -1   7  498.82   21.28   1 
   2  -1   8  304.41   18.46   1 
  -9   5   0   18.03   21.64   1 
  -7   0  -4   71.97   13.86   1 
  -7   2  -3    4.51   17.39   1 
  -2  -9  -3   99.93   16.76   1 
  -2  -6  -4  138.65   15.35   1 
  -2  -4  -4  112.27   14.89   1 
  -2   5  10   38.30   13.73   1 
  -1   4   7  531.25   18.84   1 
  -1   4   8    5.96   14.95   1 
  -1   4   9  240.82   16.99   1 
  -1   4  10  152.05   18.64   1 
   1 -10   0   10.82   18.40   1 
   1   1   6   36.82   13.20   1 
   1   1  10   56.00   13.19   1 
   2  -2  13    7.46   14.03   1 
   2  -1   6   64.35   14.70   1 
   2  -1   9   78.29   14.97   1 
   2  -1  10   58.04   13.75   1 
  -7  -1  -4   65.13   16.59   1 
  -7   8   6   10.47   21.45   1 
  -4  -1  -4    0.74   15.68   1 
  -2   5  11  184.36   17.96   1 
  -2   5  12   81.26   19.39   1 
  -1  -7  -3    3.22   14.04   1 
  -1   4   6  607.22   20.63   1 
  -1   4  11  -20.04   13.82   1 
   1 -11   1   28.41   17.64   1 
   1  -7  -1  110.89   16.98   1 
   1   0  14   23.41   14.62   1 
   1   1   5   18.51   12.88   1 
   1   1  11  255.01   17.27   1 
   2 -10   2  107.69   21.87   1 
   2  -5   1   40.97   26.00   1 
   2  -1  11   19.64   14.42   1 
  -7  -2  -4   83.79   15.75   1 
  -4  -6  -4  145.56   15.22   1 
  -4   6   3  166.13   21.52   1 
  -4   7   8    8.23   17.65   1 
  -4   7   9   18.38   14.04   1 
  -4   7  10   51.38   14.55   1 
  -2  -8  -3   32.29   14.65   1 
  -2   4   2 2545.18   46.99   1 
  -2   5   5  138.37   15.13   1 
  -2   5  13   -0.70   18.17   1 
  -1   4  12   67.70   15.09   1 
   1  -6  -1   23.20   12.86   1 
   1   1  12   69.34   15.22   1 
   2 -11   3    9.35   23.26   1 
   2  -2   3  437.92   23.50   1 
  -7   1  -3  433.25   21.86   1 
  -7   3  -2   89.61   18.00   1 
  -6   8   7    6.31   18.10   1 
  -4  -5  -4   -4.18   13.04   1 
  -4  -2  -4  605.59   19.35   1 
  -4   7   7   90.55   14.86   1 
  -1  -5  -3  161.68   14.57   1 
  -1  -1  -2    6.83   13.68   1 
  -1   4  13   33.65   14.45   1 
   1   1  13   10.27   14.41   1 
   2  -7   1   32.76   17.59   1 
   2  -1  13   25.62   18.68   1 
  -4  -4  -4  196.47   14.99   1 
  -4  -3  -4  183.81   15.71   1 
  -2  -9  -2   79.90   19.25   1 
  -2  -7  -3  249.79   16.82   1 
  -1 -10  -1   43.11   17.58   1 
  -1   3   2 1117.67   30.53   1 
   1   1   4  474.95   18.60   1 
   1   2   8  285.84   18.74   1 
   1   2   9    9.01   16.42   1 
   2   0   7  379.99   20.69   1 
   2   0   8  149.06   15.53   1 
   2   0   9  653.87   20.51   1 
   2   0  10   31.93   14.35   1 
  -7   0  -3   33.61   16.64   1 
  -7   4  -1   20.11   16.64   1 
  -7   5   0  316.51   29.55   1 
  -7   8   5   40.05   25.99   1 
  -6   8   6  155.75   21.19   1 
  -2  -6  -3   15.19   13.62   1 
  -2  -2  -3   47.23   12.85   1 
  -2   5   4   22.36   13.36   1 
  -1 -11   0   11.85   18.68   1 
  -1   4   4  616.87   20.51   1 
   1  -1   1   15.65   16.93   1 
   1   2   7  382.67   18.26   1 
   1   2  10   60.40   13.75   1 
   1   2  11   20.33   13.75   1 
   2   0  11   82.73   15.63   1 
  -7  -3  -3   52.48   19.10   1 
  -7  -1  -3  123.51   20.02   1 
  -4   2  -2  220.76   19.39   1 
  -2 -10  -1   28.26   19.54   1 
  -2  -4  -3  160.66   16.88   1 
  -2  -3  -3  689.60   19.09   1 
  -2   6   8   16.29   16.98   1 
  -2   6   9    0.58   13.95   1 
  -2   6  10   31.75   15.84   1 
  -2   6  11   -4.91   15.94   1 
  -1   5   8   34.95   14.81   1 
  -1   5   9    5.74   14.65   1 
  -1   5  10   33.70   15.30   1 
  -1   5  11   52.98   17.67   1 
   1  -8   0   -2.63   15.59   1 
   1   0   2 1616.84   35.69   1 
   1   2   6   -0.58   13.14   1 
   1   2  12   -9.47   13.57   1 
   2  -9   2  268.73   26.42   1 
   2   0  12   67.48   16.15   1 
  -9   4   0   26.18   24.08   1 
  -7  -2  -3   31.33   14.36   1 
  -7   2  -2   11.78   15.84   1 
  -2  -8  -2   14.16   14.39   1 
  -2   6   7   23.75   14.55   1 
  -2   6  12   12.42   15.61   1 
  -1  -9  -1   63.26   18.03   1 
  -1  -7  -2   29.20   14.45   1 
  -1   5   7   -8.56   13.70   1 
  -1   5  12   15.43   14.64   1 
   1 -11   2  185.08   20.82   1 
   2   0  13   24.10   14.37   1 
   4  -8  10   20.31   21.95   1 
   4  -7  10   24.58   19.83   1 
   1   1   3  338.56   17.84   1 
   1   2   5 1628.95   27.92   1 
   2 -10   3  118.82   25.29   1 
   2   0   5   86.23   13.77   1 
   2   1   9   30.98   14.33   1 
   2   1  10   -2.99   13.49   1 
   4  -6  11   -3.65   16.70   1 
  -9   5   1   73.78   23.20   1 
  -5  -7  -2  105.34   15.90   1 
  -4  -4  -3    7.57   12.92   1 
  -4  -2  -3   32.90   15.96   1 
  -4   8   9   25.48   18.38   1 
  -4   8  10   30.02   15.56   1 
  -2  -9  -1   60.44   16.13   1 
  -2   5   3   44.68   16.28   1 
  -1  -5  -2   36.71   16.43   1 
  -1   4   3  519.56   23.57   1 
   1  -9   1   50.92   17.03   1 
   1   3   9  116.51   14.30   1 
   1   3  10    1.30   13.27   1 
   2 -11   4   92.28   23.13   1 
   2   1   7  172.86   17.71   1 
   2   1   8   30.13   14.07   1 
   4  -7   8   32.31   19.26   1 
  -7  -4  -2   36.83   18.82   1 
  -7   1  -2  133.72   15.71   1 
  -4  -7  -2   -0.43   14.26   1 
  -4   3  -1  697.58   29.97   1 
  -4   8   8   -0.28   17.68   1 
  -1 -11   1   37.63   15.72   1 
  -1  -8  -1   12.62   14.01   1 
  -1  -4  -2 3085.62   34.15   1 
  -1  -3  -2  168.69   14.37   1 
   1   3   8   89.69   14.25   1 
   1   3  11   82.40   15.10   1 
   1   3  12  135.79   15.93   1 
   2  -1   3 1557.12   33.84   1 
   2   1  13   15.16   13.94   1 
   4  -9   9   26.63   25.02   1 
   4  -8   8    9.69   21.72   1 
   4  -5   9   12.92   16.68   1 
  -9   3   0   21.73   19.58   1 
  -7  -3  -2   15.13   14.68   1 
  -7   0  -2   49.01   17.16   1 
  -2 -10   0   20.24   15.80   1 
  -2  -6  -2   35.91   14.20   1 
  -1   5   5  266.43   16.54   1 
   1 -10   2    2.68   20.73   1 
   1  -6   0    9.39   15.21   1 
   1   2   4 2724.88   35.80   1 
   1   3   7    5.21   13.07   1 
   2  -8   2   55.05   20.44   1 
   2   0   4   27.19   12.37   1 
   4  -5   8   17.26   16.00   1 
   4  -4  11   11.41   16.80   1 
  -7  -2  -2   69.67   15.91   1 
  -4  -8  -1  -16.56   14.63   1 
  -4   1  -2  147.59   15.06   1 
  -4   8   7  104.29   17.16   1 
  -2  -8  -1   -1.35   14.56   1 
  -2  -5  -2 1519.03   26.24   1 
  -2  -1  -2 2361.91   33.90   1 
  -2   7   9  198.80   20.21   1 
  -2   7  10    3.11   14.18   1 
  -2   7  11  -27.73   16.85   1 
  -1  -9   0   -8.80   17.37   1 
  -1   6   8   27.21   17.28   1 
  -1   6   9  145.04   17.03   1 
  -1   6  10  118.99   16.95   1 
  -1   6  11    2.82   14.91   1 
   1   3   6  168.99   16.28   1 
   2   2   9  320.42   19.50   1 
   4  -7   7    4.09   19.07   1 
   4  -4   9   36.71   17.21   1 
  -2   7   8   46.40   15.24   1 
  -1  -7  -1    4.22   14.16   1 
   1  -8   1   23.62   18.03   1 
   1  -4   0   24.53   17.06   1 
   2  -2   2   61.23   17.34   1 
   2   1   5 1162.27   24.43   1 
   2   2   8   20.23   13.69   1 
   4  -5   7    3.26   16.83   1 
  -9   2   0   29.03   15.39   1 
  -7   2  -1   16.07   16.78   1 
  -6   9   7   27.90   21.33   1 
  -4  -5  -2    3.76   12.66   1 
  -4   8   6  132.07   20.15   1 
  -2  -4  -2   45.99   13.59   1 
  -2  -3  -2 1702.79   27.60   1 
  -2  -2  -2   47.69   12.70   1 
  -1 -11   2   70.30   21.36   1 
  -1 -10   1   65.80   15.84   1 
  -1   5   4   95.25   15.01   1 
  -1   6   7  300.62   17.75   1 
   1   3   5   11.40   16.33   1 
   1   4   9   25.16   13.10   1 
   1   4  10   38.19   14.14   1 
   1   4  11   21.67   14.50   1 
   1   4  12   20.33   13.83   1 
   2   2   7  216.72   16.03   1 
   4  -3   9   21.01   16.64   1 
   4  -3  12   27.38   14.70   1 
  -9   4   1   -8.78   20.57   1 
  -7  -4  -1   16.09   13.91   1 
  -7   4   0   19.28   17.36   1 
  -2 -10   1   21.85   14.70   1 
  -2  -7  -1   41.68   14.51   1 
  -2   6   4   69.86   14.66   1 
  -1  -6  -1   14.71   13.03   1 
   2  -9   3    7.09   21.10   1 
   4  -3   8   13.20   15.52   1 
  -7  -3  -1  125.95   17.51   1 
  -7   1  -1  162.14   18.15   1 
  -6  -5  -1    6.86   13.87   1 
  -4  -3  -2    8.10   13.35   1 
  -4  -1  -2   -4.02   13.15   1 
  -4   4   0    4.95   26.04   1 
  -2   7   6   95.76   18.84   1 
  -1   3   1   87.25   18.77   1 
   1   1   2    1.35   11.23   1 
   1   2   3  199.09   15.71   1 
   2 -11   5   83.60   23.69   1 
   2 -10   4   29.50   23.51   1 
   2   2   6  199.47   15.71   1 
   2   3  10   24.99   13.68   1 
   2   3  11   12.89   13.82   1 
   2   3  12   21.65   17.54   1 
   4  -2   9   48.63   17.37   1 
   4  -2  11   -5.30   13.98   1 
  -7  -2  -1   28.03   15.47   1 
  -7  -1  -1  329.42   21.11   1 
  -4  -8   0   65.53   16.46   1 
  -4  -6  -1    5.08   13.23   1 
  -2  -8   0   -6.06   13.85   1 
  -2  -6  -1  115.84   14.82   1 
  -2   5   2    9.56   18.64   1 
  -1   4   2   36.96   14.89   1 
  -1   7  10   -2.78   16.40   1 
   2   3   9   -9.88   13.48   1 
  -9   3   1   48.44   18.54   1 
  -9   5   2  158.70   23.58   1 
  -7   5   1   66.24   24.98   1 
  -4   8   5   91.79   18.68   1 
  -4   9   8   86.45   19.59   1 
  -2   8   9   19.53   17.16   1 
  -2   8  10   10.29   15.34   1 
  -1   6   5   -8.36   15.09   1 
  -1   7   8    5.88   17.71   1 
  -1   7   9   23.15   14.70   1 
   1 -11   4   23.71   18.25   1 
   1 -10   3   22.27   18.17   1 
   1   3   4   19.58   12.68   1 
   1   4   6   12.15   13.12   1 
   1   5  10   21.20   14.52   1 
   1   5  11   37.41   15.58   1 
   2   2   5    9.82   13.47   1 
   4  -1  10   34.61   16.82   1 
   4  -1  11   27.83   13.71   1 
  -6  -3  -1   16.46   14.49   1 
  -4  -7   0   25.91   17.02   1 
  -4   2  -1  249.83   19.89   1 
  -4   7   3  109.37   22.18   1 
  -2  -9   1  114.49   15.84   1 
  -2  -5  -1   45.59   13.49   1 
  -2   7   5   49.04   17.95   1 
  -1 -10   2   23.63   14.41   1 
  -1  -4  -1  100.06   14.46   1 
  -1  -1  -1 2995.81   45.13   1 
  -1   5   3  700.93   22.78   1 
   1   5   9  109.74   15.56   1 
   4  -3   6   35.01   15.68   1 
   4  -1   9   19.19   13.69   1 
  -9   2   1   23.67   15.73   1 
  -7  -4   0  -28.60   14.44   1 
  -6  -2  -1   39.72   14.58   1 
  -4   9   7    0.92   17.72   1 
  -2 -10   2    7.49   14.17   1 
  -2  -7   0  621.56   22.73   1 
  -2   6   3  868.63   27.08   1 
  -2   8   8    7.77   14.10   1 
  -1  -3  -1 2659.96   35.69   1 
  -1  -2  -1  896.62   24.63   1 
  -1   7   7  -15.81   13.60   1 
   1   4   5  542.58   18.95   1 
   2   4  10   58.99   15.10   1 
   2   4  11   34.66   14.62   1 
   4  -1   8   -0.96   13.14   1 
  -9   1   1   88.34   17.13   1 
  -7  -3   0  160.93   18.17   1 
  -4  -8   1   19.33   15.39   1 
  -2  -4  -1   14.69   12.77   1 
  -2   8   7   -0.06   17.16   1 
   1   0   1 1202.39   36.72   1 
   1   5   7  -11.55   14.56   1 
   2   3   6   96.60   15.07   1 
   2   4   9  122.17   15.56   1 
   4   0  11   31.18   15.02   1 
  -9   4   2   29.01   18.62   1 
  -7  -5   1   44.98   15.69   1 
  -7  -2   0   26.23   18.47   1 
  -7   2   0   26.20   16.47   1 
  -7   6   2  155.05   32.22   1 
  -4  -9   2   18.63   15.67   1 
  -1   6   4  493.17   19.98   1 
  -1   7   6   31.01   14.60   1 
   1  -8   2   15.16   15.74   1 
   2   4   8    1.72   12.99   1 
   4  -4   5   92.97   18.45   1 
   4  -1   7    5.89   13.69   1 
  -7  -1   0  384.49   18.60   1 
  -7   0   0   25.49   16.90   1 
  -7   1   0  440.88   21.63   1 
  -6  -6   1   -8.78   14.00   1 
  -4   1  -1  728.46   23.02   1 
  -4   9   6   -4.80   17.87   1 
  -2  -8   1   34.94   15.09   1 
  -2  -6   0  138.50   17.57   1 
  -2  -3  -1   83.78   13.29   1 
  -2   7   4  258.06   19.88   1 
  -1   8   9    2.60   15.36   1 
   1 -11   5  127.27   23.45   1 
   1   2   2 2652.48   38.27   1 
   1   3   3  105.51   14.06   1 
   1   5   6  146.27   16.28   1 
   1   6  10  -13.38   14.87   1 
   2 -11   6   11.38   22.22   1 
   2  -6   2   12.36   21.57   1 
   2   3   5  525.74   20.25   1 
   4   1  11   15.52   17.81   1 
  -9   3   2  116.10   20.21   1 
  -7  -4   1    3.69   15.05   1 
  -4  -2  -1   41.24   13.49   1 
  -4   0  -1   39.92   15.80   1 
  -2  -2  -1   38.53   12.65   1 
  -2  -1  -1    5.44   11.65   1 
  -2   8   6   19.74   14.71   1 
   1   4   4  585.74   19.92   1 
   2   5  10   23.33   13.45   1 
   4  -6   5   18.11   24.05   1 
   4  -3   5  173.22   18.39   1 
   4  -1   6    9.94   13.43   1 
   4   1  10   25.58   16.06   1 
  -7   4   1   97.20   20.38   1 
  -5   9   5    4.96   21.54   1 
  -3  -2  -1  649.81   20.03   1 
   2 -10   5   25.71   21.82   1 
   2   0   2  218.90   17.17   1 
  -9   0   2   24.34   14.56   1 
  -9   1   2  170.64   21.08   1 
  -9   2   2   24.94   15.24   1 
  -9   5   3   12.75   22.52   1 
  -7  -3   1   27.55   15.15   1 
  -7   7   3   50.91   36.72   1 
  -7   9   5   23.88   39.42   1 
  -4  -8   2   14.19   15.96   1 
  -2  -7   1  262.64   19.67   1 
  -1   5   2 2225.15   39.44   1 
   2   5   8   33.61   14.63   1 
   4   1   8    5.36   14.57   1 
  -6  -1   0   23.43   14.56   1 
  -2  -5   0 1948.42   28.41   1 
  -2   8   5  135.48   15.49   1 
  -1   6   3   45.84   16.56   1 
   2   2   3   23.74   13.00   1 
   2   3   4   11.92   13.58   1 
   2   5   7   13.80   13.31   1 
   4   0   6    2.44   13.82   1 
   4   1   7   23.94   14.43   1 
   4   2   9   24.77   19.61   1 
   4   2  10   34.45   15.99   1 
  -7  -2   1   41.58   15.27   1 
  -7   3   1    6.83   16.44   1 
  -4   9   5    3.43   18.60   1 
  -2  -8   2  114.31   15.10   1 
  -2   9   7   73.28   15.51   1 
  -1 -11   5   41.44   15.72   1 
  -1  -8   2   25.03   14.76   1 
  -1   8   6  106.66   18.84   1 
   1   1   1 2878.49   47.45   1 
   1   4   3  300.62   17.07   1 
   1   6   6   11.27   14.83   1 
   1   7   9   56.02   15.21   1 
   2   4   5   -4.78   13.36   1 
  -7  -4   2    5.68   14.68   1 
  -7  -1   1   18.82   13.49   1 
  -2 -10   4  108.68   16.19   1 
  -2   6   2  547.87   24.35   1 
  -2   7   3  208.88   20.32   1 
  -1 -10   4  -21.81   14.83   1 
  -1  -9   3   -0.95   14.99   1 
  -1  -4   0  516.42   19.45   1 
  -1   4   1   12.64   17.21   1 
  -1   7   4   24.44   15.27   1 
   1 -11   6    9.87   20.02   1 
   1   3   2  165.61   14.72   1 
   1   5   4   26.86   13.40   1 
   2   5   6   66.93   14.66   1 
   4   1   6   35.63   17.38   1 
  -9   4   3   -0.17   18.10   1 
  -7   0   1  159.93   15.37   1 
  -7   1   1   19.51   17.02   1 
  -7   2   1  233.17   19.82   1 
  -6  -5   2  -35.60   14.49   1 
  -4  -9   4   56.66   16.90   1 
  -4  -8   3   29.76   16.08   1 
  -4   3   0 1816.92   45.06   1 
  -2  -6   1  163.59   15.20   1 
  -2  -4   0  216.68   15.43   1 
  -2   9   6  147.79   19.64   1 
  -1   9   8   39.19   16.35   1 
   1   6   5  581.86   23.00   1 
   2 -11   7   88.36   24.71   1 
   2   6   8  -14.32   13.52   1 
   4  -4   4  553.01   28.09   1 
   4   2   7  307.23   17.52   1 
   4   3   9   14.81   18.17   1 
  -9   0   3  -31.48   15.01   1 
  -9   1   3   65.35   19.00   1 
  -9   3   3   -3.53   19.23   1 
  -7  -5   3   48.91   14.53   1 
  -4  -2   0   44.13   16.04   1 
  -2   8   4   35.17   16.65   1 
  -1   8   5   70.07   17.68   1 
   1 -10   5   23.19   18.38   1 
   1  -9   4    3.08   19.68   1 
   1  -8   3    3.07   16.12   1 
   2  -7   3   36.26   20.68   1 
   2   4   4   65.77   14.56   1 
  -9   2   3    0.39   15.81   1 
  -7   5   2   53.53   21.51   1 
  -6  -2   1  109.41   15.31   1 
  -4   8   3   57.52   24.85   1 
  -4  10   6   25.29   19.29   1 
  -2  -7   2  352.62   20.73   1 
   2   6   7  105.07   15.56   1 
   4   1   5   95.60   14.50   1 
  -7  -4   3   48.69   14.44   1 
  -7  -2   2  -21.09   13.78   1 
  -4  -1   0 1097.83   23.55   1 
  -4   7   2  126.46   29.56   1 
  -2  -8   3   -6.65   17.02   1 
  -2  -3   0 2129.15   31.24   1 
   1   5   3  158.34   16.13   1 
   1   7   6  129.91   15.81   1 
   2 -10   6   21.28   21.15   1 
   2   6   6   56.76   17.91   1 
   4  -5   4   12.05   22.20   1 
   4   3   7   31.75   14.34   1 
   4   4   9   10.68   18.81   1 
  -4  -4   1   25.21   13.78   1 
  -4   2   0   49.41   17.33   1 
  -4   9   4    4.29   21.14   1 
  -2  -9   4    1.92   14.28   1 
  -2  -5   1  986.21   22.63   1 
  -2   9   5    9.96   14.47   1 
  -1  -9   4  188.07   19.27   1 
  -1  -8   3    3.77   17.61   1 
  -1   6   2   17.38   15.84   1 
  -1   7   3  493.50   21.00   1 
  -1   9   6   17.82   14.21   1 
   1   2   1  647.05   22.71   1 
   1   4   2 2316.60   32.23   1 
   1   8   8    6.59   14.88   1 
   2  -5   2 2317.82   68.05   1 
   2   7   8    6.98   14.68   1 
   6  -5   9   51.91   22.38   1 
   6  -4   9   17.80   17.21   1 
   6  -3   9   21.10   19.16   1 
  -9   5   4   15.84   20.33   1 
  -7  -1   2  187.56   17.12   1 
  -6  -3   2   67.69   14.41   1 
  -6   0   1  390.36   18.66   1 
  -4   1   0 1126.61   29.59   1 
  -1   8   4  325.07   21.50   1 
   1 -11   7   -1.55   21.68   1 
   1   8   7   17.26   14.74   1 
   2  -8   4   22.63   21.02   1 
   2   5   4   20.07   13.94   1 
   4   3   6   30.40   13.92   1 
   6  -2   9   -2.58   14.71   1 
  -9   0   4    9.88   15.25   1 
  -7  -3   3  129.86   16.21   1 
  -7   0   2   33.28   17.06   1 
  -7   4   2   33.90   17.64   1 
  -6  -6   4   19.03   14.66   1 
  -2  -2   0  117.02   14.63   1 
   4   1   4   11.02   13.24   1 
   6  -4   8   53.65   18.74   1 
   6  -3   8   -8.91   17.61   1 
   6  -2   8   23.40   17.56   1 
   6  -1   9   14.74   15.74   1 
  -9   1   4  104.28   16.41   1 
  -9   2   4   12.66   18.05   1 
  -9   3   4  152.80   21.27   1 
  -9   4   4  -12.91   18.49   1 
  -7   1   2  166.50   19.04   1 
  -7   3   2  176.80   18.88   1 
  -5  10   5   13.37   22.15   1 
  -4  10   5   66.91   20.29   1 
  -2 -10   6   74.90   19.32   1 
  -2  -6   2  360.08   17.15   1 
  -2   7   2   25.78   19.35   1 
  -2   8   3  141.79   18.20   1 
  -2  10   6   13.86   15.50   1 
  -1   5   1  333.47   22.26   1 
  -1   9   5   14.03   17.80   1 
   1   8   6   44.35   15.71   1 
   2  -1   1 2480.84   49.95   1 
   6  -5   8   -5.38   17.64   1 
   6  -1   8   -8.16   16.57   1 
  -7  -2   3  244.33   17.05   1 
  -7   2   2  107.20   14.79   1 
  -6  -2   2  205.87   16.59   1 
  -2  -9   5  148.67   20.00   1 
  -2  -7   3  815.15   24.34   1 
  -2  -4   1  869.44   23.35   1 
  -2   9   4    4.22   17.54   1 
  -1 -10   6   70.09   18.97   1 
   1   3   1 2054.44   34.91   1 
   1   6   3  155.40   15.23   1 
   1   7   4    2.43   17.71   1 
   2   0   1 1416.77   32.86   1 
   2   7   6   59.97   14.95   1 
   4  -2   3    1.76   12.35   1 
   4   2   4  357.99   18.61   1 
   4   3   5    9.99   13.89   1 
   4   4   6    2.36   13.68   1 
   4   5   8   76.32   15.00   1 
  -7  -5   5   42.36   14.91   1 
  -6  -5   4  101.21   15.49   1 
  -4  -8   5   41.07   16.32   1 
  -4  -2   1   21.33   16.33   1 
  -2  -8   4  519.06   19.08   1 
  -2  -1   0 2828.69   40.60   1 
   2  -2   1 5049.17   94.37   1 
   2   5   3  241.60   16.16   1 
   2   6   4  104.96   15.55   1 
   4  -3   3 1013.85   30.71   1 
   4   0   3    5.36   12.93   1 
   6  -4   7   36.11   18.60   1 
   6  -3   7   38.36   15.14   1 
   6  -2   7   14.41   13.40   1 
   6  -1   7   63.35   17.51   1 
   6   0   8   67.64   15.06   1 
  -9   0   5   47.82   18.83   1 
  -7  -3   4  -10.82   17.98   1 
  -7  -1   3  199.59   18.91   1 
  -6  -6   5   24.19   14.57   1 
  -6  -1   2  476.79   19.40   1 
  -3  -3   1  118.79   13.75   1 
  -2  10   5    6.88   18.89   1 
  -1  -8   4   -7.39   17.38   1 
  -1  -7   3   15.37   15.19   1 
  -1  -1   0 1417.44   35.06   1 
  -1   7   2  707.96   25.08   1 
  -1   8   3   41.51   17.65   1 
  -1  10   6   23.15   14.99   1 
   2   1   1   14.78   12.56   1 
   2   7   5  101.67   15.37   1 
   4   1   3  512.68   21.42   1 
   6  -6   8   30.09   19.92   1 
   6   1   8  -42.79   19.62   1 
  -7   6   3   95.96   25.06   1 
  -2   0   0  877.78   30.03   1 
  -2   6   1   31.37   18.76   1 
  -1   9   4   18.12   18.04   1 
   2 -10   7   -0.78   20.13   1 
   6  -5   7   27.78   18.11   1 
   6   0   7   38.16   13.33   1 
  -9   1   5   21.94   15.97   1 
  -9   5   5   55.35   23.29   1 
  -7  -4   5   34.18   14.71   1 
  -7   0   3  227.61   19.28   1 
  -6   0   2   69.04   15.75   1 
  -4  -8   6   30.33   20.13   1 
  -4  -1   1   66.76   16.06   1 
  -2  -5   2   54.48   14.01   1 
  -1   3   0 7257.70  103.87   1 
   1   4   1   90.51   13.28   1 
   1   7   3   14.83   17.82   1 
   2   2   1   35.85   12.72   1 
   4   2   3   22.21   15.84   1 
   6  -2   6   91.84   16.15   1 
   6  -1   6   22.39   14.10   1 
  -9   2   5   11.37   16.35   1 
  -9   3   5   33.59   18.04   1 
  -9   4   5   23.96   18.75   1 
  -7  -2   4  150.50   16.80   1 
  -6  -5   5   10.47   14.51   1 
  -2  -9   6   29.53   14.07   1 
  -1   6   1   25.03   16.19   1 
  -1  10   5   14.61   14.78   1 
   1 -10   7  148.98   20.55   1 
   1   6   2  751.90   21.67   1 
   1   8   4   36.11   15.65   1 
   2   6   3    9.87   13.62   1 
   4  -4   3   32.78   19.51   1 
   4   5   5    6.89   14.07   1 
   6   0   6   31.54   13.91   1 
  -7   1   3   44.86   14.80   1 
  -6   1   2  538.40   20.86   1 
  -4   9   3   21.44   21.17   1 
  -4  10   4  129.87   24.25   1 
  -3  -4   2  675.78   20.03   1 
  -3  -2   1  990.16   23.79   1 
  -2  -8   5   16.33   14.09   1 
  -2  -7   4   16.06   17.64   1 
  -2  -6   3   18.12   13.65   1 
  -2   1   0 2309.87   51.39   1 
  -2   9   3    4.51   16.73   1 
   1   9   5   28.81   15.50   1 
   2  -9   6   59.57   21.36   1 
   2   8   5   25.13   16.36   1 
   4   3   3  958.94   25.48   1 
   6   1   6   30.77   14.56   1 
   6   2   7    0.31   15.55   1 
  -7  -3   5   22.20   16.15   1 
  -7   2   3  121.07   17.91   1 
  -7   5   3  138.12   22.97   1 
  -6   2   2   27.22   16.73   1 
  -5  -3   3   18.53   13.75   1 
  -4   5   1   89.28   38.73   1 
  -2   2   0   27.19   23.42   1 
  -2   8   2  307.96   20.23   1 
  -2  10   4   22.08   14.95   1 
  -1  -9   6    9.78   14.22   1 
   6  -7   8   13.55   24.39   1 
   6  -6   7   88.39   23.06   1 
  -9   1   6   32.53   18.93   1 
  -7  -1   4   17.36   14.19   1 
  -7   3   3   92.32   16.97   1 
  -7   4   3  166.81   19.47   1 
  -6  -1   3    1.24   13.93   1 
  -4  -8   7   18.53   15.47   1 
  -3  -5   3  123.79   14.92   1 
  -1  -8   5    7.44   17.54   1 
  -1  -6   3    4.81   16.31   1 
  -1   8   2  107.28   18.98   1 
  -1   9   3   48.68   14.20   1 
  -1  10   4   93.70   20.06   1 
   1  -9   6   99.96   19.57   1 
   1   5   1  142.87   15.20   1 
   2  -8   5   46.19   23.98   1 
   2   7   3  174.39   19.99   1 
   4  -1   2  122.45   14.88   1 
   4   1   2   -8.83   13.09   1 
   4   5   4    1.19   12.72   1 
   4   6   5   69.20   15.64   1 
   6  -5   6   24.59   20.08   1 
   6   0   5  168.64   15.83   1 
  -6  -5   6  155.23   15.57   1 
  -6  -4   5   23.73   15.20   1 
  -5  10   4    3.91   25.52   1 
  -4  -7   6   -5.56   18.54   1 
  -4  -2   2  103.95   17.37   1 
  -3  -7   5   35.17   16.38   1 
  -3  -6   4   23.15   15.19   1 
  -2  -9   7   39.49   14.92   1 
  -1 -10   8   15.51   16.33   1 
   1   7   2   25.34   14.68   1 
   1   8   3  118.65   16.27   1 
   2 -10   8   13.34   21.86   1 
   2   6   2   24.21   14.60   1 
   4  -2   2  191.68   19.35   1 
   4   2   2  428.03   17.45   1 
   4   4   3    5.89   13.35   1 
   6   1   5    2.67   14.82   1 
   6   3   6   27.40   17.71   1 
   7  -1   7  -13.61   17.78   1 
  -9   2   6   33.33   15.24   1 
  -7  -2   5   21.42   15.18   1 
  -7   0   4  252.86   19.19   1 
  -4  -6   5   32.88   14.08   1 
  -4   1   1   62.04   14.42   1 
  -3  -1   1 2720.74   36.09   1 
  -2   7   1   11.98   18.42   1 
  -1   4   0   14.15   17.38   1 
   1  -6   3   14.39   18.34   1 
   1   1   0 1274.94   35.06   1 
   1   2   0  700.34   24.80   1 
   2   9   5   15.50   16.03   1 
   6  -4   5  409.82   25.66   1 
   7  -3   7  -17.31   15.42   1 
  -9   3   6   20.77   14.88   1 
  -9   4   6  179.24   20.38   1 
  -7  -4   7   55.36   18.13   1 
  -7  -3   6   34.57   15.65   1 
  -6  -2   4   40.77   15.34   1 
  -6   0   3  353.46   18.34   1 
  -2  -8   6  200.91   17.04   1 
  -1   7   1   77.55   17.74   1 
   1 -10   8   21.62   18.56   1 
   1  -7   4  146.06   18.71   1 
   1   3   0 1469.72   32.43   1 
   1   6   1   11.06   13.51   1 
   4   3   2   26.56   13.24   1 
   4   5   3   -4.12   12.92   1 
   4   7   5   21.69   14.59   1 
  -7   1   4   62.00   17.49   1 
  -4  -8   8   77.84   17.08   1 
  -4   2   1  176.66   19.33   1 
  -2  -7   5   64.35   15.51   1 
  -2  10   3   78.42   19.42   1 
   2   7   2   49.51   18.79   1 
   6   1   4    5.32   13.57   1 
   6   3   5    1.33   14.33   1 
   7  -2   6   22.20   15.60   1 
   7  -1   6   29.93   14.52   1 
   7   0   6    6.40   15.16   1 
  -7  -1   5   96.43   15.86   1 
  -6  -5   7  145.77   16.16   1 
  -6  -4   6   16.42   14.47   1 
  -5   1   2   13.30   12.97   1 
  -4  -7   7  100.23   17.58   1 
  -3  -4   3  784.15   20.76   1 
  -2  -9   8   28.53   15.00   1 
  -2   9   2   13.59   16.70   1 
  -2  11   4   28.48   19.21   1 
  -1  -4   2   73.75   14.36   1 
  -1   9   2   30.94   16.46   1 
  -1  10   3   29.03   18.56   1 
   1   4   0  448.32   21.28   1 
   1   8   2  775.33   22.90   1 
   1   9   3   46.01   16.33   1 
   1  10   4   51.91   20.07   1 
   3  -4   2  668.18   63.15   1 
   4  -9   8   84.17   35.34   1 
   4   4   2  317.90   17.25   1 
   4   7   4   23.91   17.75   1 
   6   2   4   -1.50   14.38   1 
  -7  -2   6  299.95   17.78   1 
  -7   2   4   87.55   17.47   1 
  -7   7   4   17.46   22.65   1 
  -6  -1   4 1117.36   23.73   1 
  -4  -6   6  168.86   16.07   1 
  -4   3   1  291.25   24.15   1 
  -4   4   1  144.72   25.08   1 
  -4  11   4   26.07   22.21   1 
  -3   0   1  714.77   23.14   1 
  -1  -8   6   20.56   14.44   1 
  -1   5   0 2240.15   44.40   1 
   1  -9   7    0.80   21.09   1 
   2  -9   7  267.77   25.80   1 
   2   2   0   82.27   14.05   1 
   2   6   1   56.41   14.74   1 
   4  -3   2  519.73   25.48   1 
   4   6   3   88.58   14.93   1 
   6  -6   6   44.74   23.51   1 
   6   3   4    0.98   15.72   1 
   7  -5   7    5.50   19.15   1 
  -7  -4   8   17.64   14.71   1 
  -7  -3   7    5.06   14.12   1 
  -7   9   5   21.00   36.97   1 
  -5   2   2 1711.34   32.90   1 
  -4  10   3    1.62   23.78   1 
   1 -10   9  213.73   24.69   1 
   1   7   1    3.90   15.07   1 
   2 -10   9   -7.29   23.34   1 
   2   1   0 2557.08   40.67   1 
   2   3   0 1710.99   30.61   1 
   4   0   1   45.28   16.12   1 
   4   1   1  902.03   23.39   1 
   4   2   1   35.25   13.20   1 
   4   5   2   21.05   13.12   1 
   6  -7   7   14.17   33.53   1 
   7  -4   6   44.09   18.13   1 
   7  -1   5   27.94   13.90   1 
   7   1   5   -3.15   15.24   1 
  -7   0   5   30.48   13.62   1 
  -7   3   4   24.92   16.80   1 
  -6  -2   5    1.84   14.40   1 
  -6   2   3   -0.80   14.24   1 
  -2   8   1   17.97   18.48   1 
  -1  -9   8   64.11   15.96   1 
  -1  -6   4    4.74   13.30   1 
  -1   8   1  126.72   15.69   1 
   1   5   0  188.98   15.33   1 
   2   4   0  182.42   15.49   1 
   2   8   2   34.33   14.30   1 
   2   9   3   58.26   16.71   1 
   4   3   1  428.06   18.15   1 
   4   7   3   33.34   14.78   1 
   6   2   3  323.45   18.53   1 
   6   4   4    9.15   14.69   1 
   7   2   5  -20.72   16.72   1 
  -7  -1   6   71.36   19.02   1 
  -7   4   4  522.93   23.95   1 
  -7   6   4  327.35   25.86   1 
  -6  -4   7   39.78   14.36   1 
  -6  -3   6  202.98   15.90   1 
  -4  -7   8   51.41   16.67   1 
  -2  -7   6   69.25   14.52   1 
  -1   6   0    9.60   15.82   1 
   1   9   2   11.28   13.95   1 
   1  10   3   55.81   16.00   1 
   2   0   0  896.02   30.59   1 
   2   7   1   44.22   14.42   1 
   4  -1   1  740.36   25.89   1 
   5  -4   3  278.39   23.49   1 
   6   3   3   18.15   13.85   1 
  -7  -3   8   14.79   14.51   1 
  -7  -2   7  157.53   15.89   1 
  -7   1   5  108.24   18.22   1 
  -7   5   4    7.41   17.39   1 
  -6   3   3   19.10   13.42   1 
  -4   0   2   34.46   13.06   1 
  -2  -6   5  541.32   22.92   1 
  -2  -4   3   13.22   12.71   1 
  -2   5   0   14.23   21.89   1 
  -2  11   3   35.96   18.83   1 
  -1  -8   7   50.75   17.59   1 
  -1  10   2   79.03   19.47   1 
  -1  11   3   18.33   19.44   1 
   1   6   0  408.29   20.90   1 
   1   8   1    4.52   13.84   1 
   2  -8   6    2.77   20.51   1 
   7  -1   4    5.24   16.56   1 
   7   1   4   36.76   15.36   1 
  -4  -5   6   47.18   13.42   1 
  -4  -3   4   20.90   14.68   1 
  -2  -5   4    3.74   14.29   1 
  -2  10   2  174.11   20.86   1 
  -1  -9   9   27.03   17.57   1 
   3   1   0   20.28   12.81   1 
   4  -5   3 1402.66   74.89   1 
   4   7   2   13.17   17.09   1 
   6   4   3   81.28   15.59   1 
   7  -5   6   73.84   22.87   1 
  -7   0   6   92.70   18.20   1 
  -6  -1   5  104.38   15.75   1 
  -4  -7   9   34.92   16.67   1 
  -4  -4   5   36.07   13.36   1 
  -3  -5   5  -20.54   14.46   1 
  -3  -4   4   32.86   13.57   1 
  -1   9   1  267.90   19.56   1 
   2   8   1   -0.44   14.57   1 
   6   5   3   -3.51   13.86   1 
  -7  -3   9   49.72   14.42   1 
  -7   2   5   30.04   14.34   1 
  -6  -3   7  364.68   17.57   1 
  -6  -2   6   16.65   14.12   1 
  -5  -1   4   18.96   13.17   1 
  -4   9   2   28.08   30.00   1 
  -1  -7   6    9.03   14.87   1 
  -1   7   0  814.09   27.10   1 
   1   7   0  328.27   17.91   1 
   1   9   1   65.31   18.18   1 
   1  10   2   93.07   16.60   1 
   2  -9   8   43.71   19.42   1 
   3   0   0 2452.87   39.09   1 
   4   6   1   -4.43   13.47   1 
  -7  -2   8    6.26   15.33   1 
  -7  -1   7   36.71   15.15   1 
  -6  -5  10   20.54   15.65   1 
  -6   9   4   26.57   44.95   1 
  -5   1   3   63.54   14.01   1 
  -4   1   2 1939.52   34.92   1 
  -2  -7   7   20.41   14.35   1 
  -2   6   0  829.56   34.73   1 
  -2   9   1   39.44   17.98   1 
   4   1   0 1069.90   25.68   1 
   4   2   0   28.54   13.48   1 
   4   8   2   88.18   16.18   1 
   5  -3   2  618.82   25.75   1 
   7  -3   4   19.54   18.65   1 
   7   3   3   30.24   15.78   1 
  -7   1   6   31.48   17.21   1 
  -7   3   5    1.12   16.64   1 
  -6   0   5  176.41   18.99   1 
  -4  -7  10    9.82   14.86   1 
  -4  -5   7    1.33   16.87   1 
  -2  -8   9  141.39   16.96   1 
  -1  -9  10   48.09   15.84   1 
  -1  -6   5   29.19   14.30   1 
  -1  11   2   15.03   19.27   1 
   2   9   1   52.48   13.37   1 
   2  10   2   27.46   16.19   1 
   4   4   0   15.58   13.02   1 
  -7  -3  10   26.76   15.94   1 
  -7   8   5   58.66   27.49   1 
  -4  11   3   15.96   24.19   1 
  -2   0   1  823.55   28.64   1 
  -2  11   2   16.32   18.02   1 
  -1  -4   3   42.88   14.29   1 
  -1   8   0    5.39   16.24   1 
   1   4  -1  126.37   17.73   1 
   1   8   0  709.73   22.35   1 
   4   0   0  325.60   20.32   1 
   4   5   0  288.53   16.61   1 
   6  -5   4   20.44   24.45   1 
   6  -2   2  479.70   23.34   1 
   7  -2   3    8.64   17.12   1 
  -7  -2   9  208.48   17.40   1 
  -7  -1   8   28.46   15.33   1 
  -7   0   7  128.77   16.07   1 
  -7   4   5   64.44   17.61   1 
  -6  -2   7   58.84   14.70   1 
  -6  -1   6   69.41   15.44   1 
  -3  -5   6  283.01   16.25   1 
  -2  -5   5   22.07   13.55   1 
  -2  -3   3  107.98   14.11   1 
  -2   7   0   29.08   18.89   1 
  -1  10   1   76.51   16.54   1 
   1   3  -1  167.86   15.92   1 
   1   5  -1  229.13   15.91   1 
   1  10   1   28.00   14.61   1 
   2  -6   4   36.70   20.16   1 
   2   3  -1  762.55   22.49   1 
   2   4  -1  670.05   21.53   1 
   2   8   0   -4.84   14.07   1 
   4  -8   7  362.48   35.72   1 
   4   6   0  113.29   14.52   1 
   4   8   1  -17.64   15.00   1 
   6  -6   5  509.34   41.48   1 
   7   1   2   24.86   14.51   1 
   7   3   2    8.28   18.60   1 
  -7   2   6   11.83   17.57   1 
  -7   5   5    6.74   17.79   1 
  -5   2   3  326.90   17.32   1 
  -3  -4   5  275.00   16.58   1 
  -2  -8  10   60.53   14.98   1 
  -2  -7   8    3.43   13.97   1 
  -1  -8   9   52.54   18.51   1 
   1   6  -1  224.31   18.83   1 
   2  -9   9   18.68   18.75   1 
   2  -8   7   27.83   20.67   1 
   2   2  -1  108.49   14.25   1 
   3  -1   0   54.26   17.58   1 
   4  -4   2   89.18   27.33   1 
   6  -4   3  272.20   25.46   1 
   6   0   1   18.07   14.96   1 
   7  -4   4   52.20   19.77   1 
   7   4   2   21.92   14.90   1 
  -7   7   5   29.46   20.96   1 
  -6   1   5 1057.50   24.16   1 
  -5  -1   5  141.21   15.14   1 
  -4  -5   8   14.98   14.18   1 
  -4   0   3  451.32   20.77   1 
  -4   2   2  300.21   21.36   1 
  -3   0   2  790.60   25.40   1 
  -2  10   1   16.76   18.46   1 
   1   9   0   -4.44   14.40   1 
   3  -6   4  233.11   29.43   1 
   4   7   0   40.87   14.58   1 
   5  -2   1 1197.69   27.80   1 
   7  -6   6    6.88   26.35   1 
   7  -3   3  490.48   24.28   1 
   7  -1   2  107.73   15.70   1 
  -7  -2  10   90.73   15.53   1 
  -7  -1   9   41.49   19.05   1 
  -7   1   7   -1.20   14.34   1 
  -6  -3   9   77.95   14.47   1 
  -2  -8  11   30.01   15.66   1 
  -1   9   0  451.58   23.41   1 
   1  -9  10   26.85   19.25   1 
   1  -7   6   45.33   17.51   1 
   1   2  -1 1047.76   29.05   1 
   1   7  -1   77.74   14.64   1 
   2   9   0  185.01   18.57   1 
   4   3  -1  114.37   15.12   1 
   4   4  -1   18.29   13.50   1 
   6  -1   1  146.67   15.95   1 
   6   6   1   42.15   14.96   1 
  -7   0   8   19.42   14.51   1 
  -7   3   6  -10.34   17.32   1 
  -6  -1   7 1048.52   24.08   1 
  -2   8   0  597.23   26.86   1 
  -1  -8  10   40.86   17.86   1 
  -1  -6   6   11.74   14.36   1 
  -1  11   1   13.49   18.46   1 
   1  -8   8   -6.59   17.74   1 
   4   2  -1   20.09   13.96   1 
   4   5  -1   77.38   14.49   1 
   4   8   0   50.35   15.51   1 
   6   4   0  174.11   16.08   1 
   7   2   1   31.75   15.06   1 
   7   3   1  138.08   18.41   1 
  -7  -2  11    3.23   14.46   1 
  -5   1   4   48.52   14.24   1 
  -4  -5   9   24.62   18.22   1 
  -4  -3   6   -9.95   13.76   1 
  -4  -2   5   66.70   15.18   1 
  -4  10   2  110.37   27.75   1 
   1   8  -1   34.42   14.62   1 
   1  10   0  214.91   17.71   1 
   2   1  -1  502.79   21.68   1 
   3  -3   1  625.12   39.78   1 
   4   6  -1   76.42   14.43   1 
   6   5   0   11.01   13.41   1 
   7   0   1   14.18   17.41   1 
  -7  -1  10   71.23   16.02   1 
  -7   2   7  602.82   22.50   1 
  -7   4   6  180.40   19.04   1 
  -3  -1   3   49.05   12.65   1 
  -2  -5   6   45.72   14.54   1 
  -2  -1   2  187.93   15.41   1 
  -2  11   1    8.84   22.03   1 
   4  -3   1  719.10   31.17   1 
   4   1  -1   72.73   13.69   1 
   4   7  -1  109.35   14.90   1 
   4   9   0  -13.33   15.21   1 
   5  -5   3   37.76   29.43   1 
   5  -4   2    6.44   20.99   1 
   6  -2   1   82.30   17.40   1 
   6   6   0   42.49   14.35   1 
  -7   0   9  149.79   17.39   1 
  -7   1   8   24.13   14.36   1 
  -4  -6  12   66.10   15.77   1 
  -2   9   0   10.19   21.06   1 
  -1  -8  11   61.09   15.67   1 
  -1   5  -1  368.04   25.83   1 
  -1   6  -1  221.68   19.63   1 
  -1  10   0   27.09   18.50   1 
   1   9  -1   89.13   18.38   1 
   2  -8   8   56.81   21.61   1 
   7  -1   1  138.31   17.36   1 
  -7   5   6   16.95   18.00   1 
  -6  -3  11   21.92   15.07   1 
  -6  -1   8  103.50   15.03   1 
  -6   0   7  350.87   17.46   1 
  -6   8   4    7.22   25.11   1 
  -4  -4   8   80.42   14.89   1 
  -4   1   3  869.79   23.77   1 
  -4   3   2 1291.15   33.23   1 
  -2  -3   4    1.69   15.70   1 
  -2  -2   3   77.70   16.07   1 
  -1  -4   4  126.99   14.75   1 
  -1   7  -1  125.60   17.89   1 
   2   9  -1   42.03   16.13   1 
   3  -5   3  110.17   36.30   1 
   4   8  -1   -1.33   15.27   1 
   7  -5   4    0.24   24.51   1 
   7  -4   3    6.80   18.35   1 
   7   2   0   24.37   14.25   1 
   7   4   0  -22.31   14.81   1 
   7   5   0  108.44   19.20   1 
  -7  -1  11   46.23   15.11   1 
  -7   3   7   50.45   19.01   1 
  -6   3   5  313.09   21.75   1 
  -3   3   1 2298.55   56.00   1 
  -1  -6   7   28.72   15.06   1 
   1  -8   9  292.53   22.75   1 
   3   0  -1  717.79   23.59   1 
   4   0  -1    4.92   16.45   1 
   4   4  -2    0.28   13.54   1 
   4   5  -2  556.91   19.21   1 
   5  -3   1  118.27   18.05   1 
   6  -1   0   23.10   17.05   1 
   6   5  -1    1.11   13.74   1 
   7  -3   2   89.28   17.88   1 
   7   1   0  344.06   18.94   1 
  -7   0  10   75.81   16.00   1 
  -7   1   9   29.00   17.51   1 
  -7   2   8   10.76   17.15   1 
  -7   6   6   66.43   18.72   1 
  -6  -3  12   18.39   14.54   1 
  -4  -5  11  -17.34   18.55   1 
  -4   0   4  762.18   23.26   1 
  -3   1   2  414.38   22.55   1 
  -2  -5   7  -16.94   17.20   1 
  -1   8  -1   19.32   16.16   1 
   1  -7   7   24.91   16.51   1 
   1   1  -1  322.41   20.68   1 
   1   5  -2 1493.03   28.44   1 
   1   6  -2  202.07   16.09   1 
   1  10  -1   47.59   15.02   1 
   2   3  -2 1192.07   27.94   1 
   2  10  -1   29.36   14.72   1 
   4   3  -2 1164.85   24.65   1 
   4   6  -2   17.54   13.53   1 
   4   9  -1    3.04   15.29   1 
   6   6  -1    6.92   13.79   1 
   7  -2   1   21.64   16.15   1 
   7   0   0   16.83   17.22   1 
  -7   7   6   20.34   20.78   1 
  -7   8   6   25.11   21.96   1 
  -6  -1   9   73.44   15.28   1 
  -6   2   6   68.34   18.91   1 
  -3  -4   7   22.67   13.91   1 
  -2  -6   9   12.12   15.30   1 
  -2   1   1  987.03   34.73   1 
  -2  10   0  130.10   23.54   1 
  -1   4  -1  371.58   25.18   1 
   1   4  -2   54.87   16.89   1 
   4  -8   8   -4.60   23.55   1 
   4  -2   0   52.71   17.68   1 
   4   7  -2  184.13   16.89   1 
   6  -4   2  564.43   29.03   1 
  -7   0  11   -1.86   14.45   1 
  -7   4   7  204.89   17.55   1 
  -6  -2  11  117.21   16.09   1 
  -6   0   8  219.72   16.53   1 
  -6   1   7  366.44   17.68   1 
  -1  -7  10  112.54   15.64   1 
  -1   9  -1   45.17   16.61   1 
   1  -8  10   14.27   18.60   1 
   1   8  -2   17.84   14.79   1 
   2  -8   9   77.65   20.04   1 
   3   2  -2  277.37   17.11   1 
   4   2  -2   88.96   14.35   1 
   4   8  -2   33.65   15.20   1 
   6  -5   3   77.17   26.53   1 
   6  -3   1  219.51   19.23   1 
   7  -6   5   27.53   28.91   1 
   7   2  -1   38.98   14.94   1 
   7   3  -1    8.07   15.70   1 
   7   5  -1   45.15   14.89   1 
  -7   1  10   96.35   16.90   1 
  -7   2   9  154.28   19.93   1 
  -7   3   8   60.57   18.14   1 
  -4  -4  10   65.30   18.17   1 
  -4  11   2    0.19   31.74   1 
  -3  -3   6 1002.60   23.02   1 
  -2  -4   6   55.17   15.23   1 
   1  11  -1   34.58   15.07   1 
   2  -6   5    8.85   19.13   1 
   2   0  -1  741.73   26.49   1 
   2   9  -2   83.49   16.01   1 
   3  -2   0 2583.88   51.38   1 
   4  -7   6  296.01   32.67   1 
   6   5  -2  -29.52   14.73   1 
   7  -1   0  409.41   19.60   1 
   7   1  -1   18.77   18.01   1 
  -7   5   7   65.41   19.05   1 
  -6  -2  12   30.16   14.50   1 
  -6  -1  10   41.18   14.73   1 
  -4   2   3  465.50   22.29   1 
  -4   4   2  255.83   23.17   1 
  -3   0   3 1024.78   24.75   1 
  -1  -7  11   38.43   15.73   1 
  -1  10  -1  114.67   22.52   1 
   1   3  -2 5310.19   56.35   1 
   1   9  -2  175.62   16.38   1 
   2   2  -2 2258.58   36.12   1 
   4   1  -2  994.40   24.67   1 
   6  -2   0  280.79   20.35   1 
   6   6  -2   28.36   14.85   1 
  -7   1  11   69.27   18.76   1 
  -6   0   9   72.13   14.78   1 
  -6   3   6   64.52   17.85   1 
  -3  -1   4 1240.05   25.31   1 
  -2  11   0   47.61   19.17   1 
   1  -8  11   26.06   15.47   1 
   1  -7   8   15.93   13.72   1 
   2  10  -2    0.18   14.85   1 
   4  -1  -1   74.40   17.77   1 
   4   5  -3  103.45   14.79   1 
   4   6  -3   17.61   13.71   1 
   6   7  -2   19.99   14.37   1 
   7  -4   2   13.78   20.76   1 
   7   0  -1  183.27   18.82   1 
   7   4  -2   25.19   17.72   1 
  -7   2  10   49.54   18.91   1 
  -7   3   9   36.61   17.74   1 
  -7   4   8   46.91   18.43   1 
  -7   6   7  188.32   20.55   1 
  -6   1   8   49.32   14.37   1 
  -6   2   7   30.35   14.33   1 
  -2  -3   5   24.68   13.44   1 
  -1  -7  12   31.62   14.86   1 
  -1  -6   9   35.22   18.03   1 
   1  10  -2   21.97   13.71   1 
   2  -8  10   14.19   19.00   1 
   3   1  -2  242.68   16.01   1 
   4   4  -3  103.40   14.72   1 
   4   7  -3   22.64   15.05   1 
   6  -1  -1  243.18   20.40   1 
   7  -3   1  114.37   19.87   1 
   7   5  -2   79.33   15.53   1 
  -7   7   7   38.66   20.94   1 
  -4   0   5  136.33   18.67   1 
  -4   1   4   91.39   14.34   1 
  -1  -5   7  980.03   23.06   1 
   2   5  -3  506.12   20.04   1 
   4   3  -3  325.54   18.31   1 
   7  -5   3  443.56   30.65   1 
   7  -2   0   11.86   13.82   1 
   7   2  -2    4.24   15.49   1 
  -7   2  11   31.01   18.98   1 
  -7   8   7   30.97   24.21   1 
  -2  -5   9  180.03   16.02   1 
  -2   7  -1   21.83   18.88   1 
  -2   8  -1  354.92   25.86   1 
   1  11  -2   55.84   20.78   1 
   2  -8  11   66.84   20.53   1 
   2   4  -3   10.40   12.76   1 
   2   9  -3   90.56   18.52   1 
   3  -1  -1  751.96   25.37   1 
   4   9  -3   20.28   15.84   1 
   6   6  -3   22.39   14.59   1 
   6   7  -3   24.77   17.03   1 
   7   1  -2  130.13   19.00   1 
  -7   3  10  122.41   19.28   1 
  -7   4   9  147.96   18.64   1 
  -6   1   9    0.65   14.40   1 
  -6  10   5   31.77   30.97   1 
  -4  -4  13  -12.29   14.11   1 
  -4  -3  10    9.16   13.50   1 
  -2   9  -1   39.14   20.87   1 
   1   6  -3    5.43   13.30   1 
   1   7  -3    7.44   14.33   1 
   1   8  -3   11.93   14.31   1 
   4   0  -2   25.00   14.24   1 
   4   2  -3  182.25   18.09   1 
   6   0  -2   60.06   19.29   1 
   6   3  -3   54.47   15.27   1 
   7  -1  -1   -5.39   13.61   1 
   7   5  -3   46.81   17.85   1 
  -7   6   8   39.65   17.86   1 
  -6   0  11  241.75   19.37   1 
  -6   2   8  434.64   18.23   1 
  -6   3   7  204.86   16.51   1 
  -3  -2   6    9.07   13.34   1 
  -3   2   2  393.82   23.77   1 
  -2  -5  10   60.55   15.68   1 
  -1   8  -2   -2.17   16.03   1 
   1  -3   2  392.94   26.87   1 
   1   2  -2 2243.78   40.28   1 
   1   5  -3  415.11   18.36   1 
   1   9  -3    3.31   17.70   1 
   2   1  -2  171.84   15.40   1 
   2  10  -3   27.24   14.94   1 
   6   2  -3   62.03   15.41   1 
   7   3  -3  146.71   16.72   1 
   7   4  -3   55.88   15.09   1 
   9  -1   0   43.50   18.42   1 
  -7   3  11   96.96   20.94   1 
  -6   8   5   51.72   23.71   1 
  -6   9   5   98.34   28.37   1 
  -4  -3  11   17.30   14.83   1 
  -4  -1   7   22.99   13.77   1 
  -4   3   3  593.40   23.93   1 
  -3  -3   8   40.74   13.81   1 
  -2  -3   6  105.20   15.12   1 
  -2   6  -1  991.46   39.01   1 
  -2  10  -1  148.86   22.20   1 
  -1   7  -2  260.97   19.97   1 
  -1   9  -2  250.97   19.71   1 
   1  -6   7  653.22   24.08   1 
   1  -5   5  255.94   19.66   1 
   2  -5   4  709.35   29.78   1 
   2   3  -3   98.79   13.80   1 
   4   5  -4  229.39   15.91   1 
   4   6  -4    5.84   14.78   1 
   4   7  -4  173.84   16.67   1 
   4   8  -4   -5.70   18.76   1 
   5  -3   0  106.51   20.06   1 
   6  -3   0  254.82   19.84   1 
   7   0  -2  -10.13   13.76   1 
  -7   4  10   76.03   14.89   1 
  -7   5   9   -7.40   14.33   1 
  -7   7   8   96.38   18.83   1 
  -4  -3  12   50.46   14.78   1 
  -4   5   2  553.05   31.73   1 
  -3  -1   5 1148.01   24.24   1 
  -2  -5  11  138.75   16.69   1 
  -1   6  -2  381.00   21.78   1 
   1  10  -3   51.95   14.92   1 
   3   0  -2  772.53   25.38   1 
   4   4  -4  129.87   15.30   1 
   5  -2  -1  604.72   23.58   1 
   6  -2  -1  264.53   19.63   1 
   6   7  -4   17.68   15.14   1 
   7   2  -3  176.43   16.50   1 
  -6   2   9   78.44   14.62   1 
  -4   0   6 1335.68   24.75   1 
  -3   1   3  486.36   20.33   1 
  -1  10  -2    8.20   18.04   1 
   1  -7  11   38.39   18.59   1 
   1   4  -3   43.07   13.31   1 
   2  -7   9   41.69   18.35   1 
   4   1  -3  308.28   17.01   1 
   4   9  -4   62.85   16.78   1 
   5  -4   1 1246.90   40.86   1 
   6   4  -4   34.59   13.84   1 
   7  -3   0  556.55   23.47   1 
   7   5  -4   29.30   18.58   1 
   9  -3   1   61.78   20.29   1 
  -7   4  11   25.13   14.76   1 
  -7   5  10   58.91   19.33   1 
  -7   6   9   18.58   14.31   1 
  -4  -1   8  169.33   17.72   1 
  -4   1   5  139.07   15.26   1 
  -4   2   4  958.14   23.87   1 
  -3  -3   9  340.05   17.91   1 
  -3  -2   7   64.05   15.18   1 
  -2  11  -1   -9.91   20.30   1 
  -1  -6  13   11.94   15.47   1 
  -1  -5   9    8.60   14.96   1 
   1  11  -3    1.15   15.31   1 
   2   9  -4    2.70   14.27   1 
   3   4  -4   22.98   13.91   1 
   4  -7   7    7.10   20.89   1 
   4   3  -4   24.39   14.47   1 
   5  -1  -2    9.54   13.09   1 
   6  -1  -2  547.42   21.49   1 
   6   3  -4  180.54   16.61   1 
   7  -6   4   13.41   35.35   1 
   7  -4   1   32.03   18.55   1 
   7   1  -3  187.69   16.27   1 
   7   4  -4   38.07   14.85   1 
   9  -2   0   17.44   16.03   1 
   9  -1  -1   95.47   20.83   1 
   1  -7  12   32.72   15.73   1 
   1  -6   8   40.19   17.32   1 
   1  -2   1 1062.10   59.20   1 
   2   5  -4    3.00   13.21   1 
   2  10  -4   89.78   17.97   1 
   4  -2  -1  182.42   19.70   1 
   7  -1  -2  169.20   16.24   1 
   7   3  -4    0.76   15.03   1 
  -6   1  13   27.06   16.41   1 
  -4  -2  11   42.78   14.56   1 
  -2  -3   7    2.70   13.39   1 
  -1  -3   5 3477.88   39.60   1 
   1   7  -4  440.56   23.02   1 
   2   2  -3   63.07   14.15   1 
   3   1  -3   53.38   15.97   1 
   4  -1  -2 2114.85   35.99   1 
   4   6  -5   29.47   13.77   1 
   4   7  -5  149.71   16.28   1 
   4   8  -5   37.62   15.40   1 
   6   0  -3  291.13   17.95   1 
   6   2  -4   17.58   14.65   1 
   6   6  -5   36.52   14.69   1 
   7   2  -4  154.60   18.80   1 
   9   0  -2   37.74   14.92   1 
  -6   7   6   24.69   21.14   1 
  -4  -2  12  235.16   16.74   1 
  -4  -1   9   74.35   14.34   1 
  -1   5  -2  104.11   18.65   1 
   1   9  -4  139.00   15.73   1 
   2   4  -4 1465.80   27.30   1 
   4   2  -4  225.41   16.16   1 
   4   5  -5  281.68   18.11   1 
   4   9  -5   71.07   17.07   1 
   6  -5   2   11.53   26.41   1 
   6   5  -5   18.05   15.23   1 
   7   0  -3  203.35   16.06   1 
  -4  -2  13   37.66   14.35   1 
  -4  -2  14   45.15   15.03   1 
  -2  -1   4   16.31   12.24   1 
  -1  -5  11    5.47   14.10   1 
   1  -6   9  379.33   21.19   1 
   1  -5   6   71.98   16.89   1 
   1   3  -3  803.73   23.80   1 
   1   6  -4    0.10   12.85   1 
   2  -7  11   15.65   14.82   1 
   4   4  -5   39.73   16.27   1 
   5  -7   7  282.60   29.84   1 
   6   1  -4  968.62   26.00   1 
   7  -5   2  216.08   28.21   1 
   7   4  -5   18.07   14.03   1 
   9  -3   0    7.54   18.30   1 
   9  -2  -1    8.16   19.37   1 
  -6   8   6  168.20   22.02   1 
  -4  -1  10  162.24   14.91   1 
  -4   1   6   54.35   15.07   1 
  -4   4   3   76.27   16.76   1 
  -1  -5  12   27.55   15.89   1 
  -1  -4   8  266.76   19.20   1 
   1  11  -4   88.33   19.47   1 
   2  -7  12    4.45   15.66   1 
   2  -1  -1  959.24   34.37   1 
   4  -7   8   74.98   22.07   1 
   4  -6   5   16.43   26.14   1 
   4   0  -3  411.01   18.28   1 
   6   3  -5   90.29   14.79   1 
   7   1  -4   31.11   14.12   1 
   7   3  -5   62.29   17.90   1 
   9  -1  -2  124.96   18.13   1 
  -6   4   9   83.32   14.90   1 
  -6   9   6   23.83   20.84   1 
  -4   0   8   16.61   14.08   1 
  -4   2   5  221.76   18.57   1 
  -4   6   2  172.98   27.10   1 
  -3   0   5   37.91   12.72   1 
  -2   2   1  348.73   28.70   1 
  -1  -5  13   15.57   15.37   1 
  -1  -5  14   31.49   15.18   1 
   1   5  -4  782.98   22.39   1 
   2  -2   0   24.91   21.67   1 
   6  -7   7   18.77   33.87   1 
   6  -2  -2   27.27   16.74   1 
   7  -3  -1   -8.10   15.79   1 
   7  -2  -2  115.15   18.20   1 
   9  -4   1   25.85   20.10   1 
   9   0  -3    4.35   18.19   1 
  -6   3  12   16.86   15.22   1 
  -4  -1  11   14.05   13.66   1 
  -4   3   4  197.86   15.91   1 
  -3  -1   7 1176.28   23.12   1 
  -2   5  -1   43.04   27.52   1 
  -1  -3   6  837.17   21.66   1 
  -1   8  -3   10.02   15.84   1 
  -1   9  -3  247.58   21.06   1 
  -1  10  -3   15.62   20.98   1 
   2   0  -2 3929.57   52.05   1 
   2   3  -4    6.39   12.54   1 
   2  10  -5   13.65   14.83   1 
   4   1  -4  239.92   19.00   1 
   4   7  -6    3.59   14.57   1 
   4   8  -6   15.02   16.55   1 
   6  -1  -3    9.83   14.61   1 
   6   2  -5    0.53   14.68   1 
   6   6  -6  -18.82   14.78   1 
   7  -1  -3   50.26   14.62   1 
   7   2  -5   16.79   18.00   1 
  -6   7   7   62.75   17.97   1 
  -4  -1  12   22.53   13.92   1 
  -4  -1  14   37.03   17.52   1 
  -4   0   9  703.57   23.76   1 
  -3   1   4 2728.02   36.33   1 
  -3   3   2 1751.37   41.97   1 
  -2   1   2   14.15   13.76   1 
  -1  -4   9  712.89   21.34   1 
   1  -6  11   15.76   15.37   1 
   1  -6  12   17.14   17.96   1 
   2  -6   8   25.46   16.48   1 
   2  -4   3  327.54   26.95   1 
   4  -7   9   28.47   21.49   1 
   4  -4   1  257.97   36.91   1 
   4   9  -6   16.46   15.33   1 
   5  -2  -2 1917.79   33.85   1 
   6   0  -4   41.54   17.94   1 
   7  -4   0   24.05   20.47   1 
   7   0  -4  223.52   16.58   1 
   7   5  -6   13.41   13.89   1 
  -6   4  11  152.73   15.32   1 
  -4   1   7   34.33   13.96   1 
  -3   2   3 1109.22   30.30   1 
  -2  -3  10   89.84   15.97   1 
  -2   8  -2   40.78   20.54   1 
  -1  11  -3  141.33   19.55   1 
   1  -6  13   25.09   16.32   1 
   1  -5   7   -9.94   13.39   1 
   1   8  -5   22.47   17.28   1 
   2   5  -5   18.72   14.13   1 
   3  -1  -2  423.51   22.73   1 
   4   5  -6   41.31   14.83   1 
   5  -3  -1   54.69   19.48   1 
   5  -1  -3   69.66   14.46   1 
   6  -4   0   85.18   20.69   1 
   7   4  -6  127.18   16.54   1 
   9  -3  -1   69.20   18.85   1 
   9  -2  -2    8.38   18.88   1 
   9  -1  -3    9.04   19.16   1 
  -6   4  12   42.21   16.05   1 
  -6   5  10   41.00   16.81   1 
  -6   8   7   19.43   16.81   1 
  -3  -1   8   27.62   14.44   1 
  -2  -2   7 1038.09   22.60   1 
  -2  -1   5   41.86   13.10   1 
  -2  11  -2   64.61   21.65   1 
  -1  -4  10   11.04   14.61   1 
   1   4  -4  126.02   15.28   1 
   1   7  -5  350.90   21.83   1 
   1  10  -5    3.59   15.12   1 
   2   1  -3  489.92   19.29   1 
   3  -2  -1  218.65   21.55   1 
   3   0  -3 1032.73   25.73   1 
   4  -7  10   32.02   22.39   1 
   4   2  -5   53.22   17.36   1 
   5   0  -4  582.50   19.81   1 
   6   1  -5  134.81   18.33   1 
   7   1  -5   62.11   14.60   1 
   7   3  -6   42.87   15.52   1 
   9   0  -4   51.09   18.34   1 
  -6   5  11   34.95   18.11   1 
  -6   6   9  172.28   19.32   1 
  -6   7   8   41.72   17.66   1 
  -6   9   7   18.48   20.06   1 
  -4   0  11   54.69   14.31   1 
  -4   2   6  551.42   21.67   1 
  -1  -4  11  128.32   15.93   1 
  -1  -4  12  351.38   21.14   1 
  -1  -4  14   60.54   19.34   1 
  -1  -3   7  135.50   15.21   1 
   1  11  -5   27.95   15.59   1 
   2   9  -6   24.10   17.77   1 
   3  -4   2  650.86   61.68   1 
   4  -5   3 1377.78   70.37   1 
   4   4  -6  276.76   16.35   1 
   6   6  -7    0.10   13.56   1 
   9  -4   0   44.69   22.40   1 
  -4   0  13   64.21   14.05   1 
  -4   0  14   20.98   14.00   1 
  -4   1   8   13.90   13.49   1 
  -1   4  -2  427.24   27.41   1 
   1  -5   8  109.44   16.14   1 
   1   2  -3 1311.39   29.86   1 
   1   6  -5   25.02   13.76   1 
   2  -6  10   15.57   18.44   1 
   2   4  -5 1478.22   27.38   1 
   2  10  -6   71.14   15.76   1 
   3   1  -4 1230.66   25.47   1 
   4   7  -7  113.38   19.66   1 
   4   8  -7   29.64   15.27   1 
   7  -2  -3  108.72   19.03   1 
   7   2  -6  289.92   18.27   1 
   7   5  -7   15.97   14.39   1 
  -6   6  10  -23.44   13.60   1 
  -4   3   5   -4.89   15.54   1 
  -4   5   3  543.02   25.93   1 
   2  -6  11  156.58   16.82   1 
   2  -6  12   57.58   19.75   1 
   2   2  -4 1674.90   29.63   1 
   4  -1  -3  883.93   24.05   1 
   4   3  -6   -5.14   16.61   1 
   4   6  -7   35.21   14.48   1 
   6   2  -6   20.11   14.10   1 
   7  -3  -2  200.83   19.26   1 
   7  -1  -4   63.37   14.46   1 
   7   4  -7   30.66   14.88   1 
  -4   1   9   24.40   15.04   1 
  -4   4   4 1290.33   30.03   1 
  -3   0   7  115.61   13.68   1 
  -3   1   5 1185.32   24.38   1 
  -2  -2   9   18.56   14.02   1 
   2  -5   6    4.25   15.65   1 
   4  -6   6   83.09   26.13   1 
   4  -2  -2  306.83   18.58   1 
   4   0  -4  757.48   21.17   1 
   6  -2  -3    9.63   13.97   1 
   6  -1  -4 1376.98   27.40   1 
   7   0  -5   11.75   13.50   1 
   9  -2  -3  -20.30   16.06   1 
   9  -1  -4  101.13   15.94   1 
  -4   2   7  391.99   16.95   1 
  -4  11   1    1.15   19.69   1 
  -2  -1   6  124.95   14.38   1 
  -2   0   4 2159.87   33.98   1 
   1  -5  10   71.47   17.97   1 
   1   5  -5  655.56   21.51   1 
   3   2  -5  178.67   14.94   1 
   4   1  -5  469.53   18.92   1 
   4   5  -7    1.16   14.04   1 
   6  -3  -2  844.00   25.97   1 
   6   0  -5  183.05   16.44   1 
   7   1  -6   46.24   14.16   1 
   7   3  -7   21.37   14.11   1 
   9  -3  -2  134.56   18.09   1 
   9   0  -5   45.71   16.27   1 
  -4   1  11  239.85   15.63   1 
  -4   1  12   -6.90   13.95   1 
  -4   1  13  106.35   15.88   1 
  -4   1  14   11.85   13.94   1 
  -4   7   2  106.73   26.41   1 
  -1  -3   9   23.05   13.44   1 
  -1  10  -4   61.73   18.55   1 
   1  -5  11  105.11   16.32   1 
   1   3  -4  997.40   24.77   1 
   1   8  -6  -15.15   17.09   1 
   1   9  -6    7.61   13.75   1 
   1  10  -6   55.96   18.64   1 
   2   3  -5   19.83   13.39   1 
   2   5  -6   56.75   14.58   1 
   6   1  -6   51.06   15.03   1 
   6   6  -8   29.30   13.16   1 
   7  -4  -1  119.67   21.83   1 
  -4   2   8   10.64   13.89   1 
  -4   3   6   81.56   16.28   1 
  -3   2   4  629.37   22.38   1 
  -1  -3  10   27.72   15.19   1 
  -1  -3  11   17.58   14.66   1 
  -1  -3  12  124.26   18.99   1 
  -1  -2   6 1631.63   29.32   1 
  -1   8  -4  392.69   23.09   1 
  -1  11  -4    3.91   19.03   1 
   2   9  -7  -14.66   16.70   1 
   2  10  -7   55.45   19.65   1 
   4   2  -6  480.79   18.67   1 
   4   7  -8   53.71   18.43   1 
   4   8  -8   68.43   16.58   1 
   5  -6   5   76.40   30.63   1 
   5  -2  -3  432.99   20.68   1 
   5   0  -5  704.69   21.07   1 
   6   5  -8  -27.67   13.88   1 
   7   2  -7  179.99   17.13   1 
   9  -4  -1   21.80   19.31   1 
  -4   2   9  308.18   20.11   1 
  -2  -1   7    1.90   12.48   1 
   1   7  -6   -0.92   14.75   1 
   2   8  -7  178.30   16.02   1 
   4  -6   7  327.50   25.62   1 
   4   6  -8   78.99   18.25   1 
   5   1  -6   94.17   14.56   1 
   6   2  -7   33.63   14.16   1 
   7  -2  -4  104.11   17.95   1 
   7  -1  -5  112.46   18.33   1 
   7   4  -8  -10.24   14.70   1 
   9  -2  -4   21.47   18.72   1 
   9  -1  -5   16.24   19.71   1 
  -4   2  10  137.42   15.21   1 
  -4   2  13   36.40   17.76   1 
  -4   2  14    4.91   14.49   1 
  -4   4   5   87.71   16.61   1 
  -1   0   2  831.32   28.74   1 
  -1   5  -3  888.58   30.70   1 
   1   4  -5  361.60   19.33   1 
   2  -5   8   93.65   17.80   1 
   2   4  -6   48.26   16.93   1 
   3  -3   0  248.15   31.86   1 
   6  -5   1  240.92   31.35   1 
   7   0  -6   91.33   14.68   1 
   7   3  -8   -1.13   13.75   1 
   9  -3  -3    1.52   19.07   1 
  -4   2  11   -1.11   14.70   1 
  -4   3   7   69.92   14.18   1 
  -3   3   3   56.35   18.36   1 
  -2   1   3   62.98   14.52   1 
  -2  10  -3  107.90   22.10   1 
  -1  -2   7  451.79   18.20   1 
  -1   7  -4  123.31   17.87   1 
   1   6  -6   19.15   14.16   1 
   2  -5  13   -5.46   15.51   1 
   2  -4   4   23.26   19.74   1 
   3   0  -4   25.57   13.06   1 
   4   5  -8   -3.94   14.00   1 
   5  -3  -2  112.16   17.73   1 
   6  -4  -1   25.10   17.96   1 
   6  -1  -5 1032.45   24.14   1 
   6   0  -6  212.97   19.98   1 
   7  -3  -3   94.00   17.72   1 
   7   1  -7   36.20   14.98   1 
  -4   5   4   22.44   15.52   1 
  -3   1   7 1628.48   26.39   1 
  -2   6  -2   16.39   21.49   1 
  -2   9  -3   15.27   20.85   1 
   2  -5   9   54.99   14.52   1 
   2  -5  10   93.47   17.90   1 
   2  -5  11  -11.60   17.15   1 
   2  -5  12    5.91   15.33   1 
   2   0  -3  154.27   15.96   1 
   2   1  -4   10.10   12.58   1 
   3  -1  -3  502.72   22.96   1 
   3   1  -5 1124.83   24.89   1 
   3   4  -7   20.89   14.00   1 
   4  -6   8   36.99   19.00   1 
   4  -6   9  223.11   23.61   1 
   4  -6  11    6.57   19.91   1 
   4   0  -5  128.13   19.02   1 
   6  -2  -4   22.49   14.74   1 
   6   1  -7  931.09   25.77   1 
  -4   3   8   60.23   14.62   1 
  -1  -2  13   -1.86   18.37   1 
  -1  -2  14   38.39   15.18   1 
   1  -4  13   31.38   13.83   1 
   1   9  -7  147.99   15.86   1 
   1  10  -7   26.99   14.55   1 
   2   2  -5  519.86   19.11   1 
   4  -1  -4   81.39   14.55   1 
   4   1  -6  544.23   19.34   1 
   4   4  -8   71.13   17.68   1 
   4   8  -9   72.47   16.55   1 
   7   2  -8   14.99   15.31   1 
   7   4  -9  114.10   16.92   1 
   9  -5   0    7.91   22.42   1 
   9  -4  -2   30.63   18.01   1 
  -4   3   9   -3.56   14.12   1 
  -4   3  10   69.20   17.41   1 
  -4   3  11  -12.59   17.97   1 
  -4   3  12   27.79   15.24   1 
  -4   3  13  127.82   15.21   1 
  -4   8   2  318.96   33.38   1 
  -2   0   6    2.01   15.93   1 
  -1  -2  11   59.63   18.50   1 
  -1  -2  12  160.23   15.81   1 
   1  -4  11   22.74   17.68   1 
   1  -4  12    1.86   15.04   1 
   1   5  -6   33.33   14.27   1 
   2   5  -7    1.61   13.78   1 
   2   8  -8   19.79   17.02   1 
   2   9  -8   35.63   14.47   1 
   5  -6   6   27.76   24.38   1 
   6  -3  -3   10.64   16.66   1 
   6   2  -8  191.03   17.02   1 
   9  -2  -5    0.76   18.52   1 
   9  -1  -6    6.00   15.84   1 
  -2   0  14   42.67   16.96   1 
  -1  10  -5   43.37   18.55   1 
  -1  11  -5   77.21   19.49   1 
   1   1  -3 3135.02   44.17   1 
   1   2  -4  869.18   23.87   1 
   1   7  -7  184.91   19.07   1 
   2  -1  -2    6.49   16.93   1 
   2   3  -6   81.04   14.16   1 
   4  -2  -3  485.11   22.59   1 
   4   2  -7  589.86   19.40   1 
   4   6  -9  153.55   16.13   1 
   7  -4  -2   55.51   18.61   1 
   7  -2  -5   -9.43   17.44   1 
   7  -1  -6    6.99   14.13   1 
   7   0  -7  172.54   16.80   1 
   7   3  -9   60.37   14.97   1 
   9  -3  -4  198.18   20.91   1 
  -4   4   7  440.52   18.61   1 
  -4   4  13   40.53   15.93   1 
  -4   5   5   31.29   16.26   1 
  -1  -1   5 1241.78   25.95   1 
   1   3  -5 3433.57   40.28   1 
   4   3  -8  110.95   16.69   1 
   6   3  -9   86.97   14.93   1 
   7   1  -8   25.05   16.55   1 
  -4   4   8   24.22   17.89   1 
  -2   1   4   83.08   13.72   1 
  -2   2   2 3255.14   53.84   1 
   2  -4   5   13.20   16.27   1 
   2   4  -7  370.19   19.85   1 
   3  -2  -2  415.03   24.13   1 
   6  -1  -6  211.84   16.78   1 
   6   0  -7  306.39   17.72   1 
   7  -3  -4   19.34   16.59   1 
   7   2  -9  137.29   16.56   1 
  -4   4   9  191.46   15.76   1 
  -4   4  10  133.58   15.76   1 
  -4   4  11   25.34   14.46   1 
  -4   7   3   92.60   20.85   1 
  -1  -1  13   56.56   14.72   1 
  -1   8  -5  128.72   18.49   1 
   1   6  -7   14.45   15.08   1 
   2  -4  13   31.86   15.64   1 
   3   4  -8  124.33   15.65   1 
   4   7 -10   14.27   14.56   1 
   6  -2  -5   35.49   14.21   1 
   6   1  -8  109.80   14.77   1 
   9  -5  -1   70.55   24.04   1 
   9  -4  -3  -21.56   17.89   1 
   9  -2  -6   75.48   19.49   1 
  -4   5   6   13.05   12.98   1 
  -1  -1  12   58.70   15.51   1 
   1  -3   5   39.54   17.28   1 
   1  -3  13    5.78   14.64   1 
   1   4  -6  815.51   22.61   1 
   1   9  -8   37.96   14.91   1 
   2  -4  12   51.75   15.01   1 
   3   1  -6  833.77   22.25   1 
   4   1  -7   13.91   16.86   1 
   4   4  -9  266.07   15.79   1 
   5  -4  -1   53.54   20.04   1 
   6  -4  -2   77.99   20.80   1 
   6   2  -9   21.73   14.37   1 
   7   3 -10   32.79   15.30   1 
  -4   5   7  144.31   18.53   1 
  -4   5  11   81.78   19.63   1 
  -4   9   2   39.58   24.75   1 
  -2   1  13   19.88   16.85   1 
  -2   7  -3   20.96   20.70   1 
  -2  11  -4   90.59   24.82   1 
  -1  -1  11  -22.56   13.96   1 
   1  -3  12   64.39   15.66   1 
   1   8  -8  180.38   15.90   1 
   2  -4   6   14.61   15.81   1 
   2  -4  11  185.22   16.57   1 
   2   5  -8 1165.89   23.65   1 
   3   0  -5   52.15   12.82   1 
   3   2  -7   60.12   14.08   1 
   4  -5   4    7.07   20.93   1 
   4  -1  -5  151.45   17.80   1 
   4   2  -8  571.57   21.13   1 
   4   6 -10   -0.44   15.52   1 
   5  -3  -3  282.53   19.74   1 
   7  -1  -7  -18.37   14.55   1 
   7   0  -8   11.51   13.99   1 
   9  -3  -5   25.66   19.37   1 
  -4   5   8   18.37   13.47   1 
  -4   5  10  125.06   15.29   1 
  -4   6   5   61.17   16.12   1 
  -4   6  12   14.45   18.64   1 
  -2   1   5   77.46   13.45   1 
  -2  10  -4   23.46   20.20   1 
  -1  -1   8  100.98   14.72   1 
  -1  -1   9   -7.72   13.28   1 
  -1  -1  10   56.34   14.93   1 
  -1   0  14   18.01   14.49   1 
  -1   4  -3  208.20   20.48   1 
  -1   7  -5  104.19   17.30   1 
   1   5  -7 1009.80   24.85   1 
   2  -4   7   -0.21   16.63   1 
   2  -4  10   14.29   14.02   1 
   2   1  -5   40.26   13.03   1 
   2   2  -6  468.69   19.13   1 
   4  -5  11   86.28   19.74   1 
   4  -3  -2 1344.71   33.99   1 
   6  -3  -4  441.02   21.21   1 
   6   3 -10   43.54   13.83   1 
   7  -4  -3  179.75   20.36   1 
   7  -2  -6   10.82   14.38   1 
   7   1  -9  -20.90   15.16   1 
  -4   6  11   -5.85   16.58   1 
  -2   2  14    4.31   14.27   1 
  -2   9  -4  333.75   27.89   1 
  -1   1   1 1344.34   47.34   1 
  -1  10  -6  117.47   21.54   1 
  -1  11  -6  -17.02   19.30   1 
   1  -3  10   98.61   15.29   1 
   1  -2  14   17.93   17.95   1 
   1   7  -8  199.32   15.82   1 
   2  -4   8   74.18   15.57   1 
   2   3  -7    7.47   13.33   1 
   3  -1  -4 2814.18   37.14   1 
   4   3  -9  111.86   14.84   1 
   6  -1  -7  386.47   20.92   1 
   6   0  -8  213.20   17.05   1 
   7   2 -10   62.30   15.89   1 
  -4   6   6  298.35   19.35   1 
  -4   6  10   51.12   16.12   1 
  -4   7   4   -7.41   15.65   1 
  -4   8   3   63.74   23.85   1 
  -4  11   2   14.07   28.06   1 
  -2   1   6  636.39   20.06   1 
  -1   0  13   34.82   14.79   1 
  -1   5  -4  126.63   17.81   1 
  -1   9  -6   83.45   20.21   1 
   1  -3   7   99.87   15.05   1 
   1  -3   8   60.64   14.29   1 
   1  -3   9  112.01   16.01   1 
   2   6  -9   20.82   14.44   1 
   4  -5  10   20.27   18.08   1 
   5  -2  -5  896.66   22.66   1 
   6  -5   0  128.28   28.17   1 
   6   1  -9   58.18   15.85   1 
   6   4 -11   31.44   15.68   1 
   7  -3  -5   21.13   13.63   1 
   9  -4  -4   29.92   19.10   1 
  -4   6   7  623.06   22.66   1 
  -4   6   8   26.47   16.15   1 
  -4   6   9   53.37   14.08   1 
   1  -2   2 2523.96   57.87   1 
   1  -2  13   12.13   15.74   1 
   1   2  -5  194.31   15.02   1 
   1   6  -8  281.56   20.25   1 
   1   9  -9   16.82   17.30   1 
   2   4  -8  179.09   15.25   1 
   4  -5   5   98.56   20.81   1 
   4  -5   9   12.94   18.90   1 
   4   6 -11   81.92   15.05   1 
   6  -2  -6   59.20   15.66   1 
   6   2 -10  118.89   15.10   1 
   7   0  -9  117.94   20.61   1 
   9  -5  -2  212.67   26.16   1 
   9  -3  -6    8.39   18.93   1 
  -4   7   5   12.44   15.98   1 
  -4   7  10   41.06   16.78   1 
  -2   2   3   31.91   13.85   1 
  -2   2  12   63.90   17.23   1 
  -2   3  14   12.13   15.27   1 
  -1   0   4  808.58   23.27   1 
  -1   0  11  191.66   15.62   1 
  -1   1  14   35.31   13.77   1 
   2  -3  12   79.99   15.86   1 
   4  -5   6  218.15   23.07   1 
   4  -5   7   14.13   19.88   1 
   4  -5   8   30.76   16.89   1 
   4   0  -7  555.53   20.87   1 
   4   1  -8  163.48   15.16   1 
   6   3 -11   17.95   14.20   1 
   7  -1  -8   60.15   14.86   1 
   7   1 -10   18.30   14.93   1 
  -4   7   6   24.62   15.54   1 
  -4   7   9   10.53   15.68   1 
  -4   9   3   31.73   21.36   1 
  -2   3   1  563.91   32.91   1 
  -2   8  -4   31.47   20.28   1 
  -1   0  10   31.54   16.73   1 
  -1   1  13  101.83   17.86   1 
   1  -2  12   -3.44   15.16   1 
   1   1  -4  436.50   19.02   1 
   1   4  -7  166.58   15.80   1 
   1   8  -9   44.55   15.46   1 
   3   1  -7 1089.40   23.13   1 
   3   2  -8  170.92   15.57   1 
   3   5 -10   41.60   15.88   1 
   4   2  -9  670.33   19.54   1 
   6  -4  -3   30.18   18.59   1 
   7  -2  -7  618.91   20.27   1 
   7   2 -11  -10.95   14.89   1 
  -4   7   8   10.57   13.21   1 
  -4   8   4  278.09   20.61   1 
  -1   0   5   55.95   13.41   1 
  -1   0   9  586.32   18.87   1 
   1  -1  14   99.73   17.45   1 
   1   7  -9  156.39   18.56   1 
   2  -3  11   16.76   13.85   1 
   2  -1  -3   76.75   17.51   1 
   3  -2  -3 1144.00   30.52   1 
   3   0  -6  320.61   16.23   1 
   3   3  -9  333.76   18.06   1 
   3   7 -11   -8.73   15.64   1 
   4  -1  -6   45.95   14.00   1 
   4   3 -10   22.03   13.15   1 
   5  -5  10  113.23   20.46   1 
   6  -3  -5  365.94   18.14   1 
   6  -1  -8   35.08   17.85   1 
   6   1 -10   36.33   14.35   1 
   7  -4  -4  616.51   24.25   1 
   9  -4  -5   20.15   19.26   1 
  -4   8   8   -3.92   15.89   1 
  -4   8   9   32.28   14.08   1 
  -2   2   4 1229.45   29.24   1 
  -1   0   6 1840.97   29.54   1 
  -1   0   7  327.19   19.42   1 
  -1   0   8  182.96   15.47   1 
  -1   1  12   55.21   14.61   1 
  -1   2  14   24.91   15.00   1 
   2  -3  10   22.40   17.62   1 
   2  -2  13   20.93   19.09   1 
   2   2  -7 1054.99   22.23   1 
   2   3  -8  416.83   17.00   1 
   6   2 -11  140.20   16.16   1 
   7  -3  -6    4.62   13.94   1 
  -2   4  13   27.60   13.67   1 
   1  -2  10  391.25   18.45   1 
   1  -1  13   26.87   16.43   1 
   3  -1  -5 1208.25   25.78   1 
   4   4 -11   92.61   14.71   1 
   4   6 -12   47.68   15.30   1 
   6  -2  -7   27.12   14.46   1 
   7  -1  -9    5.37   15.29   1 
   7   0 -10   55.94   17.21   1 
   7   1 -11   50.46   15.27   1 
  -4  -7   6  -10.72   14.21   1 
  -4   6   9   67.00   17.15   1 
  -3  -8   5   51.06   14.08   1 
  -3  -4   3  548.77   19.56   1 
  -2  -5   2   37.93   13.59   1 
  -2   6   6   75.47   14.33   1 
  -2   7   8   47.90   14.21   1 
  -1  -5   1  219.58   14.38   1 
  -1   3   2 1076.76   25.67   1 
  -1   6   5    5.62   13.48   1 
   1   6   4  295.61   15.74   1 
  -6  -4   9    8.46   19.63   1 
  -4   7  11   43.69   14.85   1 
  -2   8  10  -15.01   13.25   1 
  -1 -10   4    6.44   14.18   1 
  -1  -7   2  539.64   20.02   1 
  -1   8   9   -1.88   14.51   1 
   1 -11   3  129.83   14.91   1 
   1 -10   2   16.06   13.71   1 
   2 -11   2   69.20   14.39   1 
   4 -11   1    5.52   15.01   1 
   4   6   4  131.89   19.08   1 
   7  -7  -1   37.95   17.58   1 
   7   2   1   11.98   19.99   1 
   7   3   2  -15.83   19.27   1 
  -4   4   6  586.47   22.53   1 
  -4   5   7  119.97   15.77   1 
  -2  -8   4  360.02   17.23   1 
  -2  -4   2  560.65   21.42   1 
  -2   7   7   96.67   15.19   1 
  -1   7   6   35.01   14.01   1 
  -1   8   8   70.24   13.96   1 
   1   7   5   21.26   13.26   1 
   2  -5  -1  168.84   14.05   1 
   2   7   5  104.47   15.21   1 
   4  -9   0  207.34   18.49   1 
   4  -7  -1   52.86   17.27   1 
   5 -11   1   23.44   14.85   1 
   6   3   1   14.04   19.02   1 
   9  -4   0   26.24   28.23   1 
  -6   4  10   15.52   19.70   1 
  -4  -6   6  147.03   17.79   1 
  -4   6   8   17.47   13.22   1 
  -4   7  10   49.86   14.65   1 
  -2   8   9   11.76   15.02   1 
  -1  -4   1  112.53   13.36   1 
   1  -8   1   21.73   12.77   1 
   1  -6   0    1.48   12.75   1 
   1   5   2   30.23   15.45   1 
   2  -9   1   35.59   13.16   1 
   2   8   7   35.45   14.84   1 
   4   1  -1   71.21   19.35   1 
   4   4   1  336.64   17.07   1 
   4   5   2    1.17   16.75   1 
   6   4   2   84.03   18.51   1 
   7  -9   0   49.50   15.89   1 
   9  -5   0   12.35   24.07   1 
  -6   3   9    8.26   19.64   1 
  -6   5  11   19.46   20.63   1 
  -4  -8   8   84.89   19.12   1 
  -4  -7   7  124.32   18.24   1 
  -4  -4   5   23.34   15.59   1 
  -4   3   5    1.39   16.85   1 
  -2  -6   3    3.94   13.16   1 
  -2   6   5  508.40   17.76   1 
  -2   8   8   13.34   18.82   1 
  -1 -10   5    0.57   17.52   1 
  -1   6   4  496.95   17.85   1 
  -1   8   7  122.65   14.85   1 
   1  -9   2  264.07   17.67   1 
   1   2   0  724.88   24.87   1 
   1   6   3  174.52   15.70   1 
   2 -11   3   10.13   16.65   1 
   2 -10   2   89.53   15.04   1 
   2  -7   0   24.31   13.27   1 
   2  -4  -1  707.34   22.13   1 
   2   8   6   50.24   17.69   1 
   4 -10   1   66.87   15.18   1 
   4   3   0  634.51   22.56   1 
   4   7   5   25.74   14.90   1 
   6   2   0  337.96   25.22   1 
  -4   7   9   10.12   12.81   1 
  -3  -5   4  171.24   15.43   1 
  -3  -2   3 1411.96   36.18   1 
  -2  -3   2 1150.35   29.56   1 
  -2   4   3  551.18   21.98   1 
  -2   7   6   96.97   14.84   1 
  -1  -6   2  209.75   15.87   1 
  -1   7   5   31.08   12.86   1 
   1 -11   4   26.57   14.18   1 
   1 -10   3   12.02   13.11   1 
   1   7   4   -1.54   12.56   1 
   2   7   4   20.70   14.52   1 
   4 -11   2   91.32   15.58   1 
   4  -6  -1  292.72   18.55   1 
   4   6   3   77.48   14.71   1 
   6   5   3  -15.24   13.96   1 
   7  -2  -1  193.38   45.20   1 
  -2 -10   7   74.02   15.53   1 
  -2  -7   4   13.47   13.84   1 
  -1  -3   1  183.31   15.82   1 
  -1   4   2   44.13   12.55   1 
   1  -7   1  133.76   18.23   1 
   1  -5   0 2149.60   30.70   1 
   4  -8   0   51.23   14.68   1 
   4   7   4   37.99   18.08   1 
   5 -11   2   25.14   15.37   1 
   7  -8   0    2.74   14.33   1 
   7  -5  -1   48.78   18.20   1 
  -4  -5   6   44.45   15.73   1 
  -4   5   6    1.74   13.05   1 
  -4   6   7  493.56   19.25   1 
  -2  -8   5   -4.31   13.60   1 
  -2   2   2 2475.74   48.42   1 
  -1   8   6   94.69   14.58   1 
   1   8   5   77.26   14.61   1 
   2  -8   1  320.64   17.19   1 
   2  -3  -1  556.64   21.69   1 
   2   6   2   29.48   16.57   1 
   2   8   5   15.10   14.93   1 
   5  -8   0  264.78   16.14   1 
   6  -8   0   56.51   13.84   1 
   7  -4  -1   81.89   23.85   1 
  -7   2  11   12.24   28.49   1 
  -6  -4  10   61.20   21.07   1 
  -6   4   9   55.13   20.20   1 
  -6   5  10    4.16   16.92   1 
  -4  -8   9   82.30   19.13   1 
  -4  -3   5  293.44   19.98   1 
  -4   7   8    5.67   13.58   1 
  -3  -9   8  -18.65   14.16   1 
  -3  -1   3   29.22   21.53   1 
  -2   7   5   62.86   17.52   1 
  -1 -10   6   58.32   15.47   1 
  -1  -8   4   -0.45   16.99   1 
   1  -8   2   18.55   12.84   1 
   2 -10   3  130.89   17.32   1 
   2  -9   2  246.76   15.53   1 
   2   5   1   26.08   13.91   1 
   2   7   3  235.58   16.70   1 
   4  -9   1   11.92   13.95   1 
   4  -5  -1   87.43   16.05   1 
   4   5   1  829.81   24.49   1 
   6   4   1  115.51   18.55   1 
   7  -9   1   24.40   18.33   1 
   7  -3  -1   14.60   27.46   1 
   7   4   2   13.16   18.13   1 
  -4  -7   8   45.13   14.74   1 
  -4  -6   7   11.30   14.37   1 
  -4   4   5   78.59   15.67   1 
  -4   8   9   39.91   16.41   1 
  -3  -4   4   35.78   15.73   1 
  -2  -2   2 2239.57   43.06   1 
  -2   8   6   33.16   17.01   1 
  -2   9   8   34.35   14.29   1 
  -1  -9   5  178.71   16.37   1 
  -1  -5   2 1418.60   25.53   1 
  -1   2   1   83.69   14.42   1 
  -1   6   3   33.61   13.17   1 
  -1   7   4   24.31   12.62   1 
  -1   9   7   12.81   14.08   1 
   1 -10   4   55.62   14.15   1 
   1  -9   3  260.84   15.62   1 
   1   6   2  654.72   19.11   1 
   1   9   6    5.33   13.65   1 
   2  -2  -1  371.66   23.76   1 
   2   8   4   84.23   18.54   1 
   4 -11   3   82.38   16.27   1 
   4 -10   2  -20.07   14.64   1 
   4  -7   0 1107.62   26.06   1 
   4   6   2  131.77   14.84   1 
   5  -9   1   14.09   13.71   1 
   6   5   2    7.28   14.55   1 
   7  -7   0  172.19   19.79   1 
  -2  -6   4 1101.11   25.44   1 
  -1   8   5   75.90   13.80   1 
   1  -6   1  201.84   18.52   1 
   1  -4   0   21.10   12.53   1 
   1   3   0 1299.02   27.46   1 
   1   5   1  133.07   13.74   1 
   1   8   4   16.54   14.08   1 
   4   2  -1   11.97   15.20   1 
   4   4   0   20.37   15.62   1 
   4   7   3   28.51   14.80   1 
   5 -11   3   46.57   14.16   1 
   5 -10   2   35.29   13.76   1 
   6   3   0   24.59   16.06   1 
   7   2   0   26.59   19.25   1 
  -4   6   6  252.05   16.03   1 
  -4   7   7   62.59   14.68   1 
  -2   3   2   10.90   15.45   1 
  -2   9   7   77.36   15.91   1 
  -1   9   6   26.18   13.46   1 
   1   9   5   41.61   16.69   1 
   2  -7   1   36.10   13.09   1 
   2  -5   0   12.01   13.87   1 
   2   9   5   31.05   17.65   1 
   5  -7   0    5.43   13.27   1 
   6   1  -1   96.19   23.82   1 
  -6   5   9   12.05   16.97   1 
  -6   6  10  -10.11   16.80   1 
  -4  -4   6  298.92   19.32   1 
  -4   8   8   11.44   13.55   1 
  -2  -4   3    1.05   15.64   1 
   1 -11   6  -24.20   14.94   1 
   2 -10   4   32.05   16.48   1 
   2  -8   2   31.79   14.33   1 
   2  -1  -1  870.83   45.25   1 
   2   1  -1  452.16   27.25   1 
   2   7   2   76.21   14.75   1 
   4 -11   4   45.97   14.19   1 
   4  -8   1    9.24   13.98   1 
   4  -4  -1  153.16   17.52   1 
   6  -4  -1   15.50   15.85   1 
   7  -8   1   71.67   15.61   1 
   7  -6   0   20.97   20.32   1 
  -6   3   8   39.95   22.91   1 
  -4  -2   5   39.16   17.98   1 
  -4   5   5   26.78   16.09   1 
  -2   7   4  184.69   15.33   1 
  -2   8   5   89.86   14.62   1 
  -1  -9   6    1.50   13.79   1 
  -1  -8   5   11.34   13.83   1 
  -1  -7   4  460.37   17.79   1 
  -1  -4   2   66.71   16.34   1 
  -1   3   1   88.11   13.92   1 
  -1   7   3  485.10   17.39   1 
  -1   8   4  320.55   15.78   1 
   1 -10   5   46.24   13.99   1 
   1  -7   2  264.95   16.68   1 
   1   7   2   17.89   13.68   1 
   1   8   3   99.92   13.93   1 
   2  -9   3    2.83   12.89   1 
   2   8   3   34.91   13.87   1 
   4 -10   3   29.69   15.01   1 
   4  -9   2  303.92   17.48   1 
   4   7   2   15.78   16.96   1 
   5  -8   1  344.97   16.96   1 
   5  -4  -1   45.88   15.54   1 
   6  -8   1    2.19   13.94   1 
   7  -9   2  223.60   20.55   1 
   7   4   1   21.68   19.24   1 
  -7   4  11    7.42   20.10   1 
  -4  -6   8  100.89   15.66   1 
  -4  -5   7   15.46   12.95   1 
  -3  -3   4 1215.99   29.43   1 
  -2   9   6  153.57   15.97   1 
  -1 -10   8   36.72   17.06   1 
   1  -9   4  -10.46   12.47   1 
   1  -8   3   16.32   12.38   1 
   1  -3   0 7585.18   64.21   1 
   1   4   0  378.84   16.60   1 
   1   6   1   20.56   12.74   1 
   1   9   4   40.96   15.36   1 
   2   9   4   37.57   14.51   1 
   4  -6   0   53.71   13.42   1 
   4   8   3   58.65   18.51   1 
   5 -10   3  149.58   16.26   1 
   5  -9   2   40.02   14.39   1 
   6  -9   2   26.16   13.86   1 
   6  -6   0  200.16   18.27   1 
  -6   4   8   70.91   20.40   1 
  -6   6   9  111.22   19.27   1 
  -6   7  10   37.03   16.82   1 
  -4   7   6   13.48   12.96   1 
  -4   8   7  101.63   14.93   1 
  -2  -5   4   -9.64   16.01   1 
  -2  -1   2  162.05   23.30   1 
  -2   4   2 1804.01   30.32   1 
  -2  10   7    0.90   15.09   1 
  -1   6   2   24.32   13.20   1 
  -1  10   6   -0.12   14.74   1 
   1  -5   1  336.10   16.44   1 
   2 -11   6  -19.05   12.93   1 
   2  -6   1 1049.55   22.64   1 
   2   2  -1  119.96   18.00   1 
   4   3  -1  103.29   16.58   1 
   4   5   0  320.22   17.86   1 
   5  -6   0  461.54   18.52   1 
   6  -3  -1  367.16   30.05   1 
   6   4   0  178.37   19.38   1 
   7   3   0  130.31   21.85   1 
  -4  -7  10   30.20   17.81   1 
  -4   6   5   50.79   17.91   1 
  -4   9   8   98.83   15.53   1 
  -2  -7   6   19.56   14.13   1 
  -2  -6   5  483.22   21.72   1 
  -2   8   4   43.05   16.94   1 
  -1  -9   7  129.33   16.00   1 
  -1  -1   1  315.01   23.50   1 
  -1   4   1   19.07   12.19   1 
   1 -10   6  129.63   17.09   1 
   2 -10   5   22.40   13.33   1 
   2  -4   0  179.56   17.96   1 
   4 -11   5  153.86   15.34   1 
   4  -7   1   62.79   17.30   1 
   6   2  -1   92.95   22.02   1 
   7  -7   1   39.72   17.93   1 
  -4   3   4  189.43   20.84   1 
  -2  -9   9   16.56   14.86   1 
  -2   9   5  -14.93   13.30   1 
  -1  -5   3  436.85   17.29   1 
   1   5   0  183.47   17.53   1 
   1   8   2  881.81   21.15   1 
   1   9   3   40.41   13.67   1 
   2  -9   4  351.71   16.87   1 
   2  -8   3  543.49   20.61   1 
   2  -7   2  408.15   16.94   1 
   4 -10   4   50.00   15.95   1 
   4  -9   3  332.90   19.83   1 
   4  -8   2   32.43   16.88   1 
   4  -3  -1  270.38   20.64   1 
   4   7   1   97.67   17.29   1 
   7  -9   3   85.55   18.37   1 
   7  -8   2   37.69   17.20   1 
   7  -5   0  327.42   21.65   1 
  -6  -1   9   48.12   25.93   1 
  -6   7   9   31.87   17.61   1 
  -4  -6   9  135.82   19.50   1 
  -4  -3   6    6.15   15.68   1 
  -4   8   6  151.54   14.94   1 
  -4   9   7   16.25   17.32   1 
  -3  -4   5  208.42   15.25   1 
  -2  -3   3  114.70   18.15   1 
  -2   5   2   -1.75   11.51   1 
  -1  -7   5  359.57   16.96   1 
  -1  -6   4    4.44   13.22   1 
  -1   7   2  734.64   19.00   1 
   1  -9   5  250.96   15.49   1 
   1  -6   2  392.23   17.86   1 
   1   7   1    5.06   13.60   1 
   1  10   4   43.12   14.45   1 
   2 -11   7  107.75   16.19   1 
   2   3  -1  789.40   23.65   1 
   4   8   2  103.76   15.94   1 
   5 -10   4   24.36   14.37   1 
   5  -3  -1   47.41   19.06   1 
   6   6   1   48.39   15.91   1 
  -4  -5   8   15.43   17.43   1 
  -4  -4   7  230.26   18.20   1 
  -4   4   4  950.27   27.06   1 
  -4   7   5   11.35   16.34   1 
  -3  -5   6  218.76   15.79   1 
  -2  -8   8   13.03   13.81   1 
  -1  -9   8   52.63   19.75   1 
  -1   5   1  312.58   16.49   1 
   1  -8   4  345.58   16.40   1 
   1  -7   3  494.76   18.56   1 
   2 -10   6   13.06   17.02   1 
   3  -2  -1  204.16   21.25   1 
   4  -5   0 1125.37   24.16   1 
   4   6   0  116.19   14.73   1 
   6  -5   0  132.92   17.14   1 
   6   3  -1   93.60   20.88   1 
   6   5   0    9.39   16.83   1 
  -7   3  10   99.49   29.64   1 
  -7   4  10   58.65   24.13   1 
  -6  -3  11   32.69   21.57   1 
  -6   6   8   90.56   18.75   1 
  -4   5   4   27.74   15.04   1 
  -2  10   5   28.77   13.98   1 
  -1  -3   2 5078.00   52.43   1 
   1 -10   7  134.13   14.68   1 
   2   9   2   63.66   16.00   1 
   4 -10   5   16.84   15.34   1 
   5  -5   0    9.11   15.75   1 
   7   4   0    1.58   18.27   1 
  -4  -1   5  454.37   31.57   1 
  -2  -7   7   14.08   13.81   1 
  -2  -4   4 1593.92   29.62   1 
  -2   8   3  144.48   14.86   1 
  -1  -8   7   37.23   16.56   1 
  -1   6   1   22.09   15.43   1 
  -1   8   2   98.56   16.60   1 
  -1   9   3   51.42   15.14   1 
  -1  10   4   88.36   14.13   1 
   1  -4   1  375.06   17.69   1 
   1   6   0  331.71   16.31   1 
   1   8   1   18.72   17.09   1 
   1   9   2   25.37   13.21   1 
   1  10   3   42.38   13.91   1 
   2  -9   5   57.09   13.54   1 
   2  -5   1   49.39   12.54   1 
   7  -6   1   40.95   17.50   1 
  -6   7   8   51.26   16.94   1 
  -4  -6  10    6.17   17.50   1 
  -4   6   4  717.67   24.25   1 
  -4   8   5   87.27   13.97   1 
  -2  -6   6  554.88   19.26   1 
  -2  -5   5   25.41   15.64   1 
  -1  -9   9   18.33   18.53   1 
   1 -10   8   39.32   16.85   1 
   1  -2   0  304.65   18.96   1 
   2  -8   4   40.88   12.65   1 
   2   7   0  486.73   18.18   1 
   4  -9   4   35.82   14.22   1 
   4  -8   3    7.04   16.73   1 
   4  -6   1   33.06   12.75   1 
   4   5  -1  106.68   14.45   1 
   4   7   0   23.96   16.69   1 
   6  -6   1    0.90   16.07   1 
   6  -2  -1  233.53   31.69   1 
   7  -8   3   36.64   18.09   1 
   7  -7   2  230.00   20.85   1 
   7  -4   0   22.40   19.67   1 
   7   2  -1   33.53   22.61   1 
  -2  10   4   17.40   12.99   1 
  -1  -7   6    6.25   13.52   1 
  -1  -4   3   39.15   15.82   1 
   1  -8   5  148.79   15.09   1 
   1   7   0  354.79   18.94   1 
   2 -10   7    9.07   13.56   1 
   2  -7   3   30.91   13.00   1 
   2  -6   2   19.23   12.84   1 
   2  -3   0 2887.99   42.86   1 
   4 -10   6   66.43   17.61   1 
   4  -7   2  352.01   17.18   1 
   5  -9   4  130.65   16.01   1 
   5  -6   1  363.23   18.66   1 
   6  -7   2   23.00   16.74   1 
   6   4  -1    5.09   16.95   1 
   6   6   0   59.38   18.40   1 
   9  -3   1   73.28   29.02   1 
  -6   4   7    4.32   19.46   1 
  -6   5   7   92.18   19.48   1 
  -4  -5   9   31.37   16.90   1 
  -4   7   4  -20.29   17.46   1 
  -4  10   6   19.12   18.70   1 
  -2   9   3    4.67   13.13   1 
  -1  -6   5   27.80   12.90   1 
  -1  -5   4  824.16   23.32   1 
  -1   7   1   95.24   13.68   1 
  -1  10   3   39.74   14.14   1 
  -1  11   4   17.31   13.43   1 
   1  -7   4  142.43   14.71   1 
   1  -5   2  141.91   14.78   1 
   1   2  -1 1001.94   29.28   1 
   1   3  -1  168.09   15.55   1 
   1   4  -1  108.79   16.45   1 
   1  10   2  119.64   15.06   1 
   2  10   2   19.62   14.13   1 
   5  -7   2   25.44   13.67   1 
  -6  -3  12    5.86   22.84   1 
  -6   3   7  165.22   28.71   1 
  -6   8   8   27.08   14.45   1 
  -4  -6  11   80.39   18.71   1 
  -4   9   5   -0.01   13.37   1 
  -3  -5   7  790.12   20.89   1 
  -3  -3   5  159.68   17.58   1 
  -2  -7   8    8.22   14.13   1 
  -2   8   2  331.09   16.98   1 
  -1  -9  10   59.38   15.04   1 
  -1  -8   8  197.99   15.86   1 
  -1   9   2   41.60   12.50   1 
   1 -10   9  208.37   16.29   1 
   1  -9   7   16.10   13.15   1 
   1  -6   3   -4.46   13.01   1 
   1   9   1   55.86   14.18   1 
   2 -10   8   -3.12   12.75   1 
   2  -9   6   66.19   13.29   1 
   4  -9   5  255.05   19.50   1 
   4  -4   0   14.23   15.31   1 
   4  -2  -1  165.74   22.50   1 
   4   6  -1   61.44   13.84   1 
   6  -4   0   84.88   21.00   1 
   7   3  -1   21.96   19.71   1 
  -4  -4   8   73.62   16.31   1 
  -2   3   1  639.80   24.50   1 
  -2   4   1  613.50   20.68   1 
  -2   5   1  164.78   13.50   1 
  -2  11   4   21.14   14.52   1 
  -1   8   1  121.76   13.99   1 
   1   8   0  691.19   20.17   1 
   4 -10   7   14.20   14.07   1 
   5  -4   0  899.68   26.04   1 
   5  -2  -1  530.19   31.90   1 
   6  -9   5   15.06   15.49   1 
   6   5  -1   17.67   17.69   1 
   7  -5   1  266.46   19.95   1 
  -7   5   9    0.57   22.68   1 
  -4  -3   7   42.70   16.02   1 
  -4  -2   6  447.35   22.74   1 
  -4   8   4  318.01   16.63   1 
  -2  -6   7  461.69   18.57   1 
  -2  -2   3   83.14   17.92   1 
  -2   6   1   16.61   12.62   1 
  -2  10   3   78.68   14.08   1 
  -1  -7   7  148.39   15.35   1 
  -1   4   0   26.11   12.51   1 
  -1  10   2   83.22   18.08   1 
   1  -8   6  196.70   14.66   1 
   2  -8   5   28.81   13.22   1 
   2  10   1   26.33   14.97   1 
   4  -8   4   36.69   14.84   1 
   4   2  -2   81.31   18.94   1 
   4   3  -2 1082.85   30.01   1 
   4   7  -1  100.98   17.63   1 
   7  -8   4  -13.43   15.21   1 
   7  -7   3  207.76   19.87   1 
   7  -6   2   38.99   17.90   1 
  -7   4   9   69.69   26.44   1 
  -6  -2  11  127.91   23.50   1 
  -6   8   7    5.19   17.20   1 
  -4  -6  12   54.02   17.97   1 
  -4  -5  10   17.97   17.47   1 
  -4  10   5   90.89   16.20   1 
  -2  -7   9   -4.72   14.04   1 
  -1  -8   9   50.74   15.82   1 
  -1   3   0 7268.58   62.43   1 
   1  -9   8  -10.97   12.57   1 
   1   6  -1  193.14   14.70   1 
   2  -9   7  237.75   15.83   1 
   2  -7   4  622.14   18.50   1 
   2  -4   1  491.66   19.01   1 
   2   9   0  186.28   17.00   1 
   4  -7   3  466.69   18.46   1 
   4  -5   1  830.58   21.67   1 
   4   4  -2    0.31   15.61   1 
   5  -8   4   16.94   13.87   1 
   6  -5   1  258.40   18.53   1 
   7  -3   0  539.41   31.04   1 
  -4   4   3   75.05   18.34   1 
  -4   6   3  152.91   17.95   1 
  -4   9   4   -5.81   13.34   1 
  -2  -5   6   41.77   13.44   1 
  -2   7   1   23.92   12.76   1 
  -2  11   3   25.76   17.03   1 
  -1   6   0    8.32   13.39   1 
  -1   9   1  236.08   15.12   1 
   1  -7   5  127.11   14.59   1 
   1   1  -1  325.48   25.95   1 
   1   7  -1   64.85   16.03   1 
   2  -6   3  483.96   17.20   1 
   2  -5   2 2289.37   31.75   1 
   4  -9   6   27.75   14.29   1 
   4  -6   2  300.37   16.81   1 
   4   9   0    7.27   14.49   1 
   5  -7   3   10.76   13.73   1 
   5  -5   1   59.01   14.06   1 
   6  -7   3   14.71   14.18   1 
   6  -6   2  309.80   18.65   1 
   6   6  -1    1.35   13.99   1 
  -6  -1  10   45.13   22.98   1 
  -4   7   3  114.20   18.33   1 
  -2  -4   5 1553.75   27.13   1 
  -2  -3   4    1.70   13.23   1 
  -2   2   1  335.72   23.40   1 
  -1  -8  10   36.11   19.50   1 
  -1   7   0  791.20   20.81   1 
  -1  11   2   22.46   13.99   1 
   1  -9   9    8.46   14.25   1 
   1  -3   1  231.08   16.60   1 
   2  -8   6  -14.63   15.49   1 
   3   2  -2  256.03   21.88   1 
   4   1  -2  894.33   43.59   1 
   4   5  -2  506.94   19.14   1 
   5   1  -2    4.41   24.22   1 
   7  -8   5  -12.50   18.53   1 
   7   5  -1   22.63   20.24   1 
  -6   0   9   61.38   31.17   1 
  -6   6   6  120.48   19.40   1 
  -4  -4   9  281.40   19.52   1 
  -4   8   3   75.98   17.12   1 
  -4  10   4  180.43   16.73   1 
  -2  -7  10  127.99   15.08   1 
  -2  -6   8   88.73   14.58   1 
  -1  -7   8  228.79   16.96   1 
  -1  10   1   92.37   14.08   1 
   1  -8   7  515.81   17.79   1 
   1  -6   4  643.29   20.67   1 
   1   8  -1   16.28   17.46   1 
   2   4  -2  539.68   22.45   1 
   2  10   0   33.84   15.16   1 
   4  -9   7   32.98   18.28   1 
   4  -8   5  -22.49   13.79   1 
   4   6  -2   12.51   16.89   1 
  -6   5   6   18.53   18.82   1 
  -6   7   6   22.98   17.55   1 
  -4  -5  11   11.87   17.18   1 
  -2   9   1   42.96   16.18   1 
  -1  -4   4  127.03   17.45   1 
  -1  -3   3  804.45   25.00   1 
  -1   2   0  267.07   18.63   1 
  -1   8   0    4.83   12.36   1 
   1  -9  10   38.35   16.67   1 
   1  -5   3  829.49   20.88   1 
   1  -4   2  420.43   17.80   1 
   1  10   0  227.08   15.92   1 
   2   3  -2 1178.98   30.82   1 
   2   9  -1   76.93   18.13   1 
   5  -8   5  121.65   15.40   1 
   6   4  -2   64.05   18.07   1 
   7  -7   4    8.77   14.53   1 
  -7   6   8   37.78   19.94   1 
  -6  -2  12   11.40   21.21   1 
  -6   8   6  139.04   18.43   1 
  -4   3   3  485.56   24.09   1 
  -4   9   3   38.90   14.14   1 
  -4  11   4   -0.33   18.34   1 
  -1   9   0  425.61   18.40   1 
   1  -8   8   17.56   17.47   1 
   1  -7   6   36.31   13.20   1 
   2  -9   9   21.53   13.74   1 
   2  -7   5  633.99   18.66   1 
   3  -4   1  362.54   18.07   1 
   4  -7   4   24.73   14.56   1 
   4   7  -2  191.90   18.71   1 
   4   9  -1   32.18   14.76   1 
   6  -3   0  266.21   23.17   1 
   6   5  -2    0.76   19.69   1 
   7  -6   3  -22.34   18.06   1 
   7  -5   2  197.73   19.29   1 
   7  -4   1   17.28   16.64   1 
  -6   9   6   23.75   17.78   1 
  -4  -3   8  116.13   16.29   1 
  -3  -3   6  911.67   25.35   1 
  -2  -5   7    7.66   14.60   1 
  -2  10   1   12.52   13.40   1 
  -1  -7   9  202.50   16.24   1 
  -1  -6   7   13.50   14.06   1 
  -1  11   1   10.32   13.31   1 
   1   9  -1   68.85   14.59   1 
   1  11   0    9.13   14.01   1 
   2  -8   7   14.83   12.62   1 
   3  -1  -1  729.67   42.32   1 
   4  -9   8   79.39   14.51   1 
   4  -8   6  148.96   15.53   1 
   4  -3   0 1915.13   36.42   1 
   5  -7   4   64.29   14.23   1 
  -7   5   8  128.15   20.90   1 
  -4  -5  12   13.01   15.53   1 
  -4  10   3   19.00   14.96   1 
  -3  -1   4 1160.98   37.93   1 
  -2  -6   9   23.96   13.78   1 
  -2   5   0   -4.35   13.88   1 
  -2   6   0  848.26   21.21   1 
  -2   7   0   48.67   12.89   1 
  -1  10   0    4.53   16.33   1 
   1   5  -2 1429.52   25.34   1 
   1   6  -2  213.68   16.01   1 
   2  -9  10   50.57   14.65   1 
   2  -6   4   43.54   13.27   1 
   2  -2   0   22.18   13.91   1 
   4  -6   3  386.12   18.31   1 
   4   8  -2   26.90   17.23   1 
   5  -3   0   85.28   16.53   1 
   6  -6   3  188.60   14.57   1 
  -4  -4  10   50.32   16.79   1 
  -4   6   2  191.75   17.92   1 
  -4   7   2   99.37   18.35   1 
  -3  -2   5  187.68   18.72   1 
  -2   8   0  618.30   18.78   1 
  -2  11   1    1.98   16.59   1 
  -1   6  -1  206.11   15.11   1 
  -1   7  -1  135.57   18.09   1 
   1  -8   9  266.19   16.08   1 
   1  -6   5  356.59   17.25   1 
   1   4  -2   61.32   13.41   1 
   1   7  -2  514.09   17.39   1 
   1  10  -1   60.35   14.22   1 
   2  -8   8   47.58   17.33   1 
   2   2  -2 2482.38   45.17   1 
   2   8  -2   71.87   14.07   1 
   3   1  -2  231.29   27.33   1 
   4  -5   2  414.67   17.90   1 
   4  -4   1  286.37   16.54   1 
   6  -4   1   22.85   15.60   1 
   6   1  -2  369.08   43.66   1 
   7  -7   5  166.81   17.06   1 
  -4  -2   7  630.37   25.85   1 
  -4   8   2  324.53   16.52   1 
  -4  11   3   43.27   14.13   1 
  -2  -4   6   38.28   13.97   1 
  -2   4   0  188.72   17.36   1 
  -2   9   0   -2.30   13.03   1 
  -1  -7  10   91.06   15.51   1 
  -1  -5   6   16.59   13.24   1 
   1  -7   7   19.32   13.35   1 
   1   8  -2   24.15   14.34   1 
   2  -7   6    1.65   13.22   1 
   2  -5   3  404.37   17.02   1 
   2   9  -2   98.19   17.65   1 
   4  -8   7  348.38   17.68   1 
   4  -7   5  259.86   17.38   1 
   5  -4   1 1215.34   28.12   1 
   6  -7   5   15.36   13.80   1 
   6  -1  -1  208.04   36.13   1 
   7   3  -2  221.61   27.00   1 
   7   4  -2    5.72   19.79   1 
  -7   8   7   29.20   17.81   1 
  -6  -1  11   21.52   20.15   1 
  -6   6   5  108.13   17.38   1 
  -6   8   5   36.91   14.38   1 
  -6   9   5   72.58   18.36   1 
  -4   5   2  555.62   21.05   1 
  -4   9   2   34.94   14.58   1 
  -3  -4   8  155.11   15.85   1 
  -2  -5   8 1218.07   26.23   1 
  -1  -6   8  278.58   16.46   1 
  -1   9  -1   42.28   15.47   1 
  -1  11   0  145.32   14.74   1 
   1  -5   4  126.45   13.65   1 
   1   3  -2 5193.62   53.01   1 
   2  -4   2  303.61   15.98   1 
   2  -3   1  226.65   16.52   1 
   4   5  -3  105.60   17.58   1 
   4   9  -2   17.98   14.80   1 
   5  -8   7   39.27   14.89   1 
   5  -7   5  240.66   16.08   1 
   7  -6   4   20.56   14.54   1 
   7  -2   0   22.09   23.61   1 
   7   5  -2   68.06   19.51   1 
  -7   4   8   39.04   28.44   1 
  -7   7   7   30.04   17.30   1 
  -6  10   5   16.82   17.41   1 
  -4  -4  11   77.55   18.68   1 
  -4  10   2  127.09   15.79   1 
  -2  -3   5   24.88   16.11   1 
  -1   4  -1  351.47   17.11   1 
   1   9  -2  171.90   16.03   1 
   2  -8   9   75.87   14.46   1 
   4   4  -3  107.47   17.18   1 
   4   6  -3   23.54   13.17   1 
   7  -7   6   40.33   14.87   1 
   7   2  -2    2.33   29.10   1 
  -7   6   7  168.75   22.29   1 
  -4  -3   9   85.18   16.77   1 
  -4  -1   6  528.75   26.93   1 
  -4  11   2   23.58   17.24   1 
  -2  -6  11   38.83   14.51   1 
  -1  -4   5  374.29   16.81   1 
  -1  10  -1  106.17   14.09   1 
   1  -8  11   32.21   13.24   1 
   1  -7   8   16.81   12.42   1 
   1  -6   6  182.86   14.88   1 
   2  -7   7  577.28   18.43   1 
   2  -6   5    6.27   13.33   1 
   2   6  -3    6.96   12.75   1 
   4  -7   6  290.74   19.25   1 
   4  -6   4  456.31   19.09   1 
   4   7  -3   30.74   14.34   1 
   6  -7   6   -1.11   13.85   1 
  -4   4   2  250.67   18.63   1 
  -1  -5   7 1023.52   23.80   1 
  -1  11  -1   19.13   16.63   1 
   1  -4   3  202.69   14.75   1 
   2   5  -3  495.59   18.35   1 
   4  -8   9   67.24   18.14   1 
   4   3  -3  297.17   20.41   1 
   4   8  -3   13.68   12.88   1 
   5  -7   6   38.31   14.87   1 
   7  -6   5   37.04   17.72   1 
   7  -4   2   36.96   16.76   1 
   7  -3   1  138.93   21.82   1 
  -6  -1  12    9.08   19.57   1 
  -4  -4  12  177.15   16.47   1 
  -4   0   5   98.47   28.05   1 
  -4   8   1  199.62   18.34   1 
  -3  -4   9   75.95   14.25   1 
  -2  -5   9  158.81   15.36   1 
  -2  -4   7  390.21   19.51   1 
  -2  -2   4 1729.64   36.40   1 
  -2   0   2 4065.47  115.84   1 
  -2   3   0 2629.89   41.07   1 
  -2   7  -1   16.01   12.34   1 
  -2   8  -1  328.08   16.35   1 
   1  -7   9    8.81   13.94   1 
   1  11  -2   66.30   14.41   1 
   2   4  -3   17.00   16.13   1 
   2   9  -3   71.67   17.42   1 
   3  -4   2  631.97   19.82   1 
   4  -5   3 1387.98   24.87   1 
   4   9  -3   15.42   18.79   1 
   6  -5   3   81.94   13.69   1 
   6   5  -3   52.71   19.10   1 
  -7   8   6   20.28   17.81   1 
  -6   0  10   91.05   24.35   1 
  -6   9   4   27.21   13.72   1 
  -6  10   4   20.27   17.52   1 
  -4  -4  13   -5.91   18.25   1 
  -4   7   1   38.09   14.38   1 
  -4   9   1   73.13   14.01   1 
  -4  10   1  130.93   14.85   1 
  -1  -6  10   33.98   13.84   1 
  -1  -3   4 1007.83   24.44   1 
  -1   3  -1  239.03   18.56   1 
  -1   7  -2  264.68   16.16   1 
  -1   8  -2    6.11   12.44   1 
   1  -2   1 1037.62   28.75   1 
   1   6  -3   -0.15   12.21   1 
   1   7  -3   19.09   12.60   1 
   1   8  -3    1.09   13.83   1 
   2  -7   8  123.63   14.29   1 
   2  -5   4  690.38   19.71   1 
   3  -3   1  650.29   24.49   1 
   3  -2   0 2602.12   47.03   1 
   3   3  -3  204.25   19.42   1 
   4  -7   7   -9.73   14.13   1 
   5  -5   3   49.10   14.37   1 
   6  -4   2  570.53   21.27   1 
   6   4  -3  119.68   19.28   1 
   6   7  -3   37.25   18.09   1 
  -7   5   7   52.01   23.29   1 
  -7   7   6   19.69   20.14   1 
  -6   3   6   75.48   31.93   1 
  -4  -3  10   14.73   17.23   1 
  -4   6   1  286.37   18.74   1 
  -4  11   1   63.06   15.16   1 
  -2  -1   3  468.36   26.47   1 
  -1   6  -2  397.68   16.64   1 
  -1  10  -2    5.81   15.84   1 
   1  -7  10   26.01   13.61   1 
   1  -6   7  629.86   18.65   1 
   1  -5   5  229.06   16.07   1 
   1   9  -3   28.60   14.05   1 
   2  -6   6   41.69   14.11   1 
   2  10  -3   22.87   15.09   1 
   4  -6   5    9.97   14.11   1 
   4  -4   2   91.91   16.70   1 
   4  -1  -1   54.38   24.76   1 
   5  -1  -1  255.64   32.17   1 
   6  -2   0  325.86   26.71   1 
   7  -6   6   21.23   18.65   1 
   7  -5   4   -8.38   17.97   1 
  -4  -2   8  565.50   22.24   1 
  -4   2   3  361.54   33.18   1 
  -2  -5  10   45.50   14.15   1 
  -2   5  -1   42.09   12.35   1 
  -1  -6  11  166.79   15.98   1 
  -1  -5   8  443.22   18.25   1 
   1   2  -2 2060.27   40.76   1 
   1  10  -3   55.46   16.47   1 
   2  -7   9   17.51   13.92   1 
   4  -7   8   74.69   15.05   1 
   5  -4   2   19.48   13.25   1 
   6  -3   1  213.39   18.91   1 
  -3  -2   6   13.31   15.66   1 
  -2  12  -1   71.39   15.30   1 
  -1  -6  12   95.10   18.99   1 
  -1  -4   6  901.39   21.77   1 
  -1  -2   3 1339.81   30.90   1 
  -1   5  -2  112.81   13.71   1 
  -1  11  -2  149.48   14.68   1 
   1  -7  11   35.81   14.28   1 
   1  11  -3  -11.66   13.49   1 
   2  -7  10   63.85   14.24   1 
   2  -4   3  356.63   16.14   1 
   4  -3   1  734.71   24.16   1 
   4   6  -4    5.41   15.76   1 
   4   7  -4  233.88   18.94   1 
   5  -3   1  130.36   19.29   1 
   6  -6   6   31.58   15.08   1 
   7  -4   3   -0.96   16.98   1 
   7   0  -1  177.68   40.38   1 
  -7   6   6   73.03   21.17   1 
  -7   9   5    1.73   17.01   1 
  -6   4   5  119.45   24.19   1 
  -6   9   3   36.59   17.34   1 
  -6  10   3   49.52   17.81   1 
  -4   5   1  108.27   16.31   1 
  -3  -3   8   44.36   16.26   1 
  -2  -4   8  215.98   17.03   1 
  -2  -3   6   98.64   14.02   1 
  -1  -6  13   29.82   18.67   1 
   1   4  -3   40.96   13.09   1 
   2  -6   7  -15.79   13.16   1 
   2   3  -3   88.10   15.29   1 
   4  -7   9   18.49   13.78   1 
   4  -6   6   84.96   15.01   1 
   4  -5   4   11.05   13.85   1 
   4  -2   0   42.89   19.68   1 
   4   2  -3  169.96   21.35   1 
   4   5  -4  227.54   18.41   1 
   4   8  -4    6.91   14.36   1 
   5  -2   0  537.83   26.00   1 
   7  -5   5  116.70   18.41   1 
   7   5  -3   25.16   20.71   1 
  -7   8   5   43.66   17.94   1 
  -5   4   3  409.51   23.17   1 
  -5   6   2  578.33   19.17   1 
  -4   8   0   50.34   14.19   1 
  -4   9   0  176.56   14.90   1 
  -4  10   0   40.26   14.21   1 
  -4  11   0   85.40   15.36   1 
  -2   7  -2  392.03   19.36   1 
  -2   8  -2   39.76   13.40   1 
  -2  10  -2   96.99   14.33   1 
  -1  -5   9    3.30   13.85   1 
   1  -5   6   58.65   14.64   1 
   1  -4   4 1035.03   22.77   1 
   2  -5   5 1010.91   21.46   1 
   2   1  -2  182.62   23.58   1 
   2   6  -4  991.88   23.10   1 
   4  -7  10   41.58   14.25   1 
   5   2  -3    5.89   19.44   1 
   7   4  -3   55.12   23.67   1 
  -6   0  11  212.47   25.74   1 
  -4  -3  12   60.16   17.81   1 
  -4   7   0 1100.12   25.51   1 
  -2   4  -1  457.22   18.35   1 
  -2  11  -2   59.09   14.12   1 
  -1  -1   2 5751.78   77.64   1 
  -1   8  -3    0.38   12.03   1 
  -1   9  -3  251.99   14.99   1 
  -1  10  -3   26.57   12.88   1 
   1  -6   9  346.87   16.48   1 
   1   8  -4   17.70   13.81   1 
   1   9  -4  144.93   15.72   1 
   2  -6   8   27.52   13.50   1 
   2  -3   2 3503.80   42.66   1 
  -7   7   5   10.60   19.96   1 
  -6   5   4  245.86   23.57   1 
  -4  -2   9  745.69   23.53   1 
  -2  -4   9   98.03   15.35   1 
  -2   6  -2   12.49   12.85   1 
  -2  12  -2   10.72   12.98   1 
  -1  -5  10   12.24   13.72   1 
  -1  -4   7  166.15   15.23   1 
  -1  -3   5 3162.16   38.77   1 
  -1   4  -2  405.53   17.22   1 
  -1   7  -3  492.20   17.71   1 
  -1  11  -3  136.68   14.88   1 
   1  -6  10  229.14   19.12   1 
   1  10  -4  -22.26   14.32   1 
   2   5  -4   11.57   13.38   1 
   3   2  -3 1472.66   38.00   1 
   4   4  -4  146.05   17.76   1 
   6  -6   8   59.31   15.71   1 
   6  -5   5   29.83   13.55   1 
   6   6  -4   30.49   16.46   1 
   6   7  -4   -7.84   16.99   1 
  -7   2  11   -4.80   31.37   1 
  -6   1   9   10.10   27.93   1 
  -4  -3  13   60.92   15.67   1 
  -4  -1   7   13.20   15.15   1 
   1  -5   7   -5.95   15.85   1 
   1   6  -4   11.16   12.98   1 
   1  11  -4   70.75   15.34   1 
   2  -5   6   14.55   16.49   1 
   4  -5   5   91.03   15.28   1 
   4  -4   3   41.77   14.15   1 
   5  -4   3  300.16   16.45   1 
   7  -4   4   71.58   19.07   1 
   7  -2   1   23.56   20.88   1 
  -7   9   4   13.86   17.50   1 
  -6  10   2   17.86   13.63   1 
  -5   5   2   12.47   15.63   1 
  -4  -3  14   57.55   15.19   1 
  -4   6   0   62.29   13.80   1 
  -4  10  -1   72.69   14.13   1 
  -4  11  -1    4.25   17.23   1 
  -3  -1   5 1121.06   31.42   1 
  -2  -2   5  548.14   23.01   1 
  -1  -5  11   11.86   14.09   1 
  -1   6  -3    5.52   12.79   1 
   1  -6  11   -2.23   13.41   1 
   1  -3   3  731.84   20.67   1 
   2  -4   4   28.13   13.08   1 
   6  -3   2   26.42   17.85   1 
   7  -5   7   10.80   17.99   1 
  -6   0  12   21.03   21.14   1 
  -6   6   3   36.93   16.23   1 
  -4  -2  10  149.71   17.71   1 
  -4   4   1  164.23   17.27   1 
  -4   9  -1   28.86   13.68   1 
  -3  -2   7   49.00   15.94   1 
  -2   8  -3  521.01   19.62   1 
  -2  10  -3  119.24   14.72   1 
  -2  11  -3   11.26   13.58   1 
  -1  -5  12    4.28   15.61   1 
  -1  -5  13    7.06   18.77   1 
  -1  -4   8  239.91   18.22   1 
   1  -6  13   32.52   14.00   1 
   1  -4   5  587.68   18.38   1 
   2  -6  10   21.79   13.87   1 
   2   4  -4 1449.46   29.07   1 
   2   8  -5    3.83   13.09   1 
   2  10  -5   10.30   17.57   1 
   4  -6   9  231.22   15.52   1 
   4   7  -5  142.44   15.51   1 
   4   9  -5   88.22   15.26   1 
   6   2  -3   95.03   28.75   1 
   7   3  -3  122.69   27.81   1 
  -7   5   6    0.23   21.92   1 
  -7   8   4  105.94   18.35   1 
  -4   8  -1   29.66   13.73   1 
  -3  -3  10  138.60   14.81   1 
  -2  -4  11   83.67   14.03   1 
  -2   2   0   22.68   16.44   1 
  -1  -5  14   27.75   14.54   1 
  -1   2  -1 1001.50   28.59   1 
  -1   9  -4   -2.82   12.69   1 
  -1  10  -4   52.48   13.53   1 
   1  -5   8  110.07   13.38   1 
   1   9  -5  174.32   17.62   1 
   1  10  -5   -5.21   17.86   1 
   2  -6  11  154.15   15.45   1 
   2  -6  12   53.68   13.68   1 
   2  -5   7  713.85   19.06   1 
   2   7  -5   37.61   14.18   1 
   4  -6  10  145.76   15.58   1 
   4  -5   6  203.36   16.12   1 
   5  -5   6   21.68   13.34   1 
   6  -4   4   56.74   14.13   1 
  -7   4   7  202.31   41.12   1 
  -7   6   5   81.55   20.16   1 
  -6   0  13   18.58   21.44   1 
  -2   7  -3   16.27   13.28   1 
  -1   5  -3  815.92   20.16   1 
  -1   8  -4  345.24   15.58   1 
   1   8  -5   10.49   13.95   1 
   1  11  -5   34.77   13.57   1 
   4  -6  11  -10.13   13.85   1 
   4  -3   2  567.55   21.97   1 
   4   3  -4   29.65   17.62   1 
   5  -3   2  600.30   20.26   1 
  -6  10   1   -5.28   13.08   1 
  -5   8   0  253.74   15.42   1 
  -4  -2  11   37.91   17.01   1 
  -4   5   0 1224.41   25.83   1 
  -4   7  -1   23.68   14.13   1 
  -3  -3  11   40.78   13.67   1 
  -2  -3   8  412.85   19.99   1 
  -1  -4   9  650.91   19.41   1 
  -1   7  -4  132.83   17.11   1 
   1  -5   9    2.38   12.20   1 
   2  -5   8  102.30   16.38   1 
   2   2  -3   68.16   15.08   1 
   4  -4   4  776.77   20.12   1 
   4   5  -5  280.80   19.42   1 
   5   3  -4    0.13   18.74   1 
   6  -2   1   89.73   20.61   1 
   7  -4   6   56.98   18.48   1 
   7   5  -4   38.49   23.24   1 
  -7   9   3    2.63   14.55   1 
  -4  -2  12  239.27   20.09   1 
  -4  -1   8  158.71   20.31   1 
  -4  10  -2    7.10   14.23   1 
  -4  11  -2   97.78   15.61   1 
  -2   3  -1  195.43   16.06   1 
  -1  -2   4  863.90   24.41   1 
  -1   3  -2  365.50   17.22   1 
   1  -5  10   51.49   13.66   1 
   1  -4   6   75.90   13.95   1 
   1   4  -4  117.57   17.02   1 
   2  -4   5   19.46   12.91   1 
   2  -3   3  330.03   18.70   1 
   3   3  -4 1195.53   29.62   1 
   6  -4   5  492.53   18.18   1 
   6   7  -5   32.18   19.88   1 
  -4  -2  13   23.90   17.54   1 
  -4   9  -2  288.94   16.79   1 
  -3  -2   8  171.38   15.63   1 
  -2   6  -3  444.42   17.08   1 
  -2   9  -4  362.23   16.06   1 
  -1  -4  10    5.30   13.75   1 
   1  -5  11  134.42   14.64   1 
   1  -2   2 2276.38   37.95   1 
   1   6  -5   39.74   13.30   1 
   2  -5   9   66.37   13.03   1 
   2   5  -5   12.84   15.78   1 
   4  -5   8   28.81   14.22   1 
   4   9  -6   -7.85   17.18   1 
   6  -3   3    9.37   16.02   1 
   7  -4   7  106.67   15.89   1 
   7  -3   4   19.35   18.16   1 
   7  -2   2   22.31   18.81   1 
  -7   8   3   15.19   16.99   1 
  -6   1  10   53.21   21.17   1 
  -4  -2  14   14.74   14.80   1 
  -4   6  -1   29.04   15.96   1 
  -4   8  -2   -3.31   16.82   1 
  -3   3   0  209.94   17.04   1 
  -2  -3   9  100.24   15.61   1 
  -2  -2   6  466.86   21.73   1 
  -2   4  -2  286.26   15.56   1 
  -2   8  -4   32.75   12.52   1 
  -1  -4  11  121.62   15.20   1 
  -1   6  -4  627.80   19.74   1 
  -1   9  -5  251.18   17.65   1 
  -1  10  -5   22.72   13.89   1 
  -1  11  -5  123.89   14.71   1 
   1  -3   4  193.68   14.84   1 
   2  -5  10   97.24   14.20   1 
   2   8  -6  133.66   15.83   1 
   3  -2   1  900.05   26.64   1 
   4  -5   9   12.09   14.70   1 
   4   8  -6   26.10   13.93   1 
   5  -4   5   26.86   14.08   1 
   5  -2   1 1329.41   31.55   1 
  -6   4   4   15.28   21.77   1 
  -6   5   3    1.66   15.75   1 
  -6  10   0    2.48   16.04   1 
  -5   4   2  759.45   25.66   1 
  -4   0   6 1288.50   38.66   1 
  -1  -4  12  323.90   17.44   1 
  -1  -4  13   20.73   15.63   1 
  -1  -4  14   56.77   15.22   1 
  -1   4  -3  207.83   14.33   1 
   1  -4   7 2094.39   28.15   1 
   1   9  -6   -2.17   14.18   1 
   2  -5  13   -5.28   14.64   1 
   2  -4   6   13.79   13.20   1 
   2  -1   0 2130.72   52.14   1 
   2   3  -4   12.05   12.98   1 
   4  -5  10    0.27   14.31   1 
   4  -5  11  106.88   15.11   1 
   4  -2   1  251.84   19.40   1 
   6  -1   0   10.41   20.39   1 
  -7   9   2    8.30   17.26   1 
  -5   5   1   23.75   16.03   1 
  -4  -1   9   78.76   18.10   1 
  -4  11  -3  116.60   15.30   1 
  -3  -2   9   22.44   13.95   1 
  -3  -1   6  808.45   25.76   1 
  -2  -3  10   90.91   15.05   1 
  -2  -1   4   -1.82   16.78   1 
  -2   7  -4  593.69   17.75   1 
  -1   8  -5  137.69   13.60   1 
   1   5  -5  688.87   22.76   1 
   1   8  -6   14.80   13.06   1 
   4   4  -5   32.24   15.68   1 
   6   3  -4  208.13   28.58   1 
   7   4  -4   36.81   23.70   1 
  -7   6   4  335.55   23.78   1 
  -6   1  11   31.84   20.52   1 
  -5   3   3  212.94   25.12   1 
  -4   7  -2  340.43   16.87   1 
  -4  10  -3   12.73   14.45   1 
  -2  -3  11  306.12   16.20   1 
  -2   5  -3  381.06   16.63   1 
  -2  10  -5   19.02   13.91   1 
  -2  11  -5   62.46   15.63   1 
   1  -4   8  257.15   15.69   1 
   1   7  -6   14.01   15.72   1 
   2  -4   7   15.68   16.19   1 
   4  -4   6  182.72   15.95   1 
   6  -3   4    8.63   12.72   1 
   7  -1   1  185.65   22.65   1 
  -7   7   3   63.81   17.85   1 
  -4   9  -3  310.88   16.37   1 
  -3   0   4   24.98   21.84   1 
  -2   9  -5   79.48   13.77   1 
  -1  -3   8   86.80   13.92   1 
  -1   5  -4  135.55   13.38   1 
  -1   7  -5  102.55   13.92   1 
   1  -4   9  174.64   17.01   1 
   1   2  -3 1329.92   32.47   1 
   2  -3   4 1082.67   22.35   1 
   2   6  -6  475.11   18.88   1 
   2  10  -7   61.33   18.84   1 
   6  -2   2  596.10   22.13   1 
   7  -3   6   68.92   15.86   1 
   7  -2   3    7.30   17.50   1 
  -7   5   5    0.63   22.77   1 
  -7   8   2  171.98   18.65   1 
  -6   1  12   26.35   20.94   1 
  -6   1  13   28.89   21.80   1 
  -4  -1  10  148.42   17.54   1 
  -4   4   0    2.03   12.63   1 
  -4   5  -1  880.56   23.51   1 
  -2  -2   7  977.04   22.47   1 
  -1  -2   5  175.11   15.45   1 
  -1  10  -6  132.92   14.01   1 
   1  -4  10  233.17   15.21   1 
   1  -4  13   49.45   17.21   1 
   1  -3   5   40.33   12.70   1 
   1   1  -2 5658.27   77.47   1 
   1  10  -7    6.91   14.39   1 
   4  -4   7  440.12   17.42   1 
   7  -3   7   10.66   14.76   1 
  -4  -1  11   14.91   16.49   1 
  -4   8  -3   19.63   13.47   1 
  -4  11  -4   39.25   14.02   1 
  -1  -3   9   14.37   13.43   1 
   1  -4  11   12.90   14.05   1 
   1   6  -6   18.49   12.63   1 
   1   9  -7  138.95   15.41   1 
   2  -4   9  443.11   17.33   1 
   2  -2   2   64.78   13.92   1 
   2   8  -7  166.82   16.52   1 
   4  -4   8  116.83   14.90   1 
   4  -4   9  163.07   18.54   1 
   4   5  -6   35.82   16.07   1 
   4   8  -7   10.44   14.10   1 
   5  -1   0   92.55   21.81   1 
   6   0  -1  386.62   36.22   1 
  -7   9   1   10.13   17.80   1 
  -6   2   8  401.64   37.34   1 
  -4  -1  12   55.35   18.38   1 
  -4  -1  13  151.42   18.62   1 
  -4   6  -2  295.37   16.62   1 
  -4  10  -4   37.41   14.02   1 
  -1  -3  10   34.73   14.41   1 
  -1  -3  11   -0.59   17.24   1 
  -1  -3  12  122.72   17.93   1 
  -1  -3  13   78.10   18.42   1 
  -1  -3  14   20.67   14.75   1 
  -1   6  -5  326.14   16.64   1 
  -1   8  -6  210.16   13.86   1 
   1   8  -7   31.44   17.63   1 
   2  -4  10   26.03   13.50   1 
   2  -4  11  231.57   15.32   1 
   4  -4  10  141.78   15.10   1 
   4  -4  11   27.05   14.38   1 
   4   7  -7  100.46   18.56   1 
   5  -2   2   24.56   16.13   1 
   6   4  -5    6.85   19.97   1 
   6   6  -6    7.58   17.16   1 
   7  -2   4   17.63   17.74   1 
  -7   3  10  129.72   31.76   1 
  -5   8  -2    4.78   12.95   1 
  -3  -1   7 1011.98   26.39   1 
  -2  -2   8  283.51   15.61   1 
  -2   7  -5  668.51   20.72   1 
  -2  10  -6   -0.58   13.28   1 
  -1  -1   3 3143.18   51.41   1 
   1  -3   6   14.12   11.93   1 
   1  -2   3   17.45   11.78   1 
   2   5  -6   52.15   13.80   1 
   2   7  -7   29.37   13.66   1 
   3  -1   0   39.91   19.81   1 
   4   1  -3  308.05   36.38   1 
   4   2  -4  228.22   23.04   1 
   5  -3   5 1038.06   23.04   1 
   6  -2   3  442.47   19.77   1 
   7   5  -5   48.69   21.88   1 
  -6   5   2  591.72   26.30   1 
  -4   0   7  513.08   24.67   1 
  -4   7  -3  428.78   18.05   1 
  -4   9  -4   -1.58   13.82   1 
  -2  -2   9   19.61   17.32   1 
  -2   3  -2 3310.37   41.12   1 
  -2   4  -3  362.02   17.88   1 
  -1  -2   6 1609.42   29.33   1 
  -1  10  -7  122.07   17.49   1 
  -1  11  -7   12.90   14.37   1 
   3  -2   2 1421.58   29.30   1 
   3   2  -4   24.74   15.77   1 
   4  -3   5  354.64   18.89   1 
   4  -1   0 1204.91   36.43   1 
   4   3  -5  310.68   22.65   1 
   7  -2   5   85.85   18.53   1 
  -7   6   3   98.35   20.86   1 
  -7   7   2   11.29   17.14   1 
  -7   8   1  201.90   19.08   1 
  -5   5   0   -9.01   15.77   1 
  -5   6  -1  356.20   20.08   1 
  -4  11  -5  122.08   18.48   1 
  -2  -2  10  259.64   19.68   1 
  -2   5  -4  698.97   21.51   1 
  -1   3  -3  711.38   21.00   1 
  -1   4  -4  992.13   21.60   1 
   1  -3   7   77.91   14.11   1 
   1  -3  14   81.25   15.49   1 
   1  -1   1   21.39   15.81   1 
   1   5  -6   31.11   16.07   1 
   1   7  -7  157.20   15.23   1 
   1  10  -8   18.15   14.64   1 
   3   3  -5  149.65   17.26   1 
   4   6  -7    4.08   16.11   1 
   5  -3   6   13.28   13.43   1 
   5   2  -4  739.46   36.22   1 
   6  -1   1  177.47   20.52   1 
   7  -2   6   49.76   18.59   1 
  -7   3  11  101.20   27.97   1 
  -5   4   1   36.96   15.83   1 
  -4   8  -4   42.89   13.85   1 
  -2  -2  11   15.17   13.49   1 
  -2  -1   5   29.27   14.20   1 
  -1   2  -2 2064.75   35.58   1 
  -1   9  -7    5.99   13.10   1 
   1  -3   8   65.06   16.39   1 
   1  -3  13    8.62   14.19   1 
   1   9  -8   50.84   14.63   1 
   2   6  -7  415.50   17.95   1 
   3   1  -3   33.48   21.77   1 
   4  -3   6   46.51   14.11   1 
   6   5  -6  112.48   22.12   1 
  -7   9   0   69.53   15.73   1 
  -4  10  -5    7.15   13.92   1 
  -2   2  -1 4900.49   58.57   1 
  -2   6  -5   10.68   13.10   1 
  -1  -2   7  443.80   19.52   1 
   1  -3   9   79.32   13.71   1 
   1  -3  10  103.84   16.75   1 
   1  -3  11  174.56   14.46   1 
   2  -3  13   43.66   14.16   1 
   2   3  -5   29.46   16.05   1 
   3   4  -6  178.41   15.94   1 
   4  -3   7   14.76   13.87   1 
   4  -3  11  146.74   15.57   1 
   4   4  -6  280.74   19.48   1 
   4   8  -8   73.49   15.44   1 
   5  -2   3  251.47   18.46   1 
  -6   2   9   55.46   25.90   1 
  -6   4   3    6.37   21.23   1 
  -5   8  -3  449.74   17.65   1 
  -5  10  -4   36.67   14.36   1 
  -4   5  -2  378.34   17.02   1 
  -4   6  -3  382.26   19.87   1 
  -1  -2  14   29.28   14.85   1 
  -1   6  -6  168.11   14.45   1 
  -1   8  -7  442.11   16.93   1 
   2  -3  12   89.62   14.13   1 
   2   4  -6   38.34   16.33   1 
   4  -3   8   -0.10   13.88   1 
   4  -3   9   18.03   13.75   1 
   4  -3  10   17.96   13.87   1 
   7  -1   3  467.89   22.85   1 
   7   3  -4   11.36   37.73   1 
  -7   5   4   28.25   23.34   1 
  -4   0  14    6.00   17.51   1 
  -4   7  -4   20.38   16.79   1 
  -4   9  -5  198.14   15.44   1 
  -2   7  -6   -0.22   12.60   1 
  -1  -2   8  362.05   17.46   1 
  -1  -2  13   -3.23   14.66   1 
  -1  10  -8   27.95   13.77   1 
   1  -2   4 1892.56   30.53   1 
   2   7  -8   15.66   13.00   1 
   4  -2   3    8.25   12.45   1 
   4   5  -7   -7.31   15.40   1 
   4   7  -8   42.70   14.40   1 
  -7   7   1   57.30   17.58   1 
  -7   8   0   21.67   17.41   1 
  -6   2  10   42.68   22.78   1 
  -6   7  -1  252.18   16.22   1 
  -5   9  -4  134.12   15.28   1 
  -4   0   9  734.23   23.82   1 
  -4   0  13   74.83   18.54   1 
  -1  -2   9 1191.90   22.52   1 
  -1  -2  10  101.78   14.46   1 
  -1  -2  11   59.02   14.74   1 
   2   5  -7  -22.89   14.46   1 
   2   9  -9   11.40   12.92   1 
   5  -2   4   20.70   13.78   1 
   5  -1   1  117.79   19.17   1 
   6  -1   2   62.67   15.90   1 
   6   6  -7  -13.06   18.69   1 
   7  -1   4    5.06   17.80   1 
   7   4  -5   31.89   28.63   1 
  -7   9  -1   43.86   17.29   1 
  -6   2  11  132.98   22.17   1 
  -6   2  12   38.92   17.32   1 
  -5   6  -2  309.75   20.12   1 
  -4   0  10  102.76   16.64   1 
  -4   0  11   54.80   16.52   1 
  -4   0  12   82.40   15.38   1 
  -4   8  -5   26.71   13.68   1 
  -4  10  -6    8.53   13.69   1 
  -2  -1   6  121.09   14.91   1 
  -2   8  -7    0.12   12.69   1 
  -1   9  -8  -10.31   12.36   1 
   1   4  -6  822.26   21.42   1 
   7  -1   5   57.09   17.79   1 
   7  -1   6   26.94   18.32   1 
   7  -1   7   14.84   17.84   1 
   7   0   1    8.97   19.19   1 
   7   1  -1   15.62   26.91   1 
  -7   6   2  160.00   19.68   1 
  -6   5   1  238.01   19.69   1 
  -5   3   2   89.53   22.92   1 
  -5   5  -1   56.38   13.79   1 
  -3   0   5   53.93   17.34   1 
  -2   4  -4   30.96   13.10   1 
  -2   5  -5  932.92   20.36   1 
  -2  10  -8    5.86   12.17   1 
  -1  -1   4  440.82   22.70   1 
   1  -2   5 1054.13   22.62   1 
   1  -2  13    8.20   13.41   1 
   2  -2   4  176.66   14.32   1 
   2  -2  13    6.48   13.38   1 
   2   6  -8  100.09   17.24   1 
   2   8  -9  100.10   15.67   1 
   4  -2   4  373.68   17.45   1 
   4  -2  11    9.89   17.10   1 
   4   6  -8   78.71   18.29   1 
  -5   8  -4   11.89   13.80   1 
  -4   9  -6   45.90   15.65   1 
  -3   4  -3 1308.82   24.12   1 
  -2  -1   7    5.57   15.55   1 
  -2   6  -6   52.85   13.31   1 
  -1   4  -5  558.21   17.90   1 
  -1   8  -8   10.25   13.73   1 
   1  -2  12   -2.94   13.22   1 
   1   8  -9   60.16   15.58   1 
   4  -2  10  178.94   20.21   1 
   5   0  -1  740.60   36.54   1 
   6   4  -6  -17.41   22.28   1 
   7   5  -6   -1.00   23.67   1 
  -5   4   0  889.59   25.31   1 
  -4   6  -4  438.73   18.46   1 
  -2  -1   8  231.94   18.47   1 
  -2   3  -3  286.53   15.85   1 
  -2   7  -7  570.91   20.34   1 
  -2   9  -8   46.99   13.49   1 
  -1  -1  14   -7.52   15.01   1 
  -1   1  -1   20.49   15.39   1 
  -1   3  -4  188.90   14.68   1 
   1  -2   6   36.59   12.65   1 
   1  -2  11    6.23   12.84   1 
   2  -2   5   31.03   12.92   1 
   2  -1   1 2399.20   44.63   1 
   6   0   0  469.62   27.14   1 
   7   0   2   16.28   19.93   1 
  -7   7   0  201.03   19.12   1 
  -7   8  -1   97.16   17.87   1 
  -7   9  -2  245.28   20.40   1 
  -6   6  -1   46.37   16.21   1 
  -6   7  -2   11.48   13.13   1 
  -4   7  -5  218.11   15.55   1 
  -4  10  -7   -8.74   13.17   1 
  -2  -1   9  285.31   16.06   1 
  -1   9  -9   23.72   13.89   1 
   1  -2   8  140.44   15.22   1 
   1  -2  10  397.23   16.83   1 
   2   7  -9   -0.72   13.85   1 
   2   9 -10   42.78   14.96   1 
   3  -1   1  327.00   22.28   1 
   3   3  -6  820.64   25.42   1 
   4  -2   7  721.49   19.74   1 
   4  -2   8  144.45   14.76   1 
   4   3  -6   15.13   17.58   1 
   4   4  -7  220.65   17.89   1 
   4   7  -9   13.27   13.70   1 
   5  -1   2  921.14   25.53   1 
   6   1  -2  425.54   42.60   1 
   6   5  -7  124.37   22.42   1 
  -7   5   3  137.19   25.16   1 
  -4   4  -2   98.89   16.72   1 
  -4   8  -6  161.83   15.88   1 
  -3   3  -2  452.56   19.19   1 
  -2   0   3  140.28   22.73   1 
  -2  10  -9   -3.16   13.45   1 
  -1  -1   5 1232.55   28.61   1 
   1   7  -9  163.88   16.07   1 
   2  -2   7  152.40   14.63   1 
   2  -2   8  185.72   14.74   1 
   2  -2   9  461.12   16.72   1 
   2   3  -6   92.20   16.06   1 
   7   0   3   26.17   17.49   1 
  -7   6   1  323.34   22.65   1 
  -6   4   2   56.42   20.34   1 
  -5   6  -3  464.54   18.61   1 
  -4   1   5  123.68   26.09   1 
  -4   1  13  104.54   18.43   1 
  -4   9  -7    6.53   16.62   1 
  -3   0   6  243.17   19.66   1 
   1  -1   2   43.02   12.70   1 
   1  -1  13   21.78   13.53   1 
   2  -1  13   41.05   13.45   1 
   2   8 -10   44.94   15.55   1 
   3   2  -5  180.63   20.78   1 
   4   5  -8    3.60   13.50   1 
   7   0   4   84.11   17.73   1 
   7   0   5  231.13   20.17   1 
   7   0   6    0.51   17.51   1 
  -6   5   0  117.77   17.14   1 
  -5   5  -2   72.65   13.76   1 
  -2   5  -6   -1.90   13.05   1 
  -2   6  -7  -19.14   14.93   1 
  -2   9  -9   24.76   13.63   1 
  -1   2  -3   23.30   11.48   1 
   1   4  -7  161.29   17.82   1 
   1   8 -10   33.78   15.22   1 
   4   2  -5   57.31   18.64   1 
   4   6  -9  130.38   18.67   1 
   5  -1   3  181.35   15.24   1 
  -7   8  -2   45.06   17.68   1 
  -7   9  -3  136.27   18.24   1 
  -4   6  -5   23.78   16.97   1 
  -3   0   7   72.34   13.97   1 
  -2   2  -2   62.76   13.91   1 
  -2   4  -5   15.09   12.59   1 
  -2   7  -8  130.96   16.26   1 
  -1  -1   6  800.83   22.48   1 
  -1  -1   7  478.04   20.09   1 
  -1  -1   9   -5.97   12.68   1 
  -1   0  14   28.24   14.73   1 
   1   3  -6  791.45   23.18   1 
   1   5  -8  420.91   17.76   1 
   2  -1  12   35.72   13.64   1 
   2   2  -5  515.87   22.92   1 
   4  -1   2  151.50   17.60   1 
   4  -1  10   28.50   14.83   1 
   6   0   1   31.56   15.81   1 
  -7   4  11   -2.90   20.70   1 
  -7   7  -1   35.30   18.02   1 
  -4   5  -4    7.46   12.96   1 
  -4   7  -6  234.95   15.74   1 
  -4   8  -7  321.74   20.06   1 
  -1   4  -6   75.00   13.67   1 
  -1   6  -8   27.07   13.45   1 
  -1   9 -10   23.78   13.26   1 
   1  -1  11   68.11   13.40   1 
   1   6  -9   33.43   13.87   1 
   2   7 -10  104.54   15.64   1 
   4  -1   9   36.13   13.82   1 
   4   7 -10   11.19   17.63   1 
  -7   4   7  212.68   41.85   1 
  -6   3  12    3.43   18.37   1 
  -6   6  -2  278.87   16.03   1 
  -5   4  -1 1178.49   27.48   1 
  -4   1  11  235.70   15.64   1 
  -2   3  -4 1158.23   24.81   1 
  -2   8  -9   88.45   14.02   1 
  -1   0  13   37.95   14.21   1 
  -1   7  -9    6.71   12.61   1 
   1   7 -10  102.05   15.44   1 
   2  -1   2 2413.97   38.91   1 
   4  -1   3  895.23   23.57   1 
   4  -1   8   12.66   14.95   1 
  -7   4  10   82.93   23.74   1 
  -6   3  11    8.55   20.44   1 
  -5   3   1   49.47   19.35   1 
  -5   6  -4  152.96   15.08   1 
  -5   8  -6   57.52   14.88   1 
  -4   1   6   55.17   18.43   1 
  -4   1  10   31.70   16.38   1 
  -4   4  -3   29.74   16.50   1 
  -4   9  -8   92.05   14.53   1 
  -1   8 -10    9.56   13.88   1 
   1  -1   3 1118.09   27.35   1 
   2   8 -11   21.64   14.38   1 
   4  -1   4   29.54   16.42   1 
   4  -1   6   11.87   17.43   1 
   4  -1   7    2.72   13.89   1 
   4   0  -1    4.23   22.68   1 
   5   0   0  938.36   32.89   1 
   7   1   1  327.46   24.27   1 
  -7   4   8   38.21   27.48   1 
  -7   4   9  110.30   24.66   1 
  -7   5   2   42.05   22.84   1 
  -7   6   0   11.17   17.23   1 
  -7   8  -3   13.07   17.20   1 
  -5   9  -7   95.34   16.21   1 
  -4   1   7    7.29   17.65   1 
  -4   1   8   23.27   18.08   1 
  -4   1   9   37.06   15.72   1 
  -3   2  -1  907.87   28.68   1 
  -2   1  14  103.25   15.71   1 
  -2   9 -10   45.89   13.98   1 
  -1   0  12  188.89   15.74   1 
   1  -1   9   53.74   13.32   1 
   1   8 -11   60.47   14.95   1 
   2   4  -8  181.77   15.48   1 
   2   5  -9  134.98   15.24   1 
   4   4  -8   59.98   16.15   1 
   4   5  -9   25.62   16.62   1 
   5   2  -5  611.07   36.16   1 
   7   1   5    9.91   18.36   1 
   7   5  -7   -7.88   22.25   1 
  -6   4   1   22.89   19.38   1 
  -6   5  -1  228.32   17.52   1 
  -4   2  13   26.25   17.82   1 
  -4   6  -6   90.26   17.56   1 
  -4   7  -7   16.63   14.23   1 
  -2   0   4 1977.75   43.78   1 
  -2   5  -7  787.70   19.38   1 
  -2   6  -8   14.23   11.98   1 
  -2   7  -9   36.05   13.54   1 
  -1   1  14   47.57   16.01   1 
   1  -1   4   34.81   14.80   1 
   1  -1   8  156.01   14.92   1 
   1   0  12  -15.16   13.20   1 
   1   5  -9   -5.21   17.02   1 
   2  -1   3 1512.04   29.30   1 
   2   0  12   87.82   15.10   1 
   2   3  -7    1.92   15.03   1 
   2   6 -10  142.73   15.23   1 
   4   0  10   85.13   16.01   1 
   4   3  -7   37.14   17.85   1 
   4   6 -10   15.78   16.96   1 
   7   1   2   48.97   17.92   1 
   7   1   3  118.14   18.31   1 
   7   1   4   89.57   17.42   1 
   7   2  -2   -0.75   27.01   1 
   7   4  -6  135.16   34.85   1 
  -7   7  -2  205.41   16.91   1 
  -4   5  -5  106.88   17.26   1 
  -4   8  -8   -1.65   13.51   1 
  -2   1  13    9.42   14.64   1 
  -2   4  -6   13.47   13.31   1 
  -2   8 -10   17.61   13.22   1 
  -1   4  -7 2069.31   30.12   1 
  -1   5  -8  102.10   13.78   1 
   1  -1   5   21.07   11.69   1 
   1  -1   7   17.21   12.55   1 
   1   6 -10   21.83   13.26   1 
   2  -1   4  870.41   23.25   1 
   2   7 -11  187.66   16.80   1 
   6   1   8   13.38   17.98   1 
  -6   3   9    0.19   20.21   1 
  -6   6  -3  150.62   14.96   1 
  -5   7  -6   42.52   14.79   1 
  -5   8  -7  -11.50   15.03   1 
  -4   9  -9   21.61   14.69   1 
  -2   0   5  690.04   25.95   1 
  -2   0   8  245.75   16.20   1 
  -1   0  10   20.90   16.91   1 
  -1   1  13   93.44   19.59   1 
  -1   2  -4 1871.31   30.15   1 
  -1   7 -10   23.82   13.77   1 
   1   0  11   17.85   11.76   1 
   1   3  -7  133.36   14.78   1 
   1   7 -11   45.07   15.29   1 
   2  -1   5 2198.64   29.57   1 
   2  -1   6   74.81   13.85   1 
   2   0  11   89.31   14.24   1 
   6   3  -6  145.83   30.49   1 
  -7   6  -1   28.44   17.27   1 
  -6   3   6   91.83   34.31   1 
  -6   3   8   40.12   24.17   1 
  -5   4  -2   -6.07   15.99   1 
  -4   2  12   40.89   14.59   1 
  -4   3  -2  516.77   21.67   1 
  -2   0   6    5.20   16.43   1 
  -2   0   7  542.37   19.05   1 
  -2   1  12  144.30   15.67   1 
  -2   2  -3  448.85   18.36   1 
   1   1  13   41.83   12.83   1 
   2   1  -4    7.45   16.61   1 
   3   2  -6   13.90   15.62   1 
   4   0   8   51.03   17.17   1 
   6   1   7   95.32   14.40   1 
  -7   5   1   57.41   20.97   1 
  -7   8  -4   21.78   14.67   1 
  -6   3   7  177.73   29.94   1 
  -5   5  -4  344.15   20.64   1 
  -4   4  -4  658.28   19.58   1 
  -2   2  14    1.48   16.15   1 
  -2   3  -5 1686.78   26.97   1 
  -2   6  -9   91.36   13.92   1 
  -1   0   9  598.60   18.64   1 
  -1   1  -2   32.57   13.47   1 
  -1   3  -6    8.40   12.07   1 
   1   0  10   18.92   12.15   1 
   2   0  10   43.46   13.58   1 
   2   1  12   44.92   13.69   1 
   2   5 -10   47.28   16.39   1 
   6   1   6   43.18   16.98   1 
  -7   7  -3  206.73   16.48   1 
  -6   5  -2    6.83   11.64   1 
  -5   3   0   95.49   18.82   1 
  -4   2  11    7.67   16.77   1 
  -4   6  -7  310.57   16.89   1 
  -4   7  -8   34.95   14.01   1 
  -4   8  -9  103.03   15.16   1 
  -2   1  11  275.97   19.16   1 
  -2   5  -8   76.22   13.10   1 
  -2   7 -10   68.92   13.83   1 
  -1   6 -10  237.44   18.50   1 
   2   4  -9  101.34   15.18   1 
   2   6 -11   51.02   15.62   1 
   4   1  10   11.34   15.40   1 
   4   5 -10   18.40   17.99   1 
   6   1   5   50.72   18.07   1 
   7   2   5   51.95   14.96   1 
  -6   4   0   74.16   18.36   1 
  -6   6  -4   71.36   15.25   1 
  -5   7  -7  299.88   18.08   1 
  -5   8  -8    7.88   15.67   1 
  -4   5  -6  229.54   15.89   1 
  -2   2  13   63.70   18.76   1 
  -2   4  -7   16.84   13.38   1 
  -2   8 -11   38.65   14.40   1 
  -1   0   8  168.03   15.77   1 
  -1   5  -9   -0.19   12.39   1 
  -1   7 -11   35.78   14.67   1 
   1   0   9  315.51   15.69   1 
   1   1  -4  458.57   22.72   1 
   1   5 -10   -0.11   13.61   1 
   1   6 -11  177.33   15.35   1 
   2   7 -12  -11.21   14.73   1 
   4   0   0  323.14   24.44   1 
   4   0   6   20.61   13.57   1 
   4   1  -4  229.13   33.95   1 
   6   1   0   45.86   19.93   1 
   7   2  -1   39.20   20.50   1 
   7   2   4   70.76   19.20   1 
  -7   6  -2    1.28   18.31   1 
  -7   8  -5   38.47   18.17   1 
  -5   6  -6   10.19   14.16   1 
  -4   3  13  136.03   15.50   1 
  -3   2  -2 1248.64   28.32   1 
  -1   0   7  316.61   18.46   1 
  -1   2  13   31.83   18.78   1 
  -1   4  -8  254.15   15.46   1 
   1   2  13   19.72   13.54   1 
   1   7 -12   21.92   14.40   1 
   2   1  11  -12.92   13.32   1 
   4   0   5  690.04   22.42   1 
   4   1   9   55.05   15.89   1 
   6   2   7    4.22   18.45   1 
   7   2   0    8.95   19.85   1 
   7   2   3   39.24   18.14   1 
  -7   7  -4   -1.41   17.38   1 
  -6   4  11  122.93   21.38   1 
  -4   2   0   37.36   20.07   1 
  -4   2  10  140.52   18.02   1 
  -2   1  -1 2451.54   47.26   1 
  -2   3  14   21.83   17.57   1 
  -1   0   2  735.53   36.56   1 
  -1   2  -5 1040.11   22.52   1 
   1   3  -8   81.95   14.31   1 
   4   0   4  401.62   20.17   1 
   4   3  -8   98.49   17.03   1 
   6   4  -8   31.20   19.74   1 
   7   2   1   21.45   17.72   1 
   7   2   2   66.17   18.11   1 
  -7   5   0  308.30   20.65   1 
  -6   5  -3   65.20   13.85   1 
  -5   5  -5  342.34   17.36   1 
  -4   3  -3 1025.62   23.43   1 
  -4   4  -5  107.68   15.23   1 
  -4   6  -8   51.24   14.28   1 
  -4   7  -9   17.29   14.62   1 
  -4   8 -10   95.55   14.47   1 
  -2   2  -4  196.60   14.49   1 
  -2   2  12   80.25   17.77   1 
  -2   3  -6   15.42   13.02   1 
  -2   5  -9   65.82   12.21   1 
  -2   6 -10   33.73   14.04   1 
  -2   7 -11   21.54   13.64   1 
  -1   0   6 1769.39   29.04   1 
  -1   3  -7   91.67   14.26   1 
   2   0   7  389.47   17.33   1 
   2   1  10  -10.95   12.99   1 
   2   2  12   55.60   14.06   1 
   2   5 -11   90.24   17.49   1 
   4   0   1   25.24   15.90   1 
   4   0   2  321.86   19.66   1 
   4   1   8   11.15   13.73   1 
   6   2   6  105.72   18.07   1 
   7   3  -4    5.28   36.44   1 
  -6   4  -1   27.85   15.41   1 
  -5   3  -1  102.70   16.73   1 
  -5   7  -8   82.19   15.73   1 
  -4   2   9  271.55   18.94   1 
  -4   5  -7   24.48   14.04   1 
  -1   0   5   39.63   13.46   1 
  -1   6 -11    9.17   13.56   1 
   1   1  10   60.75   13.21   1 
   1   2  12  -24.43   13.96   1 
   1   6 -12   75.84   18.32   1 
   2   4 -10   54.28   14.66   1 
   2   6 -12   28.85   14.04   1 
  -7   5  10   55.67   21.87   1 
  -7   6  -3   33.40   18.12   1 
  -5   6  -7    4.97   14.19   1 
  -2   3  13    6.59   18.98   1 
  -2   4  -8   56.70   13.42   1 
  -1   0   3  607.97   26.23   1 
  -1   1  -3 1319.97   30.42   1 
  -1   4  -9  164.89   14.04   1 
   1   4 -10   19.85   14.05   1 
   2   0   6  447.37   17.19   1 
   2   2  11   57.14   14.00   1 
   4   1   7   27.55   13.88   1 
   4   2   9   20.73   15.12   1 
   4   5 -11  -13.08   14.11   1 
   4   6 -12   34.16   18.01   1 
   6   2   5  223.67   18.70   1 
  -7   5  -1  269.14   20.30   1 
  -7   7  -5  143.96   16.83   1 
  -6   4  10   15.10   17.61   1 
  -5   4  -4   17.39   14.10   1 
  -3   1   6 1109.05   29.34   1 
  -3   2  -3  732.70   21.75   1 
  -2   2  11   26.21   14.54   1 
  -1   1   9   14.58   15.91   1 
  -1   3  13   37.82   15.37   1 
   1   0   6   95.74   13.39   1 
   2   1  -5   33.14   17.19   1 
   2   3  -9  117.66   15.19   1 
   2   3  12   19.80   14.71   1 
   7   4  -7   50.68   38.33   1 
  -6   5  -4   26.40   13.10   1 
  -4   2   8   12.61   15.68   1 
  -4   3  -4  179.84   15.56   1 
  -4   3  11    8.76   17.06   1 
  -4   4  -6  147.29   15.43   1 
  -4   6  -9  191.39   16.51   1 
  -2   3  -7  439.37   16.98   1 
  -2   5 -10   91.95   13.97   1 
  -2   6 -11  161.45   14.65   1 
  -2   7 -12   17.77   14.46   1 
  -1   2  -6   48.32   15.14   1 
  -1   2  11    4.52   17.75   1 
   1   1   9  125.25   13.49   1 
   1   2  11   -2.29   12.75   1 
   1   3  -9   18.59   13.02   1 
   2   0   5   84.05   12.84   1 
   3   0   0 2372.52   50.90   1 
   6   2   4    3.96   14.36   1 
   6   3  -7  305.78   34.26   1 
   6   5 -10    6.83   22.24   1 
   7   3   3   73.60   18.52   1 
  -7   6  -4    4.18   17.47   1 
  -4   5  -8    9.27   14.88   1 
  -2   2  -5   58.78   13.67   1 
  -2   3  12  128.56   18.91   1 
  -1   5 -11  131.71   15.22   1 
  -1   6 -12    8.69   13.55   1 
   1   0   5  931.62   22.08   1 
   1   3  12  212.81   15.67   1 
   2   2  10   48.21   14.79   1 
   2   5 -12    5.16   14.17   1 
   2   6 -13    9.34   15.38   1 
   4   2   8   52.90   14.65   1 
   4   3  -9   81.85   16.51   1 
   5   1  -2    2.18   22.85   1 
   6   2   3  479.89   21.16   1 
   7   3   2   -6.46   17.15   1 
  -7   4   3  188.38   40.75   1 
  -7   5  -2  196.53   18.91   1 
  -7   5   9   17.28   21.01   1 
  -7   7  -6   19.14   18.38   1 
  -6   4   9   71.77   20.74   1 
  -2   1  -2 2116.57   37.58   1 
  -2   2  10   25.86   14.52   1 
  -2   4  -9  418.37   16.30   1 
  -1   1   8  185.55   15.97   1 
  -1   3  12  -12.68   15.46   1 
  -1   4 -10  257.73   19.56   1 
   1   5 -12   17.54   15.70   1 
   2   0   4   35.57   12.63   1 
   2   3  11  -19.11   14.11   1 
   2   4 -11   84.95   14.50   1 
   3   0   1  197.92   17.57   1 
   4   1   5   89.35   14.65   1 
   4   3   9   25.40   15.18   1 
   6   4  -9    0.25   20.04   1 
  -6   5  -5   15.19   13.71   1 
  -6   5  11    4.25   18.28   1 
  -5   4  -5   25.80   14.13   1 
  -5   5  -7  403.73   18.01   1 
  -4   4  -7  406.43   20.63   1 
  -4   4  12   20.82   13.48   1 
  -4   6 -10  122.39   15.76   1 
  -1   4  13   49.61   15.36   1 
   1   0   4 1695.52   29.55   1 
   1   1   8  111.99   14.00   1 
   2   0  -1  646.69   58.99   1 
   2   0   3   74.21   16.61   1 
   2   2  -8  226.60   16.23   1 
   4   2   7  369.10   16.83   1 
   4   5 -12   16.33   15.46   1 
   6   2   2  184.91   17.99   1 
  -7   4   2   44.33   29.26   1 
  -7   6  -5   33.68   17.59   1 
  -6   3   2  711.66   41.23   1 
  -6   4  -3  270.70   19.14   1 
  -4   2  -2  194.08   19.03   1 
  -4   2   7  324.58   20.65   1 
  -4   3  -5  270.45   15.85   1 
  -2   3  -8  387.85   16.57   1 
  -1   1  -4   23.54   12.18   1 
   1   2  -8  342.24   17.46   1 
   1   3 -10   26.60   17.32   1 
   1   3  11  191.33   15.27   1 
   1   4  12   36.41   15.69   1 
   4   1   4   -2.26   16.22   1 
   4   4 -11   72.37   15.52   1 
   7   3  -3  138.85   27.31   1 
   7   3   0  153.69   19.96   1 
  -7   5  -3  427.85   22.48   1 
  -5   3  -3  133.23   17.62   1 
  -5   6  -9  -10.68   15.26   1 
  -2   2  -6  382.91   17.11   1 
  -2   3  11  291.47   16.12   1 
  -2   4 -10   17.50   16.52   1 
  -1   1   7   59.81   15.99   1 
  -1   2  -7 1262.56   24.17   1 
  -1   3  11   44.58   17.91   1 
  -1   5 -12   35.48   14.68   1 
   1   0   3  642.23   22.45   1 
   1   1   7    9.14   13.26   1 
   2   0   2  202.53   17.48   1 
   2   1  -6  109.95   17.82   1 
   2   3  10    9.43   13.73   1 
   2   4  11    2.61   13.81   1 
   4   3   8   83.55   15.99   1 
   4   4   9   -3.06   14.49   1 
   6   3   4   25.63   17.05   1 
   7   3  -2  268.91   26.52   1 
   7   3  -1   15.58   20.92   1 
  -7   4   1   95.47   24.67   1 
  -6   3   1  353.35   27.68   1 
  -6   5  -6    3.47   13.65   1 
  -4   4  11   32.48   16.71   1 
  -3   1   0   36.61   19.98   1 
  -2   1  -3 1470.27   28.97   1 
  -2   4  12   98.58   15.85   1 
  -1   4 -11   24.07   13.78   1 
  -1   4  12   56.62   15.39   1 
   1   1  -6  766.63   22.27   1 
   1   2   9    6.73   12.12   1 
   1   5 -13    7.76   15.40   1 
   2   0   1 1487.63   37.47   1 
   2   4 -12   -0.14   13.89   1 
   4   1   3  569.49   21.20   1 
   4   2   6  114.09   14.82   1 
   6   2   0  375.95   22.45   1 
   7   4   2   27.94   19.59   1 
  -7   5   8  135.56   22.70   1 
  -6   4  -4   45.17   16.26   1 
  -6   4   8   76.31   21.43   1 
  -4   3  -6   57.13   16.93   1 
  -4   3   9   16.75   16.07   1 
  -4   4  -8   97.26   14.61   1 
  -4   5  12   21.01   17.13   1 
  -4   6 -11  -21.83   14.40   1 
  -1   2   9   65.94   14.06   1 
   1   0   2 1542.00   34.62   1 
   1   3  10    2.88   12.94   1 
   1   4  11   10.39   16.54   1 
   2   0   0  779.05   36.33   1 
   2   2  -9    9.35   16.98   1 
   4   5 -13   -7.29   17.73   1 
   6   2  -2  212.26   28.32   1 
   6   2  -1   99.02   21.99   1 
   6   3   3    2.20   17.57   1 
   6   4   5   49.71   14.45   1 
  -7   4   0   15.32   23.47   1 
  -7   5  -4    4.02   18.24   1 
  -6   3   0  253.44   25.58   1 
  -5   3  -4  345.63   20.71   1 
  -4   2  -3   -1.07   12.80   1 
  -4   2   6  411.07   22.36   1 
  -4   5 -10   23.04   15.00   1 
  -2   3  -9   48.35   13.40   1 
  -2   3  10    5.36   17.82   1 
  -1   1  -5   17.62   11.71   1 
   1   1   6   47.77   15.94   1 
   1   2  -9 1098.06   22.19   1 
   1   3 -11   11.75   17.13   1 
   2   3 -11  261.55   16.55   1 
   2   3   9    4.26   13.55   1 
   4   3   7   23.65   14.22   1 
   4   4 -12  172.63   19.77   1 
   4   4   8   38.10   18.73   1 
  -6   6  11   39.53   18.49   1 
  -3   1  -1  307.99   22.15   1 
  -2   4 -11  227.19   15.24   1 
  -1   1   6   81.04   13.14   1 
  -1   3  10  246.50   17.63   1 
  -1   5 -13   75.01   14.59   1 
  -1   5  12   55.12   17.60   1 
   1   2   8  287.43   15.81   1 
   2   1  -7   19.29   15.91   1 
   2   4  10   71.54   14.65   1 
   2   5 -14   39.55   15.19   1 
   4   1   2    3.56   15.23   1 
   4   2   5  495.88   18.48   1 
   6   4   4   31.29   18.17   1 
   7   4  -8    3.64   33.32   1 
  -7   4  -1   36.31   19.11   1 
  -4   3  -7   30.45   17.10   1 
  -4   4  -9   97.34   15.30   1 
  -2   1   5   71.87   15.25   1 
  -2   4  11   21.86   14.40   1 
  -2   5  12   65.19   15.95   1 
  -1   2   8  517.27   20.72   1 
  -1   4  11    0.51   14.51   1 
   1   0  -2  711.25   35.65   1 
   1   0   1 1197.54   37.42   1 
   1   1  -7  442.30   17.80   1 
   1   4 -13   26.79   18.81   1 
   1   5  11   77.66   17.78   1 
   2   4 -13   24.98   14.52   1 
   6   3   2    6.85   17.93   1 
  -7   5  -5  101.51   18.80   1 
  -5   3  -5  885.84   22.65   1 
  -4   2  -4  307.03   17.30   1 
  -4   3   8   54.03   16.62   1 
  -4   5 -11  110.13   15.63   1 
  -4   5  11   90.56   17.20   1 
  -3   1  -2  151.68   19.37   1 
  -2   3 -10   16.80   12.66   1 
  -2   5 -13  -20.64   13.92   1 
  -1   1  -6   19.58   12.63   1 
   1   3   9  135.16   13.80   1 
   1   4  10   67.98   13.47   1 
   2   2 -10  238.41   19.63   1 
   2   5  10   38.18   17.67   1 
   4   3 -11   13.80   13.88   1 
   4   3   6   42.00   15.64   1 
   4   4   7  284.73   21.53   1 
   4   5   8   71.63   15.24   1 
   7   4   0   -5.51   18.36   1 
  -7   4  -2   27.62   19.58   1 
  -7   5   7   50.43   23.78   1 
  -7   6   9   26.00   17.63   1 
  -6   4   7   15.54   21.56   1 
  -6   5  -8   33.14   14.76   1 
  -6   5   9    3.93   17.42   1 
  -2   1  -5 2301.99   32.90   1 
  -2   2  -8  191.21   15.14   1 
  -2   3   9 1227.15   26.39   1 
  -1   2  -9  176.27   14.89   1 
  -1   3 -11  187.13   15.33   1 
   1   1   5   24.42   12.43   1 
   1   2 -10  113.82   15.19   1 
   1   3 -12  112.40   15.72   1 
   2   3 -12   10.31   13.17   1 
   2   3   8   13.89   12.82   1 
   4   1   1  955.22   26.98   1 
   4   2   4  480.38   19.58   1 
   6   3   1   12.09   18.93   1 
   6   4   3  176.41   19.15   1 
  -7   5  -6   51.41   18.14   1 
  -6   3  -2   19.29   15.95   1 
  -6   4  -6   33.05   13.91   1 
  -5   5 -10  104.15   16.66   1 
  -4   2  -5  177.79   18.17   1 
  -4   2   5  163.68   21.37   1 
  -4   3  -8   -7.04   17.85   1 
  -4   4 -10  117.81   16.14   1 
  -2   6  12   40.33   14.15   1 
  -1   1   5 2053.11   32.98   1 
  -1   3   9   18.62   13.96   1 
  -1   5  11    9.57   14.97   1 
   1   0  -3  613.45   26.47   1 
   1   1  -8  100.52   17.72   1 
   2   1  -8  227.70   18.34   1 
   2   1   4   57.23   12.70   1 
   6   4 -11   25.74   22.86   1 
   7   4  -1    7.41   19.79   1 
  -7   4  -3   13.01   17.51   1 
  -6   6  10  -15.08   17.70   1 
  -5   2  -1 1046.24   28.54   1 
  -5   3  -6   -4.87   13.96   1 
  -2   1   4   73.93   17.47   1 
  -2   4  10  -16.90   14.47   1 
  -2   5  11  154.02   17.51   1 
  -1   1  -7    2.62   13.23   1 
  -1   2   7  542.39   22.12   1 
  -1   4  10  127.33   14.87   1 
   1   4 -14   65.64   15.57   1 
   1   5  10    5.43   14.17   1 
   2   4 -14   -4.87   14.77   1 
   4   3 -12   62.98   18.08   1 
   4   3   5   25.43   13.60   1 
   4   5   7   31.95   19.21   1 
  -6   3  -3   13.62   13.78   1 
  -4   4   9  190.32   15.99   1 
  -4   6  11   -7.60   16.17   1 
  -2   1  -6   66.05   14.00   1 
  -2   2  -9  413.36   16.78   1 
  -2   3 -11   18.01   13.48   1 
  -1   2 -10  400.37   16.75   1 
  -1   3 -12   54.42   15.08   1 
   1   0  -4  793.79   27.09   1 
   1   2 -11   66.77   14.41   1 
   1   4   9   13.57   12.69   1 
   2   0  -3  137.37   22.98   1 
   2   2 -11    4.32   13.58   1 
   2   3   7  109.07   15.97   1 
   2   5   9   36.72   15.16   1 
   3   1  -8   23.38   13.01   1 
   4   2 -10  148.04   18.18   1 
   4   4   6   15.69   14.08   1 
   6   3   0   17.07   18.54   1 
   6   4   2   98.49   19.09   1 
   7   4  -9  101.37   39.07   1 
   7   4  -2   18.17   19.96   1 
  -7   5  -7   -5.64   15.28   1 
  -6   3  -4   15.34   16.80   1 
  -4   2  -6   60.04   15.63   1 
  -4   3   7   74.14   16.99   1 
  -4   4 -11   42.03   14.69   1 
  -2   4 -13   -1.55   13.42   1 
  -1   4 -14   37.88   18.93   1 
  -1   6  11   22.33   14.80   1 
   1   1  -9    4.68   15.92   1 
   1   2   6   -5.47   15.99   1 
   1   3 -13   47.63   15.75   1 
   1   6  10   13.17   16.55   1 
   2   1  -9  259.35   18.97   1 
   2   4   8    6.80   13.96   1 
   4   1  -7   -0.78   15.12   1 
  -7   6   8   37.55   20.85   1 
  -6   5   8   51.86   20.86   1 
  -5   2  -3  163.97   15.82   1 
  -2   3   8  467.77   18.11   1 
  -2   6  11   40.28   15.14   1 
  -1   3   8   42.76   13.67   1 
  -1   5  10   76.04   14.76   1 
   1   0  -5   50.67   16.95   1 
   2   0  -4 1990.11   43.02   1 
   2   1   3  205.20   15.50   1 
   2   6   9   86.99   14.49   1 
  -7   4  -5   70.57   18.39   1 
  -6   4   6  132.76   26.45   1 
  -5   4 -10  -21.74   15.58   1 
  -4   2  -7  619.10   19.98   1 
  -2   1  -7  462.68   17.54   1 
  -2   2 -10  180.23   14.92   1 
  -2   2   6  542.64   22.69   1 
  -2   3 -12   95.24   14.25   1 
  -2   4   9   13.05   14.35   1 
  -2   5  10   75.02   15.31   1 
  -1   1   4  999.26   27.35   1 
  -1   4   9  209.17   16.76   1 
   1   2 -12  173.88   16.09   1 
   1   4   8  198.99   17.06   1 
   2   0  -5  631.26   25.79   1 
   2   2 -12   -9.66   13.90   1 
   4   2 -11   42.32   17.02   1 
   4   3 -13   51.02   19.34   1 
   4   3   4  183.72   16.44   1 
   4   4   5  596.18   21.53   1 
   4   5   6    6.54   14.68   1 
   6   3 -10   32.19   21.32   1 
   6   3  -1  106.33   20.18   1 
   6   4   1  133.91   19.32   1 
   7   4  -3   51.62   21.32   1 
  -7   5   6    1.36   25.39   1 
  -6   6   9  109.50   20.87   1 
  -5   3  -8  151.46   16.24   1 
  -4   3 -10   16.23   14.49   1 
  -4   7  11   61.49   16.61   1 
  -2   7  11  -34.06   13.65   1 
  -1   0  -1 1192.47   39.62   1 
   1   1 -10   45.96   17.91   1 
   1   3 -14   11.80   15.22   1 
   2   1 -10   66.17   18.49   1 
   2   3 -14   53.89   15.83   1 
   2   3   6   96.05   14.38   1 
   2   4   7  224.52   19.52   1 
   2   5   8   31.30   14.32   1 
   4   1  -1   61.00   19.86   1 
   4   2   2  443.28   18.41   1 
   6   5   2    4.51   18.29   1 
   7   5  -1   28.84   20.20   1 
  -7   4  -6   70.35   18.48   1 
  -4   2  -8  106.81   18.35   1 
  -4   4   8   22.51   15.28   1 
  -4   6  10   52.00   14.21   1 
  -2   1  -8  294.52   16.39   1 
  -2   2 -11  658.27   21.77   1 
  -2   3 -13   48.36   17.65   1 
  -1   6  10   83.83   15.83   1 
   1   6   9   18.90   14.47   1 
   2   0  -6    9.63   17.00   1 
   4   6   6   49.10   15.89   1 
   7   4  -4   60.70   26.06   1 
  -4   1  -3  781.54   23.89   1 
  -4   2   4  801.34   36.93   1 
  -4   3 -11  117.14   19.50   1 
  -4   5   9   39.04   14.38   1 
  -2   6  10   21.89   15.38   1 
  -1   0  -5  894.58   22.28   1 
  -1   2 -12    0.47   14.09   1 
  -1   3 -14   98.51   15.72   1 
  -1   5   9   40.84   16.86   1 
   1   0  -7  321.82   19.19   1 
   1   1   3  343.90   20.06   1 
   1   2 -13   13.29   15.88   1 
   1   2   5 1623.38   27.33   1 
   2   6   8   -4.93   13.48   1 
  -7   4  -7  117.40   19.69   1 
  -5   2  -6   13.61   14.62   1 
  -4   1  -4   33.81   17.49   1 
  -2   1  -9   93.18   13.69   1 
  -2   5   9  167.12   19.66   1 
  -1   0  -6  103.68   16.53   1 
  -1   1 -10   -7.49   13.77   1 
  -1   3   7   22.99   13.49   1 
  -1   4   8    3.64   14.16   1 
  -1   7  10   72.25   15.48   1 
   1   1 -11  -15.08   14.38   1 
   1   5   8  108.60   14.52   1 
   1   7   9   63.57   14.57   1 
   2   0  -7  574.24   21.85   1 
   2   1   2 2086.19   36.79   1 
   4   1  -9   63.11   16.45   1 
   4   3 -14   19.94   15.57   1 
   4   3   3 1078.10   23.92   1 
   4   4   4  203.12   18.70   1 
   4   5   5   11.36   13.69   1 
   6   3 -11    8.78   21.54   1 
   6   3  -2   60.53   20.89   1 
   6   5   1    4.46   17.70   1 
   7   5  -2   68.79   19.82   1 
  -4   1  -5   75.50   17.57   1 
  -4   2  -9   52.74   14.84   1 
  -4   3   6   59.76   16.84   1 
  -2   0  -3   63.08   17.02   1 
  -2   1   3   51.09   17.91   1 
  -2   2 -12  235.60   16.46   1 
  -2   4   8  963.34   23.71   1 
  -2   7  10   82.78   19.22   1 
  -1   2 -13  -10.08   17.23   1 
   1   0  -8  170.27   18.95   1 
   1   3   6  170.85   15.06   1 
   1   4   7  286.43   15.66   1 
   2   5   7   -3.41   14.40   1 
   4   2   1   34.23   15.79   1 
   7   4  -5   10.25   26.44   1 
  -7   3  -3  454.99   23.82   1 
  -7   3  -2  107.50   18.39   1 
  -7   3  -1  129.50   23.10   1 
  -7   7   8   85.83   23.07   1 
  -6   3  -8   12.19   14.51   1 
  -6   5   7   63.29   18.69   1 
  -6   6   8   86.40   22.42   1 
  -6   7   9   33.00   19.04   1 
  -2   0  -5   94.40   16.45   1 
  -2   0  -4   25.75   12.85   1 
  -2   0  -2  190.15   17.54   1 
  -2   1 -10   50.03   16.07   1 
  -1   0  -7  973.29   22.49   1 
  -1   6   9  192.30   19.32   1 
   1   2 -14   18.94   17.08   1 
   1   6   8   32.06   14.03   1 
   2   0  -8  235.38   19.14   1 
   2   2 -14   47.66   16.44   1 
   2   3   5  595.03   18.46   1 
   2   4   6  202.03   16.73   1 
   3   0  -5   60.68   20.41   1 
   4   6   5   69.62   17.45   1 
  -7   3  -4   36.75   19.06   1 
  -7   3   0  486.04   31.64   1 
  -6   2  -3  331.73   20.67   1 
  -4   1  -6   12.16   14.74   1 
  -4   2 -10  128.31   16.53   1 
  -4   6   9   53.40   14.92   1 
  -2   0  -6  461.61   20.68   1 
  -2   2   5 1136.71   27.59   1 
  -2   6   9   -7.24   18.27   1 
  -1   2   5  235.60   15.82   1 
   1   1 -12   76.83   15.37   1 
   2   1 -12  146.85   15.44   1 
   2   6   7  136.37   15.29   1 
   4   2 -13   19.10   14.67   1 
   4   7   5   23.41   19.91   1 
   6   3 -12    4.12   22.79   1 
   6   4  -1    5.72   20.01   1 
   7   5  -3   23.64   21.21   1 
  -7   3  -5  119.88   19.76   1 
  -4   1  -7   -4.71   14.51   1 
  -4   5   8    6.94   17.63   1 
  -4   8  10   19.80   16.85   1 
  -2   2 -13   14.19   14.14   1 
  -1   0  -8  458.71   18.43   1 
  -1   1   3 5045.76   63.54   1 
  -1   2 -14    5.02   14.58   1 
  -1   5   8    2.97   14.74   1 
   1   2   4 2726.71   35.77   1 
   1   5   7   25.14   12.85   1 
   1   7   8    9.20   13.88   1 
   2   0  -9    8.48   13.62   1 
   4   3   2   16.41   16.93   1 
   4   4   3    9.65   17.69   1 
   6   3  -3   52.82   24.51   1 
   6   5   0    0.25   17.42   1 
  -7   3  -6   63.42   19.20   1 
  -6   2  -5  281.79   17.48   1 
  -4   2 -11    2.85   15.16   1 
  -2   1 -11   38.24   13.68   1 
  -2   5   8  145.62   16.12   1 
  -1   1 -12   66.25   15.03   1 
  -1   3   6    6.01   13.20   1 
  -1   4   7  401.05   17.54   1 
  -1   7   9   12.72   14.17   1 
   1   0 -10   27.28   14.10   1 
   1   1 -13   54.63   16.08   1 
   2   5   6   60.75   14.98   1 
   2   7   7   10.86   14.67   1 
   4   1 -11   19.85   14.36   1 
   4   2 -14   28.80   19.34   1 
   6   2  -8  153.54   35.07   1 
   7   4  -6  123.60   34.73   1 
  -6   4   5  102.01   25.52   1 
  -4   1  -8    1.43   15.14   1 
  -4   7   9   23.02   17.89   1 
  -2   0  -8  165.16   15.16   1 
  -2   7   9  143.03   17.29   1 
  -1   8   9    3.06   14.89   1 
   1   3   5   30.86   13.86   1 
   2   0 -10   80.48   15.62   1 
   2   4   5   -0.80   14.46   1 
   4   6   4  135.25   17.53   1 
   6   2  -9   23.93   25.71   1 
   7   5  -4   23.17   22.10   1 
  -9   5   0   11.79   27.82   1 
  -7   3  -7   -2.98   15.59   1 
  -7   3   1    1.86   29.45   1 
  -5   1  -4  194.76   17.56   1 
  -5   1  -3  146.60   15.86   1 
  -4   1  -9   28.34   14.53   1 
  -4   1   1   52.47   27.43   1 
  -2   1 -12   37.39   14.53   1 
  -2   8   9   22.34   18.74   1 
  -1   0 -10   28.56   13.55   1 
  -1   6   8   34.36   13.59   1 
   1   1   2    6.20   13.30   1 
   1   6   7  126.65   15.11   1 
   2   1   1   -4.82   16.77   1 
   2   6   6   54.53   18.11   1 
   4   1 -12   86.92   18.69   1 
   4   2   0   31.51   16.31   1 
   4   7   4   43.05   19.93   1 
   6   6   0   31.84   19.85   1 
  -7   5   5   14.27   24.20   1 
  -4   6   8   17.29   17.47   1 
  -2   0  -9  676.84   19.54   1 
  -2   6   8   29.77   18.07   1 
   1   1 -14  -10.79   16.48   1 
   1   7   7   40.46   14.12   1 
   2   0 -11   -6.68   14.62   1 
   2   1 -14  104.10   16.03   1 
   4   5   3   -8.82   13.92   1 
   6   2 -10  101.97   25.27   1 
   6   4  -2   61.90   18.13   1 
   6   5  -1   -7.49   18.45   1 
  -7   7   7   20.17   19.16   1 
  -6   5   6   12.95   20.07   1 
  -4   1 -10   21.41   15.38   1 
  -4   3   5    7.14   15.89   1 
  -2   0 -10   46.81   13.65   1 
  -2   1 -13   37.12   14.57   1 
  -1   0 -11   15.19   14.46   1 
  -1   1 -14  101.83   16.36   1 
  -1   5   7   14.50   14.45   1 
  -1   7   8   13.38   13.84   1 
   1   0 -12  189.59   15.68   1 
   1   5   6  155.12   15.27   1 
   1   8   7   23.09   17.59   1 
   2   7   6   48.30   14.31   1 
   4   1 -13  133.94   19.61   1 
   4   3   1  492.51   21.72   1 
   4   4   2  327.90   18.51   1 
   6   3  -4  199.37   30.34   1 
   7   4  -7   33.27   36.84   1 
  -1   2   4  917.91   26.68   1 
  -1   8   8   55.31   17.80   1 
   2   5   5  200.97   16.39   1 
   4   0  -8   31.46   19.54   1 
   4   6   3   66.90   15.08   1 
   7   5  -5   46.32   25.44   1 
  -6   8   8   32.35   15.82   1 
  -4   0  -5  523.81   19.86   1 
  -4   0  -4  375.33   20.60   1 
  -4   1 -11   49.35   15.68   1 
  -4   4   6  593.82   22.13   1 
  -2   0 -11   91.88   14.61   1 
  -2   2   4 1020.46   31.32   1 
  -2   5   7  234.51   16.62   1 
  -2   7   8   57.32   16.02   1 
  -1  -1  -6   37.06   13.38   1 
  -1  -1  -5   21.04   15.48   1 
  -1   0 -12  -12.55   13.94   1 
  -1   4   6  528.73   18.73   1 
  -1   9   8   37.01   15.07   1 
   1  -1  -8  200.19   16.64   1 
   1  -1  -7   71.69   13.74   1 
   1  -1  -6   89.06   13.61   1 
   1  -1  -5 2245.65   36.12   1 
   1   0 -13   42.96   15.66   1 
   1   2   3  181.69   15.62   1 
   1   4   5  530.92   18.93   1 
   1   6   6   11.39   13.58   1 
   4   1 -14   28.73   19.42   1 
   4   7   3   31.84   17.74   1 
   6   6  -1   14.53   17.88   1 
  -7   2  -5   87.03   19.26   1 
  -7   2  -4    9.02   19.06   1 
  -7   2  -3    0.48   21.70   1 
  -4   0  -7  306.53   17.98   1 
  -4   0  -3   -6.21   15.99   1 
  -2   8   8   18.95   16.60   1 
  -1  -1  -8  124.93   15.18   1 
  -1  -1  -7   10.28   14.00   1 
  -1  -1  -4  477.24   21.06   1 
  -1   3   5 1239.28   24.74   1 
  -1   6   7  247.04   17.27   1 
   1   3   4    2.37   12.50   1 
   2   2   2   37.25   13.34   1 
   2   6   5   12.78   14.44   1 
   4   0 -10   84.90   16.97   1 
   4   5   2   22.94   17.26   1 
   4   8   3   29.75   15.71   1 
   6   2 -12   15.44   21.77   1 
  -9   5   1   58.45   44.31   1 
  -7   2  -7  116.50   21.33   1 
  -7   2  -6   42.24   16.11   1 
  -7   8   7   33.14   19.75   1 
  -5   1 -10   65.22   16.45   1 
  -4   0  -8   47.69   15.31   1 
  -4   8   8  -12.39   18.54   1 
  -2  -1  -6  282.15   19.46   1 
  -2   3   5  259.24   16.68   1 
  -2   9   8   26.61   14.85   1 
  -1  -1  -9  113.09   14.43   1 
  -1   0 -13    9.67   14.21   1 
   1  -1 -10   30.64   14.50   1 
   1   7   6  133.49   15.94   1 
   2  -1  -8  277.96   17.37   1 
   2  -1  -7   70.61   13.99   1 
   2  -1  -6  603.60   23.87   1 
   2   7   5  126.45   19.01   1 
   4   0 -11   59.07   17.97   1 
   6   4  -3  132.36   19.23   1 
  -7   2  -2   22.37   18.05   1 
  -6   7   7   30.04   15.78   1 
  -4   0  -9  100.64   15.65   1 
  -4   0  -2  307.81   20.19   1 
  -4   6   7  507.43   23.66   1 
  -2  -1  -8   -2.84   13.85   1 
  -2  -1  -7  167.05   15.51   1 
  -2  -1  -5 1089.02   24.64   1 
  -2   0 -13   34.33   14.98   1 
  -2   6   7   33.20   14.80   1 
  -1  -1 -10   50.02   13.90   1 
  -1   0 -14   -7.27   18.79   1 
  -1   7   7   19.07   14.47   1 
   1  -1 -11   37.45   14.82   1 
   1  -1  -4  941.81   26.61   1 
   1   5   5   18.97   13.24   1 
   1   8   6   55.18   14.32   1 
   1   9   6    3.09   14.99   1 
   2  -1 -10   -3.80   15.30   1 
   2   9   5   18.44   15.47   1 
   4   0 -12   85.15   19.17   1 
   4   2  -1   16.99   16.15   1 
   4   4   1  370.98   20.73   1 
   4   6   2  152.92   19.41   1 
  -4   0 -10   75.72   17.32   1 
  -4   9   8   71.76   17.38   1 
  -2  -1  -9   35.61   15.33   1 
  -2  -1  -4   51.86   13.00   1 
  -1  -1 -11  281.67   19.85   1 
  -1   5   6  112.34   15.23   1 
  -1   8   7  109.91   15.65   1 
   2  -1  -5   72.85   18.51   1 
   2   5   4   30.26   14.12   1 
   4   3   0  632.69   23.22   1 
   6   6  -2   30.49   19.08   1 
   7   5  -6    8.01   24.09   1 
  -7   2  -1    6.44   22.17   1 
  -7   7   6   10.35   19.27   1 
  -6   6   6  111.03   19.40   1 
  -6   8   7   11.00   19.37   1 
  -4   0 -11   44.41   19.85   1 
  -2   7   7   84.35   17.10   1 
  -1   9   7   14.00   14.50   1 
   1   4   4  596.06   21.49   1 
   1   6   5  468.51   19.61   1 
   4   0 -13   86.22   18.82   1 
   4   8   2   91.68   17.21   1 
  -4   7   7   91.51   15.83   1 
  -2  -1 -11  -12.81   14.78   1 
  -2  -1  -3  206.56   16.67   1 
  -2   8   7  -11.26   15.46   1 
  -1  -1 -12   65.17   15.35   1 
  -1   1   2 2289.22   53.21   1 
  -1   4   5   78.20   14.23   1 
  -1   6   6  428.52   21.69   1 
   4   5   1  843.57   24.96   1 
   6   3  -5   91.10   28.69   1 
   6   5  -3   75.31   19.81   1 
  -7   6   5   68.65   22.05   1 
  -6   5   5  190.43   24.90   1 
  -6   9   7   16.81   19.80   1 
  -5   0  -9  119.35   17.38   1 
  -4   0  -1   24.69   16.62   1 
  -2  -1 -12   30.00   15.25   1 
  -1  -1 -13  -24.20   14.57   1 
   1  -1  -3 5501.06   65.76   1 
   1   3   3  100.52   16.46   1 
   1   9   5   21.39   18.24   1 
   2   7   4    7.05   14.62   1 
   2   8   4   67.79   19.87   1 
   2   9   4   57.33   19.43   1 
   4   0 -14   13.09   15.38   1 
   6   4  -4    3.08   20.92   1 
   7   4  -8   10.81   34.62   1 
  -7   8   6   33.34   21.87   1 
  -6   4   4   17.30   24.28   1 
  -5   0 -10   25.73   15.33   1 
  -4   4   5   78.07   17.37   1 
  -1  -1  -2    6.39   15.82   1 
  -1   3   4   46.35   15.95   1 
  -1   7   6   33.73   15.40   1 
   1  -1 -14   46.85   15.63   1 
   1   2   2 2465.22   39.61   1 
   2  -1  -4   68.54   18.73   1 
   4   6   1    8.54   17.19   1 
   6   6  -3   37.57   21.27   1 
  -7   1  -5   45.71   19.17   1 
  -7   5   4   32.64   26.71   1 
  -4  -1  -7   17.45   15.30   1 
  -4  -1  -6   19.13   14.50   1 
  -4  -1  -5  111.45   20.12   1 
  -4   9   7    1.63   15.09   1 
  -2  -1 -13   18.11   15.61   1 
  -2   6   6   59.94   15.36   1 
  -1  -2  -7  387.49   21.28   1 
  -1   2   3   74.75   17.54   1 
  -1   8   6  106.08   15.45   1 
  -1   9   6    5.86   14.64   1 
  -1  10   6   20.79   15.09   1 
   1  -2  -8  498.25   21.55   1 
   2   5   3  221.99   16.06   1 
   4   4   0   20.91   16.95   1 
   4   7   1  110.09   18.27   1 
   4   8   1  -33.87   17.64   1 
   6   1 -12   -4.03   21.19   1 
   6   1 -11   19.62   21.83   1 
   7   5  -7    7.91   28.38   1 
  -7   1  -4   -4.22   19.11   1 
  -4  -1 -10   39.23   15.55   1 
  -1  -2 -10   51.84   13.87   1 
  -1  -2  -9   11.04   12.91   1 
  -1  -2  -6    6.03   13.76   1 
   1  -2 -10  198.98   17.19   1 
   4  -1 -10   32.37   16.36   1 
   6   1 -13   30.85   23.31   1 
   6   1 -10   35.40   25.01   1 
  -7   1  -3  313.89   25.71   1 
  -7   2   0    5.49   26.18   1 
  -4  -1 -11   19.54   15.75   1 
  -4  -1  -4   -2.64   13.89   1 
  -2  -2 -10   39.83   18.90   1 
  -2  -2  -9  291.43   17.80   1 
  -2  -2  -8   12.80   15.44   1 
  -2  -2  -7  217.91   16.75   1 
  -2   3   4    2.18   14.08   1 
  -2   8   6   37.97   14.98   1 
  -2  10   6   14.13   15.28   1 
  -1  -2 -11    8.54   14.08   1 
   1  -2 -12  116.89   16.70   1 
   1  -2  -6 1662.53   30.04   1 
   1   6   4  271.94   16.35   1 
   2  -2 -10   39.00   15.45   1 
   2  -2  -9   -7.70   14.71   1 
   2   6   3    9.34   14.98   1 
   4  -1 -12   -7.82   15.23   1 
   4  -1  -9   25.54   13.63   1 
   4   3  -1   96.78   17.13   1 
   6   5  -4   70.50   22.30   1 
  -4   7   6   13.09   17.97   1 
  -2  -2 -11   56.21   14.75   1 
  -2   2   3    6.94   17.42   1 
  -1   6   5   14.72   14.18   1 
   1  -2 -13   46.57   16.20   1 
   1   4   3  262.97   17.10   1 
   1   7   4    2.37   13.51   1 
   1   8   4   24.64   15.25   1 
   1   9   4   21.19   15.65   1 
   2  -2 -12   70.33   15.70   1 
   2   8   3   30.64   15.40   1 
   2   9   3   59.76   17.01   1 
   4  -1 -13   90.52   16.87   1 
   4  -1  -8    5.20   16.61   1 
   4   5   0  291.98   17.84   1 
  -7   7   5   13.18   18.99   1 
  -2  -2 -12   57.20   15.54   1 
  -2  -2  -5   16.47   14.20   1 
  -1  -2 -13   29.08   14.62   1 
   1  -2 -14   10.06   19.53   1 
   2   4   2   42.40   14.28   1 
   4   6   0  117.59   18.44   1 
   6   6  -4   12.52   18.69   1 
  -4   9   6    9.99   16.59   1 
  -1   7   5   35.76   14.05   1 
  -1   8   5   86.54   14.80   1 
  -1   9   5   21.99   14.71   1 
   1  -2  -5  238.00   17.04   1 
   4   7   0   16.66   14.65   1 
   4   8   0   61.44   15.49   1 
  -6   2  -8   61.12   18.75  -1 
  -6   2  12   61.12   18.75   2 
  -6   4  -5  476.70   26.67  -1 
  -6   0   9  476.70   26.67   2 
  -5   4   9  106.65   17.97  -1 
  -5  -1  -6  106.65   17.97   2 
  -5   5   5   74.43   20.82  -1 
  -5  -2  -2   74.43   20.82   2 
  -3   1  -7  312.38   18.96  -1 
  -3   1   9  312.38   18.96   2 
  -2   0  11   42.24   16.36  -1 
  -2   1 -10   42.24   16.36   2 
   0  -5  -8  209.06   16.20  -1 
   0   5   8  209.06   16.20   2 
   0  -2   9   75.52   11.89  -1 
   0   2  -9   75.52   11.89   2 
   0  -1   7 2415.43   29.66  -1 
   0   1  -7 2415.43   29.66   2 
   0   0   3  892.18   25.39  -1 
   0   0  -3  892.18   25.39   2 
  -3   2  10  257.49   19.39  -1 
  -3   0  -8  257.49   19.39   2 
  -3   1  12   54.50   17.01  -1 
  -3   1 -10   54.50   17.01   2 
  -3   0  -8   98.40   17.18  -1 
  -3   2  10   98.40   17.18   2 
  -3  -3 -10  109.15   17.59  -1 
  -3   5  12  109.15   17.59   2 
   2  -7  -4  189.49   19.36  -1 
   2   6   3  189.49   19.36   2 
  -8   6   8   49.97   19.69  -1 
  -8  -1  -3   49.97   19.69   2 
  -3   2  -5  931.99   24.24  -1 
  -3   0   7  931.99   24.24   2 
  -2  -1  13   99.08   19.96  -1 
  -2   2 -12   99.08   19.96   2 
   0  -6  -8  177.51   17.56  -1 
   0   6   8  177.51   17.56   2 
   0  -4  -7   34.42   14.04  -1 
   0   4   7   34.42   14.04   2 
   0  -4  12   40.72   14.69  -1 
   0   4 -12   40.72   14.69   2 
   2  -5  -2   11.44   19.13  -1 
   2   4   1   11.44   19.13   2 
  -3  -1  15   48.81   18.05  -1 
  -3   3 -13   48.81   18.05   2 
   0  -3  11  104.23   16.33  -1 
   0   3 -11  104.23   16.33   2 
   0  -5  13   14.64   15.10  -1 
   0   5 -13   14.64   15.10   2 
  -6   5  -2   37.14   32.18  -1 
  -6  -1   6   37.14   32.18   2 
  -5   0  -9  168.23   20.00  -1 
  -5   3  12  168.23   20.00   2 
  -5   1  -8   96.87   22.95  -1 
  -5   2  11   96.87   22.95   2 
  -5   2  -7   25.94   20.32  -1 
  -5   1  10   25.94   20.32   2 
  -5   3  12  147.62   20.11  -1 
  -5   0  -9  147.62   20.11   2 
  -5   5   6  383.72   23.51  -1 
  -5  -2  -3  383.72   23.51   2 
   0  -8  -8   70.57   17.52  -1 
   0   8   8   70.57   17.52   2 
   0  -3  -6  477.88   17.77  -1 
   0   3   6  477.88   17.77   2 
   0  -2  -5   53.48   11.06  -1 
   0   2   5   53.48   11.06   2 
   0   0   4  319.05   17.94  -1 
   0   0  -4  319.05   17.94   2 
  -3   3   8  353.42   18.42  -1 
  -3  -1  -6  353.42   18.42   2 
  -3  -2  -9   61.03   17.80  -1 
  -3   4  11   61.03   17.80   2 
  -8   4  -5   49.60   26.96  -1 
  -8   1  10   49.60   26.96   2 
  -6   3  -6   26.92   21.11  -1 
  -6   1  10   26.92   21.11   2 
  -2   0  12   39.39   17.10  -1 
  -2   1 -11   39.39   17.10   2 
   0  -2  10  156.41   13.61  -1 
   0   2 -10  156.41   13.61   2 
  -3   2  11  473.94   20.67  -1 
  -3   0  -9  473.94   20.67   2 
  -3   1  13   33.80   17.03  -1 
  -3   1 -11   33.80   17.03   2 
  -8   5  -3   33.30   26.44  -1 
  -8   0   8   33.30   26.44   2 
  -5   3  13   94.92   20.48  -1 
  -5   0 -10   94.92   20.48   2 
  -3  -3  -9  201.61   19.55  -1 
  -3   5  11  201.61   19.55   2 
  -2  -1  14   86.86   21.00  -1 
  -2   2 -13   86.86   21.00   2 
   0  -1  -3 2666.85   34.93  -1 
   0   1   3 2666.85   34.93   2 
   0   0   5  427.28   16.40  -1 
   0   0  -5  427.28   16.40   2 
  -5   4  -3  322.22   28.82  -1 
  -5  -1   6  322.22   28.82   2 
  -3   3   9  364.01   21.99  -1 
  -3  -1  -7  364.01   21.99   2 
   0  -3  12  160.16   18.30  -1 
   0   3 -12  160.16   18.30   2 
   0  -4  13   92.08   18.61  -1 
   0   4 -13   92.08   18.61   2 
   0  -5  14   21.51   16.77  -1 
   0   5 -14   21.51   16.77   2 
   3  -9   5   70.77   39.51  -1 
   3   7  -7   70.77   39.51   2 
  -6   4  -4  108.31   25.39  -1 
  -6   0   8  108.31   25.39   2 
  -5   3  -5 1115.57   29.44  -1 
  -5   0   8 1115.57   29.44   2 
  -3   0  -7   48.09   16.25  -1 
  -3   2   9   48.09   16.25   2 
   0  -8  -7   28.62   16.69  -1 
   0   8   7   28.62   16.69   2 
   0  -7  -7  320.64   18.59  -1 
   0   7   7  320.64   18.59   2 
   0  -4  -6   23.64   13.71  -1 
   0   4   6   23.64   13.71   2 
  -3   4   4  334.79   23.10  -1 
  -3  -2  -2  334.79   23.10   2 
  -3   4   3  207.03   23.03  -1 
  -3  -2  -1  207.03   23.03   2 
  -3  -4  -9   72.05   17.51  -1 
  -3   6  11   72.05   17.51   2 
   0   0   6  336.20   17.23  -1 
   0   0  -6  336.20   17.23   2 
   0  -2  11  118.03   17.35  -1 
   0   2 -11  118.03   17.35   2 
   3 -10   6   32.96   36.96  -1 
   3   8  -8   32.96   36.96   2 
  -8   6   0  348.12   50.27  -1 
  -8  -1   5  348.12   50.27   2 
  -5   0  -8   47.32   18.46  -1 
  -5   3  11   47.32   18.46   2 
  -5   5   8   96.64   18.48  -1 
  -5  -2  -5   96.64   18.48   2 
  -3  -5  -9   52.20   17.52  -1 
  -3   7  11   52.20   17.52   2 
  -3   3  -2  902.92   37.10  -1 
  -3  -1   4  902.92   37.10   2 
  -2   0  13   14.72   18.54  -1 
  -2   1 -12   14.72   18.54   2 
  -3   4   2  482.12   30.89  -1 
  -3  -2   0  482.12   30.89   2 
  -3   1  14  102.24   18.89  -1 
  -3   1 -12  102.24   18.89   2 
  -3  -2  -8   29.55   17.82  -1 
  -3   4  10   29.55   17.82   2 
  -5   1  -7  225.22   20.29  -1 
  -5   2  10  225.22   20.29   2 
  -5   2  -6  137.59   21.53  -1 
  -5   1   9  137.59   21.53   2 
  -5   4  12   81.32   19.81  -1 
  -5  -1  -9   81.32   19.81   2 
  -3   2  -4  203.76   20.20  -1 
  -3   0   6  203.76   20.20   2 
   0  -3  -5  291.14   13.84  -1 
   0   3   5  291.14   13.84   2 
   0   0   7  339.00   18.45  -1 
   0   0  -7  339.00   18.45   2 
   0  -3  13   41.70   18.84  -1 
   0   3 -13   41.70   18.84   2 
   0  -4  14   55.58   18.61  -1 
   0   4 -14   55.58   18.61   2 
   3  -9   6   27.01   29.04  -1 
   3   7  -8   27.01   29.04   2 
  -5   5   9  292.77   20.44  -1 
  -5  -2  -6  292.77   20.44   2 
  -2   0  14   35.66   20.13  -1 
  -2   1 -13   35.66   20.13   2 
  -2   1  12  146.46   18.24  -1 
  -2   0 -11  146.46   18.24   2 
  -2   2  10   76.20   21.35  -1 
  -2  -1  -9   76.20   21.35   2 
   0  -9  -6   30.45   18.14  -1 
   0   9   6   30.45   18.14   2 
  -3   4   7  110.66   19.36  -1 
  -3  -2  -5  110.66   19.36   2 
  -3   3  11   94.47   21.29  -1 
  -3  -1  -9   94.47   21.29   2 
   0  -2  12   28.49   17.55  -1 
   0   2 -12   28.49   17.55   2 
   0  -6  -6   44.64   18.15  -1 
   0   6   6   44.64   18.15   2 
  -8   4  -4   75.09   24.45  -1 
  -8   1   9   75.09   24.45   2 
  -6   3  -5   24.79   19.44  -1 
  -6   1   9   24.79   19.44   2 
  -5  -1  -8  160.01   22.29  -1 
  -5   4  11  160.01   22.29   2 
   0  -8  -6   77.41   14.85  -1 
   0   8   6   77.41   14.85   2 
   0  -7  -6   39.22   14.60  -1 
   0   7   6   39.22   14.60   2 
  -8   7   6  145.32   27.23  -1 
  -8  -2  -1  145.32   27.23   2 
  -8   7   5   32.93   26.67  -1 
  -8  -2   0   32.93   26.67   2 
  -3  -4  -8   60.72   17.97  -1 
  -3   6  10   60.72   17.97   2 
   0   0   8  283.94   17.57  -1 
   0   0  -8  283.94   17.57   2 
  -8   3  -5  166.65   21.72  -1 
  -8   2  10  166.65   21.72   2 
  -5  -2  -8   30.24   21.59  -1 
  -5   5  11   30.24   21.59   2 
  -5   5  10   46.93   19.48  -1 
  -5  -2  -7   46.93   19.48   2 
  -3   0  -6  291.19   17.91  -1 
  -3   2   8  291.19   17.91   2 
  -3   1  -5  499.26   19.39  -1 
  -3   1   7  499.26   19.39   2 
  -2   1  13   74.03   18.59  -1 
  -2   0 -12   74.03   18.59   2 
   0  -4  -5   69.70   11.64  -1 
   0   4   5   69.70   11.64   2 
  -8   7   4  224.35   37.90  -1 
  -8  -2   1  224.35   37.90   2 
  -3   4   8  158.24   19.83  -1 
  -3  -2  -6  158.24   19.83   2 
   0  -1  11   49.12   17.25  -1 
   0   1 -11   49.12   17.25   2 
   0  -3  14   24.08   17.73  -1 
   0   3 -14   24.08   17.73   2 
  -5   0  -7   43.69   18.51  -1 
  -5   3  10   43.69   18.51   2 
  -5   3  -4  336.26   25.07  -1 
  -5   0   7  336.26   25.07   2 
  -5   5  11   53.74   20.27  -1 
  -5  -2  -8   53.74   20.27   2 
  -3  -2  -7  111.71   20.90  -1 
  -3   4   9  111.71   20.90   2 
  -2   2  11   63.21   18.41  -1 
  -2  -1 -10   63.21   18.41   2 
  -2   3   8  684.22   25.19  -1 
  -2  -2  -7  684.22   25.19   2 
   0 -10  -5   32.34   15.88  -1 
   0  10   5   32.34   15.88   2 
   0  -2  13  166.86   20.13  -1 
   0   2 -13  166.86   20.13   2 
  -3   4   1  879.17   47.75  -1 
  -3  -2   1  879.17   47.75   2 
  -3   3  12   90.43   19.85  -1 
  -3  -1 -10   90.43   19.85   2 
   0   0   9  142.27   16.43  -1 
   0   0  -9  142.27   16.43   2 
  -8   5  -2   38.14   25.54  -1 
  -8   0   7   38.14   25.54   2 
  -5   1  -6   67.37   23.55  -1 
  -5   2   9   67.37   23.55   2 
   0  -9  -5  272.91   17.79  -1 
   0   9   5  272.91   17.79   2 
   0  -1  12   93.28   18.17  -1 
   0   1 -12   93.28   18.17   2 
   3  -9   8   58.57   27.06  -1 
   3   7 -10   58.57   27.06   2 
  -6   1  -6   68.86   21.27  -1 
  -6   3  10   68.86   21.27   2 
  -5   2  -5  159.19   19.78  -1 
  -5   1   8  159.19   19.78   2 
  -3  -3  -7  594.85   19.90  -1 
  -3   5   9  594.85   19.90   2 
   0  -8  -5   24.11   15.31  -1 
   0   8   5   24.11   15.31   2 
   0  -6  -5   40.47   15.30  -1 
   0   6   5   40.47   15.30   2 
  -3   3  13   28.89   18.95  -1 
  -3  -1 -11   28.89   18.95   2 
  -2   1  -3 2351.24   39.60  -1 
  -2   0   4 2351.24   39.60   2 
   0  -2  14   98.47   18.27  -1 
   0   2 -14   98.47   18.27   2 
  -5   6   5  150.65   22.40  -1 
  -5  -3  -2  150.65   22.40   2 
  -5   6   6  152.12   23.16  -1 
  -5  -3  -3  152.12   23.16   2 
  -5   6   7   83.91   23.01  -1 
  -5  -3  -4   83.91   23.01   2 
  -3  -7  -7   83.74   19.13  -1 
  -3   9   9   83.74   19.13   2 
  -3  -4  -7   50.12   16.19  -1 
  -3   6   9   50.12   16.19   2 
   0   1   5  363.40   15.98  -1 
   0  -1  -5  363.40   15.98   2 
   0   1   6  221.43   16.42  -1 
   0  -1  -6  221.43   16.42   2 
  -8   7   3  144.40   53.74  -1 
  -8  -2   2  144.40   53.74   2 
  -6   2  -5  324.30   23.89  -1 
  -6   2   9  324.30   23.89   2 
  -5   4  -2   58.48   28.11  -1 
  -5  -1   5   58.48   28.11   2 
  -3  -5  -7  220.51   19.66  -1 
  -3   7   9  220.51   19.66   2 
  -3  -6  -7   32.52   18.10  -1 
  -3   8   9   32.52   18.10   2 
   2  -3   3  681.63   36.61  -1 
   2   2  -4  681.63   36.61   2 
   3  -7   5  228.70   28.79  -1 
   3   5  -7  228.70   28.79   2 
  -8   2  -5   42.92   17.32  -1 
  -8   3  10   42.92   17.32   2 
  -8   3  -4   85.90   22.74  -1 
  -8   2   9   85.90   22.74   2 
  -8   4  -3  206.34   28.15  -1 
  -8   1   8  206.34   28.15   2 
  -6   3  -4   48.34   22.37  -1 
  -6   1   8   48.34   22.37   2 
  -5  -2  -7   33.41   22.31  -1 
  -5   5  10   33.41   22.31   2 
  -5   6   4   94.80   27.24  -1 
  -5  -3  -1   94.80   27.24   2 
  -5   6   8   63.82   19.33  -1 
  -5  -3  -5   63.82   19.33   2 
  -3   2  -3  939.48   29.19  -1 
  -3   0   5  939.48   29.19   2 
  -2   3  10  120.22   20.98  -1 
  -2  -2  -9  120.22   20.98   2 
   0 -10  -4   27.86   15.09  -1 
   0  10   4   27.86   15.09   2 
   0  -1  13   41.72   14.04  -1 
   0   1 -13   41.72   14.04   2 
   0   0  11  124.79   14.22  -1 
   0   0 -11  124.79   14.22   2 
  -3   3  14  106.74   20.07  -1 
  -3  -1 -12  106.74   20.07   2 
   3  -7   4   73.68   38.91  -1 
   3   5  -6   73.68   38.91   2 
  -5  -3  -7   64.87   21.56  -1 
  -5   6  10   64.87   21.56   2 
  -5   0  -6  189.81   19.93  -1 
  -5   3   9  189.81   19.93   2 
  -5   6   9   43.06   20.77  -1 
  -5  -3  -6   43.06   20.77   2 
  -2   3  11  367.92   24.34  -1 
  -2  -2 -10  367.92   24.34   2 
   0  -9  -4  248.98   21.17  -1 
   0   9   4  248.98   21.17   2 
   0   1   3 2576.16   37.09  -1 
   0  -1  -3 2576.16   37.09   2 
   0   1   8  256.35   15.41  -1 
   0  -1  -8  256.35   15.41   2 
  -3   4  12   62.97   23.46  -1 
  -3  -2 -10   62.97   23.46   2 
   3  -7   8   42.24   23.44  -1 
   3   5 -10   42.24   23.44   2 
  -5  -4  -7   53.88   19.26  -1 
  -5   7  10   53.88   19.26   2 
  -5   6  10  106.81   20.07  -1 
  -5  -3  -7  106.81   20.07   2 
   0  -8  -4   24.47   18.36  -1 
   0   8   4   24.47   18.36   2 
   0  -1  14   73.55   17.29  -1 
   0   1 -14   73.55   17.29   2 
  -3   5   7  208.46   22.96  -1 
  -3  -3  -5  208.46   22.96   2 
  -3   5   6  252.60   22.19  -1 
  -3  -3  -4  252.60   22.19   2 
  -3  -3  -6   26.50   17.50  -1 
  -3   5   8   26.50   17.50   2 
   3  -9  10   24.79   24.55  -1 
   3   7 -12   24.79   24.55   2 
  -5   1  -5  846.00   25.67  -1 
  -5   2   8  846.00   25.67   2 
  -5   6  11   48.67   21.86  -1 
  -5  -3  -8   48.67   21.86   2 
  -3  -7  -6   39.53   19.16  -1 
  -3   9   8   39.53   19.16   2 
  -2   4   6  345.29   23.83  -1 
  -2  -3  -5  345.29   23.83   2 
  -2   4   7  171.48   22.09  -1 
  -2  -3  -6  171.48   22.09   2 
   0  -6  -4   94.50   15.52  -1 
   0   6   4   94.50   15.52   2 
  -6   1  -5   50.79   21.52  -1 
  -6   3   9   50.79   21.52   2 
  -6  -1  -6   55.02   20.19  -1 
  -6   5  10   55.02   20.19   2 
  -3   5   9  147.43   22.00  -1 
  -3  -3  -7  147.43   22.00   2 
  -3   5   8   26.52   19.33  -1 
  -3  -3  -6   26.52   19.33   2 
  -3   5   5  706.86   25.10  -1 
  -3  -3  -3  706.86   25.10   2 
  -3   4  13   30.06   19.98  -1 
  -3  -2 -11   30.06   19.98   2 
  -3  -4  -6   93.08   16.39  -1 
  -3   6   8   93.08   16.39   2 
  -3  -6  -6   67.12   18.27  -1 
  -3   8   8   67.12   18.27   2 
   3  -8  10   34.81   22.70  -1 
   3   6 -12   34.81   22.70   2 
  -5   2  -4   59.11   22.82  -1 
  -5   1   7   59.11   22.82   2 
  -5   3  -3  162.22   23.75  -1 
  -5   0   6  162.22   23.75   2 
  -3  -5  -6  107.02   15.49  -1 
  -3   7   8  107.02   15.49   2 
  -2   4   8 1207.60   29.98  -1 
  -2  -3  -7 1207.60   29.98   2 
   0 -10  -3   68.48   16.00  -1 
   0  10   3   68.48   16.00   2 
   0  -3  -3  355.11   15.84  -1 
   0   3   3  355.11   15.84   2 
  -3   5  10   48.28   20.92  -1 
  -3  -3  -8   48.28   20.92   2 
  -3   5   4 1041.76   30.74  -1 
  -3  -3  -2 1041.76   30.74   2 
   0   1  11   40.60   14.73  -1 
   0  -1 -11   40.60   14.73   2 
   3  -7  10   45.76   22.85  -1 
   3   5 -12   45.76   22.85   2 
  -8   2  -4  113.03   23.33  -1 
  -8   3   9  113.03   23.33   2 
  -8   5  -1   44.09   25.80  -1 
  -8   0   6   44.09   25.80   2 
  -5  -2  -6  120.33   19.96  -1 
  -5   5   9  120.33   19.96   2 
   3  -8  11   25.27   26.96  -1 
   3   6 -13   25.27   26.96   2 
  -6   2  -4  143.36   21.66  -1 
  -6   2   8  143.36   21.66   2 
  -2   2  -1 4357.28   91.47  -1 
  -2  -1   2 4357.28   91.47   2 
   0   1   2 5028.30   60.24  -1 
   0  -1  -2 5028.30   60.24   2 
   3  -6   9  101.22   21.62  -1 
   3   4 -11  101.22   21.62   2 
  -8   3  -3   13.45   20.89  -1 
  -8   2   8   13.45   20.89   2 
  -6   4  -2  558.93   32.54  -1 
  -6   0   6  558.93   32.54   2 
  -5  -5  -6   37.69   22.00  -1 
  -5   8   9   37.69   22.00   2 
  -5   0  -5   72.42   22.48  -1 
  -5   3   8   72.42   22.48   2 
   0 -11  -2  116.63   21.06  -1 
   0  11   2  116.63   21.06   2 
   0  -9  -3  129.27   16.86  -1 
   0   9   3  129.27   16.86   2 
  -6   0  -5  327.75   21.83  -1 
  -6   4   9  327.75   21.83   2 
  -3  -2  -5  248.38   18.69  -1 
  -3   4   7  248.38   18.69   2 
  -3  -8  -5   24.97   19.52  -1 
  -3  10   7   24.97   19.52   2 
   3  -6  10   44.08   22.72  -1 
   3   4 -12   44.08   22.72   2 
   3  -7  11   54.42   23.38  -1 
   3   5 -13   54.42   23.38   2 
  -8   4  -2   37.14   23.27  -1 
  -8   1   7   37.14   23.27   2 
  -6   3  -3  116.85   21.58  -1 
  -6   1   7  116.85   21.58   2 
  -3   0  -4   33.71   18.08  -1 
  -3   2   6   33.71   18.08   2 
  -3   3  -1  719.52   41.75  -1 
  -3  -1   3  719.52   41.75   2 
   0  -4  -3  172.73   13.20  -1 
   0   4   3  172.73   13.20   2 
   0  -2  -2 5303.77   51.74  -1 
   0   2   2 5303.77   51.74   2 
   0   2   6   49.08   14.79  -1 
   0  -2  -6   49.08   14.79   2 
   0   2   7    9.87   12.57  -1 
   0  -2  -7    9.87   12.57   2 
   0   2   8  140.15   17.14  -1 
   0  -2  -8  140.15   17.14   2 
  -3   5  12   51.56   21.63  -1 
  -3  -3 -10   51.56   21.63   2 
  -3  -7  -5  125.34   20.05  -1 
  -3   9   7  125.34   20.05   2 
   0   2   9   61.67   15.20  -1 
   0  -2  -9   61.67   15.20   2 
   2  -2   4  171.71   24.27  -1 
   2   1  -5  171.71   24.27   2 
  -8   1  -4  238.50   22.78  -1 
  -8   4   9  238.50   22.78   2 
   0 -10  -2   54.52   21.12  -1 
   0  10   2   54.52   21.12   2 
   0  -7  -3   43.06   20.26  -1 
   0   7   3   43.06   20.26   2 
   0  -5  -3   18.28   16.90  -1 
   0   5   3   18.28   16.90   2 
   0   1  13  115.97   17.04  -1 
   0  -1 -13  115.97   17.04   2 
   0   2   5   41.68   11.95  -1 
   0  -2  -5   41.68   11.95   2 
  -6  -1  -5   51.79   20.15  -1 
  -6   5   9   51.79   20.15   2 
  -3   5   3   17.70   20.65  -1 
  -3  -3  -1   17.70   20.65   2 
  -3  -4  -5  104.18   16.64  -1 
  -3   6   7  104.18   16.64   2 
  -3  -5  -5  211.89   17.79  -1 
  -3   7   7  211.89   17.79   2 
  -3  -6  -5   34.51   17.54  -1 
  -3   8   7   34.51   17.54   2 
   3  -5   9  131.71   19.08  -1 
   3   3 -11  131.71   19.08   2 
   3  -6  11   23.57   19.80  -1 
   3   4 -13   23.57   19.80   2 
  -5   1  -4  322.06   27.08  -1 
  -5   2   7  322.06   27.08   2 
  -5   7   7  174.25   27.12  -1 
  -5  -4  -4  174.25   27.12   2 
  -5   7   8   31.56   22.74  -1 
  -5  -4  -5   31.56   22.74   2 
  -5   7  10   67.78   23.05  -1 
  -5  -4  -7   67.78   23.05   2 
  -2  -2  -4  349.98   21.86  -1 
  -2   3   5  349.98   21.86   2 
   0  -6  -3  271.20   17.45  -1 
   0   6   3  271.20   17.45   2 
  -6   1  -4   69.33   21.88  -1 
  -6   3   8   69.33   21.88   2 
  -3   1  -3  324.19   21.54  -1 
  -3   1   5  324.19   21.54   2 
  -8   6   1   18.07   34.50  -1 
  -8  -1   4   18.07   34.50   2 
  -5  -6  -5   25.88   17.86  -1 
  -5   9   8   25.88   17.86   2 
  -5  -5  -5  121.20   20.19  -1 
  -5   8   8  121.20   20.19   2 
  -5  -2  -5   78.06   21.88  -1 
  -5   5   8   78.06   21.88   2 
  -5   7   6  174.95   26.16  -1 
  -5  -4  -3  174.95   26.16   2 
   0 -11  -1   36.19   19.60  -1 
   0  11   1   36.19   19.60   2 
   0  -9  -2  341.60   22.53  -1 
   0   9   2  341.60   22.53   2 
   0   2   4   69.20   13.18  -1 
   0  -2  -4   69.20   13.18   2 
   3  -6  12   28.63   19.77  -1 
   3   4 -14   28.63   19.77   2 
  -3   6   8  188.72   23.32  -1 
  -3  -4  -6  188.72   23.32   2 
  -3  -8  -4   64.31   19.37  -1 
  -3  10   6   64.31   19.37   2 
   0   2  12   24.33   15.77  -1 
   0  -2 -12   24.33   15.77   2 
   3  -5  11   63.07   20.28  -1 
   3   3 -13   63.07   20.28   2 
  -8   2  -3   61.20   21.94  -1 
  -8   3   8   61.20   21.94   2 
  -5  -4  -5   51.05   18.08  -1 
  -5   7   8   51.05   18.08   2 
  -5   6   2  834.30   50.39  -1 
  -5  -3   1  834.30   50.39   2 
  -3   2  -2 1705.13   38.04  -1 
  -3   0   4 1705.13   38.04   2 
  -2   1  -2 2286.57   44.98  -1 
  -2   0   3 2286.57   44.98   2 
   3  -4   8   94.28   19.99  -1 
   3   2 -10   94.28   19.99   2 
  -6   8   8   73.61   26.18  -1 
  -6  -4  -4   73.61   26.18   2 
  -6   7   3   86.36   43.50  -1 
  -6  -3   1   86.36   43.50   2 
  -3   6  10   28.59   20.97  -1 
  -3  -4  -8   28.59   20.97   2 
  -3   6   9  163.66   20.40  -1 
  -3  -4  -7  163.66   20.40   2 
  -3   6   7   98.00   22.46  -1 
  -3  -4  -5   98.00   22.46   2 
   2  -3   2 2524.78   72.23  -1 
   2   2  -3 2524.78   72.23   2 
   3  -4   7  157.77   18.85  -1 
   3   2  -9  157.77   18.85   2 
  -6   0  -4   71.93   21.02  -1 
  -6   4   8   71.93   21.02   2 
  -5   0  -4   66.51   23.91  -1 
  -5   3   7   66.51   23.91   2 
  -5   2  -3  322.13   23.40  -1 
  -5   1   6  322.13   23.40   2 
  -5   7   5   39.75   25.50  -1 
  -5  -4  -2   39.75   25.50   2 
  -2   5   6  946.91   29.10  -1 
  -2  -4  -5  946.91   29.10   2 
   0  -8  -2   62.23   19.92  -1 
   0   8   2   62.23   19.92   2 
   0  -3  -2  716.32   22.27  -1 
   0   3   2  716.32   22.27   2 
   0   2  13  136.67   17.50  -1 
   0  -2 -13  136.67   17.50   2 
   3  -5  12  110.74   20.31  -1 
   3   3 -14  110.74   20.31   2 
  -6   2  -3  374.20   24.59  -1 
  -6   2   7  374.20   24.59   2 
  -3   6  11  135.54   20.66  -1 
  -3  -4  -9  135.54   20.66   2 
  -3   6   6   46.66   20.96  -1 
  -3  -4  -4   46.66   20.96   2 
  -3  -2  -4   89.59   17.82  -1 
  -3   4   6   89.59   17.82   2 
  -8   1  -3   78.92   21.63  -1 
  -8   4   8   78.92   21.63   2 
  -8   3  -2  114.21   20.08  -1 
  -8   2   7  114.21   20.08   2 
  -5   3  -2  834.17   31.77  -1 
  -5   0   5  834.17   31.77   2 
  -5   4  -1 1284.13   44.18  -1 
  -5  -1   4 1284.13   44.18   2 
  -3  -6  -4   80.11   19.04  -1 
  -3   8   6   80.11   19.04   2 
   0 -10  -1   58.40   16.62  -1 
   0  10   1   58.40   16.62   2 
   3  -4  11  101.51   20.77  -1 
   3   2 -13  101.51   20.77   2 
  -8   8   5   24.28   41.50  -1 
  -8  -3   0   24.28   41.50   2 
  -6  -1  -4   33.20   19.66  -1 
  -6   5   8   33.20   19.66   2 
  -6  -4  -4   55.60   22.53  -1 
  -6   8   8   55.60   22.53   2 
  -3  -3  -4  867.16   23.45  -1 
  -3   5   6  867.16   23.45   2 
   0   3   9  538.17   20.12  -1 
   0  -3  -9  538.17   20.12   2 
   0   3   8  207.15   17.66  -1 
   0  -3  -8  207.15   17.66   2 
   0   3   7  766.77   23.07  -1 
   0  -3  -7  766.77   23.07   2 
   0   2  14   85.45   19.97  -1 
   0  -2 -14   85.45   19.97   2 
   0   2   3  657.26   22.84  -1 
   0  -2  -3  657.26   22.84   2 
  -5  -6  -4   93.83   19.54  -1 
  -5   9   7   93.83   19.54   2 
  -5  -1  -4   63.94   23.01  -1 
  -5   4   7   63.94   23.01   2 
   0 -11   0  131.58   24.86  -1 
   0  11   0  131.58   24.86   2 
   0   3  10  221.75   15.58  -1 
   0  -3 -10  221.75   15.58   2 
  -6  -2  -4   89.50   20.28  -1 
  -6   6   8   89.50   20.28   2 
  -6  -3  -4   34.59   20.86  -1 
  -6   7   8   34.59   20.86   2 
  -3   6   5  193.02   22.87  -1 
  -3  -4  -3  193.02   22.87   2 
  -3  -4  -4   57.87   16.41  -1 
  -3   6   6   57.87   16.41   2 
  -3  -8  -3  101.38   21.61  -1 
  -3  10   5  101.38   21.61   2 
   0   3  11   56.28   18.22  -1 
   0  -3 -11   56.28   18.22   2 
   3  -4   5  775.68   27.37  -1 
   3   2  -7  775.68   27.37   2 
  -8   0  -3  132.10   21.79  -1 
  -8   5   8  132.10   21.79   2 
  -8   5   0   40.98   27.26  -1 
  -8   0   5   40.98   27.26   2 
  -6   3  -2   94.95   22.04  -1 
  -6   1   6   94.95   22.04   2 
  -6   5   0  413.44   40.62  -1 
  -6  -1   4  413.44   40.62   2 
  -5  -5  -4   57.67   18.58  -1 
  -5   8   7   57.67   18.58   2 
  -5  -2  -4  163.32   22.02  -1 
  -5   5   7  163.32   22.02   2 
  -3   0  -3 2517.41   35.10  -1 
  -3   2   5 2517.41   35.10   2 
   0  -6  -2   28.45   17.09  -1 
   0   6   2   28.45   17.09   2 
   0  -5  -2  611.38   20.72  -1 
   0   5   2  611.38   20.72   2 
   0  -4  -2  454.10   17.29  -1 
   0   4   2  454.10   17.29   2 
   0   3  12   55.12   19.85  -1 
   0  -3 -12   55.12   19.85   2 
   3  -3   7  406.72   23.18  -1 
   3   1  -9  406.72   23.18   2 
   3  -3  10   37.15   20.50  -1 
   3   1 -12   37.15   20.50   2 
  -6   1  -3   70.67   24.16  -1 
  -6   3   7   70.67   24.16   2 
   2  -1   4  889.48   29.12  -1 
   2   0  -5  889.48   29.12   2 
  -8  -1  -3   71.23   19.35  -1 
  -8   6   8   71.23   19.35   2 
  -5  -4  -4   76.89   19.48  -1 
  -5   7   7   76.89   19.48   2 
  -5   1  -3  238.57   23.09  -1 
  -5   2   6  238.57   23.09   2 
  -5   7   4  298.37   33.36  -1 
  -5  -4  -1  298.37   33.36   2 
   0  -9  -1   29.21   16.08  -1 
   0   9   1   29.21   16.08   2 
   0   3   5  291.96   17.55  -1 
   0  -3  -5  291.96   17.55   2 
  -3  -7  -3   69.27   18.37  -1 
  -3   9   5   69.27   18.37   2 
   0   3  13   51.24   17.60  -1 
   0  -3 -13   51.24   17.60   2 
   3  -3  12   82.79   19.41  -1 
   3   1 -14   82.79   19.41   2 
  -8   2  -2   48.22   22.26  -1 
  -8   3   7   48.22   22.26   2 
  -6   4  -1   80.39   26.94  -1 
  -6   0   5   80.39   26.94   2 
  -5  -7  -3   72.86   19.99  -1 
  -5  10   6   72.86   19.99   2 
  -5   8   9   48.90   26.13  -1 
  -5  -5  -6   48.90   26.13   2 
  -3  -9  -2  109.52   21.92  -1 
  -3  11   4  109.52   21.92   2 
  -6   8   5   79.17   31.60  -1 
  -6  -4  -1   79.17   31.60   2 
  -3   7  10   39.01   22.06  -1 
  -3  -5  -8   39.01   22.06   2 
  -3   6   4   25.04   21.71  -1 
  -3  -4  -2   25.04   21.71   2 
  -5   8   8   74.65   24.50  -1 
  -5  -5  -5   74.65   24.50   2 
  -3  -1  -3  200.43   18.74  -1 
  -3   3   5  200.43   18.74   2 
   0  -8  -1  312.18   22.56  -1 
   0   8   1  312.18   22.56   2 
   3  -3  13   62.49   18.80  -1 
   3   1 -15   62.49   18.80   2 
   3  -2  10   37.65   20.17  -1 
   3   0 -12   37.65   20.17   2 
  -6  -4  -3  238.04   23.53  -1 
  -6   8   7  238.04   23.53   2 
  -3   7  11   45.55   20.84  -1 
  -3  -5  -9   45.55   20.84   2 
  -3  -6  -3  482.72   21.32  -1 
  -3   8   5  482.72   21.32   2 
   3  -2  11   81.01   20.14  -1 
   3   0 -13   81.01   20.14   2 
  -5   0  -3  259.48   23.19  -1 
  -5   3   6  259.48   23.19   2 
   0 -11   1   70.87   24.87  -1 
   0  11  -1   70.87   24.87   2 
   0   3   4 1456.53   25.34  -1 
   0  -3  -4 1456.53   25.34   2 
   0   4   8  241.26   19.14  -1 
   0  -4  -8  241.26   19.14   2 
   0   4   9   83.47   16.01  -1 
   0  -4  -9   83.47   16.01   2 
   0   4  10   79.94   16.99  -1 
   0  -4 -10   79.94   16.99   2 
   0   4  11  135.16   19.41  -1 
   0  -4 -11  135.16   19.41   2 
  -6  -1  -3  111.76   20.17  -1 
  -6   5   7  111.76   20.17   2 
  -6  -2  -3  499.21   25.70  -1 
  -6   6   7  499.21   25.70   2 
  -6  -3  -3   43.53   19.67  -1 
  -6   7   7   43.53   19.67   2 
  -3   7   7  140.77   22.96  -1 
  -3  -5  -5  140.77   22.96   2 
  -3  -2  -3 1722.52   27.92  -1 
  -3   4   5 1722.52   27.92   2 
  -3  -8  -2   27.32   20.27  -1 
  -3  10   4   27.32   20.27   2 
   3  -4   4   56.95   21.84  -1 
   3   2  -6   56.95   21.84   2 
  -8   0  -2   42.78   19.54  -1 
  -8   5   7   42.78   19.54   2 
  -8   3  -1   66.02   20.11  -1 
  -8   2   6   66.02   20.11   2 
  -8   7   3  135.65   54.38  -1 
  -8  -2   2  135.65   54.38   2 
  -6   2  -2  550.45   25.32  -1 
  -6   2   6  550.45   25.32   2 
  -5   2  -2   67.66   22.98  -1 
  -5   1   5   67.66   22.98   2 
  -3   1  -2  718.34   26.60  -1 
  -3   1   4  718.34   26.60   2 
  -2   0  -2  249.19   23.22  -1 
  -2   1   3  249.19   23.22   2 
   0   2   2 5003.84   56.56  -1 
   0  -2  -2 5003.84   56.56   2 
   0   4   7   23.08   12.73  -1 
   0  -4  -7   23.08   12.73   2 
   0   4  12   32.95   16.46  -1 
   0  -4 -12   32.95   16.46   2 
   3  -2  13   18.67   20.36  -1 
   3   0 -15   18.67   20.36   2 
  -3  -3  -3  177.67   18.14  -1 
  -3   5   5  177.67   18.14   2 
   0   4  13   74.96   18.81  -1 
   0  -4 -13   74.96   18.81   2 
   0  -2  -1  650.23   24.74  -1 
   0   2   1  650.23   24.74   2 
  -8  -1  -2   98.34   21.59  -1 
  -8   6   7   98.34   21.59   2 
  -5  -4  -3   52.80   21.38  -1 
  -5   7   6   52.80   21.38   2 
  -5  -2  -3  111.53   22.11  -1 
  -5   5   6  111.53   22.11   2 
  -5  -1  -3   91.39   22.03  -1 
  -5   4   6   91.39   22.03   2 
  -5   8   6   85.31   26.70  -1 
  -5  -5  -3   85.31   26.70   2 
  -2   6   6  153.89   22.08  -1 
  -2  -5  -5  153.89   22.08   2 
   3  -1  10  155.26   20.77  -1 
   3  -1 -12  155.26   20.77   2 
  -3   7   6  133.70   23.22  -1 
  -3  -5  -4  133.70   23.22   2 
  -3  -7  -2  214.01   20.40  -1 
  -3   9   4  214.01   20.40   2 
  -3  -9  -1   37.90   21.50  -1 
  -3  11   3   37.90   21.50   2 
   0   4   6   34.34   15.51  -1 
   0  -4  -6   34.34   15.51   2 
   3  -1   8  109.78   18.37  -1 
   3  -1 -10  109.78   18.37   2 
   3  -1  11   28.25   17.61  -1 
   3  -1 -13   28.25   17.61   2 
  -6   1  -2   81.78   22.95  -1 
  -6   3   6   81.78   22.95   2 
  -6  -5  -2   19.94   20.66  -1 
  -6   9   6   19.94   20.66   2 
  -8   2  -1  362.01   22.70  -1 
  -8   3   6  362.01   22.70   2 
  -8   4   0  307.01   26.29  -1 
  -8   1   5  307.01   26.29   2 
  -5  -6  -2   47.63   19.34  -1 
  -5   9   5   47.63   19.34   2 
  -2   6   5  659.38   26.48  -1 
  -2  -5  -4  659.38   26.48   2 
   0 -10   1   33.59   20.72  -1 
   0  10  -1   33.59   20.72   2 
  -6  -4  -2  152.19   22.01  -1 
  -6   8   6  152.19   22.01   2 
  -3   6   3  133.17   23.84  -1 
  -3  -4  -1  133.17   23.84   2 
  -3  -6  -2    8.99   18.81  -1 
  -3   8   4    8.99   18.81   2 
   0   4   5   69.11   15.58  -1 
   0  -4  -5   69.11   15.58   2 
   0   3   3  321.96   19.33  -1 
   0  -3  -3  321.96   19.33   2 
  -5   7   3   62.33   38.77  -1 
  -5  -4   0   62.33   38.77   2 
  -3  -8  -1  163.20   22.77  -1 
  -3  10   3  163.20   22.77   2 
   0 -11   2   34.74   18.62  -1 
   0  11  -2   34.74   18.62   2 
   0  -5  -1  276.28   15.74  -1 
   0   5   1  276.28   15.74   2 
   0  -3  -1  732.85   24.00  -1 
   0   3   1  732.85   24.00   2 
   0   5   9   34.48   18.51  -1 
   0  -5  -9   34.48   18.51   2 
   0   5  10   81.38   16.74  -1 
   0  -5 -10   81.38   16.74   2 
   0   5  11   10.56   16.33  -1 
   0  -5 -11   10.56   16.33   2 
  -6   3  -1  446.40   27.11  -1 
  -6   1   5  446.40   27.11   2 
  -6   0  -2  192.55   23.80  -1 
  -6   4   6  192.55   23.80   2 
  -6  -1  -2   42.75   21.87  -1 
  -6   5   6   42.75   21.87   2 
  -6  -2  -2  234.37   23.74  -1 
  -6   6   6  234.37   23.74   2 
  -6  -3  -2   41.14   22.73  -1 
  -6   7   6   41.14   22.73   2 
  -6  -6  -1  152.22   22.50  -1 
  -6  10   5  152.22   22.50   2 
  -3   7   5  154.48   23.62  -1 
  -3  -5  -3  154.48   23.62   2 
  -3   0  -2 2330.36   35.90  -1 
  -3   2   4 2330.36   35.90   2 
   0   5  12   17.72   18.87  -1 
   0  -5 -12   17.72   18.87   2 
  -8   1  -1   32.92   21.37  -1 
  -8   4   6   32.92   21.37   2 
  -5   3  -1  260.28   27.00  -1 
  -5   0   4  260.28   27.00   2 
  -5   8   5  192.47   31.22  -1 
  -5  -5  -2  192.47   31.22   2 
   0   5   8  196.46   18.41  -1 
   0  -5  -8  196.46   18.41   2 
   3   0  10   97.48   18.09  -1 
   3  -2 -12   97.48   18.09   2 
   3   0  11   76.15   20.13  -1 
   3  -2 -13   76.15   20.13   2 
   3   0  12   68.41   19.88  -1 
   3  -2 -14   68.41   19.88   2 
  -6   8   4   88.73   37.67  -1 
  -6  -4   0   88.73   37.67   2 
  -3   8   9   68.30   20.15  -1 
  -3  -6  -7   68.30   20.15   2 
  -3  -5  -2  682.82   21.70  -1 
  -3   7   4  682.82   21.70   2 
  -3  -9   0   91.59   24.74  -1 
  -3  11   2   91.59   24.74   2 
  -8  -2  -1  164.82   20.49  -1 
  -8   7   6  164.82   20.49   2 
  -8  -1  -1   58.14   20.65  -1 
  -8   6   6   58.14   20.65   2 
  -8   0  -1  256.97   21.33  -1 
  -8   5   6  256.97   21.33   2 
  -8   5   1   78.32   27.13  -1 
  -8   0   4   78.32   27.13   2 
  -5  -4  -2   16.77   18.14  -1 
  -5   7   5   16.77   18.14   2 
  -5   0  -2   72.35   21.95  -1 
  -5   3   5   72.35   21.95   2 
   0   5   7  651.60   21.06  -1 
   0  -5  -7  651.60   21.06   2 
   3   0   8  104.57   18.40  -1 
   3  -2 -10  104.57   18.40   2 
  -3   8   8  103.04   21.17  -1 
  -3  -6  -6  103.04   21.17   2 
  -3   2  -1 1279.89   39.67  -1 
  -3   0   3 1279.89   39.67   2 
  -3  -1  -2  572.07   20.19  -1 
  -3   3   4  572.07   20.19   2 
   3  -5   3  112.76   43.10  -1 
   3   3  -5  112.76   43.10   2 
  -8   6   2  192.44   34.02  -1 
  -8  -1   3  192.44   34.02   2 
  -5  -3  -2  192.54   21.18  -1 
  -5   6   5  192.54   21.18   2 
  -5  -1  -2 1189.68   30.07  -1 
  -5   4   5 1189.68   30.07   2 
  -2   4   1 1380.09   47.77  -1 
  -2  -3   0 1380.09   47.77   2 
   0  -9   1   75.39   19.87  -1 
   0   9  -1   75.39   19.87   2 
   0   4   4  119.67   13.57  -1 
   0  -4  -4  119.67   13.57   2 
   3   0   7   45.06   17.05  -1 
   3  -2  -9   45.06   17.05   2 
  -6   9   6   21.83   31.89  -1 
  -6  -5  -2   21.83   31.89   2 
  -3   8   7   25.12   23.18  -1 
  -3  -6  -5   25.12   23.18   2 
  -3  -2  -2 1007.12   24.24  -1 
  -3   4   4 1007.12   24.24   2 
  -3  -3  -2  308.06   19.53  -1 
  -3   5   4  308.06   19.53   2 
   0   5   6   56.82   17.38  -1 
   0  -5  -6   56.82   17.38   2 
  -8   3   0   58.77   19.70  -1 
  -8   2   5   58.77   19.70   2 
  -5  -6  -1  126.99   20.64  -1 
  -5   9   4  126.99   20.64   2 
   0 -10   2  567.02   25.68  -1 
   0  10  -2  567.02   25.68   2 
   0  -7   0   72.99   16.04  -1 
   0   7   0   72.99   16.04   2 
   3   1  11   48.09   17.88  -1 
   3  -3 -13   48.09   17.88   2 
   3   1  12   66.70   20.83  -1 
   3  -3 -14   66.70   20.83   2 
  -6   2  -1  112.75   21.64  -1 
  -6   2   5  112.75   21.64   2 
  -6  -4  -1  177.51   22.48  -1 
  -6   8   5  177.51   22.48   2 
  -3   7   4  464.58   27.43  -1 
  -3  -5  -2  464.58   27.43   2 
  -5   9   7  166.62   27.12  -1 
  -5  -6  -4  166.62   27.12   2 
   0 -11   3   35.48   17.29  -1 
   0  11  -3   35.48   17.29   2 
   0   6  10   92.35   18.23  -1 
   0  -6 -10   92.35   18.23   2 
   0   6  11   73.87   16.73  -1 
   0  -6 -11   73.87   16.73   2 
   2   0   3   79.30   16.98  -1 
   2  -1  -4   79.30   16.98   2 
   3 -10   6   26.84   40.73  -1 
   3   8  -8   26.84   40.73   2 
   3  -9   5   78.04   42.56  -1 
   3   7  -7   78.04   42.56   2 
  -6   4   0   88.25   24.84  -1 
  -6   0   4   88.25   24.84   2 
  -6  -6   0  109.65   21.76  -1 
  -6  10   4  109.65   21.76   2 
   0   6   9  127.18   20.30  -1 
   0  -6  -9  127.18   20.30   2 
   3  -4   3 1214.28   46.63  -1 
   3   2  -5 1214.28   46.63   2 
  -8   2   0  251.33   22.01  -1 
  -8   3   5  251.33   22.01   2 
  -5  -7   0  212.16   22.23  -1 
  -5  10   3  212.16   22.23   2 
  -5  -5  -1   29.47   18.24  -1 
  -5   8   4   29.47   18.24   2 
   0   5   5  822.51   22.81  -1 
   0  -5  -5  822.51   22.81   2 
  -6   1  -1  227.46   25.05  -1 
  -6   3   5  227.46   25.05   2 
  -3   8   6   89.50   22.33  -1 
  -3  -6  -4   89.50   22.33   2 
  -3  -9   1   40.53   20.64  -1 
  -3  11   1   40.53   20.64   2 
  -3 -10   2  113.66   24.62  -1 
  -3  12   0  113.66   24.62   2 
   0   3   2  623.05   23.11  -1 
   0  -3  -2  623.05   23.11   2 
  -8  -2   0   55.28   18.52  -1 
  -8   7   5   55.28   18.52   2 
  -8  -1   0   35.48   19.19  -1 
  -8   6   5   35.48   19.19   2 
  -8   1   0   56.57   18.97  -1 
  -8   4   5   56.57   18.97   2 
  -5  -4  -1  170.70   23.65  -1 
  -5   7   4  170.70   23.65   2 
  -5   2  -1 1334.07   31.43  -1 
  -5   1   4 1334.07   31.43   2 
  -5   4   0 1005.81   41.66  -1 
  -5  -1   3 1005.81   41.66   2 
   0  -8   1   48.92   20.08  -1 
   0   8  -1   48.92   20.08   2 
   0  -6   0 1348.97   25.98  -1 
   0   6   0 1348.97   25.98   2 
   3   2  11  121.89   23.02  -1 
   3  -4 -13  121.89   23.02   2 
  -6   0  -1   82.26   21.11  -1 
  -6   4   5   82.26   21.11   2 
  -6  -1  -1  111.04   20.62  -1 
  -6   5   5  111.04   20.62   2 
  -5   8   4   59.06   32.59  -1 
  -5  -5  -1   59.06   32.59   2 
  -3   9   9   61.02   24.51  -1 
  -3  -7  -7   61.02   24.51   2 
  -3  -7   0  113.51   21.70  -1 
  -3   9   2  113.51   21.70   2 
   0   6   7   68.44   19.44  -1 
   0  -6  -7   68.44   19.44   2 
   0   4   3  143.73   15.53  -1 
   0  -4  -3  143.73   15.53   2 
  -8   0   0  109.96   16.10  -1 
  -8   5   5  109.96   16.10   2 
  -8   4   1   36.74   22.13  -1 
  -8   1   4   36.74   22.13   2 
  -5  -8   1   91.70   23.13  -1 
  -5  11   2   91.70   23.13   2 
  -5   9   6  128.30   30.74  -1 
  -5  -6  -3  128.30   30.74   2 
   2  -1   2 2163.66   44.70  -1 
   2   0  -3 2163.66   44.70   2 
   3   2   9   65.07   17.69  -1 
   3  -4 -11   65.07   17.69   2 
   3   2  10   72.00   18.57  -1 
   3  -4 -12   72.00   18.57   2 
   0   2   1  548.17   24.74  -1 
   0  -2  -1  548.17   24.74   2 
  -5  -6   0   51.95   22.53  -1 
  -5   9   3   51.95   22.53   2 
  -5  -3  -1   47.91   19.60  -1 
  -5   6   4   47.91   19.60   2 
  -5   1  -1  179.34   21.15  -1 
  -5   2   4  179.34   21.15   2 
   0  -9   2   40.27   18.33  -1 
   0   9  -2   40.27   18.33   2 
   3   2   8   35.27   16.57  -1 
   3  -4 -10   35.27   16.57   2 
   5  -6  10   17.78   29.05  -1 
   5   3 -13   17.78   29.05   2 
   5  -5  10   54.75   25.26  -1 
   5   2 -13   54.75   25.26   2 
  -6   9   5   93.34   36.25  -1 
  -6  -5  -1   93.34   36.25   2 
  -6  -4   0  288.66   24.04  -1 
  -6   8   4  288.66   24.04   2 
  -3   8   5  237.66   24.03  -1 
  -3  -6  -3  237.66   24.03   2 
  -3   6   2  340.19   27.72  -1 
  -3  -4   0  340.19   27.72   2 
  -3   5   1  344.72   40.25  -1 
  -3  -3   1  344.72   40.25   2 
  -3   1  -1  517.38   27.38  -1 
  -3   1   3  517.38   27.38   2 
   0   6   6   54.86   17.78  -1 
   0  -6  -6   54.86   17.78   2 
   0   5   4 1061.02   26.11  -1 
   0  -5  -4 1061.02   26.11   2 
  -8  -3   1   33.78   19.29  -1 
  -8   8   4   33.78   19.29   2 
  -5   0  -1  377.02   23.47  -1 
  -5   3   4  377.02   23.47   2 
   0 -11   4   27.68   21.66  -1 
   0  11  -4   27.68   21.66   2 
   0 -10   3  180.34   21.65  -1 
   0  10  -3  180.34   21.65   2 
   0  -5   0  178.83   15.53  -1 
   0   5   0  178.83   15.53   2 
   0   7  10   50.65   18.06  -1 
   0  -7 -10   50.65   18.06   2 
   2   1   3  464.24   21.68  -1 
   2  -2  -4  464.24   21.68   2 
   3   2   7  130.63   20.95  -1 
   3  -4  -9  130.63   20.95   2 
   5  -4  10   10.92   22.70  -1 
   5   1 -13   10.92   22.70   2 
  -6   3   0  563.34   28.01  -1 
  -6   1   4  563.34   28.01   2 
  -3  -3  -1   29.89   16.61  -1 
  -3   5   3   29.89   16.61   2 
  -3  -6   0  340.05   20.94  -1 
  -3   8   2  340.05   20.94   2 
  -3  -9   2   97.00   23.59  -1 
  -3  11   0   97.00   23.59   2 
   0   7   9   61.58   20.44  -1 
   0  -7  -9   61.58   20.44   2 
   5  -3  11   26.29   21.87  -1 
   5   0 -14   26.29   21.87   2 
   5  -5   9   21.90   23.19  -1 
   5   2 -12   21.90   23.19   2 
   5  -6   9   23.77   25.93  -1 
   5   3 -12   23.77   25.93   2 
  -8   3   1   34.58   22.40  -1 
  -8   2   4   34.58   22.40   2 
  -6   5   1  239.19   35.42  -1 
  -6  -1   3  239.19   35.42   2 
  -5  -5   0  191.90   19.56  -1 
  -5   8   3  191.90   19.56   2 
  -5  -1  -1   94.15   18.47  -1 
  -5   4   4   94.15   18.47   2 
   0  -7   1  123.71   20.10  -1 
   0   7  -1  123.71   20.10   2 
   3   1   5  309.33   20.40  -1 
   3  -3  -7  309.33   20.40   2 
   3   3  10   80.68   19.52  -1 
   3  -5 -12   80.68   19.52   2 
   3   3  11   56.99   19.74  -1 
   3  -5 -13   56.99   19.74   2 
  -6  -3   0   98.52   20.15  -1 
  -6   7   4   98.52   20.15   2 
  -3   9   7   82.55   23.13  -1 
  -3  -7  -5   82.55   23.13   2 
  -3   7   3   34.46   24.25  -1 
  -3  -5  -1   34.46   24.25   2 
  -3   0  -1  501.79   24.46  -1 
  -3   2   3  501.79   24.46   2 
  -3 -10   3   30.17   20.42  -1 
  -3  12  -1   30.17   20.42   2 
   0   7   8   79.73   21.73  -1 
   0  -7  -8   79.73   21.73   2 
   3   0   4   14.51   18.06  -1 
   3  -2  -6   14.51   18.06   2 
  -8  -2   1  115.73   18.65  -1 
  -8   7   4  115.73   18.65   2 
  -8   5   2   52.51   25.77  -1 
  -8   0   3   52.51   25.77   2 
  -5  -8   2   78.84   21.07  -1 
  -5  11   1   78.84   21.07   2 
   0   6   5    3.17   17.54  -1 
   0  -6  -5    3.17   17.54   2 
   3   3   9  146.71   18.65  -1 
   3  -5 -11  146.71   18.65   2 
   5  -7   9   32.97   30.09  -1 
   5   4 -12   32.97   30.09   2 
   5  -3   9   38.31   22.92  -1 
   5   0 -12   38.31   22.92   2 
  -6  -5   1   46.07   19.95  -1 
  -6   9   3   46.07   19.95   2 
  -3  -1  -1   33.29   16.12  -1 
  -3   3   3   33.29   16.12   2 
   5  -2  10   52.38   22.01  -1 
   5  -1 -13   52.38   22.01   2 
  -8  -1   1   47.57   15.68  -1 
  -8   6   4   47.57   15.68   2 
  -8   0   1  127.69   18.28  -1 
  -8   5   4  127.69   18.28   2 
  -8   1   1   27.67   17.43  -1 
  -8   4   4   27.67   17.43   2 
  -8   2   1  103.27   20.19  -1 
  -8   3   4  103.27   20.19   2 
  -5  -6   1  155.01   20.69  -1 
  -5   9   2  155.01   20.69   2 
  -5  -4   0   87.33   18.85  -1 
  -5   7   3   87.33   18.85   2 
   0   7   7  309.76   22.55  -1 
   0  -7  -7  309.76   22.55   2 
   3   3   8   70.94   17.29  -1 
   3  -5 -10   70.94   17.29   2 
   5  -4   8   50.35   24.35  -1 
   5   1 -11   50.35   24.35   2 
  -6   2   0  311.83   23.70  -1 
  -6   2   4  311.83   23.70   2 
  -6  -6   2  123.70   21.96  -1 
  -6  10   2  123.70   21.96   2 
  -3   9   6   14.55   23.02  -1 
  -3  -7  -4   14.55   23.02   2 
  -3  -5   0  213.05   18.23  -1 
  -3   7   2  213.05   18.23   2 
  -3  -7   1   46.97   17.94  -1 
  -3   9   1   46.97   17.94   2 
   3   3   7  312.31   19.02  -1 
   3  -5  -9  312.31   19.02   2 
   5  -3   8   81.78   22.56  -1 
   5   0 -11   81.78   22.56   2 
  -6   1   0  134.62   23.67  -1 
  -6   3   4  134.62   23.67   2 
  -6   0   0  464.43   26.73  -1 
  -6   4   4  464.43   26.73   2 
  -6  -4   1   40.66   22.29  -1 
  -6   8   3   40.66   22.29   2 
  -3   8   4   16.81   20.32  -1 
  -3  -6  -2   16.81   20.32   2 
  -3  -8   2  288.49   22.38  -1 
  -3  10   0  288.49   22.38   2 
   0   5   3   25.54   15.46  -1 
   0  -5  -3   25.54   15.46   2 
   3   4  10   57.35   21.16  -1 
   3  -6 -12   57.35   21.16   2 
   5  -1  10   32.49   21.81  -1 
   5  -2 -13   32.49   21.81   2 
  -8  -3   2   50.76   15.42  -1 
  -8   8   3   50.76   15.42   2 
  -5  -7   2   18.79   20.13  -1 
  -5  10   1   18.79   20.13   2 
  -5   3   0   79.27   22.56  -1 
  -5   0   3   79.27   22.56   2 
   0 -11   5   28.62   19.84  -1 
   0  11  -5   28.62   19.84   2 
   0  -9   3   55.90   18.11  -1 
   0   9  -3   55.90   18.11   2 
   0   7   6   26.05   17.51  -1 
   0  -7  -6   26.05   17.51   2 
   3   1   4  481.77   20.15  -1 
   3  -3  -6  481.77   20.15   2 
   5  -2   8   85.89   23.56  -1 
   5  -1 -11   85.89   23.56   2 
  -3  -9   3   54.41   19.75  -1 
  -3  11  -1   54.41   19.75   2 
  -3 -10   4   73.74   20.49  -1 
  -3  12  -2   73.74   20.49   2 
   0   8   9   87.00   22.28  -1 
   0  -8  -9   87.00   22.28   2 
   5  -1   9   27.99   20.44  -1 
   5  -2 -12   27.99   20.44   2 
  -8  -2   2  158.84   21.44  -1 
  -8   7   3  158.84   21.44   2 
  -5  -5   1  145.19   18.66  -1 
  -5   8   2  145.19   18.66   2 
   0 -10   4   90.50   18.05  -1 
   0  10  -4   90.50   18.05   2 
   0  -6   1   41.14   14.83  -1 
   0   6  -1   41.14   14.83   2 
   0   6   4   76.86   13.34  -1 
   0  -6  -4   76.86   13.34   2 
   3   3   6   34.85   15.21  -1 
   3  -5  -8   34.85   15.21   2 
   5  -5   7  327.78   28.29  -1 
   5   2 -10  327.78   28.29   2 
   5  -4   7   55.83   22.72  -1 
   5   1 -10   55.83   22.72   2 
   5  -3   7  188.14   22.50  -1 
   5   0 -10  188.14   22.50   2 
   0   8   8   63.10   21.43  -1 
   0  -8  -8   63.10   21.43   2 
   5   0  10   42.58   22.68  -1 
   5  -3 -13   42.58   22.68   2 
  -8   4   2  325.76   25.27  -1 
  -8   1   3  325.76   25.27   2 
  -8   6   3   69.35   28.57  -1 
  -8  -1   2   69.35   28.57   2 
  -5  -2   0  352.92   20.80  -1 
  -5   5   3  352.92   20.80   2 
  -5   5   1  196.05   39.70  -1 
  -5  -2   2  196.05   39.70   2 
   2   1   2 1830.08   36.97  -1 
   2  -2  -3 1830.08   36.97   2 
   3   0   3 2176.25   33.44  -1 
   3  -2  -5 2176.25   33.44   2 
  -3   9   5  122.81   25.70  -1 
  -3  -7  -3  122.81   25.70   2 
  -2   5   1  223.94   29.88  -1 
  -2  -4   0  223.94   29.88   2 
   5   0   9  141.90   22.93  -1 
   5  -3 -12  141.90   22.93   2 
   5  -2   7   40.20   20.03  -1 
   5  -1 -10   40.20   20.03   2 
  -8  -1   2   48.06   16.16  -1 
  -8   6   3   48.06   16.16   2 
  -5  -6   2  467.37   23.26  -1 
  -5   9   1  467.37   23.26   2 
  -5   2   0  531.26   27.08  -1 
  -5   1   3  531.26   27.08   2 
  -5  10   6   48.86   32.49  -1 
  -5  -7  -3   48.86   32.49   2 
   0   7   5  405.23   18.67  -1 
   0  -7  -5  405.23   18.67   2 
   3   4   7   34.13   16.59  -1 
   3  -6  -9   34.13   16.59   2 
   5  -6   7   23.17   29.87  -1 
   5   3 -10   23.17   29.87   2 
  -6   4   1  110.30   25.31  -1 
  -6   0   3  110.30   25.31   2 
  -6  -6   3  117.32   22.84  -1 
  -6  10   1  117.32   22.84   2 
  -3  10   7   20.67   25.26  -1 
  -3  -8  -5   20.67   25.26   2 
  -3   3   0  303.54   37.21  -1 
  -3  -1   2  303.54   37.21   2 
  -3  -3   0  404.91   21.65  -1 
  -3   5   2  404.91   21.65   2 
  -3  -7   2   23.49   18.36  -1 
  -3   9   0   23.49   18.36   2 
   3   3   5  266.65   20.99  -1 
   3  -5  -7  266.65   20.99   2 
   3   2   4   73.90   17.65  -1 
   3  -4  -6   73.90   17.65   2 
  -8  -3   3   27.25   18.55  -1 
  -8   8   2   27.25   18.55   2 
  -8   0   2  259.89   19.77  -1 
  -8   5   3  259.89   19.77   2 
  -8   1   2   47.06   17.45  -1 
  -8   4   3   47.06   17.45   2 
  -8   2   2  395.11   26.04  -1 
  -8   3   3  395.11   26.04   2 
  -8   3   2   33.90   20.21  -1 
  -8   2   3   33.90   20.21   2 
  -5   0   0 1074.35   28.65  -1 
  -5   3   3 1074.35   28.65   2 
  -5   1   0  162.54   21.68  -1 
  -5   2   3  162.54   21.68   2 
   0 -11   6   71.31   20.52  -1 
   0  11  -6   71.31   20.52   2 
   0  -2   0 5242.51   67.39  -1 
   0   2   0 5242.51   67.39   2 
   2   3   3  606.71   21.92  -1 
   2  -4  -4  606.71   21.92   2 
   3 -10   7  133.03   40.02  -1 
   3   8  -9  133.03   40.02   2 
   3  -7   4   92.24   48.73  -1 
   3   5  -6   92.24   48.73   2 
   3   5   9   58.77   17.45  -1 
   3  -7 -11   58.77   17.45   2 
   5   0   8   44.61   18.77  -1 
   5  -3 -11   44.61   18.77   2 
  -5   8   3  241.37   45.17  -1 
  -5  -5   0  241.37   45.17   2 
  -3  -5   1  179.59   20.94  -1 
  -3   7   1  179.59   20.94   2 
  -3  -9   4   29.92   18.58  -1 
  -3  11  -2   29.92   18.58   2 
  -3 -10   5   43.34   19.57  -1 
  -3  12  -3   43.34   19.57   2 
   5   1   9   48.60   23.66  -1 
   5  -4 -12   48.60   23.66   2 
  -5  -8   4  202.80   22.29  -1 
  -5  11  -1  202.80   22.29   2 
   0  -7   2   47.05   15.19  -1 
   0   7  -2   47.05   15.19   2 
   3   4   6   86.76   16.33  -1 
   3  -6  -8   86.76   16.33   2 
   3   5   8   54.39   17.85  -1 
   3  -7 -10   54.39   17.85   2 
   5  -3   6   21.21   18.62  -1 
   5   0  -9   21.21   18.62   2 
   5  -2   6   86.33   22.42  -1 
   5  -1  -9   86.33   22.42   2 
  -6   6   2   89.38   41.70  -1 
  -6  -2   2   89.38   41.70   2 
   0   8   6   75.51   18.16  -1 
   0  -8  -6   75.51   18.16   2 
  -8  -2   3   44.29   20.67  -1 
  -8   7   2   44.29   20.67   2 
  -5  -5   2  105.54   17.73  -1 
  -5   8   1  105.54   17.73   2 
  -5  -3   1  392.96   23.73  -1 
  -5   6   2  392.96   23.73   2 
   0 -10   5  312.52   23.77  -1 
   0  10  -5  312.52   23.77   2 
   0  -5   1  227.81   18.25  -1 
   0   5  -1  227.81   18.25   2 
   0   5   2  595.31   21.32  -1 
   0  -5  -2  595.31   21.32   2 
   2   2   2   23.90   16.95  -1 
   2  -3  -3   23.90   16.95   2 
   5  -5   6   27.94   26.00  -1 
   5   2  -9   27.94   26.00   2 
   5   0   7   64.54   18.39  -1 
   5  -3 -10   64.54   18.39   2 
  -6   3   1  366.07   28.52  -1 
  -6   1   3  366.07   28.52   2 
  -6  -5   3  142.14   23.63  -1 
  -6   9   1  142.14   23.63   2 
  -5   9   4  153.66   36.39  -1 
  -5  -6  -1  153.66   36.39   2 
  -3  10   6   62.60   24.99  -1 
  -3  -8  -4   62.60   24.99   2 
  -3   8   3   83.85   26.03  -1 
  -3  -6  -1   83.85   26.03   2 
   0   7   4  558.54   23.02  -1 
   0  -7  -4  558.54   23.02   2 
   0  -9   4   51.60   18.57  -1 
   0   9  -4   51.60   18.57   2 
   5  -8   8   24.76   52.59  -1 
   5   5 -11   24.76   52.59   2 
   5  -7   7  267.58   41.24  -1 
   5   4 -10  267.58   41.24   2 
   5   2   9   65.78   19.90  -1 
   5  -5 -12   65.78   19.90   2 
  -6   2   1  272.06   23.51  -1 
  -6   2   3  272.06   23.51   2 
  -6   1   1  213.02   23.82  -1 
  -6   3   3  213.02   23.82   2 
  -3   7   2  645.06   33.05  -1 
  -3  -5   0  645.06   33.05   2 
   3  -1   2  613.17   27.70  -1 
   3  -1  -4  613.17   27.70   2 
   3  -2   2 1365.10   39.27  -1 
   3   0  -4 1365.10   39.27   2 
  -8  -3   4   37.46   20.01  -1 
  -8   8   1   37.46   20.01   2 
  -8  -1   3   85.62   19.93  -1 
  -8   6   2   85.62   19.93   2 
  -8   5   3  232.21   27.86  -1 
  -8   0   2  232.21   27.86   2 
  -8   7   4  186.31   36.51  -1 
  -8  -2   1  186.31   36.51   2 
  -5  -6   3   17.11   18.43  -1 
  -5   9   0   17.11   18.43   2 
   2   4   3  122.86   18.64  -1 
   2  -5  -4  122.86   18.64   2 
   3  -9   6   45.40   34.73  -1 
   3   7  -8   45.40   34.73   2 
   3   5   6   99.30   17.03  -1 
   3  -7  -8   99.30   17.03   2 
   3   6   8   74.44   24.14  -1 
   3  -8 -10   74.44   24.14   2 
   5   0   6  161.09   21.84  -1 
   5  -3  -9  161.09   21.84   2 
   5   1   7   74.26   19.23  -1 
   5  -4 -10   74.26   19.23   2 
  -6   9   4   19.68   58.03  -1 
  -6  -5   0   19.68   58.03   2 
  -3   9   4  251.01   28.07  -1 
  -3  -7  -2  251.01   28.07   2 
  -3  -1   0  394.50   20.78  -1 
  -3   3   2  394.50   20.78   2 
  -3  -4   1  124.22   18.21  -1 
  -3   6   1  124.22   18.21   2 
  -3  -7   3  143.56   22.30  -1 
  -3   9  -1  143.56   22.30   2 
  -3  -9   5   44.45   21.91  -1 
  -3  11  -3   44.45   21.91   2 
   0   9   7  145.70   22.15  -1 
   0  -9  -7  145.70   22.15   2 
   3  -3   2  743.31   38.25  -1 
   3   1  -4  743.31   38.25   2 
   5   2   8   34.11   20.80  -1 
   5  -5 -11   34.11   20.80   2 
  -8   0   3   67.39   17.98  -1 
  -8   5   2   67.39   17.98   2 
   0 -11   7   55.58   20.02  -1 
   0  11  -7   55.58   20.02   2 
   0   4   1  364.24   20.80  -1 
   0  -4  -1  364.24   20.80   2 
   5  -6   6   51.68   33.96  -1 
   5   3  -9   51.68   33.96   2 
   5  -3   5  739.18   29.87  -1 
   5   0  -8  739.18   29.87   2 
  -6  -4   3  186.88   23.81  -1 
  -6   8   1  186.88   23.81   2 
  -3   2   0 2634.88   55.25  -1 
  -3   0   2 2634.88   55.25   2 
  -3   0   0 2649.84   41.50  -1 
  -3   2   2 2649.84   41.50   2 
  -3  -8   4   84.50   19.26  -1 
  -3  10  -2   84.50   19.26   2 
  -8   1   3  155.98   19.87  -1 
  -8   4   2  155.98   19.87   2 
  -8   4   3  104.64   23.27  -1 
  -8   1   2  104.64   23.27   2 
   2   3   2 1189.30   29.93  -1 
   2  -4  -3 1189.30   29.93   2 
   3   6   7   46.09   18.34  -1 
   3  -8  -9   46.09   18.34   2 
   5  -4   5   39.61   24.97  -1 
   5   1  -8   39.61   24.97   2 
   5   1   6   65.62   19.24  -1 
   5  -4  -9   65.62   19.24   2 
   5   2   7   49.23   20.15  -1 
   5  -5 -10   49.23   20.15   2 
  -3  10   5   50.35   24.44  -1 
  -3  -8  -3   50.35   24.44   2 
  -3   1   0  137.99   23.67  -1 
  -3   1   2  137.99   23.67   2 
   0   9   6   52.11   19.29  -1 
   0  -9  -6   52.11   19.29   2 
   5   3   8  114.24   23.00  -1 
   5  -6 -11  114.24   23.00   2 
  -8  -2   4   96.26   18.08  -1 
  -8   7   1   96.26   18.08   2 
  -8   2   3   87.11   20.72  -1 
  -8   3   2   87.11   20.72   2 
  -8   3   3  215.39   24.91  -1 
  -8   2   2  215.39   24.91   2 
  -5  -5   3  108.26   20.20  -1 
  -5   8   0  108.26   20.20   2 
  -5  -1   1  245.94   20.01  -1 
  -5   4   2  245.94   20.01   2 
   0  -6   2 2354.78   35.50  -1 
   0   6  -2 2354.78   35.50   2 
   0   7   3   41.25   18.65  -1 
   0  -7  -3   41.25   18.65   2 
   3   3   3  175.34   17.20  -1 
   3  -5  -5  175.34   17.20   2 
   5   0   5   69.62   24.27  -1 
   5  -3  -8   69.62   24.27   2 
  -3  -5   2  117.66   18.01  -1 
  -3   7   0  117.66   18.01   2 
   0   8   4   12.16   19.09  -1 
   0  -8  -4   12.16   19.09   2 
   0   6   2   35.20   15.17  -1 
   0  -6  -2   35.20   15.17   2 
   0 -10   6   34.98   19.77  -1 
   0  10  -6   34.98   19.77   2 
  -5  -6   4  213.57   22.83  -1 
  -5   9  -1  213.57   22.83   2 
  -5  -3   2   48.03   20.74  -1 
  -5   6   1   48.03   20.74   2 
  -5   4   1   44.00   27.57  -1 
  -5  -1   2   44.00   27.57   2 
   0  -4   1  143.84   18.30  -1 
   0   4  -1  143.84   18.30   2 
   5   2   6   86.89   20.18  -1 
   5  -5  -9   86.89   20.18   2 
   5   3   7   72.72   22.84  -1 
   5  -6 -10   72.72   22.84   2 
  -6  -3   3  110.28   22.80  -1 
  -6   7   1  110.28   22.80   2 
  -3  -9   6  206.85   24.53  -1 
  -3  11  -4  206.85   24.53   2 
  -8  -3   5   75.30   15.88  -1 
  -8   8   0   75.30   15.88   2 
  -8  -1   4   35.11   16.10  -1 
  -8   6   1   35.11   16.10   2 
  -5  -7   5   37.57   19.47  -1 
  -5  10  -2   37.57   19.47   2 
  -5   0   1  816.64   24.50  -1 
  -5   3   2  816.64   24.50   2 
   0  -9   5   44.59   19.52  -1 
   0   9  -5   44.59   19.52   2 
   0  -7   3   29.31   18.16  -1 
   0   7  -3   29.31   18.16   2 
   2   4   2   45.26   21.65  -1 
   2  -5  -3   45.26   21.65   2 
   5  -5   5  463.09   36.28  -1 
   5   2  -8  463.09   36.28   2 
   5   1   5  217.16   20.98  -1 
   5  -4  -8  217.16   20.98   2 
  -6   5   2  673.29   40.10  -1 
  -6  -1   2  673.29   40.10   2 
  -6  -4   4   49.82   22.04  -1 
  -6   8   0   49.82   22.04   2 
   0   9   5  271.04   22.86  -1 
   0  -9  -5  271.04   22.86   2 
   3   7   7   72.69   24.06  -1 
   3  -9  -9   72.69   24.06   2 
   3   5   4  185.53   19.84  -1 
   3  -7  -6  185.53   19.84   2 
  -8   8   5   23.18   38.12  -1 
  -8  -3   0   23.18   38.12   2 
  -5   1   1  684.08   25.98  -1 
  -5   2   2  684.08   25.98   2 
  -3   6   1  252.87   34.35  -1 
  -3  -4   1  252.87   34.35   2 
  -2 -10   7   95.78   28.09  -1 
  -2  11  -6   95.78   28.09   2 
   0  -8   4  144.16   20.16  -1 
   0   8  -4  144.16   20.16   2 
   3   4   3  316.64   18.45  -1 
   3  -6  -5  316.64   18.45   2 
   3   6   5   36.92   16.95  -1 
   3  -8  -7   36.92   16.95   2 
   5  -2   4   49.12   22.75  -1 
   5  -1  -7   49.12   22.75   2 
   5   3   6   65.98   22.78  -1 
   5  -6  -9   65.98   22.78   2 
  -6  -2   3  156.23   26.12  -1 
  -6   6   1  156.23   26.12   2 
   6  -4   6   42.03   27.19  -1 
   6   0 -10   42.03   27.19   2 
  -8  -2   5  103.42   21.30  -1 
  -8   7   0  103.42   21.30   2 
  -8   0   4  116.79   16.09  -1 
  -8   5   1  116.79   16.09   2 
  -8   6   4   31.42   21.87  -1 
  -8  -1   1   31.42   21.87   2 
  -5  -4   3   51.11   17.23  -1 
  -5   7   0   51.11   17.23   2 
  -5   2   1  596.10   27.06  -1 
  -5   1   2  596.10   27.06   2 
  -5   3   1  436.28   26.47  -1 
  -5   0   2  436.28   26.47   2 
   3 -10   8   87.01   33.03  -1 
   3   8 -10   87.01   33.03   2 
   3   7   6   42.53   22.16  -1 
   3  -9  -8   42.53   22.16   2 
   5  -3   4  291.86   25.65  -1 
   5   0  -7  291.86   25.65   2 
   5   0   4   50.05   23.47  -1 
   5  -3  -7   50.05   23.47   2 
   5   4   7   66.07   19.87  -1 
   5  -7 -10   66.07   19.87   2 
  -6  -6   6   14.20   18.49  -1 
  -6  10  -2   14.20   18.49   2 
  -3  10   4   49.46   27.93  -1 
  -3  -8  -2   49.46   27.93   2 
  -3   9   3   59.16   22.76  -1 
  -3  -7  -1   59.16   22.76   2 
  -8  -3   6   98.50   19.00  -1 
  -8   8  -1   98.50   19.00   2 
  -8   1   4   71.52   17.48  -1 
  -8   4   1   71.52   17.48   2 
  -5  -7   6   73.88   24.94  -1 
  -5  10  -3   73.88   24.94   2 
  -5  -5   4  115.85   18.42  -1 
  -5   8  -1  115.85   18.42   2 
   0   8   3  168.15   20.24  -1 
   0  -8  -3  168.15   20.24   2 
   3   3   2  259.12   18.46  -1 
   3  -5  -4  259.12   18.46   2 
   5   1   4   66.59   24.95  -1 
   5  -4  -7   66.59   24.95   2 
  -6   4   2   92.22   26.01  -1 
  -6   0   2   92.22   26.01   2 
  -6   3   2  820.78   30.25  -1 
  -6   1   2  820.78   30.25   2 
  -3  -9   7   79.21   22.77  -1 
  -3  11  -5   79.21   22.77   2 
   0   7   2  456.35   23.20  -1 
   0  -7  -2  456.35   23.20   2 
   0 -10   7   91.35   20.74  -1 
   0  10  -7   91.35   20.74   2 
   5   4   6   98.38   22.37  -1 
   5  -7  -9   98.38   22.37   2 
  -8  -1   5  140.51   20.50  -1 
  -8   6   0  140.51   20.50   2 
  -8   2   4   55.61   17.59  -1 
  -8   3   1   55.61   17.59   2 
  -8   5   4  149.32   23.40  -1 
  -8   0   1  149.32   23.40   2 
  -5  -6   5  154.99   19.68  -1 
  -5   9  -2  154.99   19.68   2 
  -3   8   2  158.73   27.82  -1 
  -3  -6   0  158.73   27.82   2 
   2   3   1  632.96   25.62  -1 
   2  -4  -2  632.96   25.62   2 
   2   5   2 1086.18   27.21  -1 
   2  -6  -3 1086.18   27.21   2 
   3   5   3   72.14   16.20  -1 
   3  -7  -5   72.14   16.20   2 
   3   6   4   62.15   18.44  -1 
   3  -8  -6   62.15   18.44   2 
   5   3   5  146.18   20.02  -1 
   5  -6  -8  146.18   20.02   2 
  -3  11   5   78.23   27.09  -1 
  -3  -9  -3   78.23   27.09   2 
  -3  -8   6   88.53   22.63  -1 
  -3  10  -4   88.53   22.63   2 
   3   7   5  119.51   22.26  -1 
   3  -9  -7  119.51   22.26   2 
   6  -1   5   16.69   23.88  -1 
   6  -3  -9   16.69   23.88   2 
   6  -2   5  233.94   25.72  -1 
   6  -2  -9  233.94   25.72   2 
  -8   3   4  216.56   22.48  -1 
  -8   2   1  216.56   22.48   2 
  -8   4   4   13.08   20.17  -1 
  -8   1   1   13.08   20.17   2 
  -5  -1   2   40.79   19.54  -1 
  -5   4   1   40.79   19.54   2 
   0  -5   2   49.42   16.11  -1 
   0   5  -2   49.42   16.11   2 
   5  -4   4   54.99   23.24  -1 
   5   1  -7   54.99   23.24   2 
   5   2   4  107.99   19.74  -1 
   5  -5  -7  107.99   19.74   2 
   0  10   5   32.62   20.43  -1 
   0 -10  -5   32.62   20.43   2 
   3   4   2   19.09   17.28  -1 
   3  -6  -4   19.09   17.28   2 
   3   0   1  457.29   24.74  -1 
   3  -2  -3  457.29   24.74   2 
   6  -3   5   40.42   20.16  -1 
   6  -1  -9   40.42   20.16   2 
  -8  -2   6   42.12   18.16  -1 
  -8   7  -1   42.12   18.16   2 
   0  -9   6  147.75   21.29  -1 
   0   9  -6  147.75   21.29   2 
   0   6   1  560.16   21.15  -1 
   0  -6  -1  560.16   21.15   2 
   5   5   6   45.70   20.87  -1 
   5  -8  -9   45.70   20.87   2 
   3   1   1   23.17   15.52  -1 
   3  -3  -3   23.17   15.52   2 
   3  -1   1  447.96   28.99  -1 
   3  -1  -3  447.96   28.99   2 
  -8   0   5   42.65   14.17  -1 
  -8   5   0   42.65   14.17   2 
  -5  -7   7   43.33   20.15  -1 
  -5  10  -4   43.33   20.15   2 
   2   4   1   29.87   19.44  -1 
   2  -5  -2   29.87   19.44   2 
   3   7   4  107.66   19.84  -1 
   3  -9  -6  107.66   19.84   2 
   5  -1   3  179.44   21.71  -1 
   5  -2  -6  179.44   21.71   2 
   5   1   3   99.59   21.85  -1 
   5  -4  -6   99.59   21.85   2 
   5   3   4  124.22   19.21  -1 
   5  -6  -7  124.22   19.21   2 
  -5   9   3   43.92   47.57  -1 
  -5  -6   0   43.92   47.57   2 
  -3  -3   2  116.76   17.53  -1 
  -3   5   0  116.76   17.53   2 
  -3  -9   8   36.10   20.06  -1 
  -3  11  -6   36.10   20.06   2 
   0  -3   1   36.59   16.36  -1 
   0   3  -1   36.59   16.36   2 
   3   2   1  530.15   22.04  -1 
   3  -4  -3  530.15   22.04   2 
  -5  -6   6   44.32   19.96  -1 
  -5   9  -3   44.32   19.96   2 
  -5   0   2 1974.00   34.00  -1 
  -5   3   1 1974.00   34.00   2 
   0 -10   8  117.43   23.05  -1 
   0  10  -8  117.43   23.05   2 
   0   8   2   59.20   20.02  -1 
   0  -8  -2   59.20   20.02   2 
   0   9   3  110.65   17.00  -1 
   0  -9  -3  110.65   17.00   2 
   5  -6   5  113.43   46.17  -1 
   5   3  -8  113.43   46.17   2 
   5  -2   3  302.20   23.79  -1 
   5  -1  -6  302.20   23.79   2 
   5   5   5  123.05   22.79  -1 
   5  -8  -8  123.05   22.79   2 
  -6  -3   5  194.14   24.74  -1 
  -6   7  -1  194.14   24.74   2 
  -6  -6   8   67.85   23.56  -1 
  -6  10  -4   67.85   23.56   2 
  -3  -8   7  109.28   23.47  -1 
  -3  10  -5  109.28   23.47   2 
   0  10   4   11.97   19.57  -1 
   0 -10  -4   11.97   19.57   2 
   0   4   0 2271.69   41.88  -1 
   0  -4   0 2271.69   41.88   2 
   6   0   4   52.88   22.49  -1 
   6  -4  -8   52.88   22.49   2 
  -8  -1   6  175.31   17.03  -1 
  -8   6  -1  175.31   17.03   2 
  -8   1   5   86.02   13.88  -1 
  -8   4   0   86.02   13.88   2 
  -8   7   5   41.95   27.34  -1 
  -8  -2   0   41.95   27.34   2 
  -5  -2   3   18.72   17.65  -1 
  -5   5   0   18.72   17.65   2 
   2   5   1  177.78   21.73  -1 
   2  -6  -2  177.78   21.73   2 
   3  -9   7   91.64   32.00  -1 
   3   7  -9   91.64   32.00   2 
   3   3   1   15.48   15.21  -1 
   3  -5  -3   15.48   15.21   2 
   5   2   3   85.93   19.90  -1 
   5  -5  -6   85.93   19.90   2 
   5   4   4   51.68   19.30  -1 
   5  -7  -7   51.68   19.30   2 
  -6   7   3   94.36   45.35  -1 
  -6  -3   1   94.36   45.35   2 
  -6   1   3  126.24   26.65  -1 
  -6   3   1  126.24   26.65   2 
  -3  10   3   51.47   28.21  -1 
  -3  -8  -1   51.47   28.21   2 
  -8  -2   7   33.00   15.33  -1 
  -8   7  -2   33.00   15.33   2 
  -8   2   5  183.70   17.95  -1 
  -8   3   0  183.70   17.95   2 
   0   7   1  147.46   17.86  -1 
   0  -7  -1  147.46   17.86   2 
   3   7   3   66.85   19.00  -1 
   3  -9  -5   66.85   19.00   2 
   5   3   3  237.33   22.45  -1 
   5  -6  -6  237.33   22.45   2 
  -3  11   4   63.72   28.88  -1 
  -3  -9  -2   63.72   28.88   2 
  -3  -5   4  216.98   22.09  -1 
  -3   7  -2  216.98   22.09   2 
   3   8   4   94.65   23.22  -1 
   3 -10  -6   94.65   23.22   2 
   3   4   1  180.26   20.36  -1 
   3  -6  -3  180.26   20.36   2 
   6  -3   4   35.90   23.31  -1 
   6  -1  -8   35.90   23.31   2 
   6  -5   5   13.65   28.33  -1 
   6   1  -9   13.65   28.33   2 
  -8   0   6   44.69   17.63  -1 
  -8   5  -1   44.69   17.63   2 
  -5  -3   4  127.08   18.39  -1 
  -5   6  -1  127.08   18.39   2 
   0  -9   7  155.91   23.17  -1 
   0   9  -7  155.91   23.17   2 
   3   6   2   32.82   18.62  -1 
   3  -8  -4   32.82   18.62   2 
   5  -5   4  427.53   40.84  -1 
   5   2  -7  427.53   40.84   2 
   5   5   4   54.39   18.76  -1 
   5  -8  -7   54.39   18.76   2 
  -3  -2   2  780.49   25.74  -1 
  -3   4   0  780.49   25.74   2 
  -3  -6   5  362.58   21.55  -1 
  -3   8  -3  362.58   21.55   2 
  -8   3   5  147.15   20.58  -1 
  -8   2   0  147.15   20.58   2 
  -8   4   5  178.93   22.96  -1 
  -8   1   0  178.93   22.96   2 
  -8   6   5   20.58   19.62  -1 
  -8  -1   0   20.58   19.62   2 
  -5  -6   7  163.32   19.99  -1 
  -5   9  -4  163.32   19.99   2 
  -5  -4   5  236.78   18.74  -1 
  -5   7  -2  236.78   18.74   2 
  -3   7   1  500.40   35.85  -1 
  -3  -5   1  500.40   35.85   2 
  -3   9   2  302.03   29.32  -1 
  -3  -7   0  302.03   29.32   2 
   0 -10   9   25.32   21.45  -1 
   0  10  -9   25.32   21.45   2 
   5   4   3   72.46   19.24  -1 
   5  -7  -6   72.46   19.24   2 
  -6  -5   8   25.65   21.00  -1 
  -6   9  -4   25.65   21.00   2 
  -3  -8   8   39.22   20.99  -1 
  -3  10  -6   39.22   20.99   2 
   0  10   3   78.65   20.81  -1 
   0 -10  -3   78.65   20.81   2 
   6   0   3  789.34   30.80  -1 
   6  -4  -7  789.34   30.80   2 
   6  -1   3   63.97   22.28  -1 
   6  -3  -7   63.97   22.28   2 
   6  -4   4   95.67   29.38  -1 
   6   0  -8   95.67   29.38   2 
  -8  -2   8   46.94   17.64  -1 
  -8   7  -3   46.94   17.64   2 
  -8  -1   7   48.48   14.92  -1 
  -8   6  -2   48.48   14.92   2 
  -8   5   5   63.97   22.40  -1 
  -8   0   0   63.97   22.40   2 
  -5  -7   9  133.58   23.58  -1 
  -5  10  -6  133.58   23.58   2 
  -5  -1   3  257.66   19.70  -1 
  -5   4   0  257.66   19.70   2 
   3   5   1   57.49   16.50  -1 
   3  -7  -3   57.49   16.50   2 
   3   8   3   84.35   23.13  -1 
   3 -10  -5   84.35   23.13   2 
   5  -1   2 1048.59   29.70  -1 
   5  -2  -5 1048.59   29.70   2 
   5   2   2  161.03   22.61  -1 
   5  -5  -5  161.03   22.61   2 
  -6   0   4   81.12   25.94  -1 
  -6   4   0   81.12   25.94   2 
   6   1   3   97.34   20.02  -1 
   6  -5  -7   97.34   20.02   2 
  -8   1   6  380.74   17.06  -1 
  -8   4  -1  380.74   17.06   2 
  -2  -9   9   48.20   26.43  -1 
  -2  10  -8   48.20   26.43   2 
   3  -8   6   81.80   35.59  -1 
   3   6  -8   81.80   35.59   2 
   5   5   3  177.41   21.61  -1 
   5  -8  -6  177.41   21.61   2 
  -6   6   3   63.67   35.73  -1 
  -6  -2   1   63.67   35.73   2 
   6  -2   3  322.98   25.30  -1 
   6  -2  -7  322.98   25.30   2 
  -8   0   7   46.75   17.22  -1 
  -8   5  -2   46.75   17.22   2 
  -5  -2   4 1005.71   26.85  -1 
  -5   5  -1 1005.71   26.85   2 
  -5   6   2  777.55   54.98  -1 
  -5  -3   1  777.55   54.98   2 
   5  -2   2   69.36   22.31  -1 
   5  -1  -5   69.36   22.31   2 
   5   4   2   32.36   18.67  -1 
   5  -7  -5   32.36   18.67   2 
  -6   5   3   31.03   29.32  -1 
  -6  -1   1   31.03   29.32   2 
  -6   4   3  120.36   23.81  -1 
  -6   0   1  120.36   23.81   2 
  -3  -3   3  643.79   22.65  -1 
  -3   5  -1  643.79   22.65   2 
   3   6   1  189.48   21.49  -1 
   3  -8  -3  189.48   21.49   2 
   3   3   0  336.54   20.50  -1 
   3  -5  -2  336.54   20.50   2 
   3   2   0 1216.98   29.77  -1 
   3  -4  -2 1216.98   29.77   2 
  -8  -1   8  141.45   19.73  -1 
  -8   6  -3  141.45   19.73   2 
  -8   2   6   76.39   13.38  -1 
  -8   3  -1   76.39   13.38   2 
  -5  -5   7   51.66   19.33  -1 
  -5   8  -4   51.66   19.33   2 
  -5  -3   5  135.77   20.59  -1 
  -5   6  -2  135.77   20.59   2 
  -5   0   3   57.62   21.26  -1 
  -5   3   0   57.62   21.26   2 
  -5   3   2  272.87   24.61  -1 
  -5   0   1  272.87   24.61   2 
   0  -9   8   23.54   20.51  -1 
   0   9  -8   23.54   20.51   2 
   0  -7   5   22.10   17.16  -1 
   0   7  -5   22.10   17.16   2 
   2   5   0 1381.78   29.97  -1 
   2  -6  -1 1381.78   29.97   2 
   5   6   3   91.54   19.71  -1 
   5  -9  -6   91.54   19.71   2 
  -6   1   4 1370.18   34.98  -1 
  -6   3   0 1370.18   34.98   2 
  -6  -4   8   98.18   23.60  -1 
  -6   8  -4   98.18   23.60   2 
  -3  11   3   39.67   30.15  -1 
  -3  -9  -1   39.67   30.15   2 
   3   9   3   46.60   22.70  -1 
   3 -11  -5   46.60   22.70   2 
   6  -3   3   81.11   22.75  -1 
   6  -1  -7   81.11   22.75   2 
  -8   3   6  408.45   21.54  -1 
  -8   2  -1  408.45   21.54   2 
  -5  -4   6   67.86   17.35  -1 
  -5   7  -3   67.86   17.35   2 
  -5   4   2  870.09   35.45  -1 
  -5  -1   1  870.09   35.45   2 
  -2  -9  10   59.97   27.01  -1 
  -2  10  -9   59.97   27.01   2 
  -2  -8   8   65.52   25.28  -1 
  -2   9  -7   65.52   25.28   2 
   0  -6   4  277.61   18.56  -1 
   0   6  -4  277.61   18.56   2 
   0  -5   3   12.79   15.85  -1 
   0   5  -3   12.79   15.85   2 
   0  11   3  107.26   23.29  -1 
   0 -11  -3  107.26   23.29   2 
   3   4   0  768.23   24.00  -1 
   3  -6  -2  768.23   24.00   2 
   3   8   2   51.53   20.51  -1 
   3 -10  -4   51.53   20.51   2 
   6   2   2  162.98   21.10  -1 
   6  -6  -6  162.98   21.10   2 
   6   1   2   34.47   19.84  -1 
   6  -5  -6   34.47   19.84   2 
  -8   1   7   49.50   13.96  -1 
  -8   4  -2   49.50   13.96   2 
  -5  -6   9   16.23   21.11  -1 
  -5   9  -6   16.23   21.11   2 
  -5   5   2   91.67   29.92  -1 
  -5  -2   1   91.67   29.92   2 
   0   9   1   17.68   19.59  -1 
   0  -9  -1   17.68   19.59   2 
   2   6   0  126.86   19.52  -1 
   2  -7  -1  126.86   19.52   2 
   3  -9   8   76.98   31.13  -1 
   3   7 -10   76.98   31.13   2 
   3   7   1   57.18   19.78  -1 
   3  -9  -3   57.18   19.78   2 
   5   1   1   67.86   19.24  -1 
   5  -4  -4   67.86   19.24   2 
   5   2   1  486.50   24.63  -1 
   5  -5  -4  486.50   24.63   2 
   5   3   1   52.12   22.18  -1 
   5  -6  -4   52.12   22.18   2 
   5   7   3   48.99   21.12  -1 
   5 -10  -6   48.99   21.12   2 
  -3  -7   8   37.06   18.91  -1 
  -3   9  -6   37.06   18.91   2 
   3   5   0  183.40   19.41  -1 
   3  -7  -2  183.40   19.41   2 
   6   3   2   32.08   20.64  -1 
   6  -7  -6   32.08   20.64   2 
   6  -1   2   65.27   22.84  -1 
   6  -3  -6   65.27   22.84   2 
  -8  -1   9   69.05   19.32  -1 
  -8   6  -4   69.05   19.32   2 
  -8   0   8   62.54   18.28  -1 
  -8   5  -3   62.54   18.28   2 
  -8   4   6   22.65   17.25  -1 
  -8   1  -1   22.65   17.25   2 
  -8   5   6  161.26   21.36  -1 
  -8   0  -1  161.26   21.36   2 
  -8   7   6  142.81   28.90  -1 
  -8  -2  -1  142.81   28.90   2 
  -3   8   1  181.65   31.77  -1 
  -3  -6   1  181.65   31.77   2 
  -3  10   2   68.50   29.11  -1 
  -3  -8   0   68.50   29.11   2 
   5   0   1  359.06   22.38  -1 
   5  -3  -4  359.06   22.38   2 
   5   6   2   32.81   20.41  -1 
   5  -9  -5   32.81   20.41   2 
  -6   2   4   96.00   23.99  -1 
  -6   2   0   96.00   23.99   2 
   0  -8   7  144.59   20.22  -1 
   0   8  -7  144.59   20.22   2 
  -8   2   7   43.29   15.16  -1 
  -8   3  -2   43.29   15.16   2 
  -8   6   6   16.49   21.83  -1 
  -8  -1  -1   16.49   21.83   2 
   0  -9   9  107.28   21.86  -1 
   0   9  -9  107.28   21.86   2 
   2   7   0  423.26   25.24  -1 
   2  -8  -1  423.26   25.24   2 
   3  -7   5  217.40   34.83  -1 
   3   5  -7  217.40   34.83   2 
   3   6   0  318.82   24.35  -1 
   3  -8  -2  318.82   24.35   2 
   3   9   2   98.89   21.23  -1 
   3 -11  -4   98.89   21.23   2 
   8  -2   5   49.16   19.81  -1 
   8  -3 -10   49.16   19.81   2 
  -6  -4   9  181.25   23.81  -1 
  -6   8  -5  181.25   23.81   2 
  -3  -2   3 1987.25   33.89  -1 
  -3   4  -1 1987.25   33.89   2 
  -5  -6  10   31.11   21.03  -1 
  -5   9  -7   31.11   21.03   2 
  -5  -4   7  395.13   20.08  -1 
  -5   7  -4  395.13   20.08   2 
  -5  -3   6  291.34   19.82  -1 
  -5   6  -3  291.34   19.82   2 
  -5  -2   5  788.00   23.95  -1 
  -5   5  -2  788.00   23.95   2 
   0  -2   1   17.32   16.53  -1 
   0   2  -1   17.32   16.53   2 
   0   8   0  742.87   27.22  -1 
   0  -8   0  742.87   27.22   2 
   0  11   2  147.76   26.68  -1 
   0 -11  -2  147.76   26.68   2 
   5  -1   1  197.01   22.00  -1 
   5  -2  -4  197.01   22.00   2 
   5   5   1   42.06   18.46  -1 
   5  -8  -4   42.06   18.46   2 
   5   7   2   88.40   20.74  -1 
   5 -10  -5   88.40   20.74   2 
  -6  -3   8  -19.71   21.92  -1 
  -6   7  -4  -19.71   21.92   2 
   6   2   1   67.41   25.51  -1 
   6  -6  -5   67.41   25.51   2 
  -8   0   9   38.16   21.06  -1 
  -8   5  -4   38.16   21.06   2 
  -8   1   8  127.37   14.54  -1 
  -8   4  -3  127.37   14.54   2 
  -8   3   7   41.57   17.36  -1 
  -8   2  -2   41.57   17.36   2 
   0  10   1   61.23   21.21  -1 
   0 -10  -1   61.23   21.21   2 
   8   0   4   63.51   18.06  -1 
   8  -5  -9   63.51   18.06   2 
  -6   3   4  374.80   26.70  -1 
  -6   1   0  374.80   26.70   2 
  -6  -4  10  121.29   23.04  -1 
  -6   8  -6  121.29   23.04   2 
   0  -7   6  384.24   22.95  -1 
   0   7  -6  384.24   22.95   2 
   3   7   0  119.55   21.02  -1 
   3  -9  -2  119.55   21.02   2 
   5  -8   8   46.57   52.74  -1 
   5   5 -11   46.57   52.74   2 
   6   3   1   56.27   20.48  -1 
   6  -7  -5   56.27   20.48   2 
  -5  -5   9  146.32   19.51  -1 
  -5   8  -6  146.32   19.51   2 
   2   5  -1  914.51   28.14  -1 
   2  -6   0  914.51   28.14   2 
   3   9   1   20.45   25.73  -1 
   3 -11  -3   20.45   25.73   2 
   5   2   0  301.20   22.53  -1 
   5  -5  -3  301.20   22.53   2 
   3   3  -1  122.46   17.22  -1 
   3  -5  -1  122.46   17.22   2 
  -8   2   8   56.39   15.59  -1 
  -8   3  -3   56.39   15.59   2 
  -8   4   7   52.77   17.85  -1 
  -8   1  -2   52.77   17.85   2 
  -5  -4   8  131.75   18.38  -1 
  -5   7  -5  131.75   18.38   2 
  -5   0   4  650.30   23.67  -1 
  -5   3  -1  650.30   23.67   2 
   0  -8   8   94.03   20.76  -1 
   0   8  -8   94.03   20.76   2 
   0   5  -1  202.38   18.75  -1 
   0  -5   1  202.38   18.75   2 
   5   1   0  533.22   23.87  -1 
   5  -4  -3  533.22   23.87   2 
   5   7   1   42.89   19.73  -1 
   5 -10  -4   42.89   19.73   2 
   8  -2   4  101.80   22.10  -1 
   8  -3  -9  101.80   22.10   2 
  -6   0   6  320.03   27.73  -1 
  -6   4  -2  320.03   27.73   2 
  -3  -6   8   68.36   18.10  -1 
  -3   8  -6   68.36   18.10   2 
   0   9   0   98.96   19.86  -1 
   0  -9   0   98.96   19.86   2 
   0   4  -1  141.18   18.30  -1 
   0  -4   1  141.18   18.30   2 
   3   8   0  140.83   23.73  -1 
   3 -10  -2  140.83   23.73   2 
   3   5  -1  139.87   19.26  -1 
   3  -7  -1  139.87   19.26   2 
   3   2  -1  908.43   26.41  -1 
   3  -4  -1  908.43   26.41   2 
  -8   1   9  144.14   20.20  -1 
  -8   4  -4  144.14   20.20   2 
  -8   5   7   96.79   21.79  -1 
  -8   0  -2   96.79   21.79   2 
  -5  -5  10  104.13   20.67  -1 
  -5   8  -7  104.13   20.67   2 
  -3   9   1   98.13   32.17  -1 
  -3  -7   1   98.13   32.17   2 
   0  -6   5  855.79   24.07  -1 
   0   6  -5  855.79   24.07   2 
   0   6  -1   30.36   15.44  -1 
   0  -6   1   30.36   15.44   2 
   2   6  -1  125.47   19.77  -1 
   2  -7   0  125.47   19.77   2 
   3  -9   9  163.85   30.68  -1 
   3   7 -11  163.85   30.68   2 
   3  -8   7  159.33   31.56  -1 
   3   6  -9  159.33   31.56   2 
   8   1   3   43.42   16.95  -1 
   8  -6  -8   43.42   16.95   2 
  -6   4   4  132.63   24.06  -1 
  -6   0   0  132.63   24.06   2 
  -6  -4  11  100.57   22.51  -1 
  -6   8  -7  100.57   22.51   2 
  -3  11   2  183.86   32.40  -1 
  -3  -9   0  183.86   32.40   2 
   3   6  -1   92.61   22.10  -1 
   3  -8  -1   92.61   22.10   2 
  -8   3   8   50.64   17.74  -1 
  -8   2  -3   50.64   17.74   2 
  -8   6   7   66.26   20.19  -1 
  -8  -1  -2   66.26   20.19   2 
  -5  -2   6  110.92   19.64  -1 
  -5   5  -3  110.92   19.64   2 
   0  11   1   36.70   23.24  -1 
   0 -11  -1   36.70   23.24   2 
   2   7  -1  413.64   27.89  -1 
   2  -8   0  413.64   27.89   2 
   5   0   0  951.52   28.67  -1 
   5  -3  -3  951.52   28.67   2 
   8  -4   5   33.02   23.46  -1 
   8  -1 -10   33.02   23.46   2 
   8  -1   3   77.22   18.64  -1 
   8  -4  -8   77.22   18.64   2 
  -6   2   5   82.88   26.91  -1 
  -6   2  -1   82.88   26.91   2 
   0   3  -1   17.04   19.03  -1 
   0  -3   1   17.04   19.03   2 
   3   1  -1 3025.49   41.86  -1 
   3  -3  -1 3025.49   41.86   2 
   6   3   0   80.66   19.78  -1 
   6  -7  -4   80.66   19.78   2 
   6   2   0  373.14   23.53  -1 
   6  -6  -4  373.14   23.53   2 
   6   1   0   73.93   23.42  -1 
   6  -5  -4   73.93   23.42   2 
   3   9   0   95.56   23.05  -1 
   3 -11  -2   95.56   23.05   2 
  -6   5   4  249.26   29.83  -1 
  -6  -1   0  249.26   29.83   2 
  -6  -3  10  110.25   20.82  -1 
  -6   7  -6  110.25   20.82   2 
  -3  -4   6  266.34   21.52  -1 
  -3   6  -4  266.34   21.52   2 
  -3  -7  11   70.44   21.14  -1 
  -3   9  -9   70.44   21.14   2 
   3   7  -1   75.61   20.32  -1 
   3  -9  -1   75.61   20.32   2 
  -8   1  10   26.90   14.89  -1 
  -8   4  -5   26.90   14.89   2 
  -8   2   9   72.46   14.43  -1 
  -8   3  -4   72.46   14.43   2 
  -8   4   8   59.56   18.14  -1 
  -8   1  -3   59.56   18.14   2 
  -5   3   3  485.03   26.50  -1 
  -5   0   0  485.03   26.50   2 
   0  -8   9   61.54   21.95  -1 
   0   8  -9   61.54   21.95   2 
   0  -4   3  879.87   27.51  -1 
   0   4  -3  879.87   27.51   2 
   0  10   0  195.81   24.65  -1 
   0 -10   0  195.81   24.65   2 
   2   8  -1  102.19   22.15  -1 
   2  -9   0  102.19   22.15   2 
   5   7   0  193.17   21.10  -1 
   5 -10  -3  193.17   21.10   2 
   8  -2   3   69.69   18.42  -1 
   8  -3  -8   69.69   18.42   2 
   8   1   2   97.89   18.47  -1 
   8  -6  -7   97.89   18.47   2 
   8   2   2   82.18   19.56  -1 
   8  -7  -7   82.18   19.56   2 
  -6   1   6  250.99   26.81  -1 
  -6   3  -2  250.99   26.81   2 
  -3  -2   4  200.42   20.71  -1 
  -3   4  -2  200.42   20.71   2 
  -3  -3   5  215.15   20.88  -1 
  -3   5  -3  215.15   20.88   2 
   6   0   0  425.98   27.55  -1 
   6  -4  -4  425.98   27.55   2 
  -5  -3   8  219.36   18.80  -1 
  -5   6  -5  219.36   18.80   2 
   0   8  -1   37.96   20.43  -1 
   0  -8   1   37.96   20.43   2 
   3  -9  10   48.48   31.48  -1 
   3   7 -12   48.48   31.48   2 
   3   8  -1   43.88   22.68  -1 
   3 -10  -1   43.88   22.68   2 
   5  -1   0  189.26   23.25  -1 
   5  -2  -3  189.26   23.25   2 
   5   2  -1  345.79   23.96  -1 
   5  -5  -2  345.79   23.96   2 
   5   4  -1  113.25   17.01  -1 
   5  -7  -2  113.25   17.01   2 
   8   0   2   23.11   13.60  -1 
   8  -5  -7   23.11   13.60   2 
  -6   7   4  261.49   37.13  -1 
  -6  -3   0  261.49   37.13   2 
  -6   6   4  148.21   32.19  -1 
  -6  -2   0  148.21   32.19   2 
  -3  -7  12   60.77   20.87  -1 
  -3   9 -10   60.77   20.87   2 
  -8   3   9  172.61   21.18  -1 
  -8   2  -4  172.61   21.18   2 
  -8   5   8   63.39   20.05  -1 
  -8   0  -3   63.39   20.05   2 
  -5  -2   7  499.46   21.86  -1 
  -5   5  -4  499.46   21.86   2 
  -5   0   5 1010.86   27.89  -1 
  -5   3  -2 1010.86   27.89   2 
   5   6  -1  165.86   20.81  -1 
   5  -9  -2  165.86   20.81   2 
   5   8   0   45.19   21.42  -1 
   5 -11  -3   45.19   21.42   2 
   8  -1   2  107.57   18.63  -1 
   8  -4  -7  107.57   18.63   2 
  -3  10   1   56.50   30.75  -1 
  -3  -8   1   56.50   30.75   2 
  -3  -5   8  170.24   19.26  -1 
  -3   7  -6  170.24   19.26   2 
  -3  -6  10   85.29   18.63  -1 
  -3   8  -8   85.29   18.63   2 
   3   4  -2  686.26   27.58  -1 
   3  -6   0  686.26   27.58   2 
   6   3  -1  109.72   22.54  -1 
   6  -7  -3  109.72   22.54   2 
  -8   2  10   81.44   15.17  -1 
  -8   3  -5   81.44   15.17   2 
  -8   6   8   26.53   21.10  -1 
  -8  -1  -3   26.53   21.10   2 
  -5  -1   6  190.00   18.95  -1 
  -5   4  -3  190.00   18.95   2 
   0  -8  10   83.45   21.95  -1 
   0   8 -10   83.45   21.95   2 
   0  11   0  149.04   25.75  -1 
   0 -11   0  149.04   25.75   2 
   2   5  -2  350.56   23.66  -1 
   2  -6   1  350.56   23.66   2 
   3   9  -1   44.59   25.31  -1 
   3 -11  -1   44.59   25.31   2 
   5   1  -1  228.45   20.22  -1 
   5  -4  -2  228.45   20.22   2 
   5   7  -1  165.20   23.58  -1 
   5 -10  -2  165.20   23.58   2 
   8  -4   4   74.61   22.39  -1 
   8  -1  -9   74.61   22.39   2 
   8  -3   3   21.52   20.87  -1 
   8  -2  -8   21.52   20.87   2 
  -6  -2  10  137.60   22.98  -1 
  -6   6  -6  137.60   22.98   2 
   0   9  -1   64.66   19.83  -1 
   0  -9   1   64.66   19.83   2 
   3   6  -2  446.27   24.01  -1 
   3  -8   0  446.27   24.01   2 
   6   4  -1   54.97   20.42  -1 
   6  -8  -3   54.97   20.42   2 
   6   2  -1   95.39   21.10  -1 
   6  -6  -3   95.39   21.10   2 
  -8   4   9   97.08   20.73  -1 
  -8   1  -4   97.08   20.73   2 
  -5  -4  11  140.34   22.98  -1 
  -5   7  -8  140.34   22.98   2 
  -5  -3   9  190.72   19.10  -1 
  -5   6  -6  190.72   19.10   2 
  -5   4   3  584.67   29.17  -1 
  -5  -1   0  584.67   29.17   2 
  -2  -7  11  334.79   30.37  -1 
  -2   8 -10  334.79   30.37   2 
   0  -6   6  220.80   20.20  -1 
   0   6  -6  220.80   20.20   2 
   2   6  -2  228.66   20.99  -1 
   2  -7   1  228.66   20.99   2 
   8  -5   5   81.63   27.56  -1 
   8   0 -10   81.63   27.56   2 
   8   1   1   46.01   15.75  -1 
   8  -6  -6   46.01   15.75   2 
  -3  -6  11    4.52   24.33  -1 
  -3   8  -9    4.52   24.33   2 
   3   7  -2   39.56   20.65  -1 
   3  -9   0   39.56   20.65   2 
   6   1  -1  123.33   25.04  -1 
   6  -5  -3  123.33   25.04   2 
  -8   3  10  136.61   19.27  -1 
  -8   2  -5  136.61   19.27   2 
  -5   2   4  416.61   23.12  -1 
  -5   1  -1  416.61   23.12   2 
   2   7  -2  291.48   23.57  -1 
   2  -8   1  291.48   23.57   2 
   3  -8   8   91.05   30.82  -1 
   3   6 -10   91.05   30.82   2 
   5   8  -1   48.39   21.14  -1 
   5 -11  -2   48.39   21.14   2 
   8  -2   2   31.83   17.67  -1 
   8  -3  -7   31.83   17.67   2 
  -6   4   5  163.50   24.18  -1 
  -6   0  -1  163.50   24.18   2 
  -3  -5   9  487.44   23.78  -1 
  -3   7  -7  487.44   23.78   2 
  -8   5   9   69.92   17.55  -1 
  -8   0  -4   69.92   17.55   2 
  -2  -7  12   74.31   25.87  -1 
  -2   8 -11   74.31   25.87   2 
   0  -8  11   43.83   20.11  -1 
   0   8 -11   43.83   20.11   2 
   0   2  -1   12.99   16.17  -1 
   0  -2   1   12.99   16.17   2 
   0  10  -1   32.86   22.62  -1 
   0 -10   1   32.86   22.62   2 
   2   8  -2   92.13   21.43  -1 
   2  -9   1   92.13   21.43   2 
   3   8  -2  289.69   25.95  -1 
   3 -10   0  289.69   25.95   2 
   5   0  -1  794.97   27.28  -1 
   5  -3  -2  794.97   27.28   2 
   5   3  -2   46.41   19.41  -1 
   5  -6  -1   46.41   19.41   2 
   5   4  -2  429.67   21.30  -1 
   5  -7  -1  429.67   21.30   2 
   5   5  -2   92.78   18.00  -1 
   5  -8  -1   92.78   18.00   2 
   8   3   0   99.57   20.97  -1 
   8  -8  -5   99.57   20.97   2 
  -3  -6  12   45.25   20.79  -1 
  -3   8 -10   45.25   20.79   2 
  -5  -3  10   35.28   19.66  -1 
  -5   6  -7   35.28   19.66   2 
  -5  -1   7   97.93   20.07  -1 
  -5   4  -4   97.93   20.07   2 
  -5   0   6   98.63   20.95  -1 
  -5   3  -3   98.63   20.95   2 
  -5   1   5  263.54   22.45  -1 
  -5   2  -2  263.54   22.45   2 
   5   6  -2  409.88   22.01  -1 
   5  -9  -1  409.88   22.01   2 
   8  -1   1   16.70   14.16  -1 
   8  -4  -6   16.70   14.16   2 
   8   1   0   22.93   20.58  -1 
   8  -6  -5   22.93   20.58   2 
   8   2   0   51.24   18.85  -1 
   8  -7  -5   51.24   18.85   2 
  -3  11   1   27.57   34.10  -1 
  -3  -9   1   27.57   34.10   2 
   6   4  -2   92.83   20.38  -1 
   6  -8  -2   92.83   20.38   2 
   6   3  -2  181.83   23.41  -1 
   6  -7  -2  181.83   23.41   2 
  -5   5   3  278.11   28.08  -1 
  -5  -2   0  278.11   28.08   2 
  -2  -6  10  232.43   27.23  -1 
  -2   7  -9  232.43   27.23   2 
   0  -8  12   52.38   18.31  -1 
   0   8 -12   52.38   18.31   2 
   0  -5   5   96.15   14.73  -1 
   0   5  -5   96.15   14.73   2 
   5   2  -2  596.57   23.60  -1 
   5  -5  -1  596.57   23.60   2 
   5   7  -2   23.35   20.52  -1 
   5 -10  -1   23.35   20.52   2 
  -6   5   5  243.79   25.48  -1 
  -6  -1  -1  243.79   25.48   2 
  -3  -4   8  169.17   19.36  -1 
  -3   6  -6  169.17   19.36   2 
  -3  -5  10   53.46   18.77  -1 
  -3   7  -8   53.46   18.77   2 
  -3  -6  13   50.96   20.39  -1 
  -3   8 -11   50.96   20.39   2 
   0   7  -2   34.57   18.71  -1 
   0  -7   2   34.57   18.71   2 
   6   2  -2  195.38   24.35  -1 
   6  -6  -2  195.38   24.35   2 
  -5  -2   9   35.05   17.33  -1 
  -5   5  -6   35.05   17.33   2 
  -5   3   4  215.93   23.26  -1 
  -5   0  -1  215.93   23.26   2 
   5   8  -2   74.49   21.84  -1 
   5 -11  -1   74.49   21.84   2 
   8   0   0   89.08   19.60  -1 
   8  -5  -5   89.08   19.60   2 
   0   8  -2  618.79   26.07  -1 
   0  -8   2  618.79   26.07   2 
   0   5  -2   47.15   16.93  -1 
   0  -5   2   47.15   16.93   2 
   3   6  -3  225.64   20.53  -1 
   3  -8   1  225.64   20.53   2 
   3   5  -3  148.18   19.05  -1 
   3  -7   1  148.18   19.05   2 
   5  -8   9   31.19   39.11  -1 
   5   5 -12   31.19   39.11   2 
   6   1  -2  555.05   28.91  -1 
   6  -5  -2  555.05   28.91   2 
   3  -8   9   51.42   26.92  -1 
   3   6 -11   51.42   26.92   2 
   3   7  -3  160.25   23.62  -1 
   3  -9   1  160.25   23.62   2 
   3  10  -2   93.55   23.14  -1 
   3 -12   0   93.55   23.14   2 
   5  -1  -1  706.43   28.11  -1 
   5  -2  -2  706.43   28.11   2 
   5   1  -2   23.40   20.85  -1 
   5  -4  -1   23.40   20.85   2 
   8  -5   4   56.44   24.81  -1 
   8   0  -9   56.44   24.81   2 
   8   2  -1  103.06   23.11  -1 
   8  -7  -4  103.06   23.11   2 
  -3  -5  11  124.07   19.95  -1 
  -3   7  -9  124.07   19.95   2 
   0   9  -2   41.69   21.50  -1 
   0  -9   2   41.69   21.50   2 
   3   4  -3  615.30   23.45  -1 
   3  -6   1  615.30   23.45   2 
  -5  -3  12  125.19   18.66  -1 
  -5   6  -9  125.19   18.66   2 
  -5  -1   8  216.69   22.16  -1 
  -5   4  -5  216.69   22.16   2 
  -5   6   3  350.56   34.91  -1 
  -5  -3   0  350.56   34.91   2 
  -2  -6  11   90.58   26.79  -1 
  -2   7 -10   90.58   26.79   2 
   2   7  -3  602.87   27.96  -1 
   2  -8   2  602.87   27.96   2 
   3   8  -3  129.25   24.84  -1 
   3 -10   1  129.25   24.84   2 
   5   4  -3   42.02   18.46  -1 
   5  -7   0   42.02   18.46   2 
   5   5  -3  100.80   18.95  -1 
   5  -8   0  100.80   18.95   2 
   5   6  -3   39.53   19.60  -1 
   5  -9   0   39.53   19.60   2 
   8  -1   0   40.31   19.93  -1 
   8  -4  -5   40.31   19.93   2 
  -6   6   5  108.77   25.88  -1 
  -6  -2  -1  108.77   25.88   2 
  -6   4   6  185.41   25.72  -1 
  -6   0  -2  185.41   25.72   2 
  -6   0  10  107.50   24.89  -1 
  -6   4  -6  107.50   24.89   2 
  -6  -1  12   55.64   22.83  -1 
  -6   5  -8   55.64   22.83   2 
  -3  -4   9  116.01   22.86  -1 
  -3   6  -7  116.01   22.86   2 
   3   3  -3  618.69   24.56  -1 
   3  -5   1  618.69   24.56   2 
   6   5  -3  155.29   25.76  -1 
   6  -9  -1  155.29   25.76   2 
   6   4  -3   93.27   23.70  -1 
   6  -8  -1   93.27   23.70   2 
  -5  -3  13   30.63   20.35  -1 
  -5   6 -10   30.63   20.35   2 
  -5   1   6  528.41   24.37  -1 
  -5   2  -3  528.41   24.37   2 
  -5   2   5 1123.58   28.68  -1 
  -5   1  -2 1123.58   28.68   2 
  -2  -6  12   15.39   25.53  -1 
  -2   7 -11   15.39   25.53   2 
   2   8  -3   98.17   20.99  -1 
   2  -9   2   98.17   20.99   2 
   5   7  -3   96.69   19.42  -1 
   5 -10   0   96.69   19.42   2 
   8   1  -1   40.96   17.21  -1 
   8  -6  -4   40.96   17.21   2 
  -6  -1  13   83.05   25.05  -1 
  -6   5  -9   83.05   25.05   2 
  -3  -5  12   61.38   21.05  -1 
  -3   7 -10   61.38   21.05   2 
   0  10  -2  531.66   28.96  -1 
   0 -10   2  531.66   28.96   2 
   0   4  -2 2821.14   46.36  -1 
   0  -4   2 2821.14   46.36   2 
   3   9  -3   55.12   22.25  -1 
   3 -11   1   55.12   22.25   2 
  -3   7   0  109.89   45.64  -1 
  -3  -5   2  109.89   45.64   2 
   5   8  -3   63.76   21.73  -1 
   5 -11   0   63.76   21.73   2 
   8   0  -1  102.72   19.89  -1 
   8  -5  -4  102.72   19.89   2 
  -6   7   5  244.71   31.42  -1 
  -6  -3  -1  244.71   31.42   2 
  -3  -5  13   60.78   20.20  -1 
  -3   7 -11   60.78   20.20   2 
   0  -7  11  129.73   21.33  -1 
   0   7 -11  129.73   21.33   2 
  -5  -1   9  269.68   21.37  -1 
  -5   4  -6  269.68   21.37   2 
  -5   4   4  269.09   24.70  -1 
  -5  -1  -1  269.09   24.70   2 
  -5   7   3   45.66   35.93  -1 
  -5  -4   0   45.66   35.93   2 
  -3   9   0  112.20   36.09  -1 
  -3  -7   2  112.20   36.09   2 
  -2  -6  13   44.38   23.94  -1 
  -2   7 -12   44.38   23.94   2 
   0  -6   8   57.36   18.55  -1 
   0   6  -8   57.36   18.55   2 
   3  -8  10   38.72   25.73  -1 
   3   6 -12   38.72   25.73   2 
   3  -7   7  236.59   30.83  -1 
   3   5  -9  236.59   30.83   2 
   5   0  -2 1973.11   35.01  -1 
   5  -3  -1 1973.11   35.01   2 
   5   2  -3   24.89   20.19  -1 
   5  -5   0   24.89   20.19   2 
   8  -3   1   35.15   21.78  -1 
   8  -2  -6   35.15   21.78   2 
   8   2  -2  148.01   23.71  -1 
   8  -7  -3  148.01   23.71   2 
   8   3  -2   37.55   17.33  -1 
   8  -8  -3   37.55   17.33   2 
  -3  -4  10  173.00   19.43  -1 
  -3   6  -8  173.00   19.43   2 
   0  -5   6  665.32   22.95  -1 
   0   5  -6  665.32   22.95   2 
   3   2  -3 1655.09   33.23  -1 
   3  -4   1 1655.09   33.23   2 
  -5  -2  12   76.08   21.61  -1 
  -5   5  -9   76.08   21.61   2 
   0  -7  12  203.46   22.75  -1 
   0   7 -12  203.46   22.75   2 
   0  -3   3  232.51   22.53  -1 
   0   3  -3  232.51   22.53   2 
   0  11  -2   48.35   23.29  -1 
   0 -11   2   48.35   23.29   2 
   8  -4   2   32.53   20.85  -1 
   8  -1  -7   32.53   20.85   2 
  -6   5   6   22.97   24.08  -1 
  -6  -1  -2   22.97   24.08   2 
  -6   1  10   55.69   24.82  -1 
  -6   3  -6   55.69   24.82   2 
  -6   0  12   37.85   21.72  -1 
  -6   4  -8   37.85   21.72   2 
   3   7  -4  157.11   25.33  -1 
   3  -9   2  157.11   25.33   2 
   3   6  -4  178.60   25.31  -1 
   3  -8   2  178.60   25.31   2 
   6   1  -3  100.56   25.47  -1 
   6  -5  -1  100.56   25.47   2 
  -5  -2  13   52.48   22.40  -1 
  -5   5 -10   52.48   22.40   2 
  -5   8   3  220.79   44.34  -1 
  -5  -5   0  220.79   44.34   2 
  -5   9   3   37.21   44.93  -1 
  -5  -6   0   37.21   44.93   2 
   5   5  -4  121.27   18.63  -1 
   5  -8   1  121.27   18.63   2 
   5   6  -4  234.38   23.64  -1 
   5  -9   1  234.38   23.64   2 
   5   7  -4   73.17   19.63  -1 
   5 -10   1   73.17   19.63   2 
   8  -1  -1   16.96   18.30  -1 
   8  -4  -4   16.96   18.30   2 
   8   1  -2   62.61   18.22  -1 
   8  -6  -3   62.61   18.22   2 
  -6   4   7  240.01   26.49  -1 
  -6   0  -3  240.01   26.49   2 
  -6   0  13   93.27   23.89  -1 
  -6   4  -9   93.27   23.89   2 
  -3  -4  11  229.12   20.91  -1 
  -3   6  -9  229.12   20.91   2 
   3   5  -4  222.32   19.61  -1 
   3  -7   2  222.32   19.61   2 
   6   6  -4   34.85   20.53  -1 
   6 -10   0   34.85   20.53   2 
   6   5  -4  118.58   21.16  -1 
   6  -9   0  118.58   21.16   2 
  -5   1   7  178.12   20.29  -1 
  -5   2  -4  178.12   20.29   2 
  -5   2   6  102.39   21.32  -1 
  -5   1  -3  102.39   21.32   2 
  -3  10   0  167.87   33.94  -1 
  -3  -8   2  167.87   33.94   2 
   0  -6   9   82.46   20.00  -1 
   0   6  -9   82.46   20.00   2 
   5   1  -3  281.19   22.65  -1 
   5  -4   0  281.19   22.65   2 
   5   4  -4  615.67   22.32  -1 
   5  -7   1  615.67   22.32   2 
   8  -5   3   28.94   30.77  -1 
   8   0  -8   28.94   30.77   2 
  -6   3   8   95.70   23.30  -1 
  -6   1  -4   95.70   23.30   2 
  -6   1  11   82.76   25.72  -1 
  -6   3  -7   82.76   25.72   2 
  -3  -4  12   94.70   23.75  -1 
  -3   6 -10   94.70   23.75   2 
   3   9  -4   43.02   20.15  -1 
   3 -11   2   43.02   20.15   2 
  -5   0   9   44.13   21.74  -1 
  -5   3  -6   44.13   21.74   2 
  -2  -5  12  106.96   27.14  -1 
  -2   6 -11  106.96   27.14   2 
   0   7  -3   34.99   17.82  -1 
   0  -7   3   34.99   17.82   2 
   2   6  -4 1097.68   29.37  -1 
   2  -7   3 1097.68   29.37   2 
   2   7  -4  181.75   25.11  -1 
   2  -8   3  181.75   25.11   2 
   2   8  -4  346.89   27.66  -1 
   2  -9   3  346.89   27.66   2 
   5   3  -4  101.35   18.83  -1 
   5  -6   1  101.35   18.83   2 
   8   0  -2  291.61   20.84  -1 
   8  -5  -3  291.61   20.84   2 
   8   3  -3   46.26   17.53  -1 
   8  -8  -2   46.26   17.53   2 
  -6   6   6  171.39   25.65  -1 
  -6  -2  -2  171.39   25.65   2 
  -6   2  10   97.59   23.45  -1 
  -6   2  -6   97.59   23.45   2 
  -6   1  12  114.05   24.62  -1 
  -6   3  -8  114.05   24.62   2 
  -3  -4  13  147.05   23.88  -1 
  -3   6 -11  147.05   23.88   2 
   0   9  -3   18.25   18.51  -1 
   0  -9   3   18.25   18.51   2 
   0  -2   2 9846.03   91.82  -1 
   0   2  -2 9846.03   91.82   2 
  -5  -1  12  124.61   22.01  -1 
  -5   4  -9  124.61   22.01   2 
  -5   5   4  170.97   25.17  -1 
  -5  -2  -1  170.97   25.17   2 
  -2  -5  13   66.12   27.03  -1 
  -2   6 -12   66.12   27.03   2 
  -2  -4   9  153.42   26.68  -1 
  -2   5  -8  153.42   26.68   2 
   8   2  -3   51.02   19.09  -1 
   8  -7  -2   51.02   19.09   2 
  -3  -4  14   69.11   21.37  -1 
  -3   6 -12   69.11   21.37   2 
   0  10  -3  154.63   26.21  -1 
   0 -10   3  154.63   26.21   2 
   0   3  -2  726.41   29.96  -1 
   0  -3   2  726.41   29.96   2 
   0  -4   5 1222.41   28.83  -1 
   0   4  -5 1222.41   28.83   2 
   0  -5   7  306.10   19.49  -1 
   0   5  -7  306.10   19.49   2 
   0  -6  10   29.95   20.20  -1 
   0   6 -10   29.95   20.20   2 
  -5   1   8  447.59   22.64  -1 
  -5   2  -5  447.59   22.64   2 
  -3  11   0  125.66   37.37  -1 
  -3  -9   2  125.66   37.37   2 
   3  -7   8   55.42   26.69  -1 
   3   5 -10   55.42   26.69   2 
   8  -3   0   56.31   21.98  -1 
   8  -2  -5   56.31   21.98   2 
   8  -2  -1  123.09   22.51  -1 
   8  -3  -4  123.09   22.51   2 
   8   1  -3   82.06   21.86  -1 
   8  -6  -2   82.06   21.86   2 
  -6   5   7  109.56   22.59  -1 
  -6  -1  -3  109.56   22.59   2 
  -6   4   8  107.37   23.43  -1 
  -6   0  -4  107.37   23.43   2 
  -6   3   9   40.61   22.96  -1 
  -6   1  -5   40.61   22.96   2 
  -6   2  11  192.08   27.21  -1 
  -6   2  -7  192.08   27.21   2 
  -3  -3  10  180.65   20.50  -1 
  -3   5  -8  180.65   20.50   2 
   3   3  -4 1178.72   28.24  -1 
   3  -5   2 1178.72   28.24   2 
  -5   0  10  118.83   18.06  -1 
  -5   3  -7  118.83   18.06   2 
   0  -6  11   68.30   19.79  -1 
   0   6 -11   68.30   19.79   2 
   5   0  -3   71.59   21.31  -1 
   5  -3   0   71.59   21.31   2 
   5   2  -4  776.12   24.78  -1 
   5  -5   1  776.12   24.78   2 
   5   5  -5  121.82   20.24  -1 
   5  -8   2  121.82   20.24   2 
   5   6  -5  162.12   23.50  -1 
   5  -9   2  162.12   23.50   2 
   5   7  -5   72.42   19.76  -1 
   5 -10   2   72.42   19.76   2 
   5   8  -5   55.21   21.63  -1 
   5 -11   2   55.21   21.63   2 
   8  -4   1  271.92   27.57  -1 
   8  -1  -6  271.92   27.57   2 
   8  -1  -2   66.36   18.74  -1 
   8  -4  -3   66.36   18.74   2 
  -3  -2   8  235.22   20.54  -1 
  -3   4  -6  235.22   20.54   2 
  -3  -3  11   74.74   21.96  -1 
  -3   5  -9   74.74   21.96   2 
   3   8  -5   84.03   24.13  -1 
   3 -10   3   84.03   24.13   2 
   6   4  -5   40.34   23.13  -1 
   6  -8   1   40.34   23.13   2 
  -5   0  11  114.67   21.67  -1 
  -5   3  -8  114.67   21.67   2 
  -5   2   7  135.10   20.57  -1 
  -5   1  -4  135.10   20.57   2 
  -2  -4  10  140.40   24.86  -1 
  -2   5  -9  140.40   24.86   2 
   5   4  -5  226.32   19.63  -1 
   5  -7   2  226.32   19.63   2 
   8   3  -4   15.92   17.79  -1 
   8  -8  -1   15.92   17.79   2 
  -6   3  10   10.93   21.89  -1 
  -6   1  -6   10.93   21.89   2 
  -6   2  12   48.27   23.31  -1 
  -6   2  -8   48.27   23.31   2 
   0   5  -3   14.66   16.20  -1 
   0  -5   3   14.66   16.20   2 
   0  -6  12   54.22   19.97  -1 
   0   6 -12   54.22   19.97   2 
   3   9  -5   56.35   21.81  -1 
   3 -11   3   56.35   21.81   2 
  -5   1   9  537.85   23.23  -1 
  -5   2  -6  537.85   23.23   2 
  -2  -4  11  165.31   26.07  -1 
  -2   5 -10  165.31   26.07   2 
   0  -6  13  102.71   20.75  -1 
   0   6 -13  102.71   20.75   2 
   0  -5   8   36.24   20.52  -1 
   0   5  -8   36.24   20.52   2 
   8   0  -3   75.65   20.28  -1 
   8  -5  -2   75.65   20.28   2 
   8   2  -4   75.40   20.35  -1 
   8  -7  -1   75.40   20.35   2 
  -6   6   7  105.37   26.38  -1 
  -6  -2  -3  105.37   26.38   2 
  -3  -2   9   61.22   20.65  -1 
  -3   4  -7   61.22   20.65   2 
  -3  -3  12   18.33   20.94  -1 
  -3   5 -10   18.33   20.94   2 
   3  10  -5   51.66   21.56  -1 
   3 -12   3   51.66   21.56   2 
   3   5  -5   36.55   18.47  -1 
   3  -7   3   36.55   18.47   2 
   3   2  -4  226.14   20.73  -1 
   3  -4   2  226.14   20.73   2 
  -5   0  12   86.10   17.66  -1 
  -5   3  -9   86.10   17.66   2 
  -5   0  13   80.54   19.94  -1 
  -5   3 -10   80.54   19.94   2 
  -5   6   4   93.46   26.62  -1 
  -5  -3  -1   93.46   26.62   2 
  -2  -4  12   41.21   24.79  -1 
  -2   5 -11   41.21   24.79   2 
   2   8  -5  116.55   22.68  -1 
   2  -9   4  116.55   22.68   2 
   5   1  -4  347.37   22.88  -1 
   5  -4   1  347.37   22.88   2 
   5   3  -5  131.68   18.20  -1 
   5  -6   2  131.68   18.20   2 
  -6   5   8   64.56   23.14  -1 
  -6  -1  -4   64.56   23.14   2 
  -6   3  11   71.51   21.04  -1 
  -6   1  -7   71.51   21.04   2 
  -3  12   0   24.40   35.17  -1 
  -3 -10   2   24.40   35.17   2 
  -3  -3  14  103.69   21.61  -1 
  -3   5 -12  103.69   21.61   2 
   5  -7   8  167.49   35.27  -1 
   5   4 -11  167.49   35.27   2 
  -5   1  10   30.51   20.12  -1 
  -5   2  -7   30.51   20.12   2 
  -5   2   8  182.00   21.18  -1 
  -5   1  -5  182.00   21.18   2 
  -2  -4  13    7.70   22.56  -1 
  -2   5 -12    7.70   22.56   2 
  -2  -4  14   51.14   24.68  -1 
  -2   5 -13   51.14   24.68   2 
   2   7  -5   83.58   21.42  -1 
   2  -8   4   83.58   21.42   2 
   2   9  -5   89.42   21.32  -1 
   2 -10   4   89.42   21.32   2 
   3  -7  10   65.87   25.27  -1 
   3   5 -12   65.87   25.27   2 
   3  -6   6   88.96   28.03  -1 
   3   4  -8   88.96   28.03   2 
   5   7  -6   73.95   23.25  -1 
   5 -10   3   73.95   23.25   2 
   8  -6   4   50.33   43.30  -1 
   8   1  -9   50.33   43.30   2 
   8  -5   2   45.68   27.72  -1 
   8   0  -7   45.68   27.72   2 
   8   1  -4   34.56   21.19  -1 
   8  -6  -1   34.56   21.19   2 
   0  -4   6  322.79   20.65  -1 
   0   4  -6  322.79   20.65   2 
   3   4  -5  344.19   20.97  -1 
   3  -6   3  344.19   20.97   2 
   6   5  -6   84.46   21.59  -1 
   6  -9   2   84.46   21.59   2 
  -5   1  11  105.83   22.60  -1 
  -5   2  -8  105.83   22.60   2 
  -5   5   5   60.92   23.53  -1 
  -5  -2  -2   60.92   23.53   2 
  -2  -3   9  159.83   23.28  -1 
  -2   4  -8  159.83   23.28   2 
   2   6  -5  570.51   27.15  -1 
   2  -7   4  570.51   27.15   2 
   5   8  -6   31.20   21.91  -1 
   5 -11   3   31.20   21.91   2 
   8  -3  -1  108.33   23.45  -1 
   8  -2  -4  108.33   23.45   2 
   8  -2  -2  410.59   24.20  -1 
   8  -3  -3  410.59   24.20   2 
   8   3  -5   60.46   18.29  -1 
   8  -8   0   60.46   18.29   2 
  -6   5   9   32.26   24.35  -1 
  -6  -1  -5   32.26   24.35   2 
   0  10  -4   72.44   25.09  -1 
   0 -10   4   72.44   25.09   2 
   0   9  -4   36.15   19.19  -1 
   0  -9   4   36.15   19.19   2 
   0   8  -4  128.23   21.11  -1 
   0  -8   4  128.23   21.11   2 
   6   4  -6   40.25   23.11  -1 
   6  -8   2   40.25   23.11   2 
  -5   1  12  174.43   22.76  -1 
  -5   2  -9  174.43   22.76   2 
  -5   2   9  188.72   22.16  -1 
  -5   1  -6  188.72   22.16   2 
  -5   4   6   84.57   22.19  -1 
  -5  -1  -3   84.57   22.19   2 
  -5   7   4  280.38   33.78  -1 
  -5  -4  -1  280.38   33.78   2 
   3  -7  11  105.17   23.32  -1 
   3   5 -13  105.17   23.32   2 
   5   2  -5  713.38   23.82  -1 
   5  -5   2  713.38   23.82   2 
   5   5  -6  245.75   21.02  -1 
   5  -8   3  245.75   21.02   2 
   8  -1  -3  210.90   19.01  -1 
   8  -4  -2  210.90   19.01   2 
   8   2  -5  130.53   25.23  -1 
   8  -7   0  130.53   25.23   2 
  -6   6   8  198.62   24.87  -1 
  -6  -2  -4  198.62   24.87   2 
   0   7  -4   49.63   22.03  -1 
   0  -7   4   49.63   22.03   2 
   0   4  -3  873.83   29.95  -1 
   0  -4   3  873.83   29.95   2 
   0  -5  10  339.09   21.53  -1 
   0   5 -10  339.09   21.53   2 
   3   8  -6   76.45   21.27  -1 
   3 -10   4   76.45   21.27   2 
   3   7  -6  205.17   22.91  -1 
   3  -9   4  205.17   22.91   2 
   3   3  -5  205.33   21.62  -1 
   3  -5   3  205.33   21.62   2 
   6   3  -6  135.18   23.87  -1 
   6  -7   2  135.18   23.87   2 
  -5   1  13   17.04   18.49  -1 
  -5   2 -10   17.04   18.49   2 
   5   4  -6   52.73   17.50  -1 
   5  -7   3   52.73   17.50   2 
   8   0  -4   64.98   20.05  -1 
   8  -5  -1   64.98   20.05   2 
  -3   0   6  332.30   23.04  -1 
  -3   2  -4  332.30   23.04   2 
  -3  -2  13  186.62   20.60  -1 
  -3   4 -11  186.62   20.60   2 
   3   6  -6  186.72   21.13  -1 
   3  -8   4  186.72   21.13   2 
   5  -7   9   50.10   32.62  -1 
   5   4 -12   50.10   32.62   2 
  -5   2  10  111.44   21.16  -1 
  -5   1  -7  111.44   21.16   2 
  -5   3   8  242.58   24.32  -1 
  -5   0  -5  242.58   24.32   2 
  -2  -3  11  333.36   25.53  -1 
  -2   4 -10  333.36   25.53   2 
   3  -5   4  354.87   35.54  -1 
   3   3  -6  354.87   35.54   2 
   0   6  -4  262.25   21.32  -1 
   0  -6   4  262.25   21.32   2 
   0  -5  14   44.71   21.86  -1 
   0   5 -14   44.71   21.86   2 
   0  -5  13   10.08   20.08  -1 
   0   5 -13   10.08   20.08   2 
   0  -5  12  277.94   22.34  -1 
   0   5 -12  277.94   22.34   2 
   3   5  -6  255.98   24.03  -1 
   3  -7   4  255.98   24.03   2 
   6   5  -7  159.91   24.64  -1 
   6  -9   3  159.91   24.64   2 
  -5   2  11   72.74   20.19  -1 
  -5   1  -8   72.74   20.19   2 
  -2  -3  12  101.88   21.99  -1 
  -2   4 -11  101.88   21.99   2 
  -2  -3  14  138.18   24.72  -1 
  -2   4 -13  138.18   24.72   2 
   3  -6   7   93.58   26.12  -1 
   3   4  -9   93.58   26.12   2 
   5   8  -7  120.82   25.14  -1 
   5 -11   4  120.82   25.14   2 
   8   1  -5  108.95   18.79  -1 
   8  -6   0  108.95   18.79   2 
   8   3  -6  103.20   19.38  -1 
   8  -8   1  103.20   19.38   2 
  -3  -1   9  505.60   22.49  -1 
  -3   3  -7  505.60   22.49   2 
  -5   2  12  111.94   19.86  -1 
  -5   1  -9  111.94   19.86   2 
  -5   2  13   63.46   22.45  -1 
  -5   1 -10   63.46   22.45   2 
  -5   3   9  703.95   25.61  -1 
  -5   0  -6  703.95   25.61   2 
  -5   4   7   55.89   19.89  -1 
  -5  -1  -4   55.89   19.89   2 
  -5   6   5  119.68   24.05  -1 
  -5  -3  -2  119.68   24.05   2 
  -5   8   4   63.34   31.32  -1 
  -5  -5  -1   63.34   31.32   2 
  -2  -2   8  424.22   26.08  -1 
  -2   3  -7  424.22   26.08   2 
   2   7  -6   58.16   23.26  -1 
   2  -8   5   58.16   23.26   2 
   2   8  -6  177.88   21.61  -1 
   2  -9   5  177.88   21.61   2 
   5   1  -5  122.41   19.30  -1 
   5  -4   2  122.41   19.30   2 
   5   6  -7  153.86   20.99  -1 
   5  -9   4  153.86   20.99   2 
   6  -7   8   20.78   38.18  -1 
   6   3 -12   20.78   38.18   2 
  -3  -1  10  227.01   19.46  -1 
  -3   3  -8  227.01   19.46   2 
   3   4  -6  284.57   22.74  -1 
   3  -6   4  284.57   22.74   2 
   6   4  -7  115.54   20.97  -1 
   6  -8   3  115.54   20.97   2 
   5   5  -7   47.53   22.96  -1 
   5  -8   4   47.53   22.96   2 
   8  -3  -2   36.13   24.68  -1 
   8  -2  -3   36.13   24.68   2 
   8  -2  -3  117.00   22.51  -1 
   8  -3  -2  117.00   22.51   2 
   8  -1  -4   81.54   20.72  -1 
   8  -4  -1   81.54   20.72   2 
   8   2  -6   22.73   19.43  -1 
   8  -7   1   22.73   19.43   2 
   0  -3   5   70.53   18.38  -1 
   0   3  -5   70.53   18.38   2 
   0  -4   8   72.18   18.10  -1 
   0   4  -8   72.18   18.10   2 
   3   9  -7   77.80   20.96  -1 
   3 -11   5   77.80   20.96   2 
   3   8  -7   72.34   21.68  -1 
   3 -10   5   72.34   21.68   2 
   3   7  -7  323.34   24.59  -1 
   3  -9   5  323.34   24.59   2 
   6   3  -7  314.65   25.27  -1 
   6  -7   3  314.65   25.27   2 
  -5   3  10   42.94   20.43  -1 
  -5   0  -7   42.94   20.43   2 
  -5   9   4  163.34   35.52  -1 
  -5  -6  -1  163.34   35.52   2 
   2   6  -6  713.76   28.08  -1 
   2  -7   5  713.76   28.08   2 
   3  -6   8  128.43   27.17  -1 
   3   4 -10  128.43   27.17   2 
   5   4  -7  387.23   23.82  -1 
   5  -7   4  387.23   23.82   2 
   8  -5   1   22.58   23.53  -1 
   8   0  -6   22.58   23.53   2 
   8   0  -5   48.84   17.41  -1 
   8  -5   0   48.84   17.41   2 
  -3  10  -1   69.14   41.46  -1 
  -3  -8   3   69.14   41.46   2 
  -3  -1  12   47.17   18.83  -1 
  -3   3 -10   47.17   18.83   2 
   0  10  -5  324.14   27.12  -1 
   0 -10   5  324.14   27.12   2 
   0   9  -5   52.23   22.73  -1 
   0  -9   5   52.23   22.73   2 
   0   5  -4  916.17   28.48  -1 
   0  -5   4  916.17   28.48   2 
   0  -2   3 7304.07   71.99  -1 
   0   2  -3 7304.07   71.99   2 
  -5   3  11  134.92   20.30  -1 
  -5   0  -8  134.92   20.30   2 
  -5   3  12  126.39   25.24  -1 
  -5   0  -9  126.39   25.24   2 
  -5  10   4   26.32   34.41  -1 
  -5  -7  -1   26.32   34.41   2 
   0  -4   9   54.72   18.46  -1 
   0   4  -9   54.72   18.46   2 
   8   1  -6  231.73   23.69  -1 
   8  -6   1  231.73   23.69   2 
   8   3  -7   80.46   20.67  -1 
   8  -8   2   80.46   20.67   2 
  -3  11  -1   95.03   41.92  -1 
  -3  -9   3   95.03   41.92   2 
  -3   0   8  579.49   23.60  -1 
  -3   2  -6  579.49   23.60   2 
   0  11  -5   25.14   26.91  -1 
   0 -11   5   25.14   26.91   2 
   0   8  -5  475.25   26.60  -1 
   0  -8   5  475.25   26.60   2 
   3   6  -7  174.77   20.81  -1 
   3  -8   5  174.77   20.81   2 
  -5   4   9   82.00   21.23  -1 
  -5  -1  -6   82.00   21.23   2 
  -5   5   7  210.43   20.43  -1 
  -5  -2  -4  210.43   20.43   2 
  -5   7   5   49.35   25.33  -1 
  -5  -4  -2   49.35   25.33   2 
  -2  -2  10  240.53   22.22  -1 
  -2   3  -9  240.53   22.22   2 
  -2  -2  11   32.40   20.12  -1 
  -2   3 -10   32.40   20.12   2 
  -2  -2  12   18.73   27.57  -1 
  -2   3 -11   18.73   27.57   2 
  -2  -2  14   51.73   22.20  -1 
  -2   3 -13   51.73   22.20   2 
   0  -4  14   62.75   21.90  -1 
   0   4 -14   62.75   21.90   2 
   5  -1  -4  423.50   25.62  -1 
   5  -2   1  423.50   25.62   2 
   5   7  -8   45.75   22.85  -1 
   5 -10   5   45.75   22.85   2 
   8  -4  -1   55.33   22.90  -1 
   8  -1  -4   55.33   22.90   2 
  -3   1   6 1735.31   31.00  -1 
  -3   1  -4 1735.31   31.00   2 
   0  -4  10   31.85   18.56  -1 
   0   4 -10   31.85   18.56   2 
   3   5  -7  846.63   27.86  -1 
   3  -7   5  846.63   27.86   2 
   3   3  -6  979.14   28.46  -1 
   3  -5   4  979.14   28.46   2 
   6   4  -8   57.88   23.66  -1 
   6  -8   4   57.88   23.66   2 
  -5   4  10   73.39   22.08  -1 
  -5  -1  -7   73.39   22.08   2 
   0  -4  11   31.95   13.95  -1 
   0   4 -11   31.95   13.95   2 
   0  -4  12   31.05   15.40  -1 
   0   4 -12   31.05   15.40   2 
   3  -6  10   36.02   25.60  -1 
   3   4 -12   36.02   25.60   2 
   3  -6  11   38.82   24.81  -1 
   3   4 -13   38.82   24.81   2 
   3  -6  12   47.60   24.63  -1 
   3   4 -14   47.60   24.63   2 
   8   2  -7   69.98   19.80  -1 
   8  -7   2   69.98   19.80   2 
  -3  12  -1   59.95   45.71  -1 
  -3 -10   3   59.95   45.71   2 
  -3   5   1  361.83   45.60  -1 
  -3  -3   1  361.83   45.60   2 
  -3   0   9  104.44   19.62  -1 
  -3   2  -7  104.44   19.62   2 
   0   7  -5   12.47   19.74  -1 
   0  -7   5   12.47   19.74   2 
   0   3  -3  228.70   24.98  -1 
   0  -3   3  228.70   24.98   2 
  -5   4  11   63.20   20.88  -1 
  -5  -1  -8   63.20   20.88   2 
  -5   4  12   73.10   20.07  -1 
  -5  -1  -9   73.10   20.07   2 
  -5   5   8  109.28   21.66  -1 
  -5  -2  -5  109.28   21.66   2 
   0  -3   6 2596.22   36.59  -1 
   0   3  -6 2596.22   36.59   2 
   5   5  -8   77.22   23.70  -1 
   5  -8   5   77.22   23.70   2 
   8  -2  -4  100.86   21.88  -1 
   8  -3  -1  100.86   21.88   2 
   8  -1  -5  135.60   18.18  -1 
   8  -4   0  135.60   18.18   2 
   8   0  -6   25.86   20.88  -1 
   8  -5   1   25.86   20.88   2 
  -3   0  13  202.17   20.93  -1 
  -3   2 -11  202.17   20.93   2 
  -3   0  12    8.23   18.44  -1 
  -3   2 -10    8.23   18.44   2 
  -3   0  10  366.82   21.09  -1 
  -3   2  -8  366.82   21.09   2 
   3   9  -8   25.99   21.12  -1 
   3 -11   6   25.99   21.12   2 
   3   8  -8   66.00   25.58  -1 
   3 -10   6   66.00   25.58   2 
   6   3  -8  -19.73   22.61  -1 
   6  -7   4  -19.73   22.61   2 
  -5   6   7   69.52   22.80  -1 
  -5  -3  -4   69.52   22.80   2 
   2   7  -7   29.70   21.00  -1 
   2  -8   6   29.70   21.00   2 
   8  -3  -3  272.29   23.20  -1 
   8  -2  -2  272.29   23.20   2 
  -5   5  10   77.35   21.75  -1 
  -5  -2  -7   77.35   21.75   2 
  -5   5  12   59.92   23.02  -1 
  -5  -2  -9   59.92   23.02   2 
  -5   7   6  157.61   25.52  -1 
  -5  -4  -3  157.61   25.52   2 
  -5   9   5   26.77   31.56  -1 
  -5  -6  -2   26.77   31.56   2 
  -2  -1   8  299.65   24.56  -1 
  -2   2  -7  299.65   24.56   2 
  -2  -1  14  148.37   24.15  -1 
  -2   2 -13  148.37   24.15   2 
   2   6  -7  452.95   27.46  -1 
   2  -7   6  452.95   27.46   2 
   3  -5   5  197.27   28.27  -1 
   3   3  -7  197.27   28.27   2 
   5   2  -7  501.07   23.37  -1 
   5  -5   4  501.07   23.37   2 
   5   4  -8  130.51   22.22  -1 
   5  -7   5  130.51   22.22   2 
   5   7  -9  128.16   25.86  -1 
   5 -10   6  128.16   25.86   2 
   8   1  -7   34.47   20.56  -1 
   8  -6   2   34.47   20.56   2 
  -3   2   5  654.11   26.34  -1 
  -3   0  -3  654.11   26.34   2 
   3   6  -8   69.69   22.66  -1 
   3  -8   6   69.69   22.66   2 
   3   2  -6   22.76   20.94  -1 
   3  -4   4   22.76   20.94   2 
   6   5  -9   90.78   21.27  -1 
   6  -9   5   90.78   21.27   2 
  -5  10   5   35.83   32.26  -1 
  -5  -7  -2   35.83   32.26   2 
  -2  -1   9  337.26   22.06  -1 
  -2   2  -8  337.26   22.06   2 
   0  -3   7  369.09   21.04  -1 
   0   3  -7  369.09   21.04   2 
   5   6  -9   10.53   21.52  -1 
   5  -9   6   10.53   21.52   2 
   8  -5   0   21.60   27.21  -1 
   8   0  -5   21.60   27.21   2 
   8   2  -8   17.28   22.94  -1 
   8  -7   3   17.28   22.94   2 
  -3   1  14  118.29   24.07  -1 
  -3   1 -12  118.29   24.07   2 
   0  11  -6   48.22   26.66  -1 
   0 -11   6   48.22   26.66   2 
   0  10  -6   38.31   24.42  -1 
   0 -10   6   38.31   24.42   2 
   0   9  -6  129.05   24.08  -1 
   0  -9   6  129.05   24.08   2 
   0   4  -4  855.14   28.27  -1 
   0  -4   4  855.14   28.27   2 
   0  -3  14   10.72   20.82  -1 
   0   3 -14   10.72   20.82   2 
  -5   6   9   36.15   21.14  -1 
  -5  -3  -6   36.15   21.14   2 
  -5   7   7  180.98   26.35  -1 
  -5  -4  -4  180.98   26.35   2 
  -2  -1  10  182.10   20.40  -1 
  -2   2  -9  182.10   20.40   2 
  -2  -1  11  338.38   22.18  -1 
  -2   2 -10  338.38   22.18   2 
  -2  -1  12  262.03   23.29  -1 
  -2   2 -11  262.03   23.29   2 
   5   3  -8  210.31   20.16  -1 
   5  -6   5  210.31   20.16   2 
   8  -4  -2  381.38   25.85  -1 
   8  -1  -3  381.38   25.85   2 
  -3   1  13   41.52   19.50  -1 
  -3   1 -11   41.52   19.50   2 
   0  -3   8   31.91   17.43  -1 
   0   3  -8   31.91   17.43   2 
   3   5  -8  170.94   24.46  -1 
   3  -7   6  170.94   24.46   2 
   5  -6   7   51.03   32.29  -1 
   5   3 -10   51.03   32.29   2 
  -5   6  11   78.09   20.82  -1 
  -5  -3  -8   78.09   20.82   2 
  -3   1  12   59.21   21.72  -1 
  -3   1 -10   59.21   21.72   2 
   0  -2   4    3.52   17.14  -1 
   0   2  -4    3.52   17.14   2 
   5  -1  -5  302.72   25.79  -1 
   5  -2   2  302.72   25.79   2 
   5   0  -6  136.52   21.26  -1 
   5  -3   3  136.52   21.26   2 
   8  -2  -5  190.14   23.14  -1 
   8  -3   0  190.14   23.14   2 
   8  -1  -6  467.74   20.94  -1 
   8  -4   1  467.74   20.94   2 
   8   0  -7   37.01   22.00  -1 
   8  -5   2   37.01   22.00   2 
  -3   1  11  293.01   21.11  -1 
  -3   1  -9  293.01   21.11   2 
   0   8  -6   37.67   19.09  -1 
   0  -8   6   37.67   19.09   2 
   0  -3  11  130.23   19.80  -1 
   0   3 -11  130.23   19.80   2 
   0  -3  10  438.91   22.40  -1 
   0   3 -10  438.91   22.40   2 
   3   3  -7  477.90   22.44  -1 
   3  -5   5  477.90   22.44   2 
   5  -6  10   38.96   31.97  -1 
   5   3 -13   38.96   31.97   2 
   5  -6   8   91.74   31.70  -1 
   5   3 -11   91.74   31.70   2 
  -5   7   8   35.58   24.09  -1 
  -5  -4  -5   35.58   24.09   2 
  -5   7   9  216.51   25.88  -1 
  -5  -4  -6  216.51   25.88   2 
  -5   8   7   94.09   27.00  -1 
  -5  -5  -4   94.09   27.00   2 
  -5   9   6  118.86   31.41  -1 
  -5  -6  -3  118.86   31.41   2 
   2   7  -8    1.55   23.46  -1 
   2  -8   7    1.55   23.46   2 
   5   1  -7  102.72   22.70  -1 
   5  -4   4  102.72   22.70   2 
   8  -3  -4  349.47   26.81  -1 
   8  -2  -1  349.47   26.81   2 
   8   1  -8  167.40   24.92  -1 
   8  -6   3  167.40   24.92   2 
  -3   3   4 2119.35   39.89  -1 
  -3  -1  -2 2119.35   39.89   2 
  -3   2   6   21.23   17.87  -1 
  -3   0  -4   21.23   17.87   2 
   0   5  -5   94.38   20.83  -1 
   0  -5   5   94.38   20.83   2 
   3   7  -9  206.53   27.23  -1 
   3  -9   7  206.53   27.23   2 
   5  -6   9   50.13   30.44  -1 
   5   3 -12   50.13   30.44   2 
  -5   7  10   36.09   23.40  -1 
  -5  -4  -7   36.09   23.40   2 
  -5  10   6   12.25   29.40  -1 
  -5  -7  -3   12.25   29.40   2 
  -3   2  14  137.31   24.26  -1 
  -3   0 -12  137.31   24.26   2 
   5  -2  -4  409.25   25.67  -1 
   5  -1   1  409.25   25.67   2 
   5   4  -9   49.82   24.02  -1 
   5  -7   6   49.82   24.02   2 
   0   7  -6  379.43   22.91  -1 
   0  -7   6  379.43   22.91   2 
  -5   8   9   64.68   25.17  -1 
  -5  -5  -6   64.68   25.17   2 
  -5   9   7  152.29   25.82  -1 
  -5  -6  -4  152.29   25.82   2 
  -3   2  13   69.23   23.05  -1 
  -3   0 -11   69.23   23.05   2 
  -2   0   7  577.81   23.85  -1 
  -2   1  -6  577.81   23.85   2 
  -2   0  13   45.77   21.36  -1 
  -2   1 -12   45.77   21.36   2 
   2   6  -8  309.74   25.35  -1 
   2  -7   7  309.74   25.35   2 
   5   2  -8  168.90   20.28  -1 
   5  -5   5  168.90   20.28   2 
  -3   2   7  362.15   21.83  -1 
  -3   0  -5  362.15   21.83   2 
   0  -2  14   92.57   22.57  -1 
   0   2 -14   92.57   22.57   2 
   3   6  -9   74.00   21.22  -1 
   3  -8   7   74.00   21.22   2 
   6   4 -10  136.74   22.86  -1 
   6  -8   6  136.74   22.86   2 
  -5   9   8   55.78   22.98  -1 
  -5  -6  -5   55.78   22.98   2 
  -3   2  12  120.44   22.10  -1 
  -3   0 -10  120.44   22.10   2 
  -2   0   8  416.37   23.64  -1 
  -2   1  -7  416.37   23.64   2 
  -2   0   9   87.18   20.40  -1 
  -2   1  -8   87.18   20.40   2 
  -2   0  10  122.81   20.07  -1 
  -2   1  -9  122.81   20.07   2 
  -2   0  11   58.07   18.96  -1 
  -2   1 -10   58.07   18.96   2 
   3  -5   8  224.10   23.68  -1 
   3   3 -10  224.10   23.68   2 
   5   5 -10  107.45   24.54  -1 
   5  -8   7  107.45   24.54   2 
   8  -1  -7    2.03   19.87  -1 
   8  -4   2    2.03   19.87   2 
  -3   2  11  458.37   23.49  -1 
  -3   0  -9  458.37   23.49   2 
  -3   2   9   79.95   24.04  -1 
  -3   0  -7   79.95   24.04   2 
  -3   2   8  317.15   20.47  -1 
  -3   0  -6  317.15   20.47   2 
   0  11  -7   75.40   25.15  -1 
   0 -11   7   75.40   25.15   2 
   0  10  -7   91.38   26.45  -1 
   0 -10   7   91.38   26.45   2 
   0  -1   2   34.92   17.26  -1 
   0   1  -2   34.92   17.26   2 
   0  -2   5 1616.97   32.02  -1 
   0   2  -5 1616.97   32.02   2 
  -3   3  14  114.21   21.74  -1 
  -3  -1 -12  114.21   21.74   2 
   0  -2  13  192.69   19.83  -1 
   0   2 -13  192.69   19.83   2 
   6  -6   5  572.21   48.32  -1 
   6   2  -9  572.21   48.32   2 
   8  -5  -1   93.06   28.49  -1 
   8   0  -4   93.06   28.49   2 
   8  -4  -3  135.99   26.34  -1 
   8  -1  -2  135.99   26.34   2 
   8  -2  -6   96.25   20.72  -1 
   8  -3   1   96.25   20.72   2 
   8   0  -8   66.77   19.62  -1 
   8  -5   3   66.77   19.62   2 
   8   1  -9   83.82   24.57  -1 
   8  -6   4   83.82   24.57   2 
  -3   3   5  479.35   24.40  -1 
  -3  -1  -3  479.35   24.40   2 
   0   9  -7  154.73   25.32  -1 
   0  -9   7  154.73   25.32   2 
   0   6  -6  238.30   24.04  -1 
   0  -6   6  238.30   24.04   2 
   3   8 -10   53.54   25.70  -1 
   3 -10   8   53.54   25.70   2 
   3   5  -9  492.62   25.59  -1 
   3  -7   7  492.62   25.59   2 
   0  -2  12   54.68   18.21  -1 
   0   2 -12   54.68   18.21   2 
   2   8  -9  134.15   23.40  -1 
   2  -9   8  134.15   23.40   2 
   5   0  -7  141.84   22.22  -1 
   5  -3   4  141.84   22.22   2 
   0  -2   6   45.67   16.41  -1 
   0   2  -6   45.67   16.41   2 
   3   3  -8  162.10   19.94  -1 
   3  -5   6  162.10   19.94   2 
   0  -2  11  123.76   17.07  -1 
   0   2 -11  123.76   17.07   2 
   0   3  -4  678.44   25.40  -1 
   0  -3   4  678.44   25.40   2 
   2   7  -9   37.35   24.11  -1 
   2  -8   8   37.35   24.11   2 
   5   1  -8  223.48   22.64  -1 
   5  -4   5  223.48   22.64   2 
   5   4 -10  164.71   23.97  -1 
   5  -7   7  164.71   23.97   2 
   5   6 -11   37.37   25.98  -1 
   5  -9   8   37.37   25.98   2 
   8  -3  -5  252.54   23.91  -1 
   8  -2   0  252.54   23.91   2 
  -2   1  12  180.60   21.04  -1 
  -2   0 -11  180.60   21.04   2 
   0  -2   7   12.77   17.45  -1 
   0   2  -7   12.77   17.45   2 
   0  -1  14   62.87   17.02  -1 
   0   1 -14   62.87   17.02   2 
   0   4  -5 1193.30   28.89  -1 
   0  -4   5 1193.30   28.89   2 
   6  -6   6  118.93   36.17  -1 
   6   2 -10  118.93   36.17   2 
   6  -6   7  187.56   36.59  -1 
   6   2 -11  187.56   36.59   2 
   6  -6   8  107.60   31.86  -1 
   6   2 -12  107.60   31.86   2 
  -3   3  11   57.44   20.86  -1 
  -3  -1  -9   57.44   20.86   2 
  -3   3   6  332.81   21.51  -1 
  -3  -1  -4  332.81   21.51   2 
   3   6 -10   94.75   22.68  -1 
   3  -8   8   94.75   22.68   2 
   3   4  -9  142.42   21.41  -1 
   3  -6   7  142.42   21.41   2 
  -3   3  10   94.85   24.34  -1 
  -3  -1  -8   94.85   24.34   2 
  -3   4  13   51.27   22.38  -1 
  -3  -2 -11   51.27   22.38   2 
  -2   1  10  208.99   24.01  -1 
  -2   0  -9  208.99   24.01   2 
  -2   1  11  342.37   22.21  -1 
  -2   0 -10  342.37   22.21   2 
   3  -4  12   49.10   22.34  -1 
   3   2 -14   49.10   22.34   2 
   5   3 -10   52.29   20.95  -1 
   5  -6   7   52.29   20.95   2 
   5   5 -11  153.72   22.98  -1 
   5  -8   8  153.72   22.98   2 
   8  -1  -8  194.83   19.65  -1 
   8  -4   3  194.83   19.65   2 
   8   0  -9   74.79   22.75  -1 
   8  -5   4   74.79   22.75   2 
  -3   3   8  308.83   21.45  -1 
  -3  -1  -6  308.83   21.45   2 
  -3   3   7  990.81   26.47  -1 
  -3  -1  -5  990.81   26.47   2 
   0   7  -7  260.19   24.84  -1 
   0  -7   7  260.19   24.84   2 
   0  -1  13   51.11   23.34  -1 
   0   1 -13   51.11   23.34   2 
  -3   4  12   60.18   25.86  -1 
  -3  -2 -10   60.18   25.86   2 
  -2   1   7  208.37   20.99  -1 
  -2   0  -6  208.37   20.99   2 
  -2   1   8  460.17   23.76  -1 
  -2   0  -7  460.17   23.76   2 
  -2   1   9  776.42   25.53  -1 
  -2   0  -8  776.42   25.53   2 
  -2   2  13   39.88   19.71  -1 
  -2  -1 -12   39.88   19.71   2 
   8  -4  -4   33.30   24.46  -1 
   8  -1  -1   33.30   24.46   2 
   8  -2  -7   66.26   16.89  -1 
   8  -3   2   66.26   16.89   2 
  -3   5   2 1199.72   41.29  -1 
  -3  -3   0 1199.72   41.29   2 
  -3   4   4  246.29   24.41  -1 
  -3  -2  -2  246.29   24.41   2 
   0  10  -8  100.66   26.23  -1 
   0 -10   8  100.66   26.23   2 
   0   5  -6  581.52   22.46  -1 
   0  -5   6  581.52   22.46   2 
  -3   5  13   52.25   20.89  -1 
  -3  -3 -11   52.25   20.89   2 
   0  -1  12   91.52   19.84  -1 
   0   1 -12   91.52   19.84   2 
   2   8 -10   44.04   21.86  -1 
   2  -9   9   44.04   21.86   2 
   3  -4  11   94.44   19.46  -1 
   3   2 -13   94.44   19.46   2 
   5   4 -11  120.18   21.79  -1 
   5  -7   8  120.18   21.79   2 
   8  -5  -2   50.01   28.99  -1 
   8   0  -3   50.01   28.99   2 
   8  -3  -6  550.64   26.44  -1 
   8  -2   1  550.64   26.44   2 
  -3   4  11   80.62   21.59  -1 
  -3  -2  -9   80.62   21.59   2 
   0   9  -8   13.89   23.90  -1 
   0  -9   8   13.89   23.90   2 
   0   0  14  129.98   21.94  -1 
   0   0 -14  129.98   21.94   2 
   2   5  -9  166.38   24.60  -1 
   2  -6   8  166.38   24.60   2 
   2   7 -10  172.71   26.88  -1 
   2  -8   9  172.71   26.88   2 
   3  -4  10   46.16   21.27  -1 
   3   2 -12   46.16   21.27   2 
   5   0  -8  473.25   23.93  -1 
   5  -3   5  473.25   23.93   2 
   5   1  -9  233.44   22.37  -1 
   5  -4   6  233.44   22.37   2 
  -3   4  10   48.75   25.45  -1 
  -3  -2  -8   48.75   25.45   2 
   0   6  -7   76.21   20.36  -1 
   0  -6   7   76.21   20.36   2 
   0  -1  11   30.03   19.81  -1 
   0   1 -11   30.03   19.81   2 
  -3   5  12   52.98   25.04  -1 
  -3  -3 -10   52.98   25.04   2 
  -2   2  11   66.45   20.16  -1 
  -2  -1 -10   66.45   20.16   2 
   5  -1  -7  187.09   21.52  -1 
   5  -2   4  187.09   21.52   2 
   5   2 -10  189.30   22.76  -1 
   5  -5   7  189.30   22.76   2 
   8  -1  -9  185.76   25.49  -1 
   8  -4   4  185.76   25.49   2 
  -3   4   9  266.97   22.10  -1 
  -3  -2  -7  266.97   22.10   2 
  -3   4   5  404.98   21.43  -1 
  -3  -2  -3  404.98   21.43   2 
   0   8  -8   69.80   20.83  -1 
   0  -8   8   69.80   20.83   2 
   0   1  -2   26.16   19.93  -1 
   0  -1   2   26.16   19.93   2 
   3   4 -10  151.17   23.05  -1 
   3  -6   8  151.17   23.05   2 
  -3   4   8  169.43   23.79  -1 
  -3  -2  -6  169.43   23.79   2 
  -3   5  11  124.26   27.34  -1 
  -3  -3  -9  124.26   27.34   2 
  -2   2  10   79.49   21.11  -1 
  -2  -1  -9   79.49   21.11   2 
   0  -1  10  719.34   23.41  -1 
   0   1 -10  719.34   23.41   2 
   0   0  13  139.82   19.15  -1 
   0   0 -13  139.82   19.15   2 
   3  -4   9  178.78   22.54  -1 
   3   2 -11  178.78   22.54   2 
   5   3 -11  223.24   23.13  -1 
   5  -6   8  223.24   23.13   2 
   5   5 -12   79.43   24.45  -1 
   5  -8   9   79.43   24.45   2 
   8  -2  -8   67.85   20.65  -1 
   8  -3   3   67.85   20.65   2 
  -3   4   6  126.21   19.53  -1 
  -3  -2  -4  126.21   19.53   2 
  -3   6  12   67.80   23.33  -1 
  -3  -4 -10   67.80   23.33   2 
  -2   3  12   96.49   20.96  -1 
  -2  -2 -11   96.49   20.96   2 
  -5  -2   6  100.73   31.86  -1 
  -5   5  -3  100.73   31.86   2 
  -3   3   4 1793.61   36.81  -1 
  -3  -1  -2 1793.61   36.81   2 
  -2  -7   3  612.43   27.16  -1 
  -2   8  -2  612.43   27.16   2 
   0  -9   2   63.58   16.74  -1 
   0   9  -2   63.58   16.74   2 
   0   5   3    8.98   12.20  -1 
   0  -5  -3    8.98   12.20   2 
   3  -7  -1  530.19   22.31  -1 
   3   5  -1  530.19   22.31   2 
   6 -10   0   -5.27   21.52  -1 
   6   6  -4   -5.27   21.52   2 
   6  -8  -1   48.99   23.42  -1 
   6   4  -3   48.99   23.42   2 
  -6  -3   9   60.48   33.82  -1 
  -6   7  -5   60.48   33.82   2 
  -6  -5  10   14.39   30.76  -1 
  -6   9  -6   14.39   30.76   2 
  -3   7   9  124.42   21.09  -1 
  -3  -5  -7  124.42   21.09   2 
  -3   6   7   94.33   19.85  -1 
  -3  -4  -5   94.33   19.85   2 
   0   8   8   76.15   20.49  -1 
   0  -8  -8   76.15   20.49   2 
   0   4   2  487.16   19.58  -1 
   0  -4  -2  487.16   19.58   2 
   5   5   3  198.95   26.43  -1 
   5  -8  -6  198.95   26.43   2 
  -5  -5   7   45.60   25.49  -1 
  -5   8  -4   45.60   25.49   2 
  -5  -1   6  170.79   42.31  -1 
  -5   4  -3  170.79   42.31   2 
  -5   4   8  135.09   23.56  -1 
  -5  -1  -5  135.09   23.56   2 
   0 -11   4   35.16   18.74  -1 
   0  11  -4   35.16   18.74   2 
   0 -10   3  179.95   17.48  -1 
   0  10  -3  179.95   17.48   2 
   0  -7   1  116.95   15.84  -1 
   0   7  -1  116.95   15.84   2 
   0  -4   0 2443.85   34.40  -1 
   0   4   0 2443.85   34.40   2 
   0   6   4   86.69   15.68  -1 
   0  -6  -4   86.69   15.68   2 
   8   1   1   44.34   32.22  -1 
   8  -6  -6   44.34   32.22   2 
   2   5   2 1565.66   30.37  -1 
   2  -6  -3 1565.66   30.37   2 
   3   5   2  674.90   28.00  -1 
   3  -7  -4  674.90   28.00   2 
   3   4   1  222.09   21.73  -1 
   3  -6  -3  222.09   21.73   2 
   3   1  -1 3094.61   60.90  -1 
   3  -3  -1 3094.61   60.90   2 
   5  -7  -1  168.27   24.29  -1 
   5   4  -2  168.27   24.29   2 
  -5   3   7  137.94   23.50  -1 
  -5   0  -4  137.94   23.50   2 
  -5   5   9  250.72   23.39  -1 
  -5  -2  -6  250.72   23.39   2 
  -5   6  11   61.00   20.66  -1 
  -5  -3  -8   61.00   20.66   2 
  -3   1   3  446.67   46.44  -1 
  -3   1  -1  446.67   46.44   2 
   3 -10   1   74.39   19.11  -1 
   3   8  -3   74.39   19.11   2 
  -3   7   8  237.81   21.03  -1 
  -3  -5  -6  237.81   21.03   2 
  -3  -7   5   81.43   20.14  -1 
  -3   9  -3   81.43   20.14   2 
   0   7   5  441.84   19.48  -1 
   0  -7  -5  441.84   19.48   2 
   2   4   1   37.55   20.27  -1 
   2  -5  -2   37.55   20.27   2 
   5  -9   0   38.00   21.20  -1 
   5   6  -3   38.00   21.20   2 
   8  -8   0  144.89   21.78  -1 
   8   3  -5  144.89   21.78   2 
  -5  -7   9  123.74   23.40  -1 
  -5  10  -6  123.74   23.40   2 
  -5  -6   8   80.46   24.87  -1 
  -5   9  -5   80.46   24.87   2 
  -2 -10   6   66.19   22.46  -1 
  -2  11  -5   66.19   22.46   2 
  -2  -9   5   99.81   23.76  -1 
  -2  10  -4   99.81   23.76   2 
  -2   5   4   84.42   21.29  -1 
  -2  -4  -3   84.42   21.29   2 
   3 -11   2   34.04   18.81  -1 
   3   9  -4   34.04   18.81   2 
   3  -6  -1  262.84   21.71  -1 
   3   4  -1  262.84   21.71   2 
   3   6   3  458.73   24.67  -1 
   3  -8  -5  458.73   24.67   2 
   6  -7  -1  215.46   24.21  -1 
   6   3  -3  215.46   24.21   2 
  -3   8  10   27.63   21.31  -1 
  -3  -6  -8   27.63   21.31   2 
  -3  -8   6   87.13   20.08  -1 
  -3  10  -4   87.13   20.08   2 
  -3  -9   7   79.08   17.89  -1 
  -3  11  -5   79.08   17.89   2 
   0   3   1  699.58   22.24  -1 
   0  -3  -1  699.58   22.24   2 
   0  -3   0  204.09   18.13  -1 
   0   3   0  204.09   18.13   2 
   0  -8   2  595.76   21.92  -1 
   0   8  -2  595.76   21.92   2 
   5   6   4  131.24   22.16  -1 
   5  -9  -7  131.24   22.16   2 
   5 -10   1  155.18   23.13  -1 
   5   7  -4  155.18   23.13   2 
  -5  -4   7  315.05   29.64  -1 
  -5   7  -4  315.05   29.64   2 
  -3   5   5  614.42   24.10  -1 
  -3  -3  -3  614.42   24.10   2 
  -3   6   6   60.19   21.67  -1 
  -3  -4  -4   60.19   21.67   2 
   3  -8   0  369.30   20.12  -1 
   3   6  -2  369.30   20.12   2 
   6  -9   0  181.64   22.84  -1 
   6   5  -4  181.64   22.84   2 
   0  -6   1   33.04   16.18  -1 
   0   6  -1   33.04   16.18   2 
   0  -9   3   21.59   15.82  -1 
   0   9  -3   21.59   15.82   2 
   0 -11   5   31.98   18.26  -1 
   0  11  -5   31.98   18.26   2 
   5  -6  -1   41.34   21.39  -1 
   5   3  -2   41.34   21.39   2 
   0 -10   4   93.08   15.65  -1 
   0  10  -4   93.08   15.65   2 
   0   8   6   84.67   18.80  -1 
   0  -8  -6   84.67   18.80   2 
   3   7   4  117.33   23.61  -1 
   3  -9  -6  117.33   23.61   2 
   5   1  -1  363.21   33.43  -1 
   5  -4  -2  363.21   33.43   2 
   5   4   1  192.16   24.73  -1 
   5  -7  -4  192.16   24.73   2 
   5   5   2  337.41   27.36  -1 
   5  -8  -5  337.41   27.36   2 
   6 -10   1   61.36   22.04  -1 
   6   6  -5   61.36   22.04   2 
  -6  -2   9  131.84   35.88  -1 
  -6   6  -5  131.84   35.88   2 
  -5   5   8   81.04   23.10  -1 
  -5  -2  -5   81.04   23.10   2 
   0   6   3  262.03   18.77  -1 
   0  -6  -3  262.03   18.77   2 
   0  -2   0 5302.08   61.50  -1 
   0   2   0 5302.08   61.50   2 
   8  -7   0   50.78   20.75  -1 
   8   2  -5   50.78   20.75   2 
  -3   4   4  428.09   24.88  -1 
  -3  -2  -2  428.09   24.88   2 
   0   7   4  556.14   19.20  -1 
   0  -7  -4  556.14   19.20   2 
   2   3   0 1902.17   35.82  -1 
   2  -4  -1 1902.17   35.82   2 
   3  -9   1  242.64   20.04  -1 
   3   7  -3  242.64   20.04   2 
   3  -5  -1  356.24   20.31  -1 
   3   3  -1  356.24   20.31   2 
   5   3   0  387.23   28.76  -1 
   5  -6  -3  387.23   28.76   2 
   6  -6  -1  118.82   22.99  -1 
   6   2  -3  118.82   22.99   2 
  -5   4   7   50.38   21.26  -1 
  -5  -1  -4   50.38   21.26   2 
  -3  -6   5  367.82   23.17  -1 
  -3   8  -3  367.82   23.17   2 
   5   6   3  102.98   23.53  -1 
   5  -9  -6  102.98   23.53   2 
  -5  -6   9   24.95   23.58  -1 
  -5   9  -6   24.95   23.58   2 
  -5  -5   8   90.59   25.24  -1 
  -5   8  -5   90.59   25.24   2 
  -3   8   8  101.73   24.34  -1 
  -3  -6  -6  101.73   24.34   2 
  -2  -9   6   29.14   24.46  -1 
  -2  10  -5   29.14   24.46   2 
   3 -11   3   92.00   18.50  -1 
   3   9  -5   92.00   18.50   2 
   3 -10   2  214.74   19.24  -1 
   3   8  -4  214.74   19.24   2 
   3   6   2   18.81   21.21  -1 
   3  -8  -4   18.81   21.21   2 
   3   8   5   26.32   22.72  -1 
   3 -10  -7   26.32   22.72   2 
   8   0   0   94.21   38.41  -1 
   8  -5  -5   94.21   38.41   2 
  -5   2   6   91.10   29.40  -1 
  -5   1  -3   91.10   29.40   2 
  -3  -7   6  189.95   21.82  -1 
  -3   9  -4  189.95   21.82   2 
  -3  -8   7   76.75   20.17  -1 
  -3  10  -5   76.75   20.17   2 
   0   9   7  159.04   19.02  -1 
   0  -9  -7  159.04   19.02   2 
   0   8   5   15.33   16.75  -1 
   0  -8  -5   15.33   16.75   2 
   0  -7   2   33.26   16.20  -1 
   0   7  -2   33.26   16.20   2 
   3   5   1   59.52   19.65  -1 
   3  -7  -3   59.52   19.65   2 
   5  -5  -1  258.44   23.44  -1 
   5   2  -2  258.44   23.44   2 
  -5   7  10   51.57   22.93  -1 
  -5  -4  -7   51.57   22.93   2 
  -2   6   4  212.79   21.23  -1 
  -2  -5  -3  212.79   21.23   2 
   0  -5   1  199.83   15.14  -1 
   0   5  -1  199.83   15.14   2 
  -3   7   6  151.00   21.29  -1 
  -3  -5  -4  151.00   21.29   2 
  -3   6   5  252.58   22.03  -1 
  -3  -4  -3  252.58   22.03   2 
   0  -8   3  623.87   22.30  -1 
   0   8  -3  623.87   22.30   2 
   8  -8   1  117.14   21.23  -1 
   8   3  -6  117.14   21.23   2 
  -5  -3   7  198.68   30.76  -1 
  -5   6  -4  198.68   30.76   2 
  -3   2   3  911.86   39.20  -1 
  -3   0  -1  911.86   39.20   2 
   0 -10   5  301.01   18.18  -1 
   0  10  -5  301.01   18.18   2 
   0  -9   4   56.98   18.09  -1 
   0   9  -4   56.98   18.09   2 
   0   4   1  370.08   16.39  -1 
   0  -4  -1  370.08   16.39   2 
   6  -9   1  221.67   23.72  -1 
   6   5  -5  221.67   23.72   2 
   6  -5  -1  215.45   25.34  -1 
   6   1  -3  215.45   25.34   2 
   8   2   1  183.55   29.18  -1 
   8  -7  -6  183.55   29.18   2 
  -6  -3  10   49.91   30.42  -1 
  -6   7  -6   49.91   30.42   2 
  -3   9   9   74.59   22.66  -1 
  -3  -7  -7   74.59   22.66   2 
  -3   8   7   36.33   22.12  -1 
  -3  -6  -5   36.33   22.12   2 
  -2   5   3   57.76   18.55  -1 
  -2  -4  -2   57.76   18.55   2 
   0   9   6   40.21   18.24  -1 
   0  -9  -6   40.21   18.24   2 
   3   4   0  930.59   25.40  -1 
   3  -6  -2  930.59   25.40   2 
   3   2  -1 1029.11   34.70  -1 
   3  -4  -1 1029.11   34.70   2 
  -5   6   8   91.98   22.50  -1 
  -5  -3  -5   91.98   22.50   2 
   0   7   3   28.59   14.73  -1 
   0  -7  -3   28.59   14.73   2 
   3  -8   1   81.64   21.47  -1 
   3   6  -3   81.64   21.47   2 
   3   8   4   92.48   22.99  -1 
   3 -10  -6   92.48   22.99   2 
   5   5   1   56.02   23.82  -1 
   5  -8  -4   56.02   23.82   2 
   6 -10   2   40.77   22.06  -1 
   6   6  -6   40.77   22.06   2 
   6  -7   0  219.24   23.42  -1 
   6   3  -4  219.24   23.42   2 
  -6  -4  11   70.16   33.44  -1 
  -6   8  -7   70.16   33.44   2 
  -5   7   9  231.41   24.46  -1 
  -5  -4  -6  231.41   24.46   2 
  -5   5   7  164.79   22.69  -1 
  -5  -2  -4  164.79   22.69   2 
  -5   3   6  543.61   30.75  -1 
  -5   0  -3  543.61   30.75   2 
  -3   5   4  884.38   26.50  -1 
  -3  -3  -2  884.38   26.50   2 
   0   8   4   33.43   17.76  -1 
   0  -8  -4   33.43   17.76   2 
   0   6   2   45.13   16.21  -1 
   0  -6  -2   45.13   16.21   2 
   5   6   2   62.83   22.99  -1 
   5  -9  -5   62.83   22.99   2 
   8  -5   0   34.21   26.39  -1 
   8   0  -5   34.21   26.39   2 
  -2  -9   7   48.51   21.30  -1 
  -2  10  -6   48.51   21.30   2 
  -2  -8   6  220.06   23.35  -1 
  -2   9  -5  220.06   23.35   2 
  -2  -7   5   48.09   25.35  -1 
  -2   8  -4   48.09   25.35   2 
   2   4   0  240.06   20.66  -1 
   2  -5  -1  240.06   20.66   2 
   3 -11   4   84.25   18.74  -1 
   3   9  -6   84.25   18.74   2 
   3 -10   3   89.81   18.64  -1 
   3   8  -5   89.81   18.64   2 
   3  -9   2   90.87   20.41  -1 
   3   7  -4   90.87   20.41   2 
   3  -6   0  762.69   23.95  -1 
   3   4  -2  762.69   23.95   2 
  -3   9   8   70.93   22.13  -1 
  -3  -7  -6   70.93   22.13   2 
  -3  -6   6  168.58   23.99  -1 
  -3   8  -4  168.58   23.99   2 
  -3  -7   7  277.30   25.07  -1 
  -3   9  -5  277.30   25.07   2 
   0  -6   2 2295.39   31.86  -1 
   0   6  -2 2295.39   31.86   2 
   5   7   3   56.18   25.05  -1 
   5 -10  -6   56.18   25.05   2 
  -5  -6  10   35.64   24.92  -1 
  -5   9  -7   35.64   24.92   2 
  -5  -5   9   94.61   25.00  -1 
  -5   8  -6   94.61   25.00   2 
  -5  -4   8  141.26   22.45  -1 
  -5   7  -5  141.26   22.45   2 
   3   6   1  214.76   22.84  -1 
   3  -8  -3  214.76   22.84   2 
   5   4   0  103.95   23.33  -1 
   5  -7  -3  103.95   23.33   2 
  -3   8   6   88.89   21.74  -1 
  -3  -6  -4   88.89   21.74   2 
  -3   7   5  201.63   21.26  -1 
  -3  -5  -3  201.63   21.26   2 
   0  -4   1  147.63   16.47  -1 
   0   4  -1  147.63   16.47   2 
   8  -7   1   45.39   20.26  -1 
   8   2  -6   45.39   20.26   2 
  -3   3   3   59.11   21.50  -1 
  -3  -1  -1   59.11   21.50   2 
   0   5   1  255.54   17.55  -1 
   0  -5  -1  255.54   17.55   2 
   2   6   1   62.92   18.69  -1 
   2  -7  -2   62.92   18.69   2 
   3  -3  -1 3120.90   49.48  -1 
   3   1  -1 3120.90   49.48   2 
   3   8   3   89.42   23.71  -1 
   3 -10  -5   89.42   23.71   2 
  -5   7   8   48.85   23.09  -1 
  -5  -4  -5   48.85   23.09   2 
  -5   4   6   66.51   23.33  -1 
  -5  -1  -3   66.51   23.33   2 
  -3   9   7   95.38   23.99  -1 
  -3  -7  -5   95.38   23.99   2 
  -2   6   3 1266.85   26.83  -1 
  -2  -5  -2 1266.85   26.83   2 
   0  -8   4  120.93   18.42  -1 
   0   8  -4  120.93   18.42   2 
   0  -9   5   47.76   16.74  -1 
   0   9  -5   47.76   16.74   2 
  -5   6   7   77.04   19.59  -1 
  -5  -3  -4   77.04   19.59   2 
  -5   8   9   41.49   23.98  -1 
  -5  -5  -6   41.49   23.98   2 
  -3   6   4   40.69   19.77  -1 
  -3  -4  -2   40.69   19.77   2 
   3 -11   5   35.93   20.82  -1 
   3   9  -7   35.93   20.82   2 
   3  -7   1  322.41   19.57  -1 
   3   5  -3  322.41   19.57   2 
   6 -10   3   62.01   22.74  -1 
   6   6  -7   62.01   22.74   2 
   8   1   0   39.72   33.38  -1 
   8  -6  -5   39.72   33.38   2 
  -3  -8   9  101.61   19.29  -1 
  -3  10  -7  101.61   19.29   2 
   0   8   3  163.88   16.31  -1 
   0  -8  -3  163.88   16.31   2 
   0   2   0 5401.09   61.85  -1 
   0  -2   0 5401.09   61.85   2 
   3   3  -1  232.08   23.80  -1 
   3  -5  -1  232.08   23.80   2 
  -5  -2   7  385.14   32.78  -1 
  -5   5  -4  385.14   32.78   2 
  -3   4   3  242.32   22.38  -1 
  -3  -2  -1  242.32   22.38   2 
  -2  -8   7  328.05   26.31  -1 
  -2   9  -6  328.05   26.31   2 
   0   7   2  495.19   17.25  -1 
   0  -7  -2  495.19   17.25   2 
   0   9   4  280.48   19.75  -1 
   0  -9  -4  280.48   19.75   2 
   2   5   0 1389.85   29.91  -1 
   2  -6  -1 1389.85   29.91   2 
   3 -10   4   85.60   19.97  -1 
   3   8  -6   85.60   19.97   2 
   3  -9   3   82.22   19.48  -1 
   3   7  -5   82.22   19.48   2 
   3  -8   2  585.77   23.67  -1 
   3   6  -4  585.77   23.67   2 
   5   7   2   72.03   25.75  -1 
   5 -10  -5   72.03   25.75   2 
   0 -10   7   89.61   20.01  -1 
   0  10  -7   89.61   20.01   2 
   5  -7   1  381.91   25.64  -1 
   5   4  -4  381.91   25.64   2 
   3  -5   0  174.56   18.49  -1 
   3   3  -2  174.56   18.49   2 
   5   3  -1  388.82   27.08  -1 
   5  -6  -2  388.82   27.08   2 
  -6  -2  10  119.68   33.53  -1 
  -6   6  -6  119.68   33.53   2 
  -5   5   6  319.20   24.15  -1 
  -5  -2  -3  319.20   24.15   2 
  -3   9   6   52.61   21.69  -1 
  -3  -7  -4   52.61   21.69   2 
  -3   8   5  321.54   21.48  -1 
  -3  -6  -3  321.54   21.48   2 
  -2   7   3  272.74   24.18  -1 
  -2  -6  -2  272.74   24.18   2 
   0  -5   2   40.93   16.25  -1 
   0   5  -2   40.93   16.25   2 
   3   8   2   48.51   20.90  -1 
   3 -10  -4   48.51   20.90   2 
   3   7   1   95.77   19.24  -1 
   3  -9  -3   95.77   19.24   2 
   5  -8   2   66.53   22.20  -1 
   5   5  -5   66.53   22.20   2 
   8  -6   1  147.32   22.86  -1 
   8   1  -6  147.32   22.86   2 
  -5  -5  10   70.99   23.32  -1 
  -5   8  -7   70.99   23.32   2 
   0  -9   6  108.54   20.08  -1 
   0   9  -6  108.54   20.08   2 
   0   3   0  188.18   15.37  -1 
   0  -3   0  188.18   15.37   2 
   0   6   1  608.77   19.12  -1 
   0  -6  -1  608.77   19.12   2 
   3 -11   6   70.18   22.33  -1 
   3   9  -8   70.18   22.33   2 
   3   9   3   80.94   22.90  -1 
   3 -11  -5   80.94   22.90   2 
   6  -7   1  356.08   25.57  -1 
   6   3  -5  356.08   25.57   2 
  -5   7   7  157.31   19.17  -1 
  -5  -4  -4  157.31   19.17   2 
  -3  10   7   -6.71   19.66  -1 
  -3  -8  -5   -6.71   19.66   2 
  -3   7   4  503.83   24.38  -1 
  -3  -5  -2  503.83   24.38   2 
  -3  -6   7  181.13   21.77  -1 
  -3   8  -5  181.13   21.77   2 
  -3  -8  10   63.57   21.29  -1 
  -3  10  -8   63.57   21.29   2 
   3   6   0  324.76   23.90  -1 
   3  -8  -2  324.76   23.90   2 
   3   4  -1  137.66   20.62  -1 
   3  -6  -1  137.66   20.62   2 
   5  -9   3  107.25   20.84  -1 
   5   6  -6  107.25   20.84   2 
   8  -3   0   77.62   31.14  -1 
   8  -2  -5   77.62   31.14   2 
  -5  -4   9   39.28   25.10  -1 
  -5   7  -6   39.28   25.10   2 
  -5  -3   8  213.38   27.19  -1 
  -5   6  -5  213.38   27.19   2 
  -3   5   3   30.19   19.55  -1 
  -3  -3  -1   30.19   19.55   2 
   0  -8   5  487.62   21.96  -1 
   0   8  -5  487.62   21.96   2 
   6 -10   4   92.22   24.18  -1 
   6   6  -8   92.22   24.18   2 
   6  -9   3   83.03   21.67  -1 
   6   5  -7   83.03   21.67   2 
   6  -8   2  199.84   25.75  -1 
   6   4  -6  199.84   25.75   2 
   8   2   0   47.30   30.31  -1 
   8  -7  -5   47.30   30.31   2 
   0  10   4    9.49   19.40  -1 
   0 -10  -4    9.49   19.40   2 
   0   8   2   80.96   17.61  -1 
   0  -8  -2   80.96   17.61   2 
   0  -3   1   35.28   13.89  -1 
   0   3  -1   35.28   13.89   2 
   0  -6   3  552.79   20.88  -1 
   0   6  -3  552.79   20.88   2 
   0 -10   8   93.48   19.38  -1 
   0  10  -8   93.48   19.38   2 
   8  -7   2   69.00   22.48  -1 
   8   2  -7   69.00   22.48   2 
   0  -7   4   55.58   13.57  -1 
   0   7  -4   55.58   13.57   2 
   0   4   0 2216.40   31.40  -1 
   0  -4   0 2216.40   31.40   2 
   2   6   0  105.33   19.53  -1 
   2  -7  -1  105.33   19.53   2 
   3 -10   5  288.67   18.32  -1 
   3   8  -7  288.67   18.32   2 
   3  -6   1  287.91   20.10  -1 
   3   4  -3  287.91   20.10   2 
   5   7   1   51.98   23.45  -1 
   5 -10  -4   51.98   23.45   2 
  -5   6   6  164.35   21.75  -1 
  -5  -3  -3  164.35   21.75   2 
  -3   9   5  198.58   23.80  -1 
  -3  -7  -3  198.58   23.80   2 
  -2   6   2  575.26   22.19  -1 
  -2  -5  -1  575.26   22.19   2 
  -2  -9  10   81.28   23.24  -1 
  -2  10  -9   81.28   23.24   2 
   0   7   1  163.60   14.88  -1 
   0  -7  -1  163.60   14.88   2 
   2   4  -1  781.82   28.52  -1 
   2  -5   0  781.82   28.52   2 
   3  -9   4   94.29   19.18  -1 
   3   7  -6   94.29   19.18   2 
   3  -8   3  425.66   22.83  -1 
   3   6  -5  425.66   22.83   2 
   3  -7   2   94.09   17.95  -1 
   3   5  -4   94.09   17.95   2 
   3   8   1  143.23   24.03  -1 
   3 -10  -3  143.23   24.03   2 
   3   9   2   68.61   25.82  -1 
   3 -11  -4   68.61   25.82   2 
   5   4  -1   88.03   22.06  -1 
   5  -7  -2   88.03   22.06   2 
   5   6   0   63.16   26.23  -1 
   5  -9  -3   63.16   26.23   2 
  -5   9   8   65.90   21.01  -1 
  -5  -6  -5   65.90   21.01   2 
  -5   8   7   83.43   19.75  -1 
  -5  -5  -4   83.43   19.75   2 
  -3   8   4   20.90   20.15  -1 
  -3  -6  -2   20.90   20.15   2 
  -3   6   3  147.01   20.73  -1 
  -3  -4  -1  147.01   20.73   2 
   5 -10   5   19.07   19.21  -1 
   5   7  -8   19.07   19.21   2 
  -5  -5  11  139.46   24.28  -1 
  -5   8  -8  139.46   24.28   2 
   0 -10   9   17.25   18.22  -1 
   0  10  -9   17.25   18.22   2 
  -5   7   6  140.53   24.22  -1 
  -5  -4  -3  140.53   24.22   2 
  -3  -6   8   75.21   21.39  -1 
  -3   8  -6   75.21   21.39   2 
  -2   7   2   77.51   20.11  -1 
  -2  -6  -1   77.51   20.11   2 
   0   5   0  177.63   17.24  -1 
   0  -5   0  177.63   17.24   2 
   8  -5   1    0.21   19.66  -1 
   8   0  -6    0.21   19.66   2 
  -2  -8   9  171.24   23.46  -1 
  -2   9  -8  171.24   23.46   2 
   0   9   2  376.66   18.88  -1 
   0  -9  -2  376.66   18.88   2 
   0  10   3   72.32   18.16  -1 
   0 -10  -3   72.32   18.16   2 
   3 -10   6   69.46   19.47  -1 
   3   8  -8   69.46   19.47   2 
   3  -4   0 1901.83   35.51  -1 
   3   2  -2 1901.83   35.51   2 
   8   3   0   24.41   28.72  -1 
   8  -8  -5   24.41   28.72   2 
  -5   4   5  812.63   31.76  -1 
  -5  -1  -2  812.63   31.76   2 
   0  -8   6   48.46   19.03  -1 
   0   8  -6   48.46   19.03   2 
   5  -8   3  537.62   23.82  -1 
   5   5  -6  537.62   23.82   2 
  -5  -4  10  187.87   27.12  -1 
  -5   7  -7  187.87   27.12   2 
  -3   7   3   35.33   17.82  -1 
  -3  -5  -1   35.33   17.82   2 
  -3  10   5   65.97   22.33  -1 
  -3  -8  -3   65.97   22.33   2 
   0  -4   2 2732.50   35.80  -1 
   0   4  -2 2732.50   35.80   2 
   0   8   1  318.89   19.99  -1 
   0  -8  -1  318.89   19.99   2 
   2   5  -1 1023.73   28.95  -1 
   2  -6   0 1023.73   28.95   2 
   6  -9   4   28.53   21.28  -1 
   6   5  -8   28.53   21.28   2 
   6  -8   3  286.47   24.22  -1 
   6   4  -7  286.47   24.22   2 
  -5   9   7  181.91   21.92  -1 
  -5  -6  -4  181.91   21.92   2 
  -5   5   5   48.47   21.59  -1 
  -5  -2  -2   48.47   21.59   2 
  -5   3   5  127.01   27.92  -1 
  -5   0  -2  127.01   27.92   2 
  -3   9   4  313.90   21.77  -1 
  -3  -7  -2  313.90   21.77   2 
  -3  -4   6  294.60   24.16  -1 
  -3   6  -4  294.60   24.16   2 
  -3  -7  10  108.41   21.18  -1 
  -3   9  -8  108.41   21.18   2 
   0   6   0 1388.96   26.23  -1 
   0  -6   0 1388.96   26.23   2 
   5 -10   6   63.28   18.14  -1 
   5   7  -9   63.28   18.14   2 
   8  -2   0  248.82   39.07  -1 
   8  -3  -5  248.82   39.07   2 
   8  -6   2   30.19   20.91  -1 
   8   1  -7   30.19   20.91   2 
  -5  -1   7   75.53   31.49  -1 
  -5   4  -4   75.53   31.49   2 
   0  -9   8   38.78   16.08  -1 
   0   9  -8   38.78   16.08   2 
   0  -7   5   31.65   13.16  -1 
   0   7  -5   31.65   13.16   2 
   3   6  -1   93.70   22.01  -1 
   3  -8  -1   93.70   22.01   2 
   3   9   1   58.58   22.78  -1 
   3 -11  -3   58.58   22.78   2 
   5   7   0  208.71   22.61  -1 
   5 -10  -3  208.71   22.61   2 
  -5   8   6  121.06   20.60  -1 
  -5  -5  -3  121.06   20.60   2 
  -5   6   5  130.51   23.30  -1 
  -5  -3  -2  130.51   23.30   2 
   3   8   0  176.72   22.40  -1 
   3 -10  -2  176.72   22.40   2 
   8  -7   3   25.29   21.03  -1 
   8   2  -8   25.29   21.03   2 
  -6   6   7  151.20   24.91  -1 
  -6  -2  -3  151.20   24.91   2 
  -5  -3   9  179.99   24.89  -1 
  -5   6  -6  179.99   24.89   2 
  -3   8   3  121.59   20.85  -1 
  -3  -6  -1  121.59   20.85   2 
  -2  -8  10  107.66   23.55  -1 
  -2   9  -9  107.66   23.55   2 
   0  -6   4  267.94   15.55  -1 
   0   6  -4  267.94   15.55   2 
   0  -5   3    3.76   12.81  -1 
   0   5  -3    3.76   12.81   2 
   0  10   2   53.52   19.54  -1 
   0 -10  -2   53.52   19.54   2 
   0  11   3   81.10   21.19  -1 
   0 -11  -3   81.10   21.19   2 
   2   6  -1  135.97   24.37  -1 
   2  -7   0  135.97   24.37   2 
   3  -8   4  194.43   20.12  -1 
   3   6  -6  194.43   20.12   2 
   3  -5   1 1954.74   32.43  -1 
   3   3  -3 1954.74   32.43   2 
   5  -9   5  150.83   19.53  -1 
   5   6  -8  150.83   19.53   2 
  -5  -2   8  177.23   28.61  -1 
  -5   5  -5  177.23   28.61   2 
  -3   4   2  554.80   25.44  -1 
  -3  -2   0  554.80   25.44   2 
  -3   5   2 1253.59   29.46  -1 
  -3  -3   0 1253.59   29.46   2 
  -3  11   5   64.00   21.76  -1 
  -3  -9  -3   64.00   21.76   2 
   0  -8   7  125.90   18.89  -1 
   0   8  -7  125.90   18.89   2 
   0   7   0   66.47   14.02  -1 
   0  -7   0   66.47   14.02   2 
   3  -7   3   94.64   17.88  -1 
   3   5  -5   94.64   17.88   2 
   3  -6   2 1460.25   29.48  -1 
   3   4  -4 1460.25   29.48   2 
   5   6  -1  169.96   26.99  -1 
   5  -9  -2  169.96   26.99   2 
  -5   9   6  136.59   22.18  -1 
  -5  -6  -3  136.59   22.18   2 
  -3  10   4   29.55   20.27  -1 
  -3  -8  -2   29.55   20.27   2 
  -3  -6   9   99.32   20.33  -1 
  -3   8  -7   99.32   20.33   2 
  -3  -7  11   85.84   20.42  -1 
  -3   9  -9   85.84   20.42   2 
   0  -9   9   99.23   18.99  -1 
   0   9  -9   99.23   18.99   2 
   3   7  -1   64.83   20.80  -1 
   3  -9  -1   64.83   20.80   2 
   8  -4   1  275.87   26.50  -1 
   8  -1  -6  275.87   26.50   2 
  -3   6   2  419.51   23.23  -1 
  -3  -4   0  419.51   23.23   2 
   3 -10   8  102.24   20.29  -1 
   3   8 -10  102.24   20.29   2 
   3  -9   6   48.23   18.07  -1 
   3   7  -8   48.23   18.07   2 
   5   8   0   58.66   26.30  -1 
   5 -11  -3   58.66   26.30   2 
  -3   9   3   73.87   21.40  -1 
  -3  -7  -1   73.87   21.40   2 
  -2   9   2   30.23   19.50  -1 
  -2  -8  -1   30.23   19.50   2 
   3   4  -2  698.62   26.02  -1 
   3  -6   0  698.62   26.02   2 
   3   3  -2  114.23   19.99  -1 
   3  -5   0  114.23   19.99   2 
   5  -6   2  371.99   25.96  -1 
   5   3  -5  371.99   25.96   2 
  -3   3   2 1547.06   37.78  -1 
  -3  -1   0 1547.06   37.78   2 
  -2  -8  11   61.50   23.20  -1 
  -2   9 -10   61.50   23.20   2 
   0  -2   1    9.60   11.58  -1 
   0   2  -1    9.60   11.58   2 
   0   8   0  782.71   23.84  -1 
   0  -8   0  782.71   23.84   2 
   2   7  -1  478.33   25.13  -1 
   2  -8   0  478.33   25.13   2 
   5   2  -2  517.91   32.61  -1 
   5  -5  -1  517.91   32.61   2 
   5   3  -2   25.65   22.78  -1 
   5  -6  -1   25.65   22.78   2 
   6  -8   4   98.38   20.16  -1 
   6   4  -8   98.38   20.16   2 
  -5   8   5  207.10   21.51  -1 
  -5  -5  -2  207.10   21.51   2 
  -3  -5   8  185.63   21.45  -1 
  -3   7  -6  185.63   21.45   2 
  -3  -7  12   82.21   22.51  -1 
  -3   9 -10   82.21   22.51   2 
   0  11   2  136.60   19.39  -1 
   0 -11  -2  136.60   19.39   2 
   5  -9   6   37.23   21.27  -1 
   5   6  -9   37.23   21.27   2 
  -5  10   6   80.01   22.90  -1 
  -5  -7  -3   80.01   22.90   2 
  -3   7   2  617.57   22.04  -1 
  -3  -5   0  617.57   22.04   2 
  -3  11   4   96.44   22.60  -1 
  -3  -9  -2   96.44   22.60   2 
   0  -9  10   83.74   16.62  -1 
   0   9 -10   83.74   16.62   2 
   0  10   1   54.45   16.20  -1 
   0 -10  -1   54.45   16.20   2 
   3  -8   5  625.68   22.67  -1 
   3   6  -7  625.68   22.67   2 
   5   4  -2  420.89   26.17  -1 
   5  -7  -1  420.89   26.17   2 
   5   7  -1  144.22   24.00  -1 
   5 -10  -2  144.22   24.00   2 
  -3  -6  10   86.63   21.59  -1 
  -3   8  -8   86.63   21.59   2 
  -2   8   1  260.41   21.74  -1 
  -2  -7   0  260.41   21.74   2 
   0  -8   8   97.68   19.99  -1 
   0   8  -8   97.68   19.99   2 
   3   8  -1   40.70   19.62  -1 
   3 -10  -1   40.70   19.62   2 
   3   5  -2  113.09   18.70  -1 
   3  -7   0  113.09   18.70   2 
   8  -5   2   56.52   20.53  -1 
   8   0  -7   56.52   20.53   2 
   8  -6   3  138.32   21.26  -1 
   8   1  -8  138.32   21.26   2 
  -3   8   2  244.30   20.34  -1 
  -3  -6   0  244.30   20.34   2 
  -3  10   3   93.15   20.23  -1 
  -3  -8  -1   93.15   20.23   2 
   2   8  -1    6.59   19.70  -1 
   2  -9   0    6.59   19.70   2 
   3  -3   0  372.40   26.56  -1 
   3   1  -2  372.40   26.56   2 
  -5   9   5   43.34   19.52  -1 
  -5  -6  -2   43.34   19.52   2 
  -3  -4   7  397.82   24.05  -1 
  -3   6  -5  397.82   24.05   2 
   0   9   0   85.20   17.94  -1 
   0  -9   0   85.20   17.94   2 
   0   4  -1  146.28   16.53  -1 
   0  -4   1  146.28   16.53   2 
   0  -6   5  808.83   22.16  -1 
   0   6  -5  808.83   22.16   2 
   3   6  -2  507.31   27.09  -1 
   3  -8   0  507.31   27.09   2 
  -5  -3  10   27.90   23.91  -1 
  -5   6  -7   27.90   23.91   2 
   0   6  -1   32.99   13.57  -1 
   0  -6   1   32.99   13.57   2 
   3  -7   4  106.75   19.20  -1 
   3   5  -6  106.75   19.20   2 
   6  -8   5  335.99   23.38  -1 
   6   4  -9  335.99   23.38   2 
  -5   6   4   86.34   20.02  -1 
  -5  -3  -1   86.34   20.02   2 
  -5   5   4  238.96   23.41  -1 
  -5  -2  -1  238.96   23.41   2 
   0  11   1   34.00   21.25  -1 
   0 -11  -1   34.00   21.25   2 
   5  -9   7  175.24   20.58  -1 
   5   6 -10  175.24   20.58   2 
  -5  -4  12   47.90   23.66  -1 
  -5   7  -9   47.90   23.66   2 
  -3   9   2  327.18   21.17  -1 
  -3  -7   0  327.18   21.17   2 
   0  -8   9   34.86   18.44  -1 
   0   8  -9   34.86   18.44   2 
   0  -5   4  904.73   22.01  -1 
   0   5  -4  904.73   22.01   2 
   0  -3   2  723.45   23.73  -1 
   0   3  -2  723.45   23.73   2 
   0   3  -1   25.76   12.25  -1 
   0  -3   1   25.76   12.25   2 
   0   7  -1   94.37   19.45  -1 
   0  -7   1   94.37   19.45   2 
   2   5  -2  482.74   24.28  -1 
   2  -6   1  482.74   24.28   2 
   3  -6   3  744.24   24.82  -1 
   3   4  -5  744.24   24.82   2 
   3   9  -1   26.23   22.78  -1 
   3 -11  -1   26.23   22.78   2 
   5   8  -1   55.91   22.74  -1 
   5 -11  -2   55.91   22.74   2 
   8   2  -1  133.36   43.43  -1 
   8  -7  -4  133.36   43.43   2 
  -5  10   5   29.93   20.54  -1 
  -5  -7  -2   29.93   20.54   2 
  -5   7   4  259.32   22.62  -1 
  -5  -4  -1  259.32   22.62   2 
  -3  11   3   44.60   20.71  -1 
  -3  -9  -1   44.60   20.71   2 
  -3  -5   9  467.00   24.51  -1 
  -3   7  -7  467.00   24.51   2 
  -3  -6  11   20.61   18.71  -1 
  -3   8  -9   20.61   18.71   2 
   0  -7   7  248.27   20.20  -1 
   0   7  -7  248.27   20.20   2 
  -2  -7  11  250.39   25.57  -1 
  -2   8 -10  250.39   25.57   2 
   0  -4   3  853.86   21.45  -1 
   0   4  -3  853.86   21.45   2 
   0  10   0  204.33   17.59  -1 
   0 -10   0  204.33   17.59   2 
   2   6  -2  249.22   20.89  -1 
   2  -7   1  249.22   20.89   2 
   3  -9   8   55.81   16.56  -1 
   3   7 -10   55.81   16.56   2 
   3  -8   6   95.10   18.84  -1 
   3   6  -8   95.10   18.84   2 
   3  -5   2  556.53   23.33  -1 
   3   3  -4  556.53   23.33   2 
   6  -7   4   34.40   23.11  -1 
   6   3  -8   34.40   23.11   2 
   8   3  -1   29.48   30.25  -1 
   8  -8  -4   29.48   30.25   2 
  -5   8   4   34.97   20.01  -1 
  -5  -5  -1   34.97   20.01   2 
  -5   4   4  197.23   25.14  -1 
  -5  -1  -1  197.23   25.14   2 
   0   8  -1   53.48   18.87  -1 
   0  -8   1   53.48   18.87   2 
   5  -6   3  646.37   27.90  -1 
   5   3  -6  646.37   27.90   2 
   5  -8   6  100.80   23.11  -1 
   5   5  -9  100.80   23.11   2 
   8  -3   1   44.45   25.83  -1 
   8  -2  -6   44.45   25.83   2 
  -5  -2   9   44.41   25.25  -1 
  -5   5  -6   44.41   25.25   2 
  -3  10   2  120.76   20.59  -1 
  -3  -8   0  120.76   20.59   2 
   2   7  -2  388.80   23.66  -1 
   2  -8   1  388.80   23.66   2 
   6  -8   6   51.84   21.20  -1 
   6   4 -10   51.84   21.20   2 
  -5   9   4  196.01   20.35  -1 
  -5  -6  -1  196.01   20.35   2 
   0  -8  10   56.04   18.79  -1 
   0   8 -10   56.04   18.79   2 
   3   8  -2  286.04   23.71  -1 
   3 -10   0  286.04   23.71   2 
   5  -5   2  322.82   24.91  -1 
   5   2  -5  322.82   24.91   2 
   8  -6   4   58.70   22.34  -1 
   8   1  -9   58.70   22.34   2 
  -6   4   6  167.08   33.15  -1 
  -6   0  -2  167.08   33.15   2 
  -3   6   1  275.83   22.31  -1 
  -3  -4   1  275.83   22.31   2 
  -2  -7  12   37.24   22.46  -1 
  -2   8 -11   37.24   22.46   2 
   0  -6   6  245.07   18.16  -1 
   0   6  -6  245.07   18.16   2 
   3  -9   9  171.56   17.10  -1 
   3   7 -11  171.56   17.10   2 
   3  -7   5  274.20   20.62  -1 
   3   5  -7  274.20   20.62   2 
   5   7  -2   41.89   22.50  -1 
   5 -10  -1   41.89   22.50   2 
   0  11   0  137.18   20.14  -1 
   0 -11   0  137.18   20.14   2 
   0   9  -1   84.02   17.05  -1 
   0  -9   1   84.02   17.05   2 
   0  -7   8   30.53   18.64  -1 
   0   7  -8   30.53   18.64   2 
   8  -4   2   16.79   22.92  -1 
   8  -1  -7   16.79   22.92   2 
   8  -5   3   30.34   19.48  -1 
   8   0  -8   30.34   19.48   2 
  -5  -3  11  212.15   25.92  -1 
  -5   6  -8  212.15   25.92   2 
  -3   5   1  352.87   22.01  -1 
  -3  -3   1  352.87   22.01   2 
  -3   8   1  174.10   17.70  -1 
  -3  -6   1  174.10   17.70   2 
  -3  11   2  251.15   21.26  -1 
  -3  -9   0  251.15   21.26   2 
   3  -8   7  123.82   19.95  -1 
   3   6  -9  123.82   19.95   2 
   6  -5   2   61.69   21.57  -1 
   6   1  -6   61.69   21.57   2 
  -5  10   4    4.77   19.40  -1 
  -5  -7  -1    4.77   19.40   2 
  -3  -5  10   52.42   19.58  -1 
  -3   7  -8   52.42   19.58   2 
   0  -8  11   44.62   17.18  -1 
   0   8 -11   44.62   17.18   2 
   3   9  -2   80.66   21.64  -1 
   3 -11   0   80.66   21.64   2 
  -6   7   5  209.62   25.14  -1 
  -6  -3  -1  209.62   25.14   2 
  -3   9   1  118.66   18.39  -1 
  -3  -7   1  118.66   18.39   2 
   0   2  -1   15.58   14.37  -1 
   0  -2   1   15.58   14.37   2 
   0  10  -1   38.19   19.26  -1 
   0 -10   1   38.19   19.26   2 
   6  -8   7  137.55   22.90  -1 
   6   4 -11  137.55   22.90   2 
  -5   7   3   47.06   22.53  -1 
  -5  -4   0   47.06   22.53   2 
   3   5  -3  177.60   22.07  -1 
   3  -7   1  177.60   22.07   2 
  -5  -1   8  228.56   30.86  -1 
  -5   4  -5  228.56   30.86   2 
  -3   4   1  838.44   28.91  -1 
  -3  -2   1  838.44   28.91   2 
  -3  10   1   72.93   19.98  -1 
  -3  -8   1   72.93   19.98   2 
  -2  -6  10  221.60   22.02  -1 
  -2   7  -9  221.60   22.02   2 
   0  -8  12   48.20   16.67  -1 
   0   8 -12   48.20   16.67   2 
   0  -5   5  100.96   14.46  -1 
   0   5  -5  100.96   14.46   2 
   3  -8   8   81.28   18.00  -1 
   3   6 -10   81.28   18.00   2 
   3  -6   4  318.95   19.43  -1 
   3   4  -6  318.95   19.43   2 
  -5   9   3   61.16   22.74  -1 
  -5  -6   0   61.16   22.74   2 
  -5   8   3  197.01   20.17  -1 
  -5  -5   0  197.01   20.17   2 
  -5   6   3  379.41   24.97  -1 
  -5  -3   0  379.41   24.97   2 
   0   7  -2   35.56   19.05  -1 
   0  -7   2   35.56   19.05   2 
   0   6  -2 2289.96   30.82  -1 
   0  -6   2 2289.96   30.82   2 
   0  -7   9  526.23   21.40  -1 
   0   7  -9  526.23   21.40   2 
   3   6  -3  211.67   20.68  -1 
   3  -8   1  211.67   20.68   2 
   3   4  -3  623.84   25.01  -1 
   3  -6   1  623.84   25.01   2 
   5  -6   4  268.70   22.33  -1 
   5   3  -7  268.70   22.33   2 
   5  -8   8   32.76   24.06  -1 
   5   5 -11   32.76   24.06   2 
  -5  -3  12   99.21   23.21  -1 
  -5   6  -9   99.21   23.21   2 
   0  -6   7   71.40   17.48  -1 
   0   6  -7   71.40   17.48   2 
   0  11  -1   92.16   20.40  -1 
   0 -11   1   92.16   20.40   2 
   3  -7   6  207.75   20.44  -1 
   3   5  -8  207.75   20.44   2 
   3   7  -3  144.35   21.76  -1 
   3  -9   1  144.35   21.76   2 
   6  -6   4  220.42   24.37  -1 
   6   2  -8  220.42   24.37   2 
  -5  10   3  211.34   24.43  -1 
  -5  -7   0  211.34   24.43   2 
  -5   3   4  230.96   32.70  -1 
  -5   0  -1  230.96   32.70   2 
  -3  -3   7  455.84   25.00  -1 
  -3   5  -5  455.84   25.00   2 
  -3  -5  11  169.37   22.38  -1 
  -3   7  -9  169.37   22.38   2 
   0   8  -2  691.58   22.29  -1 
   0  -8   2  691.58   22.29   2 
   0   5  -2   39.13   15.70  -1 
   0  -5   2   39.13   15.70   2 
  -5  -2  10  186.76   24.47  -1 
  -5   5  -7  186.76   24.47   2 
  -3  11   1   59.57   20.00  -1 
  -3  -9   1   59.57   20.00   2 
   3  -5   3  182.52   20.46  -1 
   3   3  -5  182.52   20.46   2 
   5   6  -3   32.12   23.62  -1 
   5  -9   0   32.12   23.62   2 
  -5   5   3  287.13   26.17  -1 
  -5  -2   0  287.13   26.17   2 
   0   9  -2   68.71   16.83  -1 
   0  -9   2   68.71   16.83   2 
   0  -7  10  198.30   20.33  -1 
   0   7 -10  198.30   20.33   2 
   3   8  -3  154.60   19.86  -1 
   3 -10   1  154.60   19.86   2 
   8  -5   4   77.04   19.92  -1 
   8   0  -9   77.04   19.92   2 
  -6   5   5  260.59   31.55  -1 
  -6  -1  -1  260.59   31.55   2 
  -5   0   7  141.36   32.71  -1 
  -5   3  -4  141.36   32.71   2 
  -3   8   0  410.33   24.01  -1 
  -3  -6   2  410.33   24.01   2 
   0  -4   4  837.49   21.55  -1 
   0   4  -4  837.49   21.55   2 
   2   8  -3   84.98   20.70  -1 
   2  -9   2   84.98   20.70   2 
   5   7  -3  108.62   24.14  -1 
   5 -10   0  108.62   24.14   2 
  -5  11   3   45.48   20.36  -1 
  -5  -8   0   45.48   20.36   2 
  -3  12   1   27.62   20.22  -1 
  -3 -10   1   27.62   20.22   2 
  -3  -5  12   37.38   19.59  -1 
  -3   7 -10   37.38   19.59   2 
  -2   9  -1   69.30   18.74  -1 
  -2  -8   2   69.30   18.74   2 
   3   9  -3   67.32   22.17  -1 
   3 -11   1   67.32   22.17   2 
   6   3  -3  133.97   33.85  -1 
   6  -7  -1  133.97   33.85   2 
  -5  -3  13   35.15   22.27  -1 
  -5   6 -10   35.15   22.27   2 
  -3   7   0   99.27   17.00  -1 
  -3  -5   2   99.27   17.00   2 
  -3   9   0  106.03   18.69  -1 
  -3  -7   2  106.03   18.69   2 
  -2  -6  12   29.88   21.80  -1 
  -2   7 -11   29.88   21.80   2 
   3  -8  10   28.41   19.40  -1 
   3   6 -12   28.41   19.40   2 
   3  -6   5 1118.65   24.37  -1 
   3   4  -7 1118.65   24.37   2 
   5   3  -3  245.06   29.14  -1 
   5  -6   0  245.06   29.14   2 
   5   8  -3   44.77   24.72  -1 
   5 -11   0   44.77   24.72   2 
  -6  -1  13   71.44   30.68  -1 
  -6   5  -9   71.44   30.68   2 
  -3  -5  13   41.78   21.62  -1 
  -3   7 -11   41.78   21.62   2 
  -2  10  -1  137.35   20.31  -1 
  -2  -9   2  137.35   20.31   2 
   0  -6   8   43.28   17.24  -1 
   0   6  -8   43.28   17.24   2 
   0  -7  11  127.22   20.69  -1 
   0   7 -11  127.22   20.69   2 
   5  -6   5  132.03   21.28  -1 
   5   3  -8  132.03   21.28   2 
   5  -7   7  400.48   25.62  -1 
   5   4 -10  400.48   25.62   2 
   8  -2   1  425.33   29.42  -1 
   8  -3  -6  425.33   29.42   2 
  -6   8   4  107.14   21.71  -1 
  -6  -4   0  107.14   21.71   2 
  -3   6   0  654.96   22.29  -1 
  -3  -4   2  654.96   22.29   2 
  -3  10   0  198.60   20.32  -1 
  -3  -8   2  198.60   20.32   2 
  -2  -6  13   26.50   23.04  -1 
  -2   7 -12   26.50   23.04   2 
   0  -5   6  579.80   18.11  -1 
   0   5  -6  579.80   18.11   2 
   3  -8  11   26.72   19.34  -1 
   3   6 -13   26.72   19.34   2 
   6  -7   7   60.61   18.67  -1 
   6   3 -11   60.61   18.67   2 
   6  -6   5  591.21   24.66  -1 
   6   2  -9  591.21   24.66   2 
  -5   9   2   66.34   21.20  -1 
  -5  -6   1   66.34   21.20   2 
  -5   8   2  281.20   22.06  -1 
  -5  -5   1  281.20   22.06   2 
  -3  -4  10  176.45   23.36  -1 
  -3   6  -8  176.45   23.36   2 
   0  -3   3  232.02   19.22  -1 
   0   3  -3  232.02   19.22   2 
   3  10  -3   28.07   20.65  -1 
   3 -12   1   28.07   20.65   2 
  -6   7   4  248.83   22.11  -1 
  -6  -3   0  248.83   22.11   2 
  -5  -2  11   82.49   25.40  -1 
  -5   5  -8   82.49   25.40   2 
  -3   3   1 2800.52   48.15  -1 
  -3  -1   1 2800.52   48.15   2 
  -3  11   0   99.53   20.37  -1 
  -3  -9   2   99.53   20.37   2 
   3  -7   8   37.71   17.92  -1 
   3   5 -10   37.71   17.92   2 
  -5  10   2  142.43   19.81  -1 
  -5  -7   1  142.43   19.81   2 
  -5   7   2   41.86   20.91  -1 
  -5  -4   1   41.86   20.91   2 
   5  -7   8  169.46   24.22  -1 
   5   4 -11  169.46   24.22   2 
  -3   5   0  167.08   18.13  -1 
  -3  -3   2  167.08   18.13   2 
  -3  12   0   57.87   20.14  -1 
  -3 -10   2   57.87   20.14   2 
   0  -6   9   71.88   16.06  -1 
   0   6  -9   71.88   16.06   2 
   0   8  -3  672.64   22.52  -1 
   0  -8   3  672.64   22.52   2 
   6  -7   8   18.11   19.95  -1 
   6   3 -12   18.11   19.95   2 
  -5  11   2   87.22   20.85  -1 
  -5  -8   1   87.22   20.85   2 
   0   7  -3   27.57   17.75  -1 
   0  -7   3   27.57   17.75   2 
   3   7  -4  165.89   22.18  -1 
   3  -9   2  165.89   22.18   2 
   3   6  -4  249.57   24.62  -1 
   3  -8   2  249.57   24.62   2 
   5  -5   4  512.39   27.02  -1 
   5   2  -7  512.39   27.02   2 
   5  -6   6   78.89   21.06  -1 
   5   3  -9   78.89   21.06   2 
  -6   6   4  158.30   25.03  -1 
  -6  -2   0  158.30   25.03   2 
  -5  -1   9  272.46   29.31  -1 
  -5   4  -6  272.46   29.31   2 
  -5   1   6  528.06   52.63  -1 
  -5   2  -3  528.06   52.63   2 
   0  -2   2 9999.99   77.74  -1 
   0   2  -2 9999.99   77.74   2 
   3  -7   9  427.25   20.85  -1 
   3   5 -11  427.25   20.85   2 
   3  -6   6   78.22   18.29  -1 
   3   4  -8   78.22   18.29   2 
   3   8  -4  117.98   21.67  -1 
   3 -10   2  117.98   21.67   2 
   6  -5   4   63.13   22.08  -1 
   6   1  -8   63.13   22.08   2 
  -3  -4  11  226.79   22.48  -1 
  -3   6  -9  226.79   22.48   2 
  -2   9  -2  213.48   22.50  -1 
  -2  -8   3  213.48   22.50   2 
   0  10  -3  147.93   19.05  -1 
   0 -10   3  147.93   19.05   2 
   0   6  -3  559.21   20.35  -1 
   0  -6   3  559.21   20.35   2 
   2  -7  12   23.57   22.94  -1 
   2   6 -13   23.57   22.94   2 
   3   9  -4   54.30   24.13  -1 
   3 -11   2   54.30   24.13   2 
   5  -7   9   51.77   20.24  -1 
   5   4 -12   51.77   20.24   2 
   8  -4   4   94.98   23.35  -1 
   8  -1  -9   94.98   23.35   2 
  -5  -2  12   59.04   24.69  -1 
  -5   5  -9   59.04   24.69   2 
  -3   8  -1  102.29   21.65  -1 
  -3  -6   3  102.29   21.65   2 
  -3   9  -1  234.31   19.61  -1 
  -3  -7   3  234.31   19.61   2 
  -3  10  -1   67.81   18.59  -1 
  -3  -8   3   67.81   18.59   2 
  -2  -5  11  186.78   22.26  -1 
  -2   6 -10  186.78   22.26   2 
   0  -6  10   43.46   19.03  -1 
   0   6 -10   43.46   19.03   2 
   0  -4   5 1222.59   25.40  -1 
   0   4  -5 1222.59   25.40   2 
   2   8  -4  319.29   23.64  -1 
   2  -9   3  319.29   23.64   2 
   5   7  -4   65.98   25.59  -1 
   5 -10   1   65.98   25.59   2 
   0  11  -3   39.29   18.24  -1 
   0 -11   3   39.29   18.24   2 
  -6   8   3   78.21   24.07  -1 
  -6  -4   1   78.21   24.07   2 
  -3   7  -1  268.50   19.43  -1 
  -3  -5   3  268.50   19.43   2 
  -3  11  -1   98.01   20.35  -1 
  -3  -9   3   98.01   20.35   2 
  -2  -5  12  118.89   23.29  -1 
  -2   6 -11  118.89   23.29   2 
   2   9  -4   89.20   20.11  -1 
   2 -10   3   89.20   20.11   2 
   3  10  -4   57.23   23.34  -1 
   3 -12   2   57.23   23.34   2 
   5   8  -4  194.31   25.47  -1 
   5 -11   1  194.31   25.47   2 
   8   3  -2   51.47   44.91  -1 
   8  -8  -3   51.47   44.91   2 
  -5  11   1  107.56   24.71  -1 
  -5  -8   2  107.56   24.71   2 
  -5  10   1   48.17   18.53  -1 
  -5  -7   2   48.17   18.53   2 
  -5   9   1  168.92   21.54  -1 
  -5  -6   2  168.92   21.54   2 
  -5   8   1   33.47   20.62  -1 
  -5  -5   2   33.47   20.62   2 
  -3  -4  12   85.29   20.66  -1 
  -3   6 -10   85.29   20.66   2 
   0   5  -3   23.75   14.74  -1 
   0  -5   3   23.75   14.74   2 
   5  -6   7   32.44   22.01  -1 
   5   3 -10   32.44   22.01   2 
  -5  -2  13   71.12   23.94  -1 
  -5   5 -10   71.12   23.94   2 
  -3  12  -1  105.31   20.48  -1 
  -3 -10   3  105.31   20.48   2 
  -2  -5  13   89.12   22.43  -1 
  -2   6 -12   89.12   22.43   2 
   3  -7  11   45.43   16.91  -1 
   3   5 -13   45.43   16.91   2 
   3  -6   7   78.03   17.41  -1 
   3   4  -9   78.03   17.41   2 
   3  -4   3 1699.29   30.28  -1 
   3   2  -5 1699.29   30.28   2 
  -3  -4  13  133.36   23.18  -1 
  -3   6 -11  133.36   23.18   2 
   3   4  -4  475.84   22.98  -1 
   3  -6   2  475.84   22.98   2 
   5  -5   5  455.27   23.52  -1 
   5   2  -8  455.27   23.52   2 
   6   5  -4  127.47   27.65  -1 
   6  -9   0  127.47   27.65   2 
  -6   7   3   80.03   23.67  -1 
  -6  -3   1   80.03   23.67   2 
  -3   4   0 1761.99   34.57  -1 
  -3  -2   2 1761.99   34.57   2 
  -3   6  -1  301.76   20.92  -1 
  -3  -4   3  301.76   20.92   2 
   0  -6  12   59.73   17.99  -1 
   0   6 -12   59.73   17.99   2 
   0  -5   8   47.60   15.34  -1 
   0   5  -8   47.60   15.34   2 
   3  -5   5  172.39   16.58  -1 
   3   3  -7  172.39   16.58   2 
   8  -4   5   20.39   19.40  -1 
   8  -1 -10   20.39   19.40   2 
  -5   7   1  206.15   21.90  -1 
  -5  -4   2  206.15   21.90   2 
  -3  -4  14   57.77   23.29  -1 
  -3   6 -12   57.77   23.29   2 
   0  -6  13  119.02   20.74  -1 
   0   6 -13  119.02   20.74   2 
   5  -6   8  118.51   21.46  -1 
   5   3 -11  118.51   21.46   2 
   8  -2   2   39.98   24.59  -1 
   8  -3  -7   39.98   24.59   2 
  -5  -1  10   22.65   23.13  -1 
  -5   4  -7   22.65   23.13   2 
   0   8  -4  133.12   20.20  -1 
   0  -8   4  133.12   20.20   2 
   0   9  -4   36.33   15.89  -1 
   0  -9   4   36.33   15.89   2 
   0  10  -4   98.76   19.84  -1 
   0 -10   4   98.76   19.84   2 
   3  -6   8  138.60   17.18  -1 
   3   4 -10  138.60   17.18   2 
   5   4  -4  650.97   33.68  -1 
   5  -7   1  650.97   33.68   2 
   3   8  -5   75.71   23.43  -1 
   3 -10   3   75.71   23.43   2 
   6   4  -4   35.34   28.67  -1 
   6  -8   0   35.34   28.67   2 
   8   0   0   89.55   32.85  -1 
   8  -5  -5   89.55   32.85   2 
  -6   9   2  303.06   24.69  -1 
  -6  -5   2  303.06   24.69   2 
  -3   9  -2   89.60   18.16  -1 
  -3  -7   4   89.60   18.16   2 
  -3  10  -2  191.21   18.62  -1 
  -3  -8   4  191.21   18.62   2 
  -3  11  -2   34.37   19.18  -1 
  -3  -9   4   34.37   19.18   2 
  -2  -4  10  150.69   23.97  -1 
  -2   5  -9  150.69   23.97   2 
   0  -4   6  323.87   16.68  -1 
   0   4  -6  323.87   16.68   2 
   0  -3   4  606.30   19.50  -1 
   0   3  -4  606.30   19.50   2 
   0   7  -4   58.90   16.43  -1 
   0  -7   4   58.90   16.43   2 
   0  11  -4   45.89   19.28  -1 
   0 -11   4   45.89   19.28   2 
   3  -6   9   99.47   18.09  -1 
   3   4 -11   99.47   18.09   2 
   6  -5   6   35.56   22.16  -1 
   6   1 -10   35.56   22.16   2 
  -5  11   0   21.04   22.73  -1 
  -5  -8   3   21.04   22.73   2 
  -5  10   0  220.11   24.11  -1 
  -5  -7   3  220.11   24.11   2 
   0  -5   9  867.73   23.69  -1 
   0   5  -9  867.73   23.69   2 
   3  10  -5   44.61   23.01  -1 
   3 -12   3   44.61   23.01   2 
   3   9  -5   55.84   18.67  -1 
   3 -11   3   55.84   18.67   2 
   3   7  -5   63.55   18.29  -1 
   3  -9   3   63.55   18.29   2 
   5  -6  10   51.44   24.29  -1 
   5   3 -13   51.44   24.29   2 
   8  -1   1   22.85   23.37  -1 
   8  -4  -6   22.85   23.37   2 
  -5   0   8  457.94   35.05  -1 
  -5   3  -5  457.94   35.05   2 
  -3   8  -2  573.44   24.15  -1 
  -3  -6   4  573.44   24.15   2 
  -3  12  -2   76.78   20.48  -1 
  -3 -10   4   76.78   20.48   2 
   3  -5   6  546.61   23.08  -1 
   3   3  -8  546.61   23.08   2 
   3  -3   2 1069.36   29.93  -1 
   3   1  -4 1069.36   29.93   2 
  -8   6   8   35.91   32.51  -1 
  -8  -1  -3   35.91   32.51   2 
  -5   9   0   26.10   20.70  -1 
  -5  -6   3   26.10   20.70   2 
  -5   6   1   40.20   20.71  -1 
  -5  -3   2   40.20   20.71   2 
   3   6  -5  338.27   23.77  -1 
   3  -8   3  338.27   23.77   2 
   5  -4   4   44.94   22.66  -1 
   5   1  -7   44.94   22.66   2 
  -6   8   2   50.14   20.92  -1 
  -6  -4   2   50.14   20.92   2 
  -5  -1  11  162.58   25.92  -1 
  -5   4  -8  162.58   25.92   2 
  -3   5  -1 1696.31   29.10  -1 
  -3  -3   3 1696.31   29.10   2 
   0   6  -4  278.62   18.00  -1 
   0  -6   4  278.62   18.00   2 
   3  -6  10   40.90   13.05  -1 
   3   4 -12   40.90   13.05   2 
   3  -6  11   36.65   17.82  -1 
   3   4 -13   36.65   17.82   2 
   5   7  -5   55.31   25.22  -1 
   5 -10   2   55.31   25.22   2 
   5   8  -5   78.23   26.39  -1 
   5 -11   2   78.23   26.39   2 
   6  -5   7   83.63   20.70  -1 
   6   1 -11   83.63   20.70   2 
  -8   7   7   46.80   22.86  -1 
  -8  -2  -2   46.80   22.86   2 
   5  -5   7  470.18   24.56  -1 
   5   2 -10  470.18   24.56   2 
  -3   7  -2  120.00   15.75  -1 
  -3  -5   4  120.00   15.75   2 
  -2  -4  12   14.43   21.03  -1 
  -2   5 -11   14.43   21.03   2 
   0  -5  11   94.50   18.53  -1 
   0   5 -11   94.50   18.53   2 
   3  -6  12   37.24   16.73  -1 
   3   4 -14   37.24   16.73   2 
   3  -4   4   65.59   16.56  -1 
   3   2  -6   65.59   16.56   2 
   5   6  -5  160.38   25.84  -1 
   5  -9   2  160.38   25.84   2 
  -3  -3  12   53.65   21.03  -1 
  -3   5 -10   53.65   21.03   2 
   0  -4   7   87.13   16.60  -1 
   0   4  -7   87.13   16.60   2 
   3   5  -5   28.60   19.34  -1 
   3  -7   3   28.60   19.34   2 
  -6   7   2  356.84   25.15  -1 
  -6  -3   2  356.84   25.15   2 
  -5  -1  12  141.98   28.90  -1 
  -5   4  -9  141.98   28.90   2 
  -2  -4  13   41.55   21.70  -1 
  -2   5 -12   41.55   21.70   2 
  -2  -4  14   62.77   24.20  -1 
  -2   5 -13   62.77   24.20   2 
   0  -5  12  267.01   18.42  -1 
   0   5 -12  267.01   18.42   2 
   0   9  -5   59.24   19.58  -1 
   0  -9   5   59.24   19.58   2 
   0  10  -5  293.22   18.76  -1 
   0 -10   5  293.22   18.76   2 
   3  -5   7  587.11   22.05  -1 
   3   3  -9  587.11   22.05   2 
   6  -5   8   45.63   21.71  -1 
   6   1 -12   45.63   21.71   2 
  -5  11  -1   93.41   23.54  -1 
  -5  -8   4   93.41   23.54   2 
  -5   7   0   28.39   22.62  -1 
  -5  -4   3   28.39   22.62   2 
  -3  -3  13   51.20   20.74  -1 
  -3   5 -11   51.20   20.74   2 
  -2  11  -4  106.23   20.02  -1 
  -2 -10   5  106.23   20.02   2 
  -2  10  -4   61.42   19.74  -1 
  -2  -9   5   61.42   19.74   2 
   0  11  -5   37.58   18.88  -1 
   0 -11   5   37.58   18.88   2 
   5  -5   8  212.88   23.42  -1 
   5   2 -11  212.88   23.42   2 
   8  -2   3   71.14   23.76  -1 
   8  -3  -8   71.14   23.76   2 
  -6   9   1  175.04   22.31  -1 
  -6  -5   3  175.04   22.31   2 
  -3   9  -3   29.11   20.03  -1 
  -3  -7   5   29.11   20.03   2 
  -3  10  -3   54.98   18.19  -1 
  -3  -8   5   54.98   18.19   2 
  -3  11  -3   74.05   19.12  -1 
  -3  -9   5   74.05   19.12   2 
  -3  12  -3   70.47   21.25  -1 
  -3 -10   5   70.47   21.25   2 
   0   2  -2 9486.37   76.79  -1 
   0  -2   2 9486.37   76.79   2 
   0   8  -5  491.98   20.50  -1 
   0  -8   5  491.98   20.50   2 
   6  -5   9  141.62   21.10  -1 
   6   1 -13  141.62   21.10   2 
  -5  10  -1  122.43   20.61  -1 
  -5  -7   4  122.43   20.61   2 
  -3  -3  14  100.36   20.37  -1 
  -3   5 -12  100.36   20.37   2 
   0   5  -4  927.01   23.86  -1 
   0  -5   4  927.01   23.86   2 
   3   9  -6  186.06   20.15  -1 
   3 -11   4  186.06   20.15   2 
  -5  -1  13   48.97   23.52  -1 
  -5   4 -10   48.97   23.52   2 
  -3   6  -2 1180.37   26.69  -1 
  -3  -4   4 1180.37   26.69   2 
   0  -3   5   81.62   15.34  -1 
   0   3  -5   81.62   15.34   2 
   1  -5  12   50.02   24.24  -1 
   1   4 -13   50.02   24.24   2 
   2   9  -6   26.79   23.48  -1 
   2 -10   5   26.79   23.48   2 
   3  -5   8  237.02   19.64  -1 
   3   3 -10  237.02   19.64   2 
   5   5  -5  106.00   25.09  -1 
   5  -8   2  106.00   25.09   2 
  -5   9  -1   78.12   21.30  -1 
  -5  -6   4   78.12   21.30   2 
   0  -4   8   67.61   16.14  -1 
   0   4  -8   67.61   16.14   2 
   3   7  -6  214.42   24.20  -1 
   3  -9   4  214.42   24.20   2 
   5  -3   3  163.87   23.22  -1 
   5   0  -6  163.87   23.22   2 
   5  -5  10  111.34   21.16  -1 
   5   2 -13  111.34   21.16   2 
   6   5  -5  122.19   27.44  -1 
   6  -9   1  122.19   27.44   2 
  -6   8   1   49.73   23.09  -1 
  -6  -4   3   49.73   23.09   2 
  -3   8  -3  383.65   21.31  -1 
  -3  -6   5  383.65   21.31   2 
   0  -2   3 7524.93   62.03  -1 
   0   2  -3 7524.93   62.03   2 
   0   7  -5   37.50   15.96  -1 
   0  -7   5   37.50   15.96   2 
   1  -5  13  172.45   22.18  -1 
   1   4 -14  172.45   22.18   2 
   3  -5   9  193.20   17.66  -1 
   3   3 -11  193.20   17.66   2 
   6  -4   6   86.71   21.41  -1 
   6   0 -10   86.71   21.41   2 
  -5   8  -1  408.29   23.99  -1 
  -5  -5   4  408.29   23.99   2 
   3   4  -5  420.77   24.25  -1 
   3  -6   3  420.77   24.25   2 
   5  -4   6  114.08   20.40  -1 
   5   1  -9  114.08   20.40   2 
   8  -1   2  139.67   26.88  -1 
   8  -4  -7  139.67   26.88   2 
  -5   0   9   41.54   25.55  -1 
  -5   3  -6   41.54   25.55   2 
  -3   4  -1  912.15   27.41  -1 
  -3  -2   3  912.15   27.41   2 
   0  -4   9   41.43   16.80  -1 
   0   4  -9   41.43   16.80   2 
   2   7  -6   60.50   23.54  -1 
   2  -8   5   60.50   23.54   2 
   3  -5  10  152.19   19.37  -1 
   3   3 -12  152.19   19.37   2 
   3  -5  11   60.73   18.11  -1 
   3   3 -13   60.73   18.11   2 
   3  -5  12  171.12   20.10  -1 
   3   3 -14  171.12   20.10   2 
   3  -3   3  374.41   21.58  -1 
   3   1  -5  374.41   21.58   2 
   5   8  -6   28.33   25.63  -1 
   5 -11   3   28.33   25.63   2 
  -5   6   0  553.27   25.91  -1 
  -5  -3   3  553.27   25.91   2 
  -6   6   2   91.55   23.66  -1 
  -6  -2   2   91.55   23.66   2 
  -3   7  -3   74.84   17.48  -1 
  -3  -5   5   74.84   17.48   2 
  -3  10  -4   97.32   20.84  -1 
  -3  -8   6   97.32   20.84   2 
  -3  11  -4   59.87   20.03  -1 
  -3  -9   6   59.87   20.03   2 
   5   7  -6   77.07   24.82  -1 
   5 -10   3   77.07   24.82   2 
   6  -4   7  211.61   21.19  -1 
   6   0 -11  211.61   21.19   2 
  -8   8   5   -0.16   22.33  -1 
  -8  -3   0   -0.16   22.33   2 
  -8   6   7   53.82   33.46  -1 
  -8  -1  -2   53.82   33.46   2 
  -5  11  -2   24.45   21.92  -1 
  -5  -8   5   24.45   21.92   2 
  -5  10  -2   23.80   21.80  -1 
  -5  -7   5   23.80   21.80   2 
  -3  -2  10   96.15   21.38  -1 
  -3   4  -8   96.15   21.38   2 
   0   9  -6  132.39   20.35  -1 
   0  -9   6  132.39   20.35   2 
   0   6  -5  854.31   22.74  -1 
   0  -6   5  854.31   22.74   2 
   0  -4  10   45.09   17.39  -1 
   0   4 -10   45.09   17.39   2 
   5  -4   7   44.37   20.96  -1 
   5   1 -10   44.37   20.96   2 
  -6   7   1  227.71   24.18  -1 
  -6  -3   3  227.71   24.18   2 
  -6   9   0  148.93   20.93  -1 
  -6  -5   4  148.93   20.93   2 
  -3   5  -2  495.90   23.21  -1 
  -3  -3   4  495.90   23.21   2 
  -2  -3  12  104.90   21.89  -1 
  -2   4 -11  104.90   21.89   2 
  -2  -3  14  115.05   24.20  -1 
  -2   4 -13  115.05   24.20   2 
   0  -4  11   24.95   17.07  -1 
   0   4 -11   24.95   17.07   2 
   0  -4  14   60.92   18.09  -1 
   0   4 -14   60.92   18.09   2 
   3  -4   6  108.84   16.64  -1 
   3   2  -8  108.84   16.64   2 
   6  -4   8  179.01   20.23  -1 
   6   0 -12  179.01   20.23   2 
   6  -4   9   68.30   25.68  -1 
   6   0 -13   68.30   25.68   2 
  -5   7  -1  372.98   24.98  -1 
  -5  -4   4  372.98   24.98   2 
  -3  -2  11  339.84   23.93  -1 
  -3   4  -9  339.84   23.93   2 
   0  -3   6 2502.43   31.74  -1 
   0   3  -6 2502.43   31.74   2 
   0  -4  13   89.55   18.52  -1 
   0   4 -13   89.55   18.52   2 
   0  -4  12   47.58   16.73  -1 
   0   4 -12   47.58   16.73   2 
   3   9  -7   95.48   24.34  -1 
   3 -11   5   95.48   24.34   2 
   5  -4   8   63.18   21.81  -1 
   5   1 -11   63.18   21.81   2 
   8  -2   5   45.54   21.47  -1 
   8  -3 -10   45.54   21.47   2 
  -5   0  10  146.65   24.72  -1 
  -5   3  -7  146.65   24.72   2 
  -3   9  -4  101.90   17.92  -1 
  -3  -7   6  101.90   17.92   2 
  -2  -3  13   55.10   20.33  -1 
  -2   4 -12   55.10   20.33   2 
   0   8  -6   55.85   17.62  -1 
   0  -8   6   55.85   17.62   2 
   5   6  -6   32.69   25.02  -1 
   5  -9   3   32.69   25.02   2 
  -5   9  -2  134.67   20.00  -1 
  -5  -6   5  134.67   20.00   2 
  -3  -2  14   46.74   21.37  -1 
  -3   4 -12   46.74   21.37   2 
  -3  -2  13  180.86   22.38  -1 
  -3   4 -11  180.86   22.38   2 
  -3  -2  12   12.63   21.44  -1 
  -3   4 -10   12.63   21.44   2 
   3   8  -7   95.75   23.10  -1 
   3 -10   5   95.75   23.10   2 
   5  -4  10   37.89   23.62  -1 
   5   1 -13   37.89   23.62   2 
   5  -4   9  146.53   24.72  -1 
   5   1 -12  146.53   24.72   2 
   8   0   1  260.67   30.88  -1 
   8  -5  -6  260.67   30.88   2 
  -6   8   0   59.82   21.28  -1 
  -6  -4   4   59.82   21.28   2 
  -3   8  -4  148.84   21.99  -1 
  -3  -6   6  148.84   21.99   2 
   2   9  -7   23.62   20.14  -1 
   2 -10   6   23.62   20.14   2 
   6  -3   5   14.79   23.00  -1 
   6  -1  -9   14.79   23.00   2 
  -2  11  -6   86.50   21.62  -1 
  -2 -10   7   86.50   21.62   2 
   2  -4  13   59.12   18.62  -1 
   2   3 -14   59.12   18.62   2 
   3   5  -6  236.19   21.79  -1 
   3  -7   4  236.19   21.79   2 
   8  -1   3   64.05   23.41  -1 
   8  -4  -8   64.05   23.41   2 
  -6  10  -1   24.90   19.03  -1 
  -6  -6   5   24.90   19.03   2 
  -5   0  11  116.89   26.77  -1 
  -5   3  -8  116.89   26.77   2 
  -3   6  -3  632.88   22.47  -1 
  -3  -4   5  632.88   22.47   2 
  -3  11  -5   64.82   19.76  -1 
  -3  -9   7   64.82   19.76   2 
   0   7  -6  379.57   20.16  -1 
   0  -7   6  379.57   20.16   2 
   3  -4   8  106.25   17.41  -1 
   3   2 -10  106.25   17.41   2 
   3  -3   4  539.70   21.98  -1 
   3   1  -6  539.70   21.98   2 
  -5  11  -3   52.52   20.82  -1 
  -5  -8   6   52.52   20.82   2 
   0   5  -5   95.23   17.42  -1 
   0  -5   5   95.23   17.42   2 
  -5   0  12  109.27   23.84  -1 
  -5   3  -9  109.27   23.84   2 
  -3  10  -5  274.11   19.47  -1 
  -3  -8   7  274.11   19.47   2 
   0  10  -7   96.38   19.55  -1 
   0 -10   7   96.38   19.55   2 
   3  -4   9  171.29   19.38  -1 
   3   2 -11  171.29   19.38   2 
  -8   8   4   27.71   25.22  -1 
  -8  -3   1   27.71   25.22   2 
  -8   7   5   29.44   24.94  -1 
  -8  -2   0   29.44   24.94   2 
  -5  10  -3  190.04   19.52  -1 
  -5  -7   6  190.04   19.52   2 
   0  -2   4    8.78   15.13  -1 
   0   2  -4    8.78   15.13   2 
  -6   9  -1  241.03   20.89  -1 
  -6  -5   5  241.03   20.89   2 
  -3   7  -4   95.63   18.86  -1 
  -3  -5   6   95.63   18.86   2 
  -3   9  -5  123.42   21.21  -1 
  -3  -7   7  123.42   21.21   2 
   0  -3   8   26.59   15.80  -1 
   0   3  -8   26.59   15.80   2 
   0   9  -7  129.69   17.78  -1 
   0  -9   7  129.69   17.78   2 
   5   5  -6  240.89   25.07  -1 
   5  -8   3  240.89   25.07   2 
   6  -3   7  148.84   23.37  -1 
   6  -1 -11  148.84   23.37   2 
  -5   9  -3   49.80   20.68  -1 
  -5  -6   6   49.80   20.68   2 
   8   1   0   30.90   30.76  -1 
   8  -6  -5   30.90   30.76   2 
   8  -1   4  291.17   25.33  -1 
   8  -4  -9  291.17   25.33   2 
  -6   6   1  109.55   22.23  -1 
  -6  -2   3  109.55   22.23   2 
  -6   7   0  182.23   23.69  -1 
  -6  -3   4  182.23   23.69   2 
   0  -3  14   46.90   15.93  -1 
   0   3 -14   46.90   15.93   2 
   2  10  -8   94.57   23.25  -1 
   2 -11   7   94.57   23.25   2 
   3  -3   5  508.04   23.83  -1 
   3   1  -7  508.04   23.83   2 
   5   7  -7   45.16   24.27  -1 
   5 -10   4   45.16   24.27   2 
   6  -3   8   41.83   18.92  -1 
   6  -1 -12   41.83   18.92   2 
   6  -3   9  191.87   22.23  -1 
   6  -1 -13  191.87   22.23   2 
  -5   7  -2  108.08   22.33  -1 
  -5  -4   5  108.08   22.33   2 
  -3  -1   8  139.46   21.72  -1 
  -3   3  -6  139.46   21.72   2 
   0   8  -7  150.67   18.01  -1 
   0  -8   7  150.67   18.01   2 
   0  -3  13   66.98   19.18  -1 
   0   3 -13   66.98   19.18   2 
   0  -3   9  670.22   20.79  -1 
   0   3  -9  670.22   20.79   2 
   3   9  -8   40.26   20.31  -1 
   3 -11   6   40.26   20.31   2 
  -6  10  -2   69.17   21.95  -1 
  -6  -6   6   69.17   21.95   2 
  -3   4  -2  739.87   25.61  -1 
  -3  -2   4  739.87   25.61   2 
  -2  -2  13   44.39   22.18  -1 
  -2   3 -12   44.39   22.18   2 
  -2  -2  14   88.50   21.97  -1 
  -2   3 -13   88.50   21.97   2 
   0  -3  11  129.30   19.00  -1 
   0   3 -11  129.30   19.00   2 
   0  -3  12  163.75   16.48  -1 
   0   3 -12  163.75   16.48   2 
   2   9  -8    6.26   22.91  -1 
   2 -10   7    6.26   22.91   2 
  -8   6   6   26.79   32.88  -1 
  -8  -1  -1   26.79   32.88   2 
  -5  11  -4   38.19   20.58  -1 
  -5  -8   7   38.19   20.58   2 
  -2  11  -7   74.21   20.33  -1 
  -2 -10   8   74.21   20.33   2 
   3   8  -8   54.03   18.65  -1 
   3 -10   6   54.03   18.65   2 
   5  -3  10  108.60   21.26  -1 
   5   0 -13  108.60   21.26   2 
   5  -3   9   35.36   23.72  -1 
   5   0 -12   35.36   23.72   2 
   5  -3   8  149.97   19.43  -1 
   5   0 -11  149.97   19.43   2 
   8   0   2   63.46   25.39  -1 
   8  -5  -7   63.46   25.39   2 
  -6   8  -1   24.40   21.74  -1 
  -6  -4   5   24.40   21.74   2 
  -3   5  -3  149.34   18.77  -1 
  -3  -3   5  149.34   18.77   2 
  -3   8  -5  571.02   22.16  -1 
  -3  -6   7  571.02   22.16   2 
  -3  11  -6   66.34   21.06  -1 
  -3  -9   8   66.34   21.06   2 
  -2  -2  12   17.73   21.08  -1 
  -2   3 -11   17.73   21.08   2 
   3  -3   6  359.49   22.29  -1 
   3   1  -8  359.49   22.29   2 
   5   3  -5  141.11   31.25  -1 
   5  -6   2  141.11   31.25   2 
   6  -2   4  206.29   24.05  -1 
   6  -2  -8  206.29   24.05   2 
  -3  -1  14   60.01   23.11  -1 
  -3   3 -12   60.01   23.11   2 
  -3  -1   9  521.10   25.43  -1 
  -3   3  -7  521.10   25.43   2 
  -2  10  -7   14.45   20.56  -1 
  -2  -9   8   14.45   20.56   2 
   0  10  -8  105.30   22.31  -1 
   0 -10   8  105.30   22.31   2 
   0  -1   2   28.47   14.99  -1 
   0   1  -2   28.47   14.99   2 
   2  -3  10   89.68   22.24  -1 
   2   2 -11   89.68   22.24   2 
  -6   9  -2   86.52   23.59  -1 
  -6  -5   6   86.52   23.59   2 
  -3   6  -4  305.91   19.34  -1 
  -3  -4   6  305.91   19.34   2 
  -3  10  -6   74.95   19.61  -1 
  -3  -8   8   74.95   19.61   2 
   0   3  -4  617.74   19.73  -1 
   0  -3   4  617.74   19.73   2 
   0   7  -7  260.68   19.56  -1 
   0  -7   7  260.68   19.56   2 
   2   8  -8  112.57   22.82  -1 
   2  -9   7  112.57   22.82   2 
   3  -3  12  109.98   20.29  -1 
   3   1 -14  109.98   20.29   2 
   5   6  -7  151.94   24.02  -1 
   5  -9   4  151.94   24.02   2 
  -8   8   3   37.61   22.35  -1 
  -8  -3   2   37.61   22.35   2 
  -3  -1  13   90.55   21.45  -1 
  -3   3 -11   90.55   21.45   2 
  -3  -1  12   57.10   21.13  -1 
  -3   3 -10   57.10   21.13   2 
  -3  -1  11  231.50   23.91  -1 
  -3   3  -9  231.50   23.91   2 
  -3  -1  10  193.95   21.96  -1 
  -3   3  -8  193.95   21.96   2 
   0  -2   5 1524.87   27.88  -1 
   0   2  -5 1524.87   27.88   2 
   3   7  -8   62.21   23.03  -1 
   3  -9   6   62.21   23.03   2 
   3   5  -7  770.49   28.11  -1 
   3  -7   5  770.49   28.11   2 
  -5   1   8  413.81   33.67  -1 
  -5   2  -5  413.81   33.67   2 
  -3   9  -6   57.43   17.82  -1 
  -3  -7   8   57.43   17.82   2 
   0   2  -3 7267.40   63.05  -1 
   0  -2   3 7267.40   63.05   2 
   3  -3   7  656.92   22.32  -1 
   3   1  -9  656.92   22.32   2 
   3  -3   8  150.97   20.14  -1 
   3   1 -10  150.97   20.14   2 
   3  -3  10   54.77   19.62  -1 
   3   1 -12   54.77   19.62   2 
   3  -3  11  114.99   20.18  -1 
   3   1 -13  114.99   20.18   2 
   5   4  -6   65.78   26.99  -1 
   5  -7   3   65.78   26.99   2 
  -8   7   4  202.29   25.96  -1 
  -8  -2   1  202.29   25.96   2 
   0   5  -6  663.05   22.49  -1 
   0  -5   6  663.05   22.49   2 
   8   2  -1  139.42   37.87  -1 
   8  -7  -4  139.42   37.87   2 
   8   0   3  108.76   24.58  -1 
   8  -5  -8  108.76   24.58   2 
  -6  10  -3   48.55   24.24  -1 
  -6  -6   7   48.55   24.24   2 
   3  -3   9  530.75   20.01  -1 
   3   1 -11  530.75   20.01   2 
   3  -2   3  982.74   27.85  -1 
   3   0  -5  982.74   27.85   2 
   6  -2   6  239.73   25.84  -1 
   6  -2 -10  239.73   25.84   2 
   6  -2   7  100.86   22.36  -1 
   6  -2 -11  100.86   22.36   2 
   6  -2   9   45.96   22.38  -1 
   6  -2 -13   45.96   22.38   2 
   0  -2  14  103.32   17.40  -1 
   0   2 -14  103.32   17.40   2 
   5  -2   5  182.13   24.93  -1 
   5  -1  -8  182.13   24.93   2 
  -6   6   0  200.43   23.12  -1 
  -6  -2   4  200.43   23.12   2 
   0   8  -8   80.51   17.12  -1 
   0  -8   8   80.51   17.12   2 
   5   7  -8   58.91   24.83  -1 
   5 -10   5   58.91   24.83   2 
  -5  10  -5   52.00   21.40  -1 
  -5  -7   8   52.00   21.40   2 
  -5   7  -3   39.70   19.42  -1 
  -5  -4   6   39.70   19.42   2 
   0   6  -7   91.64   18.32  -1 
   0  -6   7   91.64   18.32   2 
   0  -2  13  193.41   19.11  -1 
   0   2 -13  193.41   19.11   2 
   0  -2   6   53.19   15.98  -1 
   0   2  -6   53.19   15.98   2 
   3   6  -8   59.38   22.60  -1 
   3  -8   6   59.38   22.60   2 
   5  -2  10   65.25   26.19  -1 
   5  -1 -13   65.25   26.19   2 
   8   1   1   20.79   24.98  -1 
   8  -6  -6   20.79   24.98   2 
  -6   8  -2  150.13   20.58  -1 
  -6  -4   6  150.13   20.58   2 
  -5   1   9  417.84   29.58  -1 
  -5   2  -6  417.84   29.58   2 
  -5   1  13   35.17   24.21  -1 
  -5   2 -10   35.17   24.21   2 
  -3   8  -6   97.75   16.98  -1 
  -3  -6   8   97.75   16.98   2 
  -3  10  -7  169.03   20.49  -1 
  -3  -8   9  169.03   20.49   2 
  -2  -1  14  115.52   22.00  -1 
  -2   2 -13  115.52   22.00   2 
   0  10  -9   42.06   23.31  -1 
   0 -10   9   42.06   23.31   2 
   5   5  -7   53.31   22.89  -1 
   5  -8   4   53.31   22.89   2 
   0  -2  12   57.76   17.99  -1 
   0   2 -12   57.76   17.99   2 
   3   8  -9  104.65   18.82  -1 
   3 -10   7  104.65   18.82   2 
   5  -2   9  147.48   21.56  -1 
   5  -1 -12  147.48   21.56   2 
   5  -2   8   84.51   23.45  -1 
   5  -1 -11   84.51   23.45   2 
   5  -2   7   28.16   21.91  -1 
   5  -1 -10   28.16   21.91   2 
  -6   9  -3   85.75   19.20  -1 
  -6  -5   7   85.75   19.20   2 
  -5   1  10   45.90   22.55  -1 
  -5   2  -7   45.90   22.55   2 
  -5   1  11  123.28   24.85  -1 
  -5   2  -8  123.28   24.85   2 
  -5   1  12  158.46   24.91  -1 
  -5   2  -9  158.46   24.91   2 
  -2  -1  13  129.42   23.57  -1 
  -2   2 -12  129.42   23.57   2 
   0  -2   7   13.50   12.06  -1 
   0   2  -7   13.50   12.06   2 
  -8   8   2   62.44   23.71  -1 
  -8  -3   3   62.44   23.71   2 
   0   7  -8   44.67   19.13  -1 
   0  -7   8   44.67   19.13   2 
   0  -2  11  134.69   17.84  -1 
   0   2 -11  134.69   17.84   2 
   2  -2  12  295.02   20.57  -1 
   2   1 -13  295.02   20.57   2 
  -3   5  -4  361.25   20.27  -1 
  -3  -3   6  361.25   20.27   2 
  -3   6  -5 1114.24   25.32  -1 
  -3  -4   7 1114.24   25.32   2 
  -3   9  -7  106.58   17.40  -1 
  -3  -7   9  106.58   17.40   2 
  -2  -1  12  438.60   26.42  -1 
  -2   2 -11  438.60   26.42   2 
   0  -2   8   48.43   13.17  -1 
   0   2  -8   48.43   13.17   2 
   0  -2   9   69.10   13.39  -1 
   0   2  -9   69.10   13.39   2 
   0  -2  10  202.00   15.81  -1 
   0   2 -10  202.00   15.81   2 
   0   9  -9   97.92   19.25  -1 
   0  -9   9   97.92   19.25   2 
   3  -2   4  210.69   18.01  -1 
   3   0  -6  210.69   18.01   2 
   3  -2  12  117.06   18.40  -1 
   3   0 -14  117.06   18.40   2 
   6  -1   3  103.26   22.34  -1 
   6  -3  -7  103.26   22.34   2 
  -8   7   3  150.63   26.61  -1 
  -8  -2   2  150.63   26.61   2 
  -8   6   5   18.92   32.01  -1 
  -8  -1   0   18.92   32.01   2 
  -5   9  -5  120.94   20.14  -1 
  -5  -6   8  120.94   20.14   2 
  -3   0  14  202.92   20.52  -1 
  -3   2 -12  202.92   20.52   2 
   2  -2  11  592.07   21.96  -1 
   2   1 -12  592.07   21.96   2 
   3   7  -9  256.75   22.63  -1 
   3  -9   7  256.75   22.63   2 
   3   4  -7  443.88   24.71  -1 
   3  -6   5  443.88   24.71   2 
  -6  10  -4   87.13   23.00  -1 
  -6  -6   8   87.13   23.00   2 
  -3   7  -6  215.86   19.83  -1 
  -3  -5   8  215.86   19.83   2 
  -2  -1  11  309.41   23.60  -1 
  -2   2 -10  309.41   23.60   2 
   3  -2  11  100.38   17.25  -1 
   3   0 -13  100.38   17.25   2 
   5   6  -8   77.68   24.06  -1 
   5  -9   5   77.68   24.06   2 
  -3   0  13  183.90   23.58  -1 
  -3   2 -11  183.90   23.58   2 
  -6   8  -3  309.02   22.80  -1 
  -6  -4   7  309.02   22.80   2 
  -2  -1  10  260.20   23.78  -1 
  -2   2  -9  260.20   23.78   2 
   0   1  -2   21.32   12.15  -1 
   0  -1   2   21.32   12.15   2 
   0   5  -7  312.01   20.27  -1 
   0  -5   7  312.01   20.27   2 
   0   8  -9   47.59   17.47  -1 
   0  -8   9   47.59   17.47   2 
   3  -2   6  485.53   22.88  -1 
   3   0  -8  485.53   22.88   2 
   3  -2   9  104.13   19.03  -1 
   3   0 -11  104.13   19.03   2 
   3  -2  10   45.81   18.23  -1 
   3   0 -12   45.81   18.23   2 
   6  -1   4   68.76   20.29  -1 
   6  -3  -8   68.76   20.29   2 
   6  -1   8   36.08   19.89  -1 
   6  -3 -12   36.08   19.89   2 
  -5  10  -6   59.57   19.77  -1 
  -5  -7   9   59.57   19.77   2 
  -5   7  -4  140.50   19.59  -1 
  -5  -4   7  140.50   19.59   2 
   0   3  -5   65.33   14.86  -1 
   0  -3   5   65.33   14.86   2 
   3   5  -8  160.26   21.22  -1 
   3  -7   6  160.26   21.22   2 
   6   6  -8   13.77   29.38  -1 
   6 -10   4   13.77   29.38   2 
   8   1   3   94.99   26.52  -1 
   8  -6  -8   94.99   26.52   2 
  -6   9  -4   23.26   21.56  -1 
  -6  -5   8   23.26   21.56   2 
  -3   8  -7  150.94   17.77  -1 
  -3  -6   9  150.94   17.77   2 
   0  -1   3 3018.83   42.65  -1 
   0   1  -3 3018.83   42.65   2 
   0   6  -8   61.32   20.17  -1 
   0  -6   8   61.32   20.17   2 
   3  -2   7   59.16   18.26  -1 
   3   0  -9   59.16   18.26   2 
   3  -2   8  139.85   17.49  -1 
   3   0 -10  139.85   17.49   2 
   5  -1  10  125.74   24.53  -1 
   5  -2 -13  125.74   24.53   2 
   6  -1   5   54.38   21.44  -1 
   6  -3  -9   54.38   21.44   2 
   6  -1   6   93.00   20.35  -1 
   6  -3 -10   93.00   20.35   2 
   6  -1   7  103.45   22.11  -1 
   6  -3 -11  103.45   22.11   2 
  -8   8   1   41.51   21.03  -1 
  -8  -3   4   41.51   21.03   2 
  -5   8  -5  124.92   17.75  -1 
  -5  -5   8  124.92   17.75   2 
  -3   0  11  245.50   23.10  -1 
  -3   2  -9  245.50   23.10   2 
   0  -1  13   54.00   17.44  -1 
   0   1 -13   54.00   17.44   2 
   3   8 -10   49.78   19.92  -1 
   3 -10   8   49.78   19.92   2 
   3   6  -9   92.78   21.76  -1 
   3  -8   7   92.78   21.76   2 
   8   3  -2   46.26   39.95  -1 
   8  -8  -3   46.26   39.95   2 
  -3   9  -8   66.72   19.93  -1 
  -3  -7  10   66.72   19.93   2 
  -2   0  14   53.97   20.60  -1 
  -2   1 -13   53.97   20.60   2 
  -5   9  -6   35.45   20.90  -1 
  -5  -6   9   35.45   20.90   2 
  -3   0  10  356.84   24.37  -1 
  -3   2  -8  356.84   24.37   2 
  -3   0   9   97.36   21.92  -1 
  -3   2  -7   97.36   21.92   2 
  -3   0   8  552.99   24.99  -1 
  -3   2  -6  552.99   24.99   2 
   0   9 -10   84.65   19.68  -1 
   0  -9  10   84.65   19.68   2 
   5  -1   4  307.57   25.06  -1 
   5  -2  -7  307.57   25.06   2 
   8   2   0   62.03   25.79  -1 
   8  -7  -5   62.03   25.79   2 
  -3   5  -5  202.20   21.22  -1 
  -3  -3   7  202.20   21.22   2 
  -3   6  -6   92.03   20.91  -1 
  -3  -4   8   92.03   20.91   2 
   0  -1  12  124.66   14.68  -1 
   0   1 -12  124.66   14.68   2 
   0   7  -9  559.37   20.35  -1 
   0  -7   9  559.37   20.35   2 
   3  -1  12  139.03   18.68  -1 
   3  -1 -14  139.03   18.68   2 
  -8   7   2   33.03   25.15  -1 
  -8  -2   3   33.03   25.15   2 
   5  -1   7  208.05   20.41  -1 
   5  -2 -10  208.05   20.41   2 
   5  -1   6  101.75   22.32  -1 
   5  -2  -9  101.75   22.32   2 
   5  -1   5  856.64   27.49  -1 
   5  -2  -8  856.64   27.49   2 
  -5   2  13   71.03   25.18  -1 
  -5   1 -10   71.03   25.18   2 
  -3   7  -7  226.35   19.43  -1 
  -3  -5   9  226.35   19.43   2 
  -2   0  13   30.38   23.68  -1 
  -2   1 -12   30.38   23.68   2 
   0  -1  11   35.88   16.82  -1 
   0   1 -11   35.88   16.82   2 
   0   2  -4   14.82   12.18  -1 
   0  -2   4   14.82   12.18   2 
   3  -1  11   35.21   16.31  -1 
   3  -1 -13   35.21   16.31   2 
   5   3  -6  289.90   29.46  -1 
   5  -6   3  289.90   29.46   2 
   5   5  -8   82.81   23.87  -1 
   5  -8   5   82.81   23.87   2 
  -8   6   4   28.93   31.77  -1 
  -8  -1   1   28.93   31.77   2 
  -5   7  -5  239.24   22.40  -1 
  -5  -4   8  239.24   22.40   2 
  -3   1  14  106.35   19.82  -1 
  -3   1 -12  106.35   19.82   2 
   2  -1  11   54.26   18.16  -1 
   2   0 -12   54.26   18.16   2 
   3   7 -10  102.29   19.60  -1 
   3  -9   8  102.29   19.60   2 
   6   4  -7  116.80   32.65  -1 
   6  -8   3  116.80   32.65   2 
  -6   7  -3  145.55   22.31  -1 
  -6  -3   7  145.55   22.31   2 
  -6   8  -4   88.46   18.34  -1 
  -6  -4   8   88.46   18.34   2 
  -6   9  -5   90.55   25.40  -1 
  -6  -5   9   90.55   25.40   2 
  -3   4  -4   53.81   16.25  -1 
  -3  -2   6   53.81   16.25   2 
  -3   8  -8   86.07   17.74  -1 
  -3  -6  10   86.07   17.74   2 
  -2   0  12   33.63   23.51  -1 
  -2   1 -11   33.63   23.51   2 
   0  -1   4 4526.60   47.37  -1 
   0   1  -4 4526.60   47.37   2 
   0   0  14   97.08   15.07  -1 
   0   0 -14   97.08   15.07   2 
   0   8 -10   70.72   18.14  -1 
   0  -8  10   70.72   18.14   2 
   5   6  -9   14.42   22.84  -1 
   5  -9   6   14.42   22.84   2 
   6   0   8   82.77   23.03  -1 
   6  -4 -12   82.77   23.03   2 
  -8   8   0  188.10   22.92  -1 
  -8  -3   5  188.10   22.92   2 
   0  -1  10  861.65   23.02  -1 
   0   1 -10  861.65   23.02   2 
   2  -1  10   70.28   19.85  -1 
   2   0 -11   70.28   19.85   2 
   5   0  10   58.78   24.74  -1 
   5  -3 -13   58.78   24.74   2 
   6   5  -8   57.32   29.49  -1 
   6  -9   4   57.32   29.49   2 
   8   2   1  189.60   28.38  -1 
   8  -7  -6  189.60   28.38   2 
  -5   2   5 1103.05   59.35  -1 
  -5   1  -2 1103.05   59.35   2 
  -5   2  12   41.69   22.27  -1 
  -5   1  -9   41.69   22.27   2 
   0   4  -7   85.76   17.54  -1 
   0  -4   7   85.76   17.54   2 
   0   5  -8   44.16   16.89  -1 
   0  -5   8   44.16   16.89   2 
   3  -1  10  187.14   19.05  -1 
   3  -1 -12  187.14   19.05   2 
   6   0   2  243.38   25.56  -1 
   6  -4  -6  243.38   25.56   2 
   6   0   7  109.13   21.35  -1 
   6  -4 -11  109.13   21.35   2 
  -6   3  10   45.80   28.90  -1 
  -6   1  -6   45.80   28.90   2 
  -5   5  -3  103.73   22.95  -1 
  -5  -2   6  103.73   22.95   2 
  -3   1  13   56.35   17.95  -1 
  -3   1 -11   56.35   17.95   2 
   0  -1   9  330.02   18.36  -1 
   0   1  -9  330.02   18.36   2 
   3   4  -8  141.50   21.92  -1 
   3  -6   6  141.50   21.92   2 
  -5   2  11   97.08   25.65  -1 
  -5   1  -8   97.08   25.65   2 
  -3   9  -9  153.05   21.24  -1 
  -3  -7  11  153.05   21.24   2 
  -2   0  11   45.32   19.90  -1 
  -2   1 -10   45.32   19.90   2 
   0  -1   5  286.71   18.22  -1 
   0   1  -5  286.71   18.22   2 
   0   0  13  120.72   15.13  -1 
   0   0 -13  120.72   15.13   2 
   0   6  -9   66.82   17.08  -1 
   0  -6   9   66.82   17.08   2 
   0   9 -11   83.88   20.32  -1 
   0  -9  11   83.88   20.32   2 
   3  -1   9  684.94   21.96  -1 
   3  -1 -11  684.94   21.96   2 
   3   0  12   75.24   20.56  -1 
   3  -2 -14   75.24   20.56   2 
   6   0   6   97.50   21.98  -1 
   6  -4 -10   97.50   21.98   2 
   0  -1   8   39.22   15.97  -1 
   0   1  -8   39.22   15.97   2 
  -3   3  -3  415.65   21.52  -1 
  -3  -1   5  415.65   21.52   2 
  -3   6  -7   95.08   19.92  -1 
  -3  -4   9   95.08   19.92   2 
  -2   0  10  155.24   23.43  -1 
  -2   1  -9  155.24   23.43   2 
   0  -1   6  932.56   20.77  -1 
   0   1  -6  932.56   20.77   2 
   0   7 -10  187.25   19.37  -1 
   0  -7  10  187.25   19.37   2 
   3  -1   3  408.61   22.62  -1 
   3  -1  -5  408.61   22.62   2 
   3  -1   8  153.92   18.94  -1 
   3  -1 -10  153.92   18.94   2 
   6   0   3  927.04   27.94  -1 
   6  -4  -7  927.04   27.94   2 
   6   0   4   52.91   22.25  -1 
   6  -4  -8   52.91   22.25   2 
   6   0   5  381.29   22.23  -1 
   6  -4  -9  381.29   22.23   2 
  -8   7   1   69.25   24.56  -1 
  -8  -2   4   69.25   24.56   2 
  -3   1  12   50.05   19.24  -1 
  -3   1 -10   50.05   19.24   2 
   5   0   8   77.59   20.40  -1 
   5  -3 -11   77.59   20.40   2 
  -6   7  -4   29.52   20.80  -1 
  -6  -3   8   29.52   20.80   2 
  -6   8  -5  286.79   23.29  -1 
  -6  -4   9  286.79   23.29   2 
  -6   9  -6   99.45   25.08  -1 
  -6  -5  10   99.45   25.08   2 
  -5   2  10  142.87   24.76  -1 
  -5   1  -7  142.87   24.76   2 
  -3   5  -6  486.90   21.29  -1 
  -3  -3   8  486.90   21.29   2 
  -3   7  -8   18.85   17.08  -1 
  -3  -5  10   18.85   17.08   2 
   0   0  12   25.69   13.58  -1 
   0   0 -12   25.69   13.58   2 
   3   0  11   96.08   17.95  -1 
   3  -2 -13   96.08   17.95   2 
  -8   8  -1  126.92   23.16  -1 
  -8  -3   6  126.92   23.16   2 
  -8   6   3   42.44   28.13  -1 
  -8  -1   2   42.44   28.13   2 
  -5   6  -5  150.22   21.60  -1 
  -5  -3   8  150.22   21.60   2 
   0   8 -11   60.72   18.38  -1 
   0  -8  11   60.72   18.38   2 
   0   1  14   57.81   17.06  -1 
   0  -1 -14   57.81   17.06   2 
   3   7 -11   80.76   19.53  -1 
   3  -9   9   80.76   19.53   2 
   5   0   7   45.10   23.28  -1 
   5  -3 -10   45.10   23.28   2 
   8   3  -1   39.62   27.15  -1 
   8  -8  -4   39.62   27.15   2 
  -5   2   9  159.44   28.99  -1 
  -5   1  -6  159.44   28.99   2 
  -3   2  14  142.05   22.20  -1 
  -3   0 -12  142.05   22.20   2 
  -3   8  -9   38.38   17.92  -1 
  -3  -6  11   38.38   17.92   2 
  -2   0   9  148.54   22.27  -1 
  -2   1  -8  148.54   22.27   2 
   3  -1   4 1885.26   30.53  -1 
   3  -1  -6 1885.26   30.53   2 
   3  -1   5  673.70   22.43  -1 
   3  -1  -7  673.70   22.43   2 
   3  -1   6  482.22   18.62  -1 
   3  -1  -8  482.22   18.62   2 
  -3   1  11  318.10   21.13  -1 
  -3   1  -9  318.10   21.13   2 
   5   0   6  296.46   24.66  -1 
   5  -3  -9  296.46   24.66   2 
   5   0   2   74.56   23.89  -1 
   5  -3  -5   74.56   23.89   2 
  -5   2   6  127.36   30.61  -1 
  -5   1  -3  127.36   30.61   2 
  -5   2   8  326.77   28.39  -1 
  -5   1  -5  326.77   28.39   2 
  -5   3  13   87.78   26.26  -1 
  -5   0 -10   87.78   26.26   2 
  -3   4  -5  892.49   23.76  -1 
  -3  -2   7  892.49   23.76   2 
  -3   9 -10   56.77   20.66  -1 
  -3  -7  12   56.77   20.66   2 
   0   0  11  138.44   15.17  -1 
   0   0 -11  138.44   15.17   2 
   3   0  10   80.21   17.37  -1 
   3  -2 -12   80.21   17.37   2 
   5   4  -8  143.84   25.68  -1 
   5  -7   5  143.84   25.68   2 
   5   6 -10   27.42   24.04  -1 
   5  -9   7   27.42   24.04   2 
   0   6 -10   44.17   18.87  -1 
   0  -6  10   44.17   18.87   2 
   0   5  -9  840.41   24.25  -1 
   0  -5   9  840.41   24.25   2 
   5   0   5   98.68   23.01  -1 
   5  -3  -8   98.68   23.01   2 
  -5   2   7  155.57   29.17  -1 
  -5   1  -4  155.57   29.17   2 
   0   1  13  112.69   14.65  -1 
   0  -1 -13  112.69   14.65   2 
   0   4  -8   70.13   16.39  -1 
   0  -4   8   70.13   16.39   2 
   5   1   9   52.85   23.34  -1 
   5  -4 -12   52.85   23.34   2 
   6   1  -1  136.81   32.93  -1 
   6  -5  -3  136.81   32.93   2 
  -8   7   0   42.70   22.19  -1 
  -8  -2   5   42.70   22.19   2 
  -3   2  13   46.31   20.90  -1 
  -3   0 -11   46.31   20.90   2 
  -3   1  10  432.52   24.79  -1 
  -3   1  -8  432.52   24.79   2 
   0   7 -11  128.48   22.61  -1 
   0  -7  11  128.48   22.61   2 
   0   1  -3 3238.92   45.83  -1 
   0  -1   3 3238.92   45.83   2 
   0   0  10  417.84   19.52  -1 
   0   0 -10  417.84   19.52   2 
   3   5 -10   43.31   21.75  -1 
   3  -7   8   43.31   21.75   2 
   3   4  -9   89.42   20.21  -1 
   3  -6   7   89.42   20.21   2 
  -6   7  -5   45.40   20.36  -1 
  -6  -3   9   45.40   20.36   2 
  -6   8  -6   58.85   21.27  -1 
  -6  -4  10   58.85   21.27   2 
  -5   3  12  159.77   23.53  -1 
  -5   0  -9  159.77   23.53   2 
  -3   6  -8   93.66   17.20  -1 
  -3  -4  10   93.66   17.20   2 
  -3   7  -9  377.24   19.68  -1 
  -3  -5  11  377.24   19.68   2 
   3   0   9  288.08   19.20  -1 
   3  -2 -11  288.08   19.20   2 
   5   3  -7  179.65   28.51  -1 
   5  -6   4  179.65   28.51   2 
  -8   8  -2   43.78   21.62  -1 
  -8  -3   7   43.78   21.62   2 
  -3   1   9  241.04   24.05  -1 
  -3   1  -7  241.04   24.05   2 
   2   0   9  888.16   25.19  -1 
   2  -1 -10  888.16   25.19   2 
   3   6 -11   19.24   18.43  -1 
   3  -8   9   19.24   18.43   2 
   3   3  -8  182.40   22.98  -1 
   3  -5   6  182.40   22.98   2 
   6   5  -9   98.85   28.33  -1 
   6  -9   5   98.85   28.33   2 
  -3   3  -4  471.97   22.11  -1 
  -3  -1   6  471.97   22.11   2 
  -3   5  -7  488.57   22.79  -1 
  -3  -3   9  488.57   22.79   2 
  -3   8 -10   39.47   19.56  -1 
  -3  -6  12   39.47   19.56   2 
   0   3  -7  369.64   18.10  -1 
   0  -3   7  369.64   18.10   2 
   3   1  11   36.69   17.75  -1 
   3  -3 -13   36.69   17.75   2 
  -8   6   2  212.60   27.68  -1 
  -8  -1   3  212.60   27.68   2 
   0   1  12  142.78   17.55  -1 
   0  -1 -12  142.78   17.55   2 
   0   0   9  161.40   17.12  -1 
   0   0  -9  161.40   17.12   2 
   3   0   8  139.95   19.01  -1 
   3  -2 -10  139.95   19.01   2 
   6   1   4   45.47   24.35  -1 
   6  -5  -8   45.47   24.35   2 
  -3   2  12  104.63   19.43  -1 
  -3   0 -10  104.63   19.43   2 
  -3   1   8  275.73   22.76  -1 
  -3   1  -6  275.73   22.76   2 
   2   0   8  449.62   23.19  -1 
   2  -1  -9  449.62   23.19   2 
   5   1   7   80.16   19.90  -1 
   5  -4 -10   80.16   19.90   2 
  -5   3  11  111.49   26.18  -1 
  -5   0  -8  111.49   26.18   2 
  -3   4  -6  102.17   17.99  -1 
  -3  -2   8  102.17   17.99   2 
   0   5 -10  298.10   21.23  -1 
   0  -5  10  298.10   21.23   2 
   0   6 -11   58.30   20.68  -1 
   0  -6  11   58.30   20.68   2 
   3   0   7   45.76   19.92  -1 
   3  -2  -9   45.76   19.92   2 
   3   1  10  197.96   18.85  -1 
   3  -3 -12  197.96   18.85   2 
   6   1   1  136.90   27.55  -1 
   6  -5  -5  136.90   27.55   2 
   6   1   3  112.35   24.11  -1 
   6  -5  -7  112.35   24.11   2 
  -8   7  -1   21.89   21.73  -1 
  -8  -2   6   21.89   21.73   2 
   0   2  13  137.59   18.03  -1 
   0  -2 -13  137.59   18.03   2 
   0   0   8  300.90   18.23  -1 
   0   0  -8  300.90   18.23   2 
   5   2   9   87.21   21.64  -1 
   5  -5 -12   87.21   21.64   2 
  -6   7  -6   28.69   21.67  -1 
  -6  -3  10   28.69   21.67   2 
  -6   8  -7  137.46   21.35  -1 
  -6  -4  11  137.46   21.35   2 
  -3   6  -9  111.64   18.41  -1 
  -3  -4  11  111.64   18.41   2 
  -3   7 -10   37.86   19.27  -1 
  -3  -5  12   37.86   19.27   2 
  -2   1  10  342.60   24.69  -1 
  -2   0  -9  342.60   24.69   2 
   0   4  -9   53.76   19.40  -1 
   0  -4   9   53.76   19.40   2 
   0   7 -12  194.78   20.87  -1 
   0  -7  12  194.78   20.87   2 
   6   1   2   54.23   22.72  -1 
   6  -5  -6   54.23   22.72   2 
  -8   6   1   44.38   25.81  -1 
  -8  -1   4   44.38   25.81   2 
  -3   2  11  464.40   24.05  -1 
  -3   0  -9  464.40   24.05   2 
  -3   1   7 1487.18   33.01  -1 
  -3   1  -5 1487.18   33.01   2 
   3   5 -11  209.84   24.65  -1 
   3  -7   9  209.84   24.65   2 
   5   1   6   81.03   20.07  -1 
   5  -4  -9   81.03   20.07   2 
   0   2  -6   38.06   12.25  -1 
   0  -2   6   38.06   12.25   2 
   3   1   9  288.55   23.10  -1 
   3  -3 -11  288.55   23.10   2 
   3   2  11   96.32   20.37  -1 
   3  -4 -13   96.32   20.37   2 
   5   4  -9   39.94   23.14  -1 
   5  -7   6   39.94   23.14   2 
  -3   3  13   15.28   18.71  -1 
  -3  -1 -11   15.28   18.71   2 
   3   6 -12   47.21   19.11  -1 
   3  -8  10   47.21   19.11   2 
   5   2   8   11.69   18.89  -1 
   5  -5 -11   11.69   18.89   2 
   5   1   5  305.12   24.08  -1 
   5  -4  -8  305.12   24.08   2 
  -5   3  10   26.05   25.73  -1 
  -5   0  -7   26.05   25.73   2 
  -3   3  -5  509.27   23.72  -1 
  -3  -1   7  509.27   23.72   2 
  -2   1   9  801.85   28.97  -1 
  -2   0  -8  801.85   28.97   2 
   0   3  -8   21.65   17.64  -1 
   0  -3   8   21.65   17.64   2 
  -8   7  -2   58.76   21.47  -1 
  -8  -2   7   58.76   21.47   2 
  -5   5  -6   22.04   21.80  -1 
  -5  -2   9   22.04   21.80   2 
   0   2  12   32.20   16.23  -1 
   0  -2 -12   32.20   16.23   2 
   0   1  10  744.94   22.21  -1 
   0  -1 -10  744.94   22.21   2 
   3   3  -9  469.40   26.82  -1 
   3  -5   7  469.40   26.82   2 
  -3   4  -7  169.07   19.16  -1 
  -3  -2   9  169.07   19.16   2 
   0   0   6  350.11   17.99  -1 
   0   0  -6  350.11   17.99   2 
   0   1  -4 3976.96   44.49  -1 
   0  -1   4 3976.96   44.49   2 
   3   0   5 1006.34   25.33  -1 
   3  -2  -7 1006.34   25.33   2 
  -5   4  12   67.89   24.25  -1 
  -5  -1  -9   67.89   24.25   2 
  -3   2  10  217.64   24.37  -1 
  -3   0  -8  217.64   24.37   2 
   0   6 -12   78.70   22.45  -1 
   0  -6  12   78.70   22.45   2 
   0   3  13   25.67   17.19  -1 
   0  -3 -13   25.67   17.19   2 
   5   2   7   49.42   21.55  -1 
   5  -5 -10   49.42   21.55   2 
   5   1   4   59.29   20.96  -1 
   5  -4  -7   59.29   20.96   2 
  -6   7  -7   30.05   19.90  -1 
  -6  -3  11   30.05   19.90   2 
  -3   6 -10   25.98   17.27  -1 
  -3  -4  12   25.98   17.27   2 
  -3   7 -11   97.17   21.19  -1 
  -3  -5  13   97.17   21.19   2 
   0   5 -11   69.38   17.14  -1 
   0  -5  11   69.38   17.14   2 
   0   7 -13   43.03   19.57  -1 
   0  -7  13   43.03   19.57   2 
   3   0   4   20.68   17.82  -1 
   3  -2  -6   20.68   17.82   2 
   3   1   8  133.99   18.26  -1 
   3  -3 -10  133.99   18.26   2 
   5   2  -6   97.23   32.00  -1 
   5  -5   3   97.23   32.00   2 
   5   3  -8  189.49   26.47  -1 
   5  -6   5  189.49   26.47   2 
  -8   6   0  292.81   25.89  -1 
  -8  -1   5  292.81   25.89   2 
  -5   7  -9   65.36   19.70  -1 
  -5  -4  12   65.36   19.70   2 
  -5   6  -8  107.11   23.35  -1 
  -5  -3  11  107.11   23.35   2 
  -5   3  -2  885.94   28.43  -1 
  -5   0   5  885.94   28.43   2 
  -3   3  12   89.90   19.48  -1 
  -3  -1 -10   89.90   19.48   2 
   3   3  11   71.30   20.01  -1 
   3  -5 -13   71.30   20.01   2 
   5   1   3   76.79   19.88  -1 
   5  -4  -6   76.79   19.88   2 
  -6   6  -6   81.79   21.96  -1 
  -6  -2  10   81.79   21.96   2 
  -3   5  -9  138.44   18.40  -1 
  -3  -3  11  138.44   18.40   2 
  -2   1   8  470.48   22.42  -1 
  -2   0  -7  470.48   22.42   2 
   0   0   5  440.08   17.76  -1 
   0   0  -5  440.08   17.76   2 
   0   1   9  372.21   15.89  -1 
   0  -1  -9  372.21   15.89   2 
   0   2  11  160.33   18.09  -1 
   0  -2 -11  160.33   18.09   2 
   0   4 -10   40.56   17.21  -1 
   0  -4  10   40.56   17.21   2 
  -8   7  -3   41.20   21.52  -1 
  -8  -2   8   41.20   21.52   2 
   2   1   8   29.24   18.50  -1 
   2  -2  -9   29.24   18.50   2 
   3   6 -13   51.35   26.17  -1 
   3  -8  11   51.35   26.17   2 
   3   5 -12   56.76   20.85  -1 
   3  -7  10   56.76   20.85   2 
   5   3   8   98.62   20.21  -1 
   5  -6 -11   98.62   20.21   2 
   5   1   2 1123.92   30.76  -1 
   5  -4  -5 1123.92   30.76   2 
   5   1  -1  381.73   32.24  -1 
   5  -4  -2  381.73   32.24   2 
  -5   3   9  565.63   28.54  -1 
  -5   0  -6  565.63   28.54   2 
  -3   3  -6  350.05   22.27  -1 
  -3  -1   8  350.05   22.27   2 
  -3   4  13   60.43   22.84  -1 
  -3  -2 -11   60.43   22.84   2 
   0   2  -7   20.53   14.98  -1 
   0  -2   7   20.53   14.98   2 
   3   0   2 2373.76   39.46  -1 
   3  -2  -4 2373.76   39.46   2 
   3   1   7  836.33   23.37  -1 
   3  -3  -9  836.33   23.37   2 
  -3   2   9   71.73   21.31  -1 
  -3   0  -7   71.73   21.31   2 
   0   3  12   52.33   15.86  -1 
   0  -3 -12   52.33   15.86   2 
   3   2  -8  169.60   22.93  -1 
   3  -4   6  169.60   22.93   2 
   5   1   0  567.35   29.40  -1 
   5  -4  -3  567.35   29.40   2 
  -8   6  -1  166.48   25.55  -1 
  -8  -1   6  166.48   25.55   2 
  -5   4  11  104.57   25.29  -1 
  -5  -1  -8  104.57   25.29   2 
  -3   4  -8   94.59   18.08  -1 
  -3  -2  10   94.59   18.08   2 
   0   0   4  332.55   17.24  -1 
   0   0  -4  332.55   17.24   2 
   0   3  -9  655.58   21.42  -1 
   0  -3   9  655.58   21.42   2 
   3   3  10  138.83   21.78  -1 
   3  -5 -12  138.83   21.78   2 
   5   4 -10  184.71   24.43  -1 
   5  -7   7  184.71   24.43   2 
  -8   6   8   52.09   33.79  -1 
  -8  -1  -3   52.09   33.79   2 
  -3   3  11  132.21   23.80  -1 
  -3  -1  -9  132.21   23.80   2 
  -3   2  -4  209.51   20.33  -1 
  -3   0   6  209.51   20.33   2 
  -2   1   7  275.03   22.29  -1 
  -2   0  -6  275.03   22.29   2 
   0   2  10  195.91   17.70  -1 
   0  -2 -10  195.91   17.70   2 
   5   3   7   69.95   21.90  -1 
   5  -6 -10   69.95   21.90   2 
   0   1  -5  279.37   17.99  -1 
   0  -1   5  279.37   17.99   2 
   0   0   3  890.96   26.95  -1 
   0   0  -3  890.96   26.95   2 
   3   3 -10  175.20   22.41  -1 
   3  -5   8  175.20   22.41   2 
   3   1  -6  802.40   31.39  -1 
   3  -3   4  802.40   31.39   2 
   5   2   5   88.08   19.29  -1 
   5  -5  -8   88.08   19.29   2 
  -6   6  -7  167.92   20.83  -1 
  -6  -2  11  167.92   20.83   2 
  -5   3   8  179.46   24.99  -1 
  -5   0  -5  179.46   24.99   2 
  -5   5  12   58.56   23.84  -1 
  -5  -2  -9   58.56   23.84   2 
  -3   5 -10  116.82   19.93  -1 
  -3  -3  12  116.82   19.93   2 
   3   1   6  781.50   21.65  -1 
   3  -3  -8  781.50   21.65   2 
   3   2   8   33.58   17.37  -1 
   3  -4 -10   33.58   17.37   2 
   6   2   1  125.81   25.40  -1 
   6  -6  -5  125.81   25.40   2 
  -8   6  -2   40.68   22.03  -1 
  -8  -1   7   40.68   22.03   2 
  -5   4  -6  106.09   20.23  -1 
  -5  -1   9  106.09   20.23   2 
  -3   3  -7  525.47   21.74  -1 
  -3  -1   9  525.47   21.74   2 
  -3   5  13   35.68   21.91  -1 
  -3  -3 -11   35.68   21.91   2 
  -2   2   9   31.81   21.99  -1 
  -2  -1  -8   31.81   21.99   2 
   0   3  11   79.40   14.14  -1 
   0  -3 -11   79.40   14.14   2 
   0   4  12   54.58   17.21  -1 
   0  -4 -12   54.58   17.21   2 
  -5   5  -8  207.93   21.92  -1 
  -5  -2  11  207.93   21.92   2 
  -3   2   8  277.66   22.56  -1 
  -3   0  -6  277.66   22.56   2 
   0   2  -8   39.05   17.31  -1 
   0  -2   8   39.05   17.31   2 
   0   0   2 3566.11   56.44  -1 
   0   0  -2 3566.11   56.44   2 
   2   1   6  546.46   23.80  -1 
   2  -2  -7  546.46   23.80   2 
   3   4  10   66.50   20.24  -1 
   3  -6 -12   66.50   20.24   2 
   5   3   6   71.33   20.91  -1 
   5  -6  -9   71.33   20.91   2 
   5   2   4  136.69   22.16  -1 
   5  -5  -7  136.69   22.16   2 
  -5   4  10   71.13   25.41  -1 
  -5  -1  -7   71.13   25.41   2 
  -3   4  -9  167.93   18.24  -1 
  -3  -2  11  167.93   18.24   2 
   0   1   7 1553.75   24.64  -1 
   0  -1  -7 1553.75   24.64   2 
   0   3 -10  453.85   20.39  -1 
   0  -3  10  453.85   20.39   2 
   3   1   5  417.85   22.48  -1 
   3  -3  -7  417.85   22.48   2 
   5   5 -12   43.05   22.86  -1 
   5  -8   9   43.05   22.86   2 
   6   2  -3  136.29   40.48  -1 
   6  -6  -1  136.29   40.48   2 
  -5   6 -10   22.12   20.86  -1 
  -5  -3  13   22.12   20.86   2 
  -5   2   2 1668.81   80.96  -1 
  -5   1   1 1668.81   80.96   2 
  -3   3  10   88.08   18.98  -1 
  -3  -1  -8   88.08   18.98   2 
   0   2   9   63.30   16.27  -1 
   0  -2  -9   63.30   16.27   2 
   3   2  -9   82.51   22.85  -1 
   3  -4   7   82.51   22.85   2 
  -6   6  -8   76.49   23.04  -1 
  -6  -2  12   76.49   23.04   2 
  -3   2  -5  836.09   23.79  -1 
  -3   0   7  836.09   23.79   2 
  -3   5 -11   56.11   17.57  -1 
  -3  -3  13   56.11   17.57   2 
   0   5 -13   15.33   17.57  -1 
   0  -5  13   15.33   17.57   2 
   5   2  -7  389.85   33.32  -1 
   5  -5   4  389.85   33.32   2 
   5   4 -11  112.79   23.78  -1 
   5  -7   8  112.79   23.78   2 
  -8   6  -3  158.77   22.42  -1 
  -8  -1   8  158.77   22.42   2 
  -5   2   1  546.74   40.56  -1 
  -5   1   2  546.74   40.56   2 
   3   3 -11  112.75   20.85  -1 
   3  -5   9  112.75   20.85   2 
  -8   5   2   50.02   31.53  -1 
  -8   0   3   50.02   31.53   2 
  -8   5   3  222.98   51.86  -1 
  -8   0   2  222.98   51.86   2 
  -5   5  11   36.02   23.83  -1 
  -5  -2  -8   36.02   23.83   2 
   0   1  -6  823.88   20.34  -1 
   0  -1   6  823.88   20.34   2 
   0   3  10  247.13   17.33  -1 
   0  -3 -10  247.13   17.33   2 
   0   5  12    7.02   18.91  -1 
   0  -5 -12    7.02   18.91   2 
   3   3   8   63.35   21.60  -1 
   3  -5 -10   63.35   21.60   2 
  -8   6   7   67.45   35.95  -1 
  -8  -1  -2   67.45   35.95   2 
  -5   5  -9   18.32   23.51  -1 
  -5  -2  12   18.32   23.51   2 
  -3   4  11   90.12   19.44  -1 
  -3  -2  -9   90.12   19.44   2 
   0   4  11  214.88   18.03  -1 
   0  -4 -11  214.88   18.03   2 
   2   1   5 1506.10   29.15  -1 
   2  -2  -6 1506.10   29.15   2 
   3   4   9   89.28   22.61  -1 
   3  -6 -11   89.28   22.61   2 
   5   3   5  136.06   19.86  -1 
   5  -6  -8  136.06   19.86   2 
  -8   5   1  110.05   29.80  -1 
  -8   0   4  110.05   29.80   2 
  -6   5  -7   49.77   23.11  -1 
  -6  -1  11   49.77   23.11   2 
  -5   3   7  144.57   22.96  -1 
  -5   0  -4  144.57   22.96   2 
  -3   3  -8  129.57   20.41  -1 
  -3  -1  10  129.57   20.41   2 
  -3   4 -10   62.12   18.93  -1 
  -3  -2  12   62.12   18.93   2 
  -3   5  12   57.03   19.48  -1 
  -3  -3 -10   57.03   19.48   2 
  -2   2   8  373.15   23.42  -1 
  -2  -1  -7  373.15   23.42   2 
   0   2  -9   96.20   17.96  -1 
   0  -2   9   96.20   17.96   2 
   3   1   4  615.62   25.14  -1 
   3  -3  -6  615.62   25.14   2 
  -5   2   0  520.40   31.97  -1 
  -5   1   3  520.40   31.97   2 
  -3   2   7  440.60   23.86  -1 
  -3   0  -5  440.60   23.86   2 
   2   2   7  435.58   21.10  -1 
   2  -3  -8  435.58   21.10   2 
   3   1  -7  999.20   30.55  -1 
   3  -3   5  999.20   30.55   2 
   5   4   6  196.85   22.55  -1 
   5  -7  -9  196.85   22.55   2 
  -8   6  -4   62.27   20.29  -1 
  -8  -1   9   62.27   20.29   2 
  -6   4  -5  541.65   26.68  -1 
  -6   0   9  541.65   26.68   2 
  -5   4   9   96.41   23.07  -1 
  -5  -1  -6   96.41   23.07   2 
  -3   2  -6  411.87   20.28  -1 
  -3   0   8  411.87   20.28   2 
   0   2   8  152.85   14.29  -1 
   0  -2  -8  152.85   14.29   2 
   0   3 -11  116.34   17.82  -1 
   0  -3  11  116.34   17.82   2 
   3   2   6  198.87   17.86  -1 
   3  -4  -8  198.87   17.86   2 
   5   3 -10   28.26   21.95  -1 
   5  -6   7   28.26   21.95   2 
  -8   5   0   29.65   26.32  -1 
  -8   0   5   29.65   26.32   2 
  -3   3   9  443.07   23.19  -1 
  -3  -1  -7  443.07   23.19   2 
   0   5 -14   18.65   19.32  -1 
   0  -5  14   18.65   19.32   2 
   5   2   2  123.87   22.43  -1 
   5  -5  -5  123.87   22.43   2 
   6   3  -9   76.47   32.27  -1 
   6  -7   5   76.47   32.27   2 
   0   1  -7 2416.59   31.60  -1 
   0  -1   7 2416.59   31.60   2 
   0   4 -13  112.28   21.36  -1 
   0  -4  13  112.28   21.36   2 
   5   3   4  160.82   21.99  -1 
   5  -6  -7  160.82   21.99   2 
   5   4 -12   62.16   24.11  -1 
   5  -7   9   62.16   24.11   2 
   3   3 -12   89.18   23.86  -1 
   3  -5  10   89.18   23.86   2 
   3   2 -10  106.71   20.90  -1 
   3  -4   8  106.71   20.90   2 
  -8   5  -1   22.41   22.75  -1 
  -8   0   6   22.41   22.75   2 
  -3   3  -9  461.72   21.45  -1 
  -3  -1  11  461.72   21.45   2 
  -3   4 -11   99.44   17.79  -1 
  -3  -2  13   99.44   17.79   2 
  -3   6  12   54.63   23.71  -1 
  -3  -4 -10   54.63   23.71   2 
   0   3   9  598.58   17.37  -1 
   0  -3  -9  598.58   17.37   2 
   0   5  11   29.76   12.95  -1 
   0  -5 -11   29.76   12.95   2 
   3   3   7  461.99   20.15  -1 
   3  -5  -9  461.99   20.15   2 
   3   4   8   61.11   18.71  -1 
   3  -6 -10   61.11   18.71   2 
   5   2  -8  165.81   30.39  -1 
   5  -5   5  165.81   30.39   2 
  -5   5  10   58.90   22.19  -1 
  -5  -2  -7   58.90   22.19   2 
  -3   4  10   47.03   18.58  -1 
  -3  -2  -8   47.03   18.58   2 
   0   4  10   52.63   16.34  -1 
   0  -4 -10   52.63   16.34   2 
   2   2   6  269.88   22.09  -1 
   2  -3  -7  269.88   22.09   2 
   5   4   5   61.96   21.08  -1 
   5  -7  -8   61.96   21.08   2 
  -5   6  11   91.02   23.01  -1 
  -5  -3  -8   91.02   23.01   2 
  -3   2  -7   65.42   17.57  -1 
  -3   0   9   65.42   17.57   2 
  -3   5  11  122.78   19.81  -1 
  -3  -3  -9  122.78   19.81   2 
  -2   2   7  705.80   27.11  -1 
  -2  -1  -6  705.80   27.11   2 
   0   1   5  354.01   15.50  -1 
   0  -1  -5  354.01   15.50   2 
   0   2 -10  159.12   18.65  -1 
   0  -2  10  159.12   18.65   2 
   0   3 -12  213.60   18.66  -1 
   0  -3  12  213.60   18.66   2 
   3   2   5  282.55   22.21  -1 
   3  -4  -7  282.55   22.21   2 
  -8   5  -2   38.08   25.38  -1 
  -8   0   7   38.08   25.38   2 
  -5   4  -9  121.90   23.99  -1 
  -5  -1  12  121.90   23.99   2 
  -5   2  -2   83.71   21.15  -1 
  -5   1   5   83.71   21.15   2 
  -3   2   6   16.90   21.55  -1 
  -3   0  -4   16.90   21.55   2 
   5   2   1  547.61   25.77  -1 
   5  -5  -4  547.61   25.77   2 
  -5   3   6  612.12   31.01  -1 
  -5   0  -3  612.12   31.01   2 
   0   2   7   21.88   12.47  -1 
   0  -2  -7   21.88   12.47   2 
  -5   3  -7  268.23   22.39  -1 
  -5   0  10  268.23   22.39   2 
  -3   3   8  405.96   25.03  -1 
  -3  -1  -6  405.96   25.03   2 
   0   6  11  108.26   17.50  -1 
   0  -6 -11  108.26   17.50   2 
   0   1  -8   50.93   15.42  -1 
   0  -1   8   50.93   15.42   2 
   3   2 -11  313.25   22.14  -1 
   3  -4   9  313.25   22.14   2 
   5   3   3  263.20   23.39  -1 
   5  -6  -6  263.20   23.39   2 
  -6   4  -7  214.00   22.29  -1 
  -6   0  11  214.00   22.29   2 
  -6   5  -9   88.15   25.19  -1 
  -6  -1  13   88.15   25.19   2 
  -5   4   8  137.93   23.12  -1 
  -5  -1  -5  137.93   23.12   2 
  -3   3 -10   31.05   20.99  -1 
  -3  -1  12   31.05   20.99   2 
  -3   4 -12   48.78   20.53  -1 
  -3  -2  14   48.78   20.53   2 
   0   4 -14   67.31   18.76  -1 
   0  -4  14   67.31   18.76   2 
   2   3 -13   55.63   23.44  -1 
   2  -4  12   55.63   23.44   2 
   3   5   8   23.77   19.49  -1 
   3  -7 -10   23.77   19.49   2 
  -8   5  -3   28.75   21.31  -1 
  -8   0   8   28.75   21.31   2 
   0   5  10   43.12   15.13  -1 
   0  -5 -10   43.12   15.13   2 
   3   3 -13   45.68   20.41  -1 
   3  -5  11   45.68   20.41   2 
  -8   6   6   47.81   36.76  -1 
  -8  -1  -1   47.81   36.76   2 
  -3   1  -4 1713.76   29.65  -1 
  -3   1   6 1713.76   29.65   2 
  -3   2  -8  141.57   20.10  -1 
  -3   0  10  141.57   20.10   2 
   0   3   8  222.43   14.44  -1 
   0  -3  -8  222.43   14.44   2 
   0   4   9   90.21   15.23  -1 
   0  -4  -9   90.21   15.23   2 
   3   1   2  851.49   26.69  -1 
   3  -3  -4  851.49   26.69   2 
   5   2  -9   51.00   25.60  -1 
   5  -5   6   51.00   25.60   2 
  -3   6  11  158.94   22.66  -1 
  -3  -4  -9  158.94   22.66   2 
  -3   4   9  243.53   22.00  -1 
  -3  -2  -7  243.53   22.00   2 
   0   0  -4  337.52   19.70  -1 
   0   0   4  337.52   19.70   2 
   2   2   5   65.83   20.43  -1 
   2  -3  -6   65.83   20.43   2 
   5   2   0  327.73   26.42  -1 
   5  -5  -3  327.73   26.42   2 
  -5   5   9  254.69   25.09  -1 
  -5  -2  -6  254.69   25.09   2 
  -3   5  10   72.91   21.17  -1 
  -3  -3  -8   72.91   21.17   2 
   3   2   4  106.24   18.43  -1 
   3  -4  -6  106.24   18.43   2 
   3   6   8   73.69   21.66  -1 
   3  -8 -10   73.69   21.66   2 
  -8   5  -4   82.08   22.15  -1 
  -8   0   9   82.08   22.15   2 
  -5   6  10  104.36   22.57  -1 
  -5  -3  -7  104.36   22.57   2 
   0   1  -9  331.46   18.99  -1 
   0  -1   9  331.46   18.99   2 
   5   3   2  182.19   24.09  -1 
   5  -6  -5  182.19   24.09   2 
  -6   4  -8  156.81   23.49  -1 
  -6   0  12  156.81   23.49   2 
  -3   1  -5  672.49   22.31  -1 
  -3   1   7  672.49   22.31   2 
  -3   2  -9  118.23   20.69  -1 
  -3   0  11  118.23   20.69   2 
  -3   3 -11   85.53   16.74  -1 
  -3  -1  13   85.53   16.74   2 
   0   0  -5  456.40   20.23  -1 
   0   0   5  456.40   20.23   2 
   0   1   4 3755.03   41.13  -1 
   0  -1  -4 3755.03   41.13   2 
   0   2   6   72.66   15.74  -1 
   0  -2  -6   72.66   15.74   2 
   5   6   5   29.85   21.77  -1 
   5  -9  -8   29.85   21.77   2 
  -5   2  -5  186.19   22.52  -1 
  -5   1   8  186.19   22.52   2 
   0   6  10   38.09   16.22  -1 
   0  -6 -10   38.09   16.22   2 
   3   5   7  209.18   21.91  -1 
   3  -7  -9  209.18   21.91   2 
   3   3 -14   82.83   24.35  -1 
   3  -5  12   82.83   24.35   2 
   3   2 -12   -0.70   21.21  -1 
   3  -4  10   -0.70   21.21   2 
  -8   5  -5  106.07   22.12  -1 
  -8   0  10  106.07   22.12   2 
  -3   7  11   46.28   24.70  -1 
  -3  -5  -9   46.28   24.70   2 
   0   2 -12   28.12   16.31  -1 
   0  -2  12   28.12   16.31   2 
   3   3   5  342.50   19.94  -1 
   3  -5  -7  342.50   19.94   2 
  -5   3  -9   25.20   22.89  -1 
  -5   0  12   25.20   22.89   2 
  -3   3   7  815.53   27.67  -1 
  -3  -1  -5  815.53   27.67   2 
   0   3 -14   34.09   21.53  -1 
   0  -3  14   34.09   21.53   2 
   3   1 -10  208.86   22.04  -1 
   3  -3   8  208.86   22.04   2 
   5   2  -1  317.89   27.60  -1 
   5  -5  -2  317.89   27.60   2 
  -6   3  -6   47.08   21.88  -1 
  -6   1  10   47.08   21.88   2 
  -6   4  -9    8.70   23.78  -1 
  -6   0  13    8.70   23.78   2 
  -3   1  -6  394.72   20.40  -1 
  -3   1   8  394.72   20.40   2 
  -3   3 -12  102.10   20.96  -1 
  -3  -1  14  102.10   20.96   2 
   0   1 -10  859.82   22.62  -1 
   0  -1  10  859.82   22.62   2 
   0   3   7  987.96   22.77  -1 
   0  -3  -7  987.96   22.77   2 
   0   5   9   39.99   13.08  -1 
   0  -5  -9   39.99   13.08   2 
   0   7  10   54.75   18.76  -1 
   0  -7 -10   54.75   18.76   2 
   3   1   1   36.13   22.61  -1 
   3  -3  -3   36.13   22.61   2 
  -3   2   5 1021.31   32.39  -1 
  -3   0  -3 1021.31   32.39   2 
   0   4   8  273.72   17.52  -1 
   0  -4  -8  273.72   17.52   2 
   3   6   7   56.71   22.40  -1 
   3  -8  -9   56.71   22.40   2 
   3   0  -4  620.53   41.66  -1 
   3  -2   2  620.53   41.66   2 
  -5   4   7   48.98   20.50  -1 
  -5  -1  -4   48.98   20.50   2 
  -3   2 -10   40.87   20.25  -1 
  -3   0  12   40.87   20.25   2 
  -3   6  10   41.57   18.73  -1 
  -3  -4  -8   41.57   18.73   2 
   2   2 -13   67.09   23.78  -1 
   2  -3  12   67.09   23.78   2 
   3   2   3 1618.56   31.11  -1 
   3  -4  -5 1618.56   31.11   2 
  -8   7   7   42.96   29.72  -1 
  -8  -2  -2   42.96   29.72   2 
  -5   7  10   28.20   21.09  -1 
  -5  -4  -7   28.20   21.09   2 
  -3   4   8  182.46   22.23  -1 
  -3  -2  -6  182.46   22.23   2 
   2   2   4  344.96   19.50  -1 
   2  -3  -5  344.96   19.50   2 
   5   6   4  130.51   23.66  -1 
   5  -9  -7  130.51   23.66   2 
   5   3   1   48.30   20.35  -1 
   5  -6  -4   48.30   20.35   2 
  -6   3  -7   97.21   21.59  -1 
  -6   1  11   97.21   21.59   2 
  -5   3   5  143.43   27.36  -1 
  -5   0  -2  143.43   27.36   2 
  -3   1  -7  295.71   20.59  -1 
  -3   1   9  295.71   20.59   2 
  -3   5   9  248.17   20.20  -1 
  -3  -3  -7  248.17   20.20   2 
  -2   3   7  233.46   21.11  -1 
  -2  -2  -6  233.46   21.11   2 
   0   0  -7  317.81   16.63  -1 
   0   0   7  317.81   16.63   2 
   0   2 -13  176.72   19.50  -1 
   0  -2  13  176.72   19.50   2 
   2   1 -11  365.28   25.05  -1 
   2  -2  10  365.28   25.05   2 
   5   3 -13   27.99   22.21  -1 
   5  -6  10   27.99   22.21   2 
  -5   6   9   69.86   22.45  -1 
  -5  -3  -6   69.86   22.45   2 
  -5   5   8   76.32   23.56  -1 
  -5  -2  -5   76.32   23.56   2 
  -5   3 -10  121.91   20.60  -1 
  -5   0  13  121.91   20.60   2 
  -5   2  -7   39.80   20.66  -1 
  -5   1  10   39.80   20.66   2 
   0   6   9  120.24   16.97  -1 
   0  -6  -9  120.24   16.97   2 
   0   1 -11   46.49   19.71  -1 
   0  -1  11   46.49   19.71   2 
   3   1 -11  235.37   23.38  -1 
   3  -3   9  235.37   23.38   2 
   3   0  -6  300.15   26.47  -1 
   3  -2   4  300.15   26.47   2 
   5   5   3  175.94   22.93  -1 
   5  -8  -6  175.94   22.93   2 
  -3   2 -11   87.89   19.77  -1 
  -3   0  13   87.89   19.77   2 
  -3   3 -13   62.75   21.39  -1 
  -3  -1  15   62.75   21.39   2 
   3   3   4  743.61   24.57  -1 
   3  -5  -6  743.61   24.57   2 
   5   2 -11   74.27   24.12  -1 
   5  -5   8   74.27   24.12   2 
   5   4   2   27.12   19.59  -1 
   5  -7  -5   27.12   19.59   2 
   0   2   5   56.90   15.82  -1 
   0  -2  -5   56.90   15.82   2 
   3   4   5   84.49   19.79  -1 
   3  -6  -7   84.49   19.79   2 
   3   0  -7  427.45   25.31  -1 
   3  -2   5  427.45   25.31   2 
  -8   4  -2   50.32   23.29  -1 
  -8   1   7   50.32   23.29   2 
  -3   7  10   51.84   19.77  -1 
  -3  -5  -8   51.84   19.77   2 
   0   0  -8  270.03   16.79  -1 
   0   0   8  270.03   16.79   2 
  -8   4  -1  273.91   29.74  -1 
  -8   1   6  273.91   29.74   2 
  -8   4  -3  186.19   22.86  -1 
  -8   1   8  186.19   22.86   2 
  -5   2  -8   87.22   21.51  -1 
  -5   1  11   87.22   21.51   2 
   0   7   9   43.24   16.71  -1 
   0  -7  -9   43.24   16.71   2 
   0   2 -14  121.28   21.55  -1 
   0  -2  14  121.28   21.55   2 
   0   1   3 2614.52   39.35  -1 
   0  -1  -3 2614.52   39.35   2 
   3   6   6   73.61   20.96  -1 
   3  -8  -8   73.61   20.96   2 
   3   2 -14   37.56   22.38  -1 
   3  -4  12   37.56   22.38   2 
   5   2  -2  526.88   32.58  -1 
   5  -5  -1  526.88   32.58   2 
  -6   2  -2  518.22   28.21  -1 
  -6   2   6  518.22   28.21   2 
  -3   1  -9  611.48   24.34  -1 
  -3   1  11  611.48   24.34   2 
   0   1 -12  124.54   17.70  -1 
   0  -1  12  124.54   17.70   2 
   0   3   6  506.80   19.37  -1 
   0  -3  -6  506.80   19.37   2 
   0   4   7   30.07   15.57  -1 
   0  -4  -7   30.07   15.57   2 
   5   6   3  107.48   22.38  -1 
   5  -9  -6  107.48   22.38   2 
  -8   4   0  296.95   31.67  -1 
  -8   1   5  296.95   31.67   2 
  -8   4  -4  102.89   23.31  -1 
  -8   1   9  102.89   23.31   2 
  -5   2  -9  134.66   24.63  -1 
  -5   1  12  134.66   24.63   2 
  -3   6   9  101.96   21.24  -1 
  -3  -4  -7  101.96   21.24   2 
   0   8   9  134.75   20.51  -1 
   0  -8  -9  134.75   20.51   2 
   0   0  -9  154.79   19.43  -1 
   0   0   9  154.79   19.43   2 
   3   1 -12   50.07   21.44  -1 
   3  -3  10   50.07   21.44   2 
   5   3   0  416.36   24.58  -1 
   5  -6  -3  416.36   24.58   2 
  -6   2  -4  192.54   22.05  -1 
  -6   2   8  192.54   22.05   2 
  -6   2  -1   83.66   26.81  -1 
  -6   2   5   83.66   26.81   2 
  -6   3  -9  155.39   24.97  -1 
  -6   1  13  155.39   24.97   2 
  -3   2 -12  143.37   17.55  -1 
  -3   0  14  143.37   17.55   2 
  -3   3   6  403.96   23.13  -1 
  -3  -1  -4  403.96   23.13   2 
  -3   8  10   40.40   22.73  -1 
  -3  -6  -8   40.40   22.73   2 
   3   1   0  764.63   33.32  -1 
   3  -3  -2  764.63   33.32   2 
   3   2   2  929.69   28.12  -1 
   3  -4  -4  929.69   28.12   2 
  -8   4  -5   40.21   20.37  -1 
  -8   1  10   40.21   20.37   2 
   2   2   3   63.52   19.18  -1 
   2  -3  -4   63.52   19.18   2 
   3   7   6   21.80   20.43  -1 
   3  -9  -8   21.80   20.43   2 
   3   5   5  213.00   21.90  -1 
   3  -7  -7  213.00   21.90   2 
   5   5   2  292.57   23.49  -1 
   5  -8  -5  292.57   23.49   2 
  -8   6   5   32.37   34.15  -1 
  -8  -1   0   32.37   34.15   2 
  -3   1 -10  168.70   21.33  -1 
  -3   1  12  168.70   21.33   2 
  -3   5   8   36.83   21.53  -1 
  -3  -3  -6   36.83   21.53   2 
   0   6   8  170.88   15.27  -1 
   0  -6  -8  170.88   15.27   2 
   5   1  -7   66.86   31.33  -1 
   5  -4   4   66.86   31.33   2 
   5   4   1  184.98   21.49  -1 
   5  -7  -4  184.98   21.49   2 
   5   7   3   82.31   21.78  -1 
   5 -10  -6   82.31   21.78   2 
  -5   1  -2 1077.50   31.45  -1 
  -5   2   5 1077.50   31.45   2 
  -5   1  -5  740.34   29.79  -1 
  -5   2   8  740.34   29.79   2 
  -3   4   7  139.89   20.25  -1 
  -3  -2  -5  139.89   20.25   2 
  -2   4   7  154.69   21.03  -1 
  -2  -3  -6  154.69   21.03   2 
  -2   3   6  110.82   22.17  -1 
  -2  -2  -5  110.82   22.17   2 
   0   1 -13   37.67   19.33  -1 
   0  -1  13   37.67   19.33   2 
   0   0 -10  444.71   21.37  -1 
   0   0  10  444.71   21.37   2 
   3   4   4   64.89   19.38  -1 
   3  -6  -6   64.89   19.38   2 
   3   1 -13   93.23   21.30  -1 
   3  -3  11   93.23   21.30   2 
  -6   2  -6  143.98   23.96  -1 
  -6   2  10  143.98   23.96   2 
  -6   2   0  262.75   33.00  -1 
  -6   2   4  262.75   33.00   2 
  -5   4   6   54.95   23.87  -1 
  -5  -1  -3   54.95   23.87   2 
  -5   6   8   87.56   22.81  -1 
  -5  -3  -5   87.56   22.81   2 
  -3   0  -5  963.96   27.77  -1 
  -3   2   7  963.96   27.77   2 
  -3   0  -4   11.82   16.51  -1 
  -3   2   6   11.82   16.51   2 
  -3   0  -3 2139.68   36.33  -1 
  -3   2   5 2139.68   36.33   2 
  -3   2 -13   91.87   23.36  -1 
  -3   0  15   91.87   23.36   2 
  -3   7   9  163.34   24.99  -1 
  -3  -5  -7  163.34   24.99   2 
   5   1  -6  192.12   44.49  -1 
   5  -4   3  192.12   44.49   2 
  -5   8   9   65.18   27.10  -1 
  -5  -5  -6   65.18   27.10   2 
   0   7   8   79.24   18.68  -1 
   0  -7  -8   79.24   18.68   2 
   2   3   4  434.84   21.52  -1 
   2  -4  -5  434.84   21.52   2 
  -8   4   1   54.08   33.70  -1 
  -8   1   4   54.08   33.70   2 
  -8   7   6  134.51   30.25  -1 
  -8  -2  -1  134.51   30.25   2 
  -6   2  -7  106.61   24.22  -1 
  -6   2  11  106.61   24.22   2 
  -5   5   7  160.17   23.07  -1 
  -5  -2  -4  160.17   23.07   2 
  -3   0  -6  264.21   18.90  -1 
  -3   2   8  264.21   18.90   2 
  -3   1 -11   44.34   18.80  -1 
  -3   1  13   44.34   18.80   2 
   0   5   7  608.83   17.47  -1 
   0  -5  -7  608.83   17.47   2 
   5   2 -13   44.98   22.87  -1 
   5  -5  10   44.98   22.87   2 
   5   6   2   66.19   22.05  -1 
   5  -9  -5   66.19   22.05   2 
  -5   1  -7  235.74   21.90  -1 
  -5   2  10  235.74   21.90   2 
  -3   2   4 1420.89   40.42  -1 
  -3   0  -2 1420.89   40.42   2 
   0   2   4   66.07   15.04  -1 
   0  -2  -4   66.07   15.04   2 
  -3   0  -2 2041.79   39.27  -1 
  -3   2   4 2041.79   39.27   2 
  -3   8   9   80.22   24.44  -1 
  -3  -6  -7   80.22   24.44   2 
   0   1 -14   53.17   18.98  -1 
   0  -1  14   53.17   18.98   2 
   0   4   6   20.83   15.34  -1 
   0  -4  -6   20.83   15.34   2 
  -5   1  -8  146.75   22.15  -1 
  -5   2  11  146.75   22.15   2 
   3   7   5  102.68   22.51  -1 
   3  -9  -7  102.68   22.51   2 
   3   5   4  169.97   22.11  -1 
   3  -7  -6  169.97   22.11   2 
   3   1 -14   71.60   19.74  -1 
   3  -3  12   71.60   19.74   2 
   3   0 -11  244.10   24.32  -1 
   3  -2   9  244.10   24.32   2 
   5   7   2   81.20   24.93  -1 
   5 -10  -5   81.20   24.93   2 
   5   3  -1  410.94   26.32  -1 
   5  -6  -2  410.94   26.32   2 
  -6   2  -8   82.52   20.40  -1 
  -6   2  12   82.52   20.40   2 
  -3   1 -12  136.49   20.15  -1 
  -3   1  14  136.49   20.15   2 
  -3   6   8  163.92   19.71  -1 
  -3  -4  -6  163.92   19.71   2 
   0   3   5  281.77   14.62  -1 
   0  -3  -5  281.77   14.62   2 
   5   1 -10   25.10   22.75  -1 
   5  -4   7   25.10   22.75   2 
  -5   7   8   36.09   24.64  -1 
  -5  -4  -5   36.09   24.64   2 
   0   6   7   68.33   15.26  -1 
   0  -6  -7   68.33   15.26   2 
   0   0 -12   32.22   18.86  -1 
   0   0  12   32.22   18.86   2 
   5   4   0  104.50   22.19  -1 
   5  -7  -3  104.50   22.19   2 
   5   2  -3   26.44   26.86  -1 
   5  -5   0   26.44   26.86   2 
  -6   2  -9   22.14   20.92  -1 
  -6   2  13   22.14   20.92   2 
  -3   0  -9  325.83   22.23  -1 
  -3   2  11  325.83   22.23   2 
   0  -1  -7 1442.55   26.44  -1 
   0   1   7 1442.55   26.44   2 
   0  -1  -6  215.16   14.40  -1 
   0   1   6  215.16   14.40   2 
   2   0 -12   60.84   22.01  -1 
   2  -1  11   60.84   22.01   2 
   5   1 -11  146.79   25.10  -1 
   5  -4   8  146.79   25.10   2 
  -5   1  -9   36.84   23.43  -1 
  -5   2  12   36.84   23.43   2 
   3   4   3  326.30   22.19  -1 
   3  -6  -5  326.30   22.19   2 
   3   2   1  540.28   24.87  -1 
   3  -4  -3  540.28   24.87   2 
   3   0 -12   15.18   22.41  -1 
   3  -2  10   15.18   22.41   2 
  -3   5   7  210.78   20.06  -1 
  -3  -3  -5  210.78   20.06   2 
  -3   7   8  222.93   23.23  -1 
  -3  -5  -6  222.93   23.23   2 
   0  -1  -8  279.46   14.98  -1 
   0   1   8  279.46   14.98   2 
   0   0 -13  119.18   20.55  -1 
   0   0  13  119.18   20.55   2 
   2   4   4  153.92   22.76  -1 
   2  -5  -5  153.92   22.76   2 
   5   6   1  153.61   25.93  -1 
   5  -9  -4  153.61   25.93   2 
  -8   3  -3   47.23   25.45  -1 
  -8   2   8   47.23   25.45   2 
  -8   3  -4   85.40   23.24  -1 
  -8   2   9   85.40   23.24   2 
  -8   3  -5  138.38   23.26  -1 
  -8   2  10  138.38   23.26   2 
  -5   1   0  218.68   29.39  -1 
  -5   2   3  218.68   29.39   2 
  -3   3   5  381.13   25.53  -1 
  -3  -1  -3  381.13   25.53   2 
  -2   4   6  344.28   25.28  -1 
  -2  -3  -5  344.28   25.28   2 
   0  -1  -4 3705.44   42.76  -1 
   0   1   4 3705.44   42.76   2 
  -8   5   3  193.73   52.55  -1 
  -8   0   2  193.73   52.55   2 
  -5   3   4  241.95   30.95  -1 
  -5   0  -1  241.95   30.95   2 
  -3   4   6  140.05   19.90  -1 
  -3  -2  -4  140.05   19.90   2 
   0  -1  -9  396.41   18.72  -1 
   0   1   9  396.41   18.72   2 
   0   1   2 5079.45   59.34  -1 
   0  -1  -2 5079.45   59.34   2 
   0   5   6   45.18   12.40  -1 
   0  -5  -6   45.18   12.40   2 
   0   8   7   51.13   18.90  -1 
   0  -8  -7   51.13   18.90   2 
   2   0 -13   47.57   22.52  -1 
   2  -1  12   47.57   22.52   2 
   2   3   3  728.33   24.01  -1 
   2  -4  -4  728.33   24.01   2 
   5   1 -12  129.67   22.88  -1 
   5  -4   9  129.67   22.88   2 
  -5   8   8   96.53   21.21  -1 
  -5  -5  -5   96.53   21.21   2 
  -5   6   7   96.15   20.12  -1 
  -5  -3  -4   96.15   20.12   2 
   0   9   7  168.35   19.26  -1 
   0  -9  -7  168.35   19.26   2 
   3   8   4   85.66   24.74  -1 
   3 -10  -6   85.66   24.74   2 
   3   7   4  125.96   22.48  -1 
   3  -9  -6  125.96   22.48   2 
  -8   3  -2   94.84   24.02  -1 
  -8   2   7   94.84   24.02   2 
  -6   1  -5   17.52   22.34  -1 
  -6   3   9   17.52   22.34   2 
  -6   2   1  229.63   39.60  -1 
  -6   2   3  229.63   39.60   2 
  -3   0 -11   88.43   18.50  -1 
  -3   2  13   88.43   18.50   2 
   0  -1 -10  720.88   20.83  -1 
   0   1  10  720.88   20.83   2 
   2  -1  -9  802.90   29.36  -1 
   2   0   8  802.90   29.36   2 
   5   5   0  193.23   21.99  -1 
   5  -8  -3  193.23   21.99   2 
  -5   9   8   20.86   27.19  -1 
  -5  -6  -5   20.86   27.19   2 
   3   5   3  112.66   21.27  -1 
   3  -7  -5  112.66   21.27   2 
  -6   1  -7  163.97   25.13  -1 
  -6   3  11  163.97   25.13   2 
  -6   1  -6   77.96   22.48  -1 
  -6   3  10   77.96   22.48   2 
  -3   9   8   85.26   22.09  -1 
  -3  -7  -6   85.26   22.09   2 
   0  -1 -11   39.52   18.24  -1 
   0   1  11   39.52   18.24   2 
   0   4   5   68.03   13.05  -1 
   0  -4  -5   68.03   13.05   2 
   2   0 -14   67.56   20.96  -1 
   2  -1  13   67.56   20.96   2 
   3   1  -1 3055.86   58.97  -1 
   3  -3  -1 3055.86   58.97   2 
   5   1 -13   40.11   22.05  -1 
   5  -4  10   40.11   22.05   2 
  -3   6   7   88.70   21.16  -1 
  -3  -4  -5   88.70   21.16   2 
   0   6   6   36.23   15.03  -1 
   0  -6  -6   36.23   15.03   2 
   0  -1  -3 2529.07   38.53  -1 
   0   1   3 2529.07   38.53   2 
   3   0 -14  170.95   20.91  -1 
   3  -2  12  170.95   20.91   2 
   5   3  -2   19.33   22.65  -1 
   5  -6  -1   19.33   22.65   2 
  -6   1  -8    5.47   24.26  -1 
  -6   3  12    5.47   24.26   2 
  -5   4   5  787.17   33.17  -1 
  -5  -1  -2  787.17   33.17   2 
  -3   0 -12   51.91   17.97  -1 
  -3   2  14   51.91   17.97   2 
   5   4  -1   86.30   19.79  -1 
   5  -7  -2   86.30   19.79   2 
  -8   3  -1   69.07   27.26  -1 
  -8   2   6   69.07   27.26   2 
  -5   0  -4   73.76   21.77  -1 
  -5   3   7   73.76   21.77   2 
  -2   5   6  646.44   25.17  -1 
  -2  -4  -5  646.44   25.17   2 
   0   3   4 1393.75   26.61  -1 
   0  -3  -4 1393.75   26.61   2 
   0  -1 -12  167.06   20.08  -1 
   0   1  12  167.06   20.08   2 
   3   6   3  361.19   23.47  -1 
   3  -8  -5  361.19   23.47   2 
   3  -1  -7 1432.39   33.57  -1 
   3  -1   5 1432.39   33.57   2 
   3  -1  -8  279.48   22.18  -1 
   3  -1   6  279.48   22.18   2 
   3  -1  -9  268.07   22.47  -1 
   3  -1   7  268.07   22.47   2 
   3  -1 -10  402.68   24.64  -1 
   3  -1   8  402.68   24.64   2 
   5   6   0   60.42   23.68  -1 
   5  -9  -3   60.42   23.68   2 
  -8   7   5   48.71   27.23  -1 
  -8  -2   0   48.71   27.23   2 
  -6   1  -9   39.27   20.89  -1 
  -6   3  13   39.27   20.89   2 
  -6   1  -2  101.75   22.52  -1 
  -6   3   6  101.75   22.52   2 
  -3  -1  -7  845.51   25.72  -1 
  -3   3   9  845.51   25.72   2 
  -3  -1  -6  712.22   22.71  -1 
  -3   3   8  712.22   22.71   2 
   0   2   3  643.40   19.93  -1 
   0  -2  -3  643.40   19.93   2 
   0   7   6   27.60   13.33  -1 
   0  -7  -6   27.60   13.33   2 
   3   4   2   23.26   19.33  -1 
   3  -6  -4   23.26   19.33   2 
   3   7   3  102.26   24.24  -1 
   3  -9  -5  102.26   24.24   2 
  -8   6   4   30.01   33.32  -1 
  -8  -1   1   30.01   33.32   2 
  -3  -1  -9  242.21   21.21  -1 
  -3   3  11  242.21   21.21   2 
  -3  -1  -8  112.88   17.95  -1 
  -3   3  10  112.88   17.95   2 
  -3  -1  -5  417.51   21.04  -1 
  -3   3   7  417.51   21.04   2 
  -3   5   6  404.88   23.15  -1 
  -3  -3  -4  404.88   23.15   2 
  -3   7   7  149.15   19.46  -1 
  -3  -5  -5  149.15   19.46   2 
   0  -1 -13  114.20   18.46  -1 
   0   1  13  114.20   18.46   2 
   0   8   6   70.46   17.94  -1 
   0  -8  -6   70.46   17.94   2 
   0   9   6   61.91   19.02  -1 
   0  -9  -6   61.91   19.02   2 
   2   4   3  125.83   20.04  -1 
   2  -5  -4  125.83   20.04   2 
  -5   8   7   85.59   23.60  -1 
  -5  -5  -4   85.59   23.60   2 
  -5   0  -3  352.88   23.42  -1 
  -5   3   6  352.88   23.42   2 
   0   5   5  807.50   21.87  -1 
   0  -5  -5  807.50   21.87   2 
   3  -1  -6 1588.49   36.73  -1 
   3  -1   4 1588.49   36.73   2 
  -3  -1 -10  191.22   20.15  -1 
  -3   3  12  191.22   20.15   2 
  -3  -1  -4  494.54   22.16  -1 
  -3   3   6  494.54   22.16   2 
  -3   8   7   42.14   23.67  -1 
  -3  -6  -5   42.14   23.67   2 
   2  -1 -13  100.35   24.83  -1 
   2   0  12  100.35   24.83   2 
   3   3   1   26.04   18.56  -1 
   3  -5  -3   26.04   18.56   2 
  -5   9   7  142.28   26.26  -1 
  -5  -6  -4  142.28   26.26   2 
  -2   4   5  797.35   27.73  -1 
  -2  -3  -4  797.35   27.73   2 
   0  -1 -14   66.07   21.05  -1 
   0   1  14   66.07   21.05   2 
   3   2   0 1099.24   31.25  -1 
   3  -4  -2 1099.24   31.25   2 
   3  -1 -13   40.35   22.35  -1 
   3  -1  11   40.35   22.35   2 
   5   5  -1  170.43   22.59  -1 
   5  -8  -2  170.43   22.59   2 
  -5   6   6  180.08   21.12  -1 
  -5  -3  -3  180.08   21.12   2 
  -3   0   0 1966.47   51.30  -1 
  -3   2   2 1966.47   51.30   2 
  -3   9   7   72.85   23.00  -1 
  -3  -7  -5   72.85   23.00   2 
  -2   1   2  520.32   35.34  -1 
  -2   0  -1  520.32   35.34   2 
   2  -1 -14  103.17   24.12  -1 
   2   0  13  103.17   24.12   2 
   2   3   2 1386.46   31.11  -1 
   2  -4  -3 1386.46   31.11   2 
   3   5   2  553.07   24.77  -1 
   3  -7  -4  553.07   24.77   2 
   5   0 -11  125.04   24.75  -1 
   5  -3   8  125.04   24.75   2 
   5   0 -10  141.45   26.47  -1 
   5  -3   7  141.45   26.47   2 
  -8   2  -5   39.71   22.30  -1 
  -8   3  10   39.71   22.30   2 
  -5   0  -2   66.49   22.90  -1 
  -5   3   5   66.49   22.90   2 
   0  -2  -8  132.68   17.01  -1 
   0   2   8  132.68   17.01   2 
  -6   1  -1  235.40   26.19  -1 
  -6   3   5  235.40   26.19   2 
  -3  -1  -3  215.39   18.85  -1 
  -3   3   5  215.39   18.85   2 
  -3   4   5  753.47   25.13  -1 
  -3  -2  -3  753.47   25.13   2 
   0  -2 -10  186.61   19.83  -1 
   0   2  10  186.61   19.83   2 
   0  -2  -9   65.38   14.18  -1 
   0   2   9   65.38   14.18   2 
   0  -2  -7   21.85   12.37  -1 
   0   2   7   21.85   12.37   2 
   0   6   5   21.99   11.38  -1 
   0  -6  -5   21.99   11.38   2 
   2   2   1   42.66   21.63  -1 
   2  -3  -2   42.66   21.63   2 
   5   0  -9   39.63   25.77  -1 
   5  -3   6   39.63   25.77   2 
  -8   2  -4  110.82   24.43  -1 
  -8   3   9  110.82   24.43   2 
   3   6   2   11.59   21.48  -1 
   3  -8  -4   11.59   21.48   2 
  -8   3   0   92.41   28.79  -1 
  -8   2   5   92.41   28.79   2 
  -6   0  -7   99.24   23.32  -1 
  -6   4  11   99.24   23.32   2 
  -6   0  -6   93.86   22.83  -1 
  -6   4  10   93.86   22.83   2 
  -3  -1 -12  101.46   19.45  -1 
  -3   3  14  101.46   19.45   2 
  -3   6   6   57.80   19.19  -1 
  -3  -4  -4   57.80   19.19   2 
   0  -2 -11  178.21   19.68  -1 
   0   2  11  178.21   19.68   2 
   0  -2  -6   59.09   13.00  -1 
   0   2   6   59.09   13.00   2 
   0   4   4  121.22   13.40  -1 
   0  -4  -4  121.22   13.40   2 
   5   0 -13   80.09   22.50  -1 
   5  -3  10   80.09   22.50   2 
   5   7  -1  172.47   24.61  -1 
   5 -10  -2  172.47   24.61   2 
   5   8  -1   87.68   25.91  -1 
   5 -11  -2   87.68   25.91   2 
  -8   2  -3   90.77   25.21  -1 
  -8   3   8   90.77   25.21   2 
   0  10   5   36.31   18.32  -1 
   0 -10  -5   36.31   18.32   2 
   0   9   5  279.80   21.84  -1 
   0  -9  -5  279.80   21.84   2 
   3   9   2   85.19   23.02  -1 
   3 -11  -4   85.19   23.02   2 
   3   7   2  212.62   20.77  -1 
   3  -9  -4  212.62   20.77   2 
  -6   0  -8   58.50   21.45  -1 
  -6   4  12   58.50   21.45   2 
  -6   0  -5  280.74   23.97  -1 
  -6   4   9  280.74   23.97   2 
   0  -2 -12   23.44   16.26  -1 
   0   2  12   23.44   16.26   2 
   2  -2 -11   57.52   21.56  -1 
   2   1  10   57.52   21.56   2 
   2  -2  -8  352.54   23.86  -1 
   2   1   7  352.54   23.86   2 
  -5  -1  -7   59.95   21.95  -1 
  -5   4  10   59.95   21.95   2 
  -5  -1  -8  110.66   25.20  -1 
  -5   4  11  110.66   25.20   2 
  -3   2   3  869.85   37.82  -1 
  -3   0  -1  869.85   37.82   2 
  -2   5   5  137.29   21.69  -1 
  -2  -4  -4  137.29   21.69   2 
   0  -2  -5   44.66   14.63  -1 
   0   2   5   44.66   14.63   2 
   3   4   1  182.64   19.22  -1 
   3  -6  -3  182.64   19.22   2 
   3  -1  -5  919.27   34.24  -1 
   3  -1   3  919.27   34.24   2 
   5   3  -3  266.51   25.77  -1 
   5  -6   0  266.51   25.77   2 
  -6   0  -4   72.47   21.90  -1 
  -6   4   8   72.47   21.90   2 
  -3  -1  -2  861.97   28.61  -1 
  -3   3   4  861.97   28.61   2 
  -3   7   6  164.77   19.29  -1 
  -3  -5  -4  164.77   19.29   2 
  -5  -1  -5  216.30   23.05  -1 
  -5   4   8  216.30   23.05   2 
  -5  -1  -6   87.80   19.34  -1 
  -5   4   9   87.80   19.34   2 
  -5  -1  -9   67.39   21.36  -1 
  -5   4  12   67.39   21.36   2 
  -3  -2  -8   41.11   18.90  -1 
  -3   4  10   41.11   18.90   2 
  -3  -2  -7  122.12   20.00  -1 
  -3   4   9  122.12   20.00   2 
  -3   9   6   89.95   21.90  -1 
  -3  -7  -4   89.95   21.90   2 
  -3  10   6   47.74   20.42  -1 
  -3  -8  -4   47.74   20.42   2 
   0  -2 -14  143.39   21.85  -1 
   0   2  14  143.39   21.85   2 
   0   5   4 1035.20   21.31  -1 
   0  -5  -4 1035.20   21.31   2 
   5   5  -2   80.51   22.27  -1 
   5  -8  -1   80.51   22.27   2 
  -3  -2 -10   53.16   17.46  -1 
  -3   4  12   53.16   17.46   2 
  -3  -2  -6  162.14   17.62  -1 
  -3   4   8  162.14   17.62   2 
;
_shelx_hkl_checksum              42551
loop_
_space_group_symop_operation_xyz
'x, y, z'
'-x, -y, -z'
loop_
_atom_site_label
_atom_site_type_symbol
_atom_site_fract_x
_atom_site_fract_y
_atom_site_fract_z
_atom_site_U_iso_or_equiv
_atom_site_adp_type
_atom_site_occupancy
_atom_site_site_symmetry_order
_atom_site_calc_flag
_atom_site_refinement_flags_posn
_atom_site_refinement_flags_adp
_atom_site_refinement_flags_occupancy
_atom_site_disorder_assembly
_atom_site_disorder_group
Br1 Br 1.14675(15) 0.52223(12) 0.34955(9) 0.0364(3) Uani 1 1 d . . . . .
Br2 Br 0.51292(17) -0.00093(13) 0.28105(11) 0.0494(4) Uani 1 1 d . . . . .
N1 N 0.4922(12) 0.3738(9) 0.3633(7) 0.034(2) Uani 1 1 d . . . . .
H1A H 0.396900 0.415239 0.359823 0.041 Uiso 1 1 d R U . . .
H1B H 0.578387 0.398435 0.431939 0.041 Uiso 1 1 d R U . . .
C1 C 0.5489(14) 0.3767(10) 0.2591(8) 0.029(2) Uani 1 1 d . . . . .
C2 C 0.7013(13) 0.4858(10) 0.2461(7) 0.026(2) Uani 1 1 d . . . . .
C3 C 0.7496(14) 0.4850(10) 0.1402(8) 0.030(2) Uani 1 1 d . . . . .
H3 H 0.853706 0.559226 0.132082 0.036 Uiso 1 1 calc R U . . .
C4 C 0.6537(14) 0.3819(10) 0.0462(8) 0.028(2) Uani 1 1 d . . . . .
C5 C 0.5012(14) 0.2761(10) 0.0597(8) 0.030(2) Uani 1 1 d . . . . .
H5 H 0.432131 0.204246 -0.004187 0.036 Uiso 1 1 calc R U . . .
C6 C 0.4455(14) 0.2712(10) 0.1639(8) 0.030(2) Uani 1 1 d . . . . .
C7 C 0.7092(17) 0.3857(13) -0.0685(8) 0.041(3) Uani 1 1 d . . . . .
H7A H 0.632752 0.436350 -0.117292 0.061 Uiso 1 1 calc R U . . .
H7B H 0.687554 0.286467 -0.106557 0.061 Uiso 1 1 calc R U . . .
H7C H 0.843179 0.436727 -0.055916 0.061 Uiso 1 1 calc R U . . .
C11 C 0.8034(15) 0.6090(11) 0.3445(8) 0.031(2) Uani 1 1 d . . . . .
C12 C 0.9904(14) 0.6344(10) 0.3976(8) 0.030(2) Uani 1 1 d . . . . .
C13 C 1.0757(16) 0.7446(11) 0.4892(8) 0.035(2) Uani 1 1 d . . . . .
H13 H 1.205655 0.760593 0.524568 0.042 Uiso 1 1 calc R U . . .
C14 C 0.9733(16) 0.8309(11) 0.5291(9) 0.036(3) Uani 1 1 d . . . . .
H14 H 1.031120 0.905387 0.592897 0.044 Uiso 1 1 calc R U . . .
C15 C 0.7852(16) 0.8083(12) 0.4755(9) 0.038(3) Uani 1 1 d . . . . .
H15 H 0.716874 0.870173 0.503076 0.046 Uiso 1 1 calc R U . . .
C16 C 0.6934(15) 0.7021(10) 0.3855(7) 0.033(3) Uani 1 1 d . . . . .
H16 H 0.563798 0.688569 0.350596 0.039 Uiso 1 1 calc R U . . .
C21 C 0.2702(14) 0.1591(10) 0.1722(8) 0.030(2) Uani 1 1 d . . . . .
C22 C 0.2767(14) 0.0334(11) 0.2184(8) 0.033(2) Uani 1 1 d . . . . .
C23 C 0.1152(16) -0.0700(12) 0.2227(9) 0.040(3) Uani 1 1 d . . . . .
H23 H 0.123492 -0.155409 0.255166 0.047 Uiso 1 1 calc R U . . .
C24 C -0.0571(15) -0.0469(11) 0.1792(8) 0.036(2) Uani 1 1 d . . . . .
H24 H -0.169065 -0.117722 0.181018 0.043 Uiso 1 1 calc R U . . .
C25 C -0.0711(15) 0.0773(13) 0.1329(9) 0.043(3) Uani 1 1 d . . . . .
H25 H -0.191243 0.093228 0.104779 0.051 Uiso 1 1 calc R U . . .
C26 C 0.0931(15) 0.1785(11) 0.1281(9) 0.038(2) Uani 1 1 d . . . . .
H26 H 0.084274 0.262672 0.093951 0.045 Uiso 1 1 calc R U . . .
loop_
_atom_site_aniso_label
_atom_site_aniso_U_11
_atom_site_aniso_U_22
_atom_site_aniso_U_33
_atom_site_aniso_U_23
_atom_site_aniso_U_13
_atom_site_aniso_U_12
Br1 0.0336(6) 0.0458(7) 0.0341(6) 0.0089(5) 0.0126(5) 0.0140(5)
Br2 0.0379(7) 0.0412(7) 0.0677(9) 0.0137(6) 0.0031(6) 0.0132(6)
N1 0.030(5) 0.042(5) 0.029(4) 0.004(4) 0.009(4) 0.004(4)
C1 0.036(6) 0.033(5) 0.024(5) 0.013(4) 0.014(4) 0.014(5)
C2 0.028(5) 0.027(5) 0.025(5) 0.007(4) 0.009(4) 0.008(4)
C3 0.022(5) 0.028(5) 0.039(6) 0.010(4) 0.010(4) 0.000(4)
C4 0.028(5) 0.026(5) 0.030(5) 0.004(4) 0.006(4) 0.007(4)
C5 0.033(6) 0.031(5) 0.026(5) 0.001(4) 0.006(4) 0.008(5)
C6 0.028(5) 0.026(5) 0.037(6) 0.009(4) 0.008(5) 0.009(4)
C7 0.046(7) 0.054(7) 0.026(5) 0.007(5) 0.020(5) 0.008(6)
C11 0.040(6) 0.031(5) 0.024(5) 0.007(4) 0.011(5) 0.007(5)
C12 0.032(6) 0.031(5) 0.027(5) 0.009(4) 0.014(4) 0.003(5)
C13 0.039(6) 0.033(6) 0.030(5) 0.007(4) 0.006(5) 0.004(5)
C14 0.043(7) 0.030(6) 0.034(5) 0.007(4) 0.010(5) 0.003(5)
C15 0.046(7) 0.037(6) 0.038(6) 0.014(5) 0.016(5) 0.013(5)
C16 0.041(6) 0.032(5) 0.015(4) 0.007(4) 0.011(4) -0.015(5)
C21 0.031(6) 0.026(5) 0.029(5) 0.000(4) 0.011(4) -0.001(4)
C22 0.025(5) 0.039(6) 0.032(5) 0.000(4) 0.006(4) 0.003(5)
C23 0.039(6) 0.039(6) 0.036(6) 0.002(5) 0.011(5) 0.000(5)
C24 0.034(6) 0.031(6) 0.036(6) -0.005(4) 0.015(5) -0.003(5)
C25 0.023(6) 0.060(8) 0.044(6) 0.010(6) 0.007(5) 0.009(5)
C26 0.036(6) 0.034(6) 0.040(6) 0.002(5) 0.014(5) 0.001(5)
loop_
_atom_type_symbol
_atom_type_description
_atom_type_scat_dispersion_real
_atom_type_scat_dispersion_imag
_atom_type_scat_source
C C 0.0033 0.0016 'International Tables Vol C Tables 4.2.6.8 and 6.1.1.4'
H H 0.0000 0.0000 'International Tables Vol C Tables 4.2.6.8 and 6.1.1.4'
Br Br -0.2901 2.4595 'International Tables Vol C Tables 4.2.6.8 and 6.1.1.4'
N N 0.0061 0.0033 'International Tables Vol C Tables 4.2.6.8 and 6.1.1.4'
loop_
_geom_angle_atom_site_label_1
_geom_angle_atom_site_label_2
_geom_angle_atom_site_label_3
_geom_angle
_geom_angle_site_symmetry_1
_geom_angle_site_symmetry_3
_geom_angle_publ_flag
C1 N1 H1A 108.9 . . ?
C1 N1 H1B 121.1 . . ?
H1A N1 H1B 113.9 . . ?
N1 C1 C2 121.2(9) . . ?
N1 C1 C6 119.3(9) . . ?
C2 C1 C6 119.4(8) . . ?
C3 C2 C1 118.9(8) . . ?
C3 C2 C11 120.7(8) . . ?
C1 C2 C11 120.2(8) . . ?
C4 C3 C2 123.1(9) . . ?
C4 C3 H3 118.4 . . ?
C2 C3 H3 118.4 . . ?
C3 C4 C5 117.4(9) . . ?
C3 C4 C7 121.6(9) . . ?
C5 C4 C7 121.0(9) . . ?
C4 C5 C6 122.2(9) . . ?
C4 C5 H5 118.9 . . ?
C6 C5 H5 118.9 . . ?
C5 C6 C1 119.0(9) . . ?
C5 C6 C21 120.1(8) . . ?
C1 C6 C21 120.7(8) . . ?
C4 C7 H7A 109.5 . . ?
C4 C7 H7B 109.5 . . ?
H7A C7 H7B 109.5 . . ?
C4 C7 H7C 109.5 . . ?
H7A C7 H7C 109.5 . . ?
H7B C7 H7C 109.5 . . ?
C12 C11 C16 118.9(9) . . ?
C12 C11 C2 123.2(9) . . ?
C16 C11 C2 117.9(9) . . ?
C11 C12 C13 121.2(10) . . ?
C11 C12 Br1 122.3(7) . . ?
C13 C12 Br1 116.5(8) . . ?
C14 C13 C12 120.2(10) . . ?
C14 C13 H13 119.9 . . ?
C12 C13 H13 119.9 . . ?
C13 C14 C15 119.4(10) . . ?
C13 C14 H14 120.3 . . ?
C15 C14 H14 120.3 . . ?
C16 C15 C14 123.2(11) . . ?
C16 C15 H15 118.4 . . ?
C14 C15 H15 118.4 . . ?
C15 C16 C11 117.0(10) . . ?
C15 C16 H16 121.5 . . ?
C11 C16 H16 121.5 . . ?
C22 C21 C26 117.5(9) . . ?
C22 C21 C6 122.9(9) . . ?
C26 C21 C6 119.6(9) . . ?
C23 C22 C21 122.3(10) . . ?
C23 C22 Br2 117.6(8) . . ?
C21 C22 Br2 120.1(7) . . ?
C24 C23 C22 118.7(10) . . ?
C24 C23 H23 120.7 . . ?
C22 C23 H23 120.7 . . ?
C23 C24 C25 121.3(10) . . ?
C23 C24 H24 119.4 . . ?
C25 C24 H24 119.4 . . ?
C24 C25 C26 119.0(10) . . ?
C24 C25 H25 120.5 . . ?
C26 C25 H25 120.5 . . ?
C25 C26 C21 121.3(10) . . ?
C25 C26 H26 119.4 . . ?
C21 C26 H26 119.4 . . ?
loop_
_geom_bond_atom_site_label_1
_geom_bond_atom_site_label_2
_geom_bond_distance
_geom_bond_site_symmetry_2
_geom_bond_publ_flag
Br1 C12 1.905(10) . ?
Br2 C22 1.897(10) . ?
N1 C1 1.396(12) . ?
N1 H1A 0.8933 . ?
N1 H1B 0.9100 . ?
C1 C2 1.397(13) . ?
C1 C6 1.409(14) . ?
C2 C3 1.387(13) . ?
C2 C11 1.525(13) . ?
C3 C4 1.377(13) . ?
C3 H3 0.9500 . ?
C4 C5 1.383(13) . ?
C4 C7 1.513(13) . ?
C5 C6 1.394(13) . ?
C5 H5 0.9500 . ?
C6 C21 1.512(13) . ?
C7 H7A 0.9800 . ?
C7 H7B 0.9800 . ?
C7 H7C 0.9800 . ?
C11 C12 1.370(14) . ?
C11 C16 1.469(15) . ?
C12 C13 1.383(14) . ?
C13 C14 1.373(15) . ?
C13 H13 0.9500 . ?
C14 C15 1.383(15) . ?
C14 H14 0.9500 . ?
C15 C16 1.357(14) . ?
C15 H15 0.9500 . ?
C16 H16 0.9500 . ?
C21 C22 1.383(14) . ?
C21 C26 1.390(15) . ?
C22 C23 1.382(14) . ?
C23 C24 1.371(15) . ?
C23 H23 0.9500 . ?
C24 C25 1.380(15) . ?
C24 H24 0.9500 . ?
C25 C26 1.388(14) . ?
C25 H25 0.9500 . ?
C26 H26 0.9500 . ?
loop_
_geom_hbond_atom_site_label_D
_geom_hbond_atom_site_label_H
_geom_hbond_atom_site_label_A
_geom_hbond_distance_DH
_geom_hbond_distance_HA
_geom_hbond_distance_DA
_geom_hbond_angle_DHA
_geom_hbond_site_symmetry_A
N1 H1A Br1 0.89 2.33 3.227(9) 179.6 1_455
N1 H1B Br1 0.91 2.90 3.808(8) 179.8 2_766
C13 H13 Br2 0.95 3.15 3.855(10) 132.5 2_766
loop_
_geom_torsion_atom_site_label_1
_geom_torsion_atom_site_label_2
_geom_torsion_atom_site_label_3
_geom_torsion_atom_site_label_4
_geom_torsion
_geom_torsion_site_symmetry_1
_geom_torsion_site_symmetry_2
_geom_torsion_site_symmetry_3
_geom_torsion_site_symmetry_4
_geom_torsion_publ_flag
N1 C1 C2 C3 -178.8(9) . . . . ?
C6 C1 C2 C3 -1.6(14) . . . . ?
N1 C1 C2 C11 -3.0(14) . . . . ?
C6 C1 C2 C11 174.2(9) . . . . ?
C1 C2 C3 C4 0.3(15) . . . . ?
C11 C2 C3 C4 -175.5(9) . . . . ?
C2 C3 C4 C5 0.8(15) . . . . ?
C2 C3 C4 C7 179.3(10) . . . . ?
C3 C4 C5 C6 -0.6(15) . . . . ?
C7 C4 C5 C6 -179.1(10) . . . . ?
C4 C5 C6 C1 -0.7(15) . . . . ?
C4 C5 C6 C21 176.1(9) . . . . ?
N1 C1 C6 C5 179.1(9) . . . . ?
C2 C1 C6 C5 1.8(14) . . . . ?
N1 C1 C6 C21 2.4(14) . . . . ?
C2 C1 C6 C21 -174.9(9) . . . . ?
C3 C2 C11 C12 -66.3(13) . . . . ?
C1 C2 C11 C12 117.9(11) . . . . ?
C3 C2 C11 C16 115.2(10) . . . . ?
C1 C2 C11 C16 -60.5(12) . . . . ?
C16 C11 C12 C13 0.7(13) . . . . ?
C2 C11 C12 C13 -177.8(8) . . . . ?
C16 C11 C12 Br1 -178.9(6) . . . . ?
C2 C11 C12 Br1 2.6(13) . . . . ?
C11 C12 C13 C14 0.2(14) . . . . ?
Br1 C12 C13 C14 179.8(7) . . . . ?
C12 C13 C14 C15 -1.2(14) . . . . ?
C13 C14 C15 C16 1.3(15) . . . . ?
C14 C15 C16 C11 -0.4(14) . . . . ?
C12 C11 C16 C15 -0.6(13) . . . . ?
C2 C11 C16 C15 178.0(8) . . . . ?
C5 C6 C21 C22 100.6(12) . . . . ?
C1 C6 C21 C22 -82.8(12) . . . . ?
C5 C6 C21 C26 -77.0(13) . . . . ?
C1 C6 C21 C26 99.6(11) . . . . ?
C26 C21 C22 C23 -0.7(15) . . . . ?
C6 C21 C22 C23 -178.3(9) . . . . ?
C26 C21 C22 Br2 -179.7(7) . . . . ?
C6 C21 C22 Br2 2.7(13) . . . . ?
C21 C22 C23 C24 0.2(15) . . . . ?
Br2 C22 C23 C24 179.3(8) . . . . ?
C22 C23 C24 C25 -0.6(16) . . . . ?
C23 C24 C25 C26 1.6(16) . . . . ?
C24 C25 C26 C21 -2.1(16) . . . . ?
C22 C21 C26 C25 1.6(15) . . . . ?
C6 C21 C26 C25 179.3(9) . . . . ?
