#------------------------------------------------------------------------------
#$Date: 2021-02-04 02:53:14 +0200 (Thu, 04 Feb 2021) $
#$Revision: 261473 $
#$URL: file:///home/coder/svn-repositories/cod/cif/4/13/56/4135605.cif $
#------------------------------------------------------------------------------
#
# This file is available in the Crystallography Open Database (COD),
# http://www.crystallography.net/
#
# All data on this site have been placed in the public domain by the
# contributors.
#
data_4135605
loop_
_publ_author_name
'Benz, Maximilian'
'Klap\"otke, Thomas M'
'Krumm, Burkhard'
'Lommel, Marcus'
'Stierstorfer, J\"org'
_publ_section_title
;
 Nitrocarbamoyl Azide O<sub>2</sub>NN(H)C(O)N<sub>3</sub>: A Stable but
 Highly Energetic Member of the Carbonyl Azide Family.
;
_journal_issue                   3
_journal_name_full               'Journal of the American Chemical Society'
_journal_page_first              1323
_journal_page_last               1327
_journal_paper_doi               10.1021/jacs.0c12507
_journal_volume                  143
_journal_year                    2021
_chemical_formula_moiety         '	C N5 O3, H4 N'
_chemical_formula_sum            'C H4 N6 O3'
_chemical_formula_weight         148.10
_chemical_name_common            'ammonium nitraminocarbonyl azide'
_chemical_name_systematic        'ammonium nitraminocarbonyl azide'
_space_group_IT_number           2
_space_group_name_Hall           '-P 1'
_space_group_name_H-M_alt        'P -1'
_symmetry_cell_setting           triclinic
_symmetry_Int_Tables_number      2
_symmetry_space_group_name_Hall  '-P 1'
_symmetry_space_group_name_H-M   'P -1'
_atom_sites_solution_hydrogens   difmap
_atom_sites_solution_primary     difmap
_audit_creation_date             2020-08-20
_audit_creation_method           SHELXL-2018/3
_audit_update_record             2020-09-16
_cell_angle_alpha                67.848(6)
_cell_angle_beta                 72.382(5)
_cell_angle_gamma                80.022(5)
_cell_formula_units_Z            2
_cell_length_a                   6.6353(3)
_cell_length_b                   6.8575(4)
_cell_length_c                   7.0924(5)
_cell_measurement_reflns_used    1337
_cell_measurement_temperature    112(2)
_cell_measurement_theta_max      31.7190
_cell_measurement_theta_min      3.1790
_cell_volume                     284.24(3)
_computing_cell_refinement       'CrysAlisPro 1.171.40.82a (Rigaku OD, 2020)'
_computing_data_collection       'CrysAlisPro 1.171.40.82a (Rigaku OD, 2020)'
_computing_data_reduction        'CrysAlisPro 1.171.40.82a (Rigaku OD, 2020)'
_computing_molecular_graphics    'Diamond 2.1c, Crystal Impact GbR'
_computing_publication_material  'Encifer 1.5.1, CCDC 2014'
_computing_structure_refinement  'SHELXL-2018/3 (Sheldrick, 2018)'
_computing_structure_solution    SIR-92
_diffrn_ambient_temperature      112(2)
_diffrn_detector                 'CCD plate'
_diffrn_detector_area_resol_mean 15.9809
_diffrn_detector_type            Sapphire3
_diffrn_measured_fraction_theta_full 1.000
_diffrn_measured_fraction_theta_max 1.000
_diffrn_measurement_details
;
List of Runs (angles in degrees, time in seconds):

  # Type    Start    End  Width  t~exp~   \w     \q     \k     \f   Frames
--------------------------------------------------------------------------
  1  \w    -43.00  41.00   1.00   25.00    --   24.62 -57.00 -60.00   84
  2  \w    -25.00   5.00   1.00   25.00    --   24.62 118.00 132.35   30
  3  \w    -28.00   0.00   1.00   25.00    --   24.62 124.00 -87.58   28
  4  \w    -22.00  10.00   1.00   25.00    --   24.62 112.00  52.42   32
  5  \w      5.00  94.00   1.00   25.00    --   24.62  37.00-180.00   89
  6  \w    -20.00  64.00   1.00   25.00    --   24.62 -99.00 -90.00   84
  7  \w      8.00  92.00   1.00   25.00    --   24.62  57.00-180.00   84
  8  \w      5.00  94.00   1.00   25.00    --   24.62  37.00  90.00   89
  9  \w    -43.00 -18.00   1.00   25.00    --   24.62 -57.00  60.00   25
;
_diffrn_measurement_device       'four-circle diffractometer'
_diffrn_measurement_device_type  'Xcalibur, Sapphire3'
_diffrn_measurement_method       '\w scans'
_diffrn_orient_matrix_UB_11      0.0432219000
_diffrn_orient_matrix_UB_12      0.1002040000
_diffrn_orient_matrix_UB_13      -0.0478615000
_diffrn_orient_matrix_UB_21      -0.0192996000
_diffrn_orient_matrix_UB_22      0.0081926000
_diffrn_orient_matrix_UB_23      0.1008074000
_diffrn_orient_matrix_UB_31      0.1019591000
_diffrn_orient_matrix_UB_32      -0.0491955000
_diffrn_orient_matrix_UB_33      0.0072923000
_diffrn_radiation_monochromator  graphite
_diffrn_radiation_probe          x-ray
_diffrn_radiation_type           MoK\a
_diffrn_radiation_wavelength     0.71073
_diffrn_reflns_av_R_equivalents  0.0288
_diffrn_reflns_av_sigmaI/netI    0.0434
_diffrn_reflns_av_unetI/netI     0.0309
_diffrn_reflns_Laue_measured_fraction_full 1.000
_diffrn_reflns_Laue_measured_fraction_max 1.000
_diffrn_reflns_limit_h_max       8
_diffrn_reflns_limit_h_min       -8
_diffrn_reflns_limit_k_max       8
_diffrn_reflns_limit_k_min       -8
_diffrn_reflns_limit_l_max       8
_diffrn_reflns_limit_l_min       -8
_diffrn_reflns_number            3026
_diffrn_reflns_point_group_measured_fraction_full 1.000
_diffrn_reflns_point_group_measured_fraction_max 1.000
_diffrn_reflns_theta_full        25.242
_diffrn_reflns_theta_max         26.371
_diffrn_reflns_theta_min         3.212
_diffrn_source                   'fine-focus sealed X-ray tube'
_exptl_absorpt_coefficient_mu    0.161
_exptl_absorpt_correction_T_max  1.00000
_exptl_absorpt_correction_T_min  0.93700
_exptl_absorpt_correction_type   multi-scan
_exptl_absorpt_process_details
;
CrysAlisPro 1.171.40.82a (Rigaku Oxford Diffraction, 2020)
Empirical absorption correction using spherical harmonics,
implemented in SCALE3 ABSPACK scaling algorithm.
;
_exptl_crystal_colour            colorless
_exptl_crystal_density_diffrn    1.730
_exptl_crystal_description       block
_exptl_crystal_F_000             152
_exptl_crystal_size_max          0.300
_exptl_crystal_size_mid          0.240
_exptl_crystal_size_min          0.139
_refine_diff_density_max         0.210
_refine_diff_density_min         -0.194
_refine_diff_density_rms         0.045
_refine_ls_extinction_method     none
_refine_ls_goodness_of_fit_ref   1.078
_refine_ls_hydrogen_treatment    refall
_refine_ls_matrix_type           full
_refine_ls_number_parameters     107
_refine_ls_number_reflns         1162
_refine_ls_number_restraints     0
_refine_ls_restrained_S_all      1.078
_refine_ls_R_factor_all          0.0373
_refine_ls_R_factor_gt           0.0299
_refine_ls_shift/su_max          0.000
_refine_ls_shift/su_mean         0.000
_refine_ls_structure_factor_coef Fsqd
_refine_ls_weighting_details
'w=1/[\s^2^(Fo^2^)+(0.0375P)^2^+0.0582P] where P=(Fo^2^+2Fc^2^)/3'
_refine_ls_weighting_scheme      calc
_refine_ls_wR_factor_gt          0.0771
_refine_ls_wR_factor_ref         0.0808
_reflns_Friedel_coverage         0.000
_reflns_number_gt                1000
_reflns_number_total             1162
_reflns_threshold_expression     'I > 2\s(I)'
_cod_data_source_file            ja0c12507_si_001.cif
_cod_data_source_block           px300
_cod_database_code               4135605
_shelx_space_group_comment
;
The symmetry employed for this shelxl refinement is uniquely defined
by the following loop, which should always be used as a source of
symmetry information in preference to the above space-group names.
They are only intended as comments.
;
_shelx_res_file
;
TITL v1_a.res in P-1
    shelx.res
    created by SHELXL-2018/3 at 12:42:38 on 16-Sep-2020
CELL  0.71073   6.6353   6.8575   7.0924   67.848   72.382   80.022
ZERR     2.00   0.0003   0.0004   0.0005    0.006    0.005    0.005
LATT   1
SFAC  C    H    N    O
UNIT  2 8 12 6
MERG   2
SHEL 1000 0.8
HTAB N6 O1
HTAB N6 O2
EQIV $1 -x+1, -y+1, -z
HTAB N6 O1_$1
EQIV $2 -x, -y+1, -z+1
HTAB N6 O3_$2
EQIV $3 -x+1, -y+1, -z+1
HTAB N6 N4_$3
FMAP   2   53   53
PLAN   20
ACTA
HTAB    2.00000
BOND
BOND   $H
CONF
LIST   4
L.S.  20
TEMP  -161.15
WGHT    0.037500    0.058200
FVAR       1.09128
O1    4    0.574427    0.354288    0.276349    11.00000    0.01834    0.02017 =
         0.01513   -0.00458   -0.00581    0.00249
O2    4    0.199202    0.382864    0.539729    11.00000    0.01650    0.02005 =
         0.02307   -0.00050   -0.00636    0.00407
O3    4    0.144098    0.109834    0.823081    11.00000    0.01592    0.02443 =
         0.01876   -0.00112    0.00017   -0.00195
N5    3    0.266767    0.221610    0.662458    11.00000    0.01342    0.01647 =
         0.01524   -0.00585   -0.00494    0.00011
N2    3    0.957336    0.238838    0.304986    11.00000    0.01710    0.01835 =
         0.01992   -0.00652   -0.00779    0.00203
N6    3    0.296611    0.718425    0.122107    11.00000    0.01747    0.01889 =
         0.01700   -0.00500   -0.00596    0.00238
N4    3    0.474392    0.156672    0.641572    11.00000    0.01183    0.01737 =
         0.01713   -0.00537   -0.00471    0.00145
N1    3    0.815179    0.162416    0.470445    11.00000    0.01293    0.01997 =
         0.01720   -0.00399   -0.00261    0.00048
N3    3    1.097835    0.295794    0.168499    11.00000    0.01936    0.03121 =
         0.02276   -0.00702   -0.00194   -0.00473
C1    1    0.606922    0.241360    0.446423    11.00000    0.01504    0.01252 =
         0.01867   -0.00697   -0.00639    0.00153
H6A   2    0.316601    0.592647    0.206537    11.00000    0.03284
H6B   2    0.344351    0.724446   -0.016470    11.00000    0.03772
H6C   2    0.162091    0.772130    0.146526    11.00000    0.03558
H6D   2    0.372991    0.806937    0.137796    11.00000    0.04609
HKLF    4




REM  v1_a.res in P-1
REM wR2 = 0.0808, GooF = S = 1.078, Restrained GooF = 1.078 for all data
REM R1 = 0.0299 for 1000 Fo > 4sig(Fo) and 0.0373 for all 1162 data
REM 107 parameters refined using 0 restraints

END

WGHT      0.0375      0.0582

REM Instructions for potential hydrogen bonds
HTAB N6 O1
HTAB N6 O2
HTAB N6 O1_$1
HTAB N6 O3_$2
HTAB N6 N4_$3

REM Highest difference peak  0.210,  deepest hole -0.194,  1-sigma level  0.045
Q1    1   0.5180  0.1364  0.7430  11.00000  0.05    0.21
Q2    1   0.5036  0.0334  0.7378  11.00000  0.05    0.20
Q3    1   0.5351  0.2627  0.5567  11.00000  0.05    0.20
Q4    1   0.5663  0.2233  0.3553  11.00000  0.05    0.19
Q5    1   0.7967  0.0417  0.5474  11.00000  0.05    0.19
Q6    1   0.5905  0.3573  0.3702  11.00000  0.05    0.18
Q7    1   0.7180  0.1634  0.4350  11.00000  0.05    0.17
Q8    1   0.4047  0.1884  0.6547  11.00000  0.05    0.17
Q9    1   0.6780  0.4470  0.1635  11.00000  0.05    0.17
Q10   1   0.1979 -0.0173  0.8947  11.00000  0.05    0.17
Q11   1   0.2968  0.4734  0.4266  11.00000  0.05    0.14
Q12   1   0.0605  0.1485  0.8679  11.00000  0.05    0.13
Q13   1   0.1999  0.1369  0.8907  11.00000  0.05    0.12
Q14   1   1.0584  0.1799  0.2661  11.00000  0.05    0.12
Q15   1   0.1999 -0.0205  0.7224  11.00000  0.05    0.12
Q16   1   0.3399  0.0685  0.7987  11.00000  0.05    0.12
Q17   1   0.0992 -0.0534  0.8043  11.00000  0.05    0.12
Q18   1   0.2340  0.4067  0.3643  11.00000  0.05    0.11
Q19   1   0.8369  0.0229  0.4254  11.00000  0.05    0.11
Q20   1   0.5242  0.1368  0.5552  11.00000  0.05    0.11
;
_shelx_res_checksum              16019
_shelx_hkl_file
;
   0   0  -1 1313.37   28.50
   0   0  -1 1323.17   28.60
   0   0  -2  178.98    5.40
   0   0   2  197.18    5.60
   0   0  -2  185.98    4.80
   0   0  -3  224.48    6.10
   0   0   3  236.38    6.00
   0   0  -3  233.88    7.00
   0   0  -4    7.70    0.90
   0   0   4    8.70    0.90
   0   0  -4    7.70    1.30
   0   0  -5   77.29    3.90
   0   0  -5   81.69    4.40
   0   0  -5   73.89    3.30
   0   0  -6  119.39    4.70
   0   0  -6  135.49    6.40
   0   0  -6  142.09    6.10
   0   0  -7   18.10    2.50
   0   0  -7   24.50    3.10
   0   0  -7   23.20    2.40
   0   0  -8   14.50    2.50
   0   0  -8   14.80    2.20
   0   0  -8   15.80    2.70
   0   0  -9    2.90    1.30
   0   0  -9    1.90    1.30
   0   1  -8   16.90    2.80
   0   1  -8   23.30    2.90
   0   1  -8   16.00    2.80
   0   1  -7    1.30    1.10
   0   1  -7    2.80    1.50
   0   1  -7    1.10    0.80
   0   1  -6    4.60    1.40
   0   1  -6    3.30    1.30
   0   1  -6    3.60    1.10
   0   1  -5  317.87   10.50
   0   1  -5  338.47   10.20
   0   1  -5  286.97    7.30
   0   1  -5  312.67   10.60
   0   1  -4   57.59    3.30
   0   1  -4   57.79    3.40
   0   1  -4   48.60    1.80
   0   1  -4   56.79    3.40
   0   1  -3  166.38    4.10
   0   1  -3  186.08    6.00
   0   1  -3  176.58    6.20
   0   1  -2   67.09    3.00
   0   1  -2   66.49    2.90
   0   1  -1    0.30    0.40
   0   1  -1   -0.20    0.50
   0   1  -1    0.90    0.50
   0  -1   1    0.90    0.40
   0  -1   1    0.30    0.40
   0  -1   0    9.80    0.70
   0  -1   0   10.50    0.80
   0   1   0    8.60    0.60
   0   1   0    9.40    0.70
   0  -1  -1    6.90    0.60
   0  -1  -1    6.80    0.60
   0   1   1    6.50    0.40
   0   1   1    7.20    0.60
   0   1   2   33.10    1.80
   0   1   2   30.50    1.70
   0  -1  -2   33.30    1.80
   0  -1  -3  279.47    7.70
   0  -1  -3  280.67    8.20
   0  -1  -4   49.20    2.70
   0  -1  -4   49.80    3.20
   0  -1  -5  114.89    4.70
   0  -1  -5  122.99    5.40
   0  -1  -6  218.18    8.20
   0  -1  -6  203.68    7.30
   0  -1  -7   58.39    3.60
   0  -1  -7   64.39    4.00
   0  -1  -7   61.19    4.40
   0  -1  -8   50.69    4.30
   0  -1  -8   44.70    4.40
   0  -1  -8   52.89    3.90
   0  -1  -9   11.90    2.60
   0  -1  -9   15.80    2.60
   0   2  -8   13.60    2.60
   0   2  -8    8.00    1.90
   0   2  -8   11.70    2.50
   0   2  -7    1.20    1.00
   0   2  -7    1.20    1.20
   0   2  -7    4.40    1.60
   0   2  -6  147.89    7.40
   0   2  -6  137.99    7.30
   0   2  -6  132.09    6.80
   0   2  -5  305.67   10.90
   0   2  -5  307.47   10.70
   0   2  -5  315.97   11.20
   0   2  -4   -0.40    1.00
   0   2  -4    1.90    0.90
   0   2  -4    1.00    0.80
   0   2  -3  134.39    5.50
   0   2  -3  133.69    5.60
   0   2  -3  137.59    5.30
   0   2  -2    4.20    0.90
   0   2  -2    4.80    0.90
   0   2  -2    3.80    1.00
   0   2  -1  315.37    8.60
   0   2  -1  301.97    8.60
   0   2  -1  302.87    7.70
   0  -2   1  315.07    7.10
   0  -2   1  323.97    7.40
   0  -2   0 3546.15   72.29
   0   2   0 3385.16   71.99
   0   2   0 3668.63   73.59
   0  -2   0 3825.72   73.59
   0  -2   0 3856.41   73.69
   0   2   0 3361.06   72.29
   0   2   0 3608.34   73.49
   0   2   1 1871.61   41.40
   0  -2  -1 2030.20   41.50
   0   2   1 1932.31   41.00
   0  -2  -1 2032.90   41.50
   0  -2  -1 1916.81   41.00
   0   2   2  152.38    4.10
   0   2   2  154.28    4.80
   0  -2  -2  154.78    4.90
   0  -2  -2  171.68    4.90
   0  -2  -2  167.48    4.20
   0  -2  -3  478.15   12.30
   0   2   3  459.35   12.00
   0  -2  -3  472.95   11.10
   0   2   4  275.77    8.50
   0  -2  -4  266.17    8.70
   0  -2  -4  272.37    8.50
   0  -2  -5   27.80    2.40
   0  -2  -5   29.20    2.70
   0  -2  -6    3.60    1.00
   0  -2  -7   21.80    2.40
   0  -2  -7   27.20    2.80
   0  -2  -8   65.29    4.80
   0  -2  -9   30.20    3.90
   0  -2  -9   35.30    3.80
   0  -2 -10   -0.50    1.10
   0   3  -8   -1.00    1.50
   0   3  -8   -0.80    1.10
   0   3  -7    1.10    1.10
   0   3  -7    0.50    1.00
   0   3  -6    7.80    1.70
   0   3  -6    7.30    1.70
   0   3  -6    6.80    1.80
   0   3  -5   31.90    3.50
   0   3  -5   33.20    3.10
   0   3  -5   32.70    3.20
   0   3  -4  226.98    9.20
   0   3  -4  225.98    8.90
   0   3  -4  238.98    8.60
   0   3  -3   35.70    2.50
   0   3  -3   33.20    2.90
   0   3  -3   32.30    2.80
   0   3  -2    6.70    1.00
   0   3  -2    9.20    1.60
   0  -3   2    7.40    0.90
   0   3  -2    5.20    1.20
   0   3  -1    4.30    1.00
   0   3  -1    5.10    0.70
   0   3  -1    4.60    1.00
   0  -3   1    5.60    0.60
   0   3   0    4.10    1.00
   0   3   0    4.20    0.50
   0  -3   0    5.10    0.50
   0   3   0    4.00    0.90
   0  -3   0    4.10    0.70
   0   3   0    5.10    0.40
   0   3   1  615.64   14.80
   0   3   1  598.54   14.80
   0  -3  -1  609.64   13.50
   0  -3  -1  598.74   13.90
   0  -3  -2   98.79    3.60
   0   3   2   94.69    3.90
   0  -3  -3   27.70    2.00
   0  -3  -3   29.00    1.50
   0   3   4  119.99    5.10
   0  -3  -4  116.99    5.30
   0  -3  -4  122.99    5.20
   0  -3  -5    4.10    1.20
   0  -3  -5    5.50    1.40
   0   3   5    4.50    1.30
   0  -3  -6   84.19    5.10
   0  -3  -6   83.89    4.90
   0  -3  -7  329.47   11.60
   0  -3  -8    5.70    1.40
   0  -3  -8    3.90    1.40
   0  -3  -9   36.70    3.80
   0  -3  -9   34.10    4.10
   0   4  -7    2.70    1.30
   0   4  -6    9.60    2.10
   0   4  -6   16.20    2.90
   0   4  -6   13.50    2.40
   0   4  -5   35.30    3.80
   0   4  -5   33.80    3.60
   0   4  -5   36.30    3.30
   0   4  -4    4.50    1.50
   0   4  -4    6.10    1.40
   0   4  -4    6.70    1.70
   0   4  -3    4.60    1.30
   0   4  -3    8.40    1.80
   0   4  -3    5.60    1.10
   0   4  -2   40.50    2.40
   0  -4   2   36.80    1.20
   0   4  -2   44.90    3.40
   0   4  -2   43.50    3.40
   0  -4   1  140.29    4.40
   0   4  -1  146.29    6.20
   0   4  -1  155.18    6.30
   0   4  -1  141.29    4.60
   0   4   0   33.50    2.60
   0  -4   0   33.60    1.50
   0  -4   0   37.20    2.20
   0   4   0   30.70    2.50
   0   4   1    0.30    0.70
   0   4   1    0.70    0.70
   0  -4  -1    1.00    0.70
   0  -4  -1    1.50    0.50
   0  -4  -1    1.40    0.40
   0  -4  -2   30.30    2.40
   0  -4  -2   33.60    2.00
   0   4   2   29.20    2.30
   0   4   3  179.98    5.40
   0  -4  -3  197.28    7.20
   0  -4  -3  191.08    6.30
   0  -4  -4  210.38    7.30
   0  -4  -4  203.08    7.80
   0  -4  -4  197.58    5.70
   0  -4  -5    4.00    1.30
   0   4   5    4.60    1.40
   0  -4  -5    1.10    0.70
   0  -4  -6   19.70    2.50
   0  -4  -6   23.40    2.70
   0   4   6   25.70    2.70
   0  -4  -7    6.00    1.50
   0  -4  -7    4.00    1.40
   0  -4  -8   14.00    2.30
   0  -4  -9   28.70    3.40
   0  -4  -9   30.20    3.30
   0   5  -6    0.50    1.00
   0   5  -6    1.40    1.30
   0   5  -5   28.80    3.80
   0   5  -5   25.50    3.40
   0   5  -4    2.50    1.40
   0   5  -4    4.40    1.70
   0   5  -3  101.59    4.70
   0   5  -3  104.09    6.30
   0   5  -3  104.09    6.30
   0   5  -2    2.90    1.30
   0   5  -2    0.50    0.50
   0   5  -2    1.90    1.40
   0   5  -1  188.48    7.80
   0  -5   1  187.48    5.80
   0   5  -1  182.68    5.60
   0   5  -1  187.48    7.90
   0   5   0    6.60    1.50
   0   5   0    4.10    1.10
   0  -5   0    5.60    1.00
   0  -5  -1  324.87   10.00
   0  -5  -1  333.17    9.10
   0   5   1  320.77   10.50
   0   5   1  329.97   10.60
   0  -5  -2  166.58    5.60
   0  -5  -2  161.98    6.50
   0   5   2  169.78    6.70
   0  -5  -2  152.18    4.80
   0   5   3   32.50    2.70
   0  -5  -3   31.20    2.90
   0  -5  -3   33.50    2.30
   0  -5  -4  122.69    6.20
   0  -5  -4  126.29    5.40
   0   5   4  119.29    4.10
   0  -5  -5   15.90    2.30
   0  -5  -5   15.30    2.00
   0  -5  -6   21.20    2.50
   0   5   6   18.70    2.40
   0  -5  -6   17.00    2.50
   0  -5  -7   43.60    4.10
   0  -5  -7   45.20    4.00
   0   5   7   49.90    4.10
   0  -5  -8    0.00    1.10
   0  -5  -9   31.50    3.90
   0   6  -5    0.50    1.20
   0   6  -5    0.20    1.20
   0   6  -4    6.70    2.00
   0   6  -4   14.70    2.80
   0   6  -3    0.40    1.10
   0   6  -3    0.80    1.10
   0   6  -2   16.10    2.50
   0   6  -2   13.10    2.30
   0   6  -1    6.20    1.70
   0   6  -1    7.00    1.60
   0  -6   0    7.60    1.20
   0   6   0    7.90    1.70
   0  -6   0    6.40    1.20
   0   6   0    6.70    1.60
   0   6   1   26.60    2.80
   0   6   1   29.30    2.90
   0  -6  -1   28.80    2.10
   0  -6  -1   27.80    2.50
   0   6   2   12.40    2.00
   0  -6  -2   14.20    1.50
   0  -6  -2    9.40    1.70
   0  -6  -3   23.10    2.00
   0  -6  -3   24.30    2.70
   0   6   3   23.40    2.60
   0   6   4    0.80    0.50
   0  -6  -4    0.70    0.70
   0  -6  -5    0.00    0.60
   0  -6  -5    1.20    1.20
   0  -6  -6    1.90    1.30
   0  -6  -6    1.70    1.00
   0   6   6    1.00    1.30
   0  -6  -7    1.40    1.30
   0  -6  -7    2.20    1.10
   0   6   7    2.40    1.60
   0  -6  -8    3.80    1.50
   0   6   8    3.60    1.60
   0  -6  -8    1.60    1.50
   0  -6  -9   11.60    2.60
   0   7  -3   12.60    2.80
   0   7  -3   19.10    3.20
   0   7  -2   40.90    4.50
   0   7  -2   50.39    4.80
   0   7  -1   24.90    3.30
   0   7  -1   29.40    3.50
   0   7   0    1.60    1.40
   0   7   0    0.50    1.10
   0   7   1    6.70    1.80
   0  -7  -1    6.30    1.30
   0   7   1    7.70    1.60
   0  -7  -2    4.00    0.90
   0   7   2    4.20    1.50
   0  -7  -2    2.40    1.00
   0  -7  -3   58.59    4.50
   0   7   3   56.49    4.40
   0  -7  -3   59.39    3.50
   0  -7  -4   -0.10    0.90
   0  -7  -4   -1.10    0.70
   0  -7  -5   12.80    1.90
   0  -7  -5    9.90    2.10
   0  -7  -6    3.00    1.50
   0  -7  -6    5.90    1.40
   0   7   7   21.90    3.10
   0  -7  -7   18.10    2.60
   0  -7  -7   17.60    2.90
   0   7   8   16.20    2.70
   0  -7  -8   15.00    2.60
   0  -7  -8   15.20    3.10
   0   8  -2    2.70    1.60
   0   8  -2    3.30    1.60
   0   8  -1   24.00    3.60
   0   8  -1   29.30    3.80
   0   8   0   47.20    4.70
   0   8   0   47.20    4.70
   0   8   1    2.70    1.40
   0  -8  -2    3.60    1.30
   0   8   2    4.20    1.60
   0   8   3    0.60    1.00
   0  -8  -3    0.40    0.80
   0  -8  -4   25.80    3.20
   0  -8  -5    0.10    0.90
   0  -8  -6    7.60    2.10
   0   8   7    1.50    1.20
   0  -8  -7    2.50    1.80
   0   8   8    2.90    1.60
   0   9   0    5.40    2.00
   0   9   0    0.90    1.30
   0   9   1    1.00    1.50
   0   9   2   12.80    2.70
   0   9   3   26.50    3.70
   0  -9  -3   20.60    3.00
   0  -9  -4   -1.30    1.30
   0  -9  -5    6.30    1.70
   0  -9  -6   29.10    3.90
   0  10   3   30.90    4.20
   0 -10  -4    3.20    1.50
   1  -9  -5   65.79    5.90
   1  -9  -4   76.69    6.10
   1  -9  -3    7.70    2.00
  -1   9   3   11.50    2.50
  -1   9   2    7.00    2.00
  -1   9   1    1.70    1.60
  -1   9   0    0.70    1.50
  -1   9   0    0.40    1.20
   1  -8  -7    2.60    1.60
   1  -8  -6    2.30    1.80
   1  -8  -5    3.00    1.50
   1  -8  -4   36.30    4.00
   1  -8  -3    0.50    0.90
  -1   8   3   -0.20    1.00
   1  -8  -2    0.80    1.10
  -1   8   2   -0.10    1.10
  -1   8   1   62.59    5.20
   1  -8  -1   58.19    4.30
  -1   8   0   12.50    2.40
  -1   8   0   10.30    2.50
  -1   8  -1   58.89    5.30
  -1   8  -1   47.60    4.90
  -1   8  -2    5.10    1.60
  -1   8  -2    4.80    2.10
   1  -7  -8   -0.80    1.40
   1  -7  -7   10.20    2.70
  -1   7   7    7.10    2.10
   1  -7  -6   45.00    4.60
   1  -7  -6   52.99    4.00
   1  -7  -5    7.80    2.00
   1  -7  -4  107.29    6.50
  -1   7   3   11.60    2.00
   1  -7  -3    8.20    1.80
  -1   7   2    7.50    1.80
   1  -7  -2    7.00    1.60
  -1   7   1   55.89    4.50
  -1   7   1   57.69    4.40
   1  -7  -1   46.20    3.70
  -1   7   0    6.30    1.80
   1  -7   0    7.60    1.40
  -1   7   0    7.40    1.80
  -1   7  -1    3.70    1.50
  -1   7  -1   38.20    3.90
  -1   7  -2    7.80    2.10
  -1   7  -2    8.30    2.20
  -1   7  -3   10.00    2.50
  -1   7  -3   10.60    2.40
   1  -6  -9   46.60    4.80
   1  -6  -9   51.79    5.30
   1  -6  -8    2.90    1.40
   1  -6  -8    4.50    2.00
   1  -6  -7    2.30    1.60
   1  -6  -7    0.60    1.20
  -1   6   7    1.70    1.40
  -1   6   6    6.60    1.60
   1  -6  -6    9.20    1.80
   1  -6  -6    6.30    1.70
   1  -6  -5    8.70    1.40
   1  -6  -5    7.70    2.00
  -1   6   4    8.20    1.20
   1  -6  -4   10.40    2.00
   1  -6  -4    7.90    1.30
   1  -6  -3   15.10    2.30
   1  -6  -3   20.00    1.80
  -1   6   3   20.10    2.40
   1  -6  -2  133.29    6.30
   1  -6  -2  131.79    4.50
  -1   6   2  123.69    6.10
  -1   6   1    1.20    0.90
  -1   6   1    0.40    0.90
   1  -6  -1    0.40    0.30
   1  -6  -1    1.10    0.80
  -1   6   1    0.60    0.40
   1  -6   0    3.00    0.90
  -1   6   0    3.50    1.20
  -1   6   0    5.10    1.50
  -1   6  -1   52.59    4.20
  -1   6  -1   56.49    4.50
  -1   6  -2  184.08    8.60
  -1   6  -2  168.18    8.50
  -1   6  -3   30.90    3.70
  -1   6  -3   31.60    3.60
  -1   6  -4    2.80    1.70
  -1   6  -4    4.40    1.70
  -1   6  -5    6.60    2.30
  -1   6  -5    7.60    2.30
   1  -5  -9    1.90    1.30
   1  -5  -9    2.20    1.50
   1  -5  -8    2.30    1.30
   1  -5  -8   -0.90    1.00
   1  -5  -7   13.10    2.40
   1  -5  -7   12.20    2.20
  -1   5   7   13.20    2.10
   1  -5  -6   91.59    6.00
   1  -5  -6  104.59    5.80
  -1   5   6  103.59    5.60
   1  -5  -5   60.29    4.50
   1  -5  -5   62.59    3.90
   1  -5  -4    1.10    1.00
  -1   5   4    0.90    0.70
   1  -5  -4    0.90    0.70
   1  -5  -3  126.79    6.10
   1  -5  -3  128.99    4.90
  -1   5   3  130.29    5.50
  -1   5   2    7.60    1.40
   1  -5  -2    8.80    0.70
   1  -5  -2   10.30    1.10
   1  -5  -2    8.90    1.60
   1  -5  -1  276.47    9.10
  -1   5   1  277.77    9.20
  -1   5   1  264.67    9.20
   1  -5  -1  278.37    7.20
  -1   5   0   29.40    1.70
   1  -5   0   31.70    1.70
  -1   5   0   27.40    2.70
  -1   5   0   25.90    2.50
   1  -5   0   31.20    2.40
   1  -5   1   32.70    2.20
  -1   5  -1   32.90    2.90
  -1   5  -1   35.40    3.20
  -1   5  -2   -1.20    1.10
  -1   5  -2    0.50    1.00
  -1   5  -3   11.40    2.10
  -1   5  -3   15.70    2.50
  -1   5  -4   71.49    5.40
  -1   5  -4   68.59    5.30
  -1   5  -5    6.90    2.00
  -1   5  -5    7.00    2.10
  -1   5  -6   77.89    6.40
  -1   5  -6   65.59    5.80
   1  -4  -9    7.80    2.00
   1  -4  -9    7.40    2.20
   1  -4  -8    1.40    1.10
   1  -4  -8    1.40    1.20
   1  -4  -7    0.60    0.90
   1  -4  -7    2.90    1.40
   1  -4  -6    3.10    1.30
  -1   4   6    4.00    1.30
   1  -4  -5    1.60    0.90
   1  -4  -5    1.00    0.80
  -1   4   5    1.60    0.90
   1  -4  -4    0.70    0.70
   1  -4  -4    1.50    1.00
   1  -4  -3   45.70    3.20
  -1   4   3   45.50    2.60
   1  -4  -3   44.00    2.60
  -1   4   2  114.49    4.70
   1  -4  -2  123.09    5.30
   1  -4  -2  119.49    4.10
  -1   4   1  140.29    5.30
  -1   4   1  143.69    5.50
   1  -4  -1  140.69    4.10
   1  -4  -1  142.39    5.50
  -1   4   0    8.00    1.30
   1  -4   0    8.90    0.80
  -1   4   0    9.30    1.50
   1  -4   0    7.90    1.20
  -1   4   0    6.30    0.80
  -1   4  -1  161.18    6.40
  -1   4  -1  163.38    6.20
   1  -4   1  148.69    4.90
  -1   4  -1  138.69    3.50
   1  -4   2   75.59    2.70
  -1   4  -2   80.49    4.60
  -1   4  -2   80.69    4.50
  -1   4  -2   72.09    2.90
  -1   4  -3   14.90    2.20
  -1   4  -3   14.30    1.50
  -1   4  -3   13.30    2.10
  -1   4  -4   43.50    3.10
  -1   4  -4   43.90    3.90
  -1   4  -4   41.30    3.80
  -1   4  -5    5.80    1.30
  -1   4  -5    7.00    1.80
  -1   4  -5    6.80    1.90
  -1   4  -6   21.50    3.10
  -1   4  -6   16.40    3.00
  -1   4  -7    0.10    1.40
   1  -3  -9    6.80    2.20
   1  -3  -8    2.40    1.30
   1  -3  -8    1.70    1.30
   1  -3  -8   -0.80    0.80
   1  -3  -7   35.90    3.10
   1  -3  -7   31.00    3.20
   1  -3  -7   35.40    3.60
   1  -3  -6    0.20    0.80
   1  -3  -5   31.40    2.90
  -1   3   5   32.00    2.50
   1  -3  -4   99.19    4.90
   1  -3  -4   98.49    4.70
  -1   3   4  110.29    4.60
   1  -3  -3  257.97    8.50
   1  -3  -3  256.17    7.00
   1  -3  -3  269.07    7.80
  -1   3   3  259.27    7.60
   1  -3  -2  583.74   15.20
   1  -3  -2  602.24   14.00
  -1   3   2  599.04   14.20
   1  -3  -2  586.64   14.10
  -1   3   2  582.54   13.90
  -1   3   1  525.45   13.20
   1  -3  -1  532.25   11.70
   1  -3  -1  546.55   12.00
  -1   3   1  547.85   13.00
   1  -3  -1  551.24   13.70
  -1   3   1  532.25   12.10
  -1   3   0  172.18    5.70
   1  -3   0  179.88    4.40
  -1   3   0  174.68    6.00
   1  -3   0  187.68    5.70
  -1   3  -1  705.93   16.70
  -1   3  -1  687.13   16.80
  -1   3  -1  620.34   14.20
  -1   3  -1  688.73   15.20
   1  -3   1  689.43   15.40
  -1   3  -2   15.80    1.80
  -1   3  -2   16.80    1.30
   1  -3   2   16.90    1.00
  -1   3  -2   17.00    1.90
  -1   3  -3   83.29    4.80
  -1   3  -3   88.79    3.90
  -1   3  -3   83.09    4.70
  -1   3  -4   44.50    3.50
  -1   3  -4   41.00    2.90
  -1   3  -4   40.60    3.50
  -1   3  -5  156.08    7.80
  -1   3  -5  144.89    6.70
  -1   3  -5  156.88    7.50
  -1   3  -6   14.60    2.40
  -1   3  -6   11.50    2.30
  -1   3  -6   16.30    2.30
  -1   3  -7   28.80    3.50
  -1   3  -7   23.90    3.10
  -1   3  -7   27.10    3.70
  -1   3  -8   -0.20    1.00
   1  -2  -9    2.50    1.20
   1  -2  -8    0.80    0.80
   1  -2  -8    2.30    1.40
   1  -2  -7   39.20    3.40
   1  -2  -7   35.60    3.70
   1  -2  -7   35.50    3.20
   1  -2  -6    0.20    0.60
   1  -2  -6    0.40    0.80
   1  -2  -6    0.60    0.80
   1  -2  -5   14.50    1.90
   1  -2  -5   16.40    1.70
   1  -2  -4  194.08    7.10
  -1   2   4  214.98    6.70
   1  -2  -3   70.19    3.60
   1  -2  -3   72.19    2.70
  -1   2   3   74.29    3.10
   1  -2  -3   79.29    3.60
  -1   2   3   75.49    2.40
   1  -2  -2  379.16   10.40
  -1   2   2  392.96    9.80
  -1   2   2  381.56    9.30
   1  -2  -2  393.86    9.00
   1  -2  -2  386.06    9.70
  -1   2   2  393.46    9.80
  -1   2   1   80.59    3.00
   1  -2  -1   84.79    2.70
  -1   2   1   74.79    2.70
   1  -2  -1   83.29    2.50
   1  -2  -1   82.09    2.50
   1  -2  -1   84.69    3.40
  -1   2   1   81.19    2.50
   1  -2  -1   88.59    2.80
  -1   2   0   -0.20    0.50
  -1   2   0    0.60    0.60
  -1   2   0    1.20    0.60
  -1   2   0    1.30    0.70
   1  -2   0    0.70    0.40
   1  -2   0   -0.40    0.50
   1  -2   0    1.20    0.50
   1  -2   1  584.84   12.60
  -1   2  -1  564.24   13.80
  -1   2  -1  542.85   12.80
  -1   2  -1  563.14   13.00
  -1   2  -1  538.85   13.60
   1  -2   1  562.14   12.80
  -1   2  -2  162.38    5.70
  -1   2  -2  160.18    5.80
  -1   2  -2  156.38    4.00
  -1   2  -3   84.79    4.20
  -1   2  -3   70.49    3.90
  -1   2  -4   21.00    2.40
  -1   2  -4   21.40    2.40
  -1   2  -5   22.10    2.50
  -1   2  -5   25.70    2.80
  -1   2  -5   24.20    2.50
  -1   2  -6   25.70    2.90
  -1   2  -6   19.30    2.60
  -1   2  -6   22.90    2.80
  -1   2  -7   35.20    3.90
  -1   2  -7   35.00    3.70
  -1   2  -7   34.60    3.70
  -1   2  -8   19.90    3.20
  -1   2  -8   19.20    2.90
  -1   2  -8   15.10    2.70
   1  -1  -9    9.10    2.10
   1  -1  -9   12.70    2.90
   1  -1  -8    5.50    1.70
   1  -1  -8    2.00    1.40
   1  -1  -7   35.10    3.20
   1  -1  -7   33.50    3.70
   1  -1  -6    3.90    1.40
   1  -1  -6    3.20    1.10
   1  -1  -6    1.10    0.60
   1  -1  -6    0.70    0.80
   1  -1  -5  546.35   14.20
   1  -1  -5  527.35   15.30
  -1   1   5  500.95   11.50
   1  -1  -5  512.35   13.10
   1  -1  -5  517.85   14.00
   1  -1  -4    6.40    1.30
   1  -1  -4    6.00    1.00
   1  -1  -4    6.60    1.20
   1  -1  -3    6.60    0.90
   1  -1  -3    8.10    1.10
  -1   1   2  642.04   14.20
   1  -1  -2  629.84   15.10
   1  -1  -2  630.74   15.10
   1  -1  -1  367.96    8.90
   1  -1  -1  372.16    9.40
  -1   1   1  377.66    9.20
  -1   1   1  390.56    9.40
  -1   1   1  390.46    8.90
  -1   1   0    8.90    0.50
   1  -1   0    9.70    0.60
  -1   1   0    9.40    0.60
   1  -1   0    9.70    0.50
  -1   1   0   10.80    0.90
   1  -1   0    9.50    0.90
  -1   1   0    8.80    0.70
  -1   1   0    9.20    0.80
   1  -1   1  606.14   13.40
  -1   1  -1  586.54   13.10
   1  -1   1  620.94   13.60
  -1   1  -1  583.34   13.50
  -1   1  -1  594.44   13.60
  -1   1  -1  577.94   13.30
   1  -1   1  589.54   13.00
   1  -1   1  608.64   13.70
  -1   1  -1  576.64   13.70
   1  -1   1  585.34   12.80
  -1   1  -1  568.64   12.80
   1  -1   2  115.29    3.80
  -1   1  -2  106.19    3.90
  -1   1  -2  101.69    2.90
  -1   1  -2  109.49    4.00
  -1   1  -3   12.00    0.70
  -1   1  -3   13.90    1.60
  -1   1  -4   16.10    1.80
  -1   1  -4   17.80    2.00
  -1   1  -5  130.19    5.80
  -1   1  -5  113.29    3.30
  -1   1  -5  143.69    6.40
  -1   1  -6  117.39    6.30
  -1   1  -6  112.59    5.90
  -1   1  -7    2.50    1.40
  -1   1  -7    3.10    1.30
  -1   1  -7    2.20    1.30
  -1   1  -8   35.20    3.90
  -1   1  -8   40.70    3.90
  -1   1  -8   33.70    4.00
  -1   1  -9    9.40    2.20
  -1   1  -9    3.30    1.40
  -1   1  -9    7.10    2.00
   1   0  -9   17.10    2.90
   1   0  -8   -1.00    1.20
   1   0  -8    0.00    0.80
   1   0  -7   87.99    4.80
   1   0  -7   93.79    5.70
   1   0  -7   81.99    5.90
   1   0  -6  134.89    6.30
   1   0  -6  128.39    6.80
   1   0  -6  112.69    4.90
   1   0  -6  133.49    5.60
   1   0  -5   35.70    2.40
   1   0  -5   36.40    2.50
   1   0  -5   37.40    2.90
   1   0  -5   32.00    3.00
   1   0  -4   45.50    2.50
   1   0  -4   49.30    3.30
   1   0  -4   45.60    2.50
   1   0  -4   47.20    2.90
   1   0  -3  390.46   10.00
   1   0  -3  400.66   10.60
   1   0  -3  415.16   10.30
   1   0  -3  406.16   11.30
   1   0  -2 1093.29   24.60
   1   0  -2 1070.49   23.80
  -1   0   2 1134.19   23.90
   1   0  -2 1032.70   23.30
   1   0  -2 1060.79   23.90
   1   0  -1  159.48    4.00
  -1   0   1  148.79    4.00
  -1   0   1  151.48    3.70
  -1   0   1  168.38    4.40
   1   0  -1  157.98    4.40
   1   0  -1  158.08    4.60
   1   0  -1  158.68    3.70
  -1   0   1  170.28    4.60
   1   0   0   -0.10    0.30
   1   0   0    0.30    0.30
  -1   0   0    0.50    0.30
  -1   0   0    0.10    0.30
  -1   0   0    1.30    0.40
   1   0   1 1261.37   26.60
  -1   0  -1 1226.78   26.60
  -1   0  -1 1238.38   26.80
  -1   0  -2 1448.56   32.40
  -1   0  -2 1519.95   32.00
   1   0   2 1538.25   32.40
  -1   0  -3  311.47    7.70
  -1   0  -3  277.87    8.50
  -1   0  -4   14.60    1.70
  -1   0  -4   18.10    1.90
  -1   0  -5  121.19    5.60
  -1   0  -5  119.09    4.20
  -1   0  -6    7.50    1.00
  -1   0  -6    5.20    1.50
  -1   0  -7  144.79    7.50
  -1   0  -7  146.29    7.00
  -1   0  -8  120.19    6.70
  -1   0  -8  116.59    7.10
  -1   0  -8  122.19    7.40
  -1   0  -9    0.90    1.20
  -1   0  -9   -0.80    1.30
  -1   0  -9   -1.80    1.40
   1   1  -8   -0.30    0.90
   1   1  -8    1.40    1.40
   1   1  -7   37.00    3.70
   1   1  -7   45.50    4.40
   1   1  -7   43.40    3.60
   1   1  -6   47.20    4.20
   1   1  -6   51.99    3.70
   1   1  -6   48.20    4.00
   1   1  -5  146.99    6.80
   1   1  -5  133.69    5.60
   1   1  -5  135.39    6.20
   1   1  -5  120.79    4.30
   1   1  -4  274.57    8.90
   1   1  -4  249.38    7.10
   1   1  -4  273.77    8.40
   1   1  -4  280.47    9.40
   1   1  -3   14.10    1.60
   1   1  -3    9.10    1.30
   1   1  -3   14.30    1.40
   1   1  -3   11.40    1.00
   1   1  -2  110.09    4.40
   1   1  -2  112.89    3.90
   1   1  -2  114.09    3.40
   1   1  -2  113.79    4.20
  -1  -1   2  117.19    3.40
  -1  -1   1  135.19    4.20
  -1  -1   1  126.79    3.90
   1   1  -1  128.29    3.90
  -1  -1   1  129.09    3.60
   1   1  -1  121.49    4.00
  -1  -1   1  128.19    4.00
   1   1  -1  121.99    4.20
   1   1   0   86.39    2.80
  -1  -1   0   86.59    2.70
   1   1   0   86.89    2.80
  -1  -1   0   86.99    2.80
   1   1   0   83.59    2.80
  -1  -1   0   95.59    2.90
  -1  -1  -1   41.90    1.70
  -1  -1  -1   38.00    1.20
   1   1   1   41.50    1.70
  -1  -1  -1   40.80    1.50
   1   1   1   42.80    1.50
  -1  -1  -2  228.38    6.60
   1   1   2  238.28    6.60
  -1  -1  -2  262.37    6.80
   1   1   2  241.38    6.70
  -1  -1  -3  185.08    6.00
  -1  -1  -3  178.88    4.60
  -1  -1  -4   -0.10    0.70
  -1  -1  -5   29.20    2.70
  -1  -1  -6   75.69    4.70
  -1  -1  -6   76.29    3.90
  -1  -1  -7   72.69    4.90
  -1  -1  -7   70.49    3.80
  -1  -1  -8   20.00    2.80
  -1  -1  -9    5.10    2.00
  -1  -1  -9    4.40    1.40
  -1  -1  -9    1.60    1.20
   1   2  -8   12.80    2.70
   1   2  -8   11.30    2.40
   1   2  -7    2.10    0.90
   1   2  -7    2.30    1.70
   1   2  -7    1.30    1.10
   1   2  -6   37.10    3.80
   1   2  -6   36.40    3.40
   1   2  -6   40.40    3.80
   1   2  -5   31.70    3.10
   1   2  -5   35.20    3.40
   1   2  -5   39.50    3.20
   1   2  -4  246.48    8.90
   1   2  -4  273.47    9.50
   1   2  -4  278.37    9.60
   1   2  -3   77.29    4.20
   1   2  -3   83.59    4.00
   1   2  -3   81.19    4.20
   1   2  -2  147.89    5.30
   1   2  -2  137.49    5.40
   1   2  -2  147.29    5.30
   1   2  -1  207.78    6.30
   1   2  -1  193.78    6.10
   1   2  -1  195.18    5.90
  -1  -2   1  195.68    5.10
   1   2   0    0.50    0.60
   1   2   0    1.00    0.60
   1   2   0   -0.40    0.60
  -1  -2   0    1.40    0.50
   1   2   1 1730.73   38.60
  -1  -2  -1 1787.02   38.20
  -1  -2  -1 1906.51   38.60
  -1  -2  -1 1937.81   38.30
  -1  -2  -1 1786.12   38.60
   1   2   1 1731.63   37.20
  -1  -2  -2 9999.00  205.88
   1   2   3   78.59    3.60
  -1  -2  -3   72.99    3.40
  -1  -2  -4  111.49    2.80
  -1  -2  -4  124.59    5.10
   1   2   4  120.69    5.00
  -1  -2  -5  138.19    6.10
  -1  -2  -6    0.60    0.80
  -1  -2  -7   22.80    2.40
  -1  -2  -7   20.20    2.80
  -1  -2  -8   60.59    4.70
  -1  -2  -8   54.09    3.80
  -1  -2  -9    2.10    1.20
  -1  -2 -10    2.90    1.40
   1   3  -7   36.80    3.90
   1   3  -7   38.40    4.30
   1   3  -7   43.00    4.40
   1   3  -6   26.40    3.10
   1   3  -6   23.30    3.10
   1   3  -6   27.60    3.30
   1   3  -5   10.10    2.00
   1   3  -5    5.10    1.40
   1   3  -5    8.20    1.90
   1   3  -4  108.69    5.60
   1   3  -4  111.59    5.70
   1   3  -4  110.19    5.90
   1   3  -3  446.96   13.10
   1   3  -3  436.96   13.00
   1   3  -3  435.06   13.40
   1   3  -2   11.60    1.70
   1   3  -2   11.50    1.60
   1   3  -2   11.40    1.40
   1   3  -1   86.49    4.00
   1   3  -1   74.99    3.30
   1   3  -1   69.89    3.80
   1   3   0  261.57    8.20
   1   3   0  276.87    8.20
   1   3   0  274.07    7.40
   1   3   1   41.20    2.50
  -1  -3  -1   38.80    2.20
   1   3   1   42.60    2.60
  -1  -3  -1   40.50    2.00
   1   3   1   35.50    1.20
  -1  -3  -2   20.00    1.60
  -1  -3  -3   18.40    1.70
  -1  -3  -4   16.40    1.80
   1   3   4   16.40    1.90
   1   3   5  113.09    5.40
  -1  -3  -5  110.69    5.40
  -1  -3  -5  100.99    3.50
  -1  -3  -6    6.80    1.70
  -1  -3  -7  118.69    6.60
  -1  -3  -7  113.29    6.00
  -1  -3  -8   61.69    4.40
  -1  -3  -9    7.10    2.00
  -1  -3 -10   18.10    3.00
   1   4  -7    1.60    1.00
   1   4  -6   17.70    2.70
   1   4  -6   14.30    2.80
   1   4  -6   15.60    2.70
   1   4  -5   15.50    2.50
   1   4  -5   14.10    2.30
   1   4  -5   18.40    2.80
   1   4  -4  161.98    7.80
   1   4  -4  174.58    8.30
   1   4  -4  180.48    7.70
   1   4  -3  409.76   13.60
   1   4  -3  408.36   13.30
   1   4  -3  418.26   12.60
   1   4  -2    1.30    0.80
   1   4  -2    0.40    0.80
  -1  -4   2    1.40    0.30
   1   4  -2    0.70    0.70
   1   4  -1    9.90    1.60
   1   4  -1    9.90    1.20
   1   4  -1    8.70    1.60
   1   4   0   16.50    1.90
   1   4   0   18.90    2.00
   1   4   0   16.50    1.40
   1   4   1    0.50    0.80
  -1  -4  -1    0.30    0.60
   1   4   1    1.50    1.00
   1   4   2 1587.24   36.90
  -1  -4  -2 1653.23   36.10
  -1  -4  -3  483.65   12.30
   1   4   3  436.56    9.70
  -1  -4  -4  153.28    6.10
  -1  -4  -5  158.28    6.70
   1   4   5  146.89    6.70
   1   4   6   20.80    2.60
  -1  -4  -6   19.20    2.40
  -1  -4  -7    0.20    1.00
  -1  -4  -7    5.50    2.20
  -1  -4  -8    2.70    1.30
  -1  -4  -8    2.60    1.30
  -1  -4  -9    4.30    1.50
  -1  -4 -10   15.10    2.70
   1   5  -6    3.40    1.60
   1   5  -5    2.50    1.40
   1   5  -5    4.10    1.60
   1   5  -4    8.00    1.90
   1   5  -4    9.20    1.70
   1   5  -4    5.70    1.90
   1   5  -3  140.69    7.30
   1   5  -3  137.59    7.40
   1   5  -3  138.29    6.30
   1   5  -2  144.39    7.00
   1   5  -2  122.99    6.70
   1   5  -2  132.79    5.70
  -1  -5   1    0.80    0.40
   1   5  -1    0.80    0.90
   1   5  -1    0.30    0.50
   1   5  -1   -0.10    1.00
   1   5   0    8.70    1.60
   1   5   0    4.90    1.30
   1   5   0    6.70    1.00
  -1  -5  -1    0.50    0.60
   1   5   1    2.50    1.20
   1   5   1    0.90    0.90
   1   5   2    0.30    1.00
  -1  -5  -2    0.90    0.60
  -1  -5  -3  307.47    9.50
  -1  -5  -4   51.49    3.40
  -1  -5  -5   15.10    2.00
   1   5   6   36.40    3.50
  -1  -5  -6   44.90    3.80
  -1  -5  -7   36.60    3.70
  -1  -5  -7   31.50    3.40
   1   5   7   35.40    3.60
  -1  -5  -8   87.09    6.10
  -1  -5  -8   89.99    6.20
  -1  -5  -9  142.29    8.50
  -1  -5  -9  108.09    7.10
  -1  -5 -10    5.80    1.80
  -1  -5 -10   10.90    2.40
   1   6  -5    5.90    2.00
   1   6  -4    6.70    1.90
   1   6  -4    5.00    1.80
   1   6  -3   48.70    4.70
   1   6  -3   54.79    4.80
   1   6  -2    3.20    1.60
   1   6  -2    5.30    1.70
   1   6  -1    6.80    1.70
   1   6  -1    4.20    1.40
   1   6   0   66.69    4.80
   1   6   0   67.29    4.70
  -1  -6   0   70.09    3.70
   1   6   1   35.30    3.40
   1   6   1   39.00    3.50
  -1  -6  -1   37.90    2.80
  -1  -6  -2   13.70    1.60
   1   6   2   14.40    2.20
   1   6   3   69.59    4.70
  -1  -6  -3   83.09    4.20
  -1  -6  -4   10.50    1.60
  -1  -6  -5  114.79    5.80
  -1  -6  -6   42.90    3.70
   1   6   6   48.30    4.20
  -1  -6  -6   41.20    4.20
  -1  -6  -7    1.20    1.20
  -1  -6  -7    3.20    1.30
   1   6   7    3.50    1.70
  -1  -6  -8    9.00    2.00
   1   6   8    6.00    1.80
  -1  -6  -8    5.70    1.80
  -1  -6  -9    8.20    2.30
  -1  -6  -9    4.40    1.60
  -1  -6 -10   10.90    2.40
   1   7  -3    4.90    2.20
   1   7  -3    1.00    1.30
   1   7  -2    0.60    1.10
   1   7  -2    3.70    1.90
   1   7  -1   25.10    3.30
   1   7  -1   23.60    3.20
  -1  -7   0   29.30    2.70
   1   7   0   29.30    3.40
   1   7   0   31.90    3.60
   1   7   1  111.99    6.60
   1   7   1  107.39    6.50
  -1  -7  -1  102.29    5.30
  -1  -7  -1  106.09    5.10
   1   7   2    2.50    1.40
  -1  -7  -2    1.00    0.70
  -1  -7  -2    0.80    1.10
   1   7   3  139.29    7.50
  -1  -7  -3  150.88    6.30
  -1  -7  -3  147.69    7.20
  -1  -7  -4  119.59    5.80
  -1  -7  -4  108.19    6.40
  -1  -7  -5    4.70    1.30
  -1  -7  -5    2.60    1.30
  -1  -7  -6   12.90    2.10
  -1  -7  -6   11.90    2.40
   1   7   7    1.10    1.50
  -1  -7  -7    1.60    1.00
  -1  -7  -7    1.40    1.30
   1   7   8    0.90    1.20
  -1  -7  -8    1.30    1.20
  -1  -7  -8    2.30    1.50
  -1  -7  -9   31.30    4.10
   1   7   9   30.80    4.00
  -1  -7  -9   36.40    4.20
   1   8  -2   -1.60    1.60
   1   8  -2   -1.00    1.20
   1   8  -1    4.90    2.10
   1   8  -1    5.20    2.10
   1   8   0   10.50    2.40
   1   8   0   11.00    2.50
   1   8   1    2.20    1.50
  -1  -8  -2    2.70    1.00
   1   8   2    1.20    1.10
  -1  -8  -3    1.40    1.20
  -1  -8  -3    1.20    0.60
   1   8   3    0.30    1.10
  -1  -8  -4   35.50    3.10
  -1  -8  -4   18.50    2.80
  -1  -8  -5   -0.20    1.10
  -1  -8  -5    0.20    0.80
  -1  -8  -6    8.20    1.80
  -1  -8  -6    7.10    2.20
   1   8   7    1.20    1.60
  -1  -8  -7   -0.80    0.90
  -1  -8  -7   -1.30    1.20
   1   8   8    0.50    1.20
  -1  -8  -8    1.70    1.00
   1   8   9   -0.50    1.20
  -1  -8  -9    3.20    1.50
   1   9   0    5.50    2.10
   1   9   0   11.10    2.70
   1   9   1   24.00    3.70
   1   9   2   -1.50    1.40
   1   9   3    1.30    1.40
  -1  -9  -3    0.60    1.00
  -1  -9  -4    2.10    1.10
  -1  -9  -5    6.20    2.00
  -1  -9  -6    0.00    1.20
  -1 -10  -4    1.20    0.90
  -1 -10  -5    2.00    1.30
   2  -9  -4    6.90    2.00
   2  -9  -3    0.90    1.00
  -2   9   2   11.90    2.40
  -2   9   1    8.70    2.20
   2  -8  -6    0.20    1.20
   2  -8  -5    0.30    1.20
   2  -8  -4    1.90    1.20
   2  -8  -3    2.50    1.30
  -2   8   3    5.60    1.60
  -2   8   2  131.89    7.50
   2  -8  -2  122.29    7.20
  -2   8   1   33.60    3.80
   2  -8  -1   26.30    3.10
  -2   8   0    3.10    1.50
  -2   8   0    3.00    1.70
  -2   8  -1    0.60    1.00
  -2   8  -1   -1.00    1.30
  -2   8  -2   36.60    4.40
  -2   8  -2   32.10    4.00
   2  -7  -7   -2.40    1.60
   2  -7  -6   17.80    3.10
   2  -7  -5    0.30    1.10
   2  -7  -4   29.80    3.50
   2  -7  -3  135.39    7.50
  -2   7   3  145.79    7.10
  -2   7   2   70.89    4.80
   2  -7  -2   68.69    4.90
  -2   7   1   20.40    2.70
  -2   7   1   12.80    2.20
   2  -7  -1   17.80    2.40
  -2   7   0   34.70    3.50
  -2   7   0   40.50    3.90
   2  -7   0   34.40    3.10
  -2   7  -1    2.80    1.30
  -2   7  -1    3.20    1.40
  -2   7  -2   -0.50    0.90
  -2   7  -2   -0.60    1.10
  -2   7  -3   34.80    4.10
  -2   7  -3   37.30    4.40
   2  -6  -8   66.89    5.50
   2  -6  -8   76.09    6.50
   2  -6  -7   41.90    3.90
   2  -6  -7   47.80    4.90
   2  -6  -6    1.60    1.20
   2  -6  -6    1.40    1.10
   2  -6  -5   48.00    3.40
   2  -6  -5   45.50    4.50
  -2   6   4    6.10    1.40
   2  -6  -4    3.90    1.50
  -2   6   3    4.20    1.20
   2  -6  -3    3.40    1.30
  -2   6   2  168.88    7.10
   2  -6  -2  161.48    7.60
  -2   6   1   23.50    2.60
   2  -6  -1   25.60    2.70
  -2   6   1   27.00    2.60
  -2   6   0    1.10    0.90
  -2   6   0    3.30    1.30
   2  -6   0    1.40    0.70
   2  -6   1   40.10    2.90
  -2   6  -1   43.50    3.80
  -2   6  -1   41.00    3.90
  -2   6  -2   77.59    5.30
  -2   6  -2   70.89    5.30
  -2   6  -3   57.49    5.10
  -2   6  -3   68.89    5.30
  -2   6  -4   -0.20    1.00
  -2   6  -4    0.90    1.30
  -2   6  -5   17.90    3.30
   2  -5  -9    2.20    1.40
   2  -5  -8   43.40    4.50
   2  -5  -8   45.70    4.70
   2  -5  -7   14.80    2.40
   2  -5  -7   11.40    2.40
   2  -5  -6    1.60    0.90
   2  -5  -6    0.80    1.20
   2  -5  -5   28.30    2.70
   2  -5  -5   22.60    3.10
   2  -5  -4   57.39    3.40
   2  -5  -4   57.89    4.50
  -2   5   4   55.89    3.60
  -2   5   3   90.19    4.40
   2  -5  -3   95.69    5.50
   2  -5  -3   98.39    4.00
  -2   5   3  101.29    4.90
  -2   5   2  197.18    7.00
   2  -5  -2  198.88    8.00
   2  -5  -2  175.48    4.80
  -2   5   1    0.30    0.60
  -2   5   1    0.30    0.80
   2  -5  -1    0.60    0.80
  -2   5   0    6.60    1.00
  -2   5   0    9.00    1.60
  -2   5   0    7.00    1.30
   2  -5   0    5.50    1.20
  -2   5  -1   49.00    2.70
   2  -5   1   50.09    3.10
  -2   5  -1   44.10    3.60
  -2   5  -1   46.60    3.50
  -2   5  -2    3.50    1.20
  -2   5  -2    4.70    1.60
  -2   5  -3    0.70    0.80
  -2   5  -3    0.90    1.30
  -2   5  -4    8.20    2.20
  -2   5  -4    6.10    1.70
  -2   5  -5    0.70    1.20
  -2   5  -5    1.40    1.00
  -2   5  -6    7.50    2.20
  -2   5  -6    7.60    2.20
   2  -4  -8   48.40    4.80
   2  -4  -8   56.49    5.00
   2  -4  -7  131.99    7.50
   2  -4  -7  132.99    7.70
   2  -4  -6   25.30    2.90
   2  -4  -6   25.60    3.20
   2  -4  -5    3.90    1.20
  -2   4   5    2.00    0.80
   2  -4  -5    1.70    1.00
   2  -4  -4   32.80    2.60
   2  -4  -4   35.10    3.30
   2  -4  -3   53.99    3.00
  -2   4   3   61.49    3.50
   2  -4  -3   58.69    4.00
   2  -4  -2    1.40    0.50
  -2   4   2    2.40    0.70
  -2   4   2    1.80    0.40
   2  -4  -2    2.00    1.00
  -2   4   1   62.09    3.10
  -2   4   1   60.29    3.30
   2  -4  -1   64.49    3.80
  -2   4   0  192.28    6.60
   2  -4   0  197.18    7.10
  -2   4   0  201.08    7.20
   2  -4   1    1.60    0.60
  -2   4  -1    3.30    0.90
  -2   4  -1    1.80    1.00
  -2   4  -1    2.50    0.70
  -2   4  -2   11.30    0.80
  -2   4  -2   12.80    1.90
  -2   4  -2   12.80    1.90
   2  -4   2   11.90    1.30
  -2   4  -3  197.38    8.30
  -2   4  -3  202.48    8.30
  -2   4  -3  183.58    5.90
  -2   4  -4  207.18    9.30
  -2   4  -4  212.28    9.40
  -2   4  -5   16.20    2.60
  -2   4  -5   14.50    2.50
  -2   4  -6    9.70    2.30
  -2   4  -6    7.80    2.10
  -2   4  -7   26.80    3.90
   2  -3  -8    1.70    1.30
   2  -3  -8    0.30    1.00
   2  -3  -7   17.80    2.80
   2  -3  -7   15.10    2.40
   2  -3  -6    1.40    0.80
   2  -3  -6   -0.20    1.00
   2  -3  -6   -0.50    1.00
   2  -3  -5   79.99    4.80
   2  -3  -5   77.59    3.60
   2  -3  -5   75.59    4.90
   2  -3  -4  230.18    8.20
  -2   3   4  237.28    6.50
   2  -3  -4  227.38    8.80
  -2   3   4  225.18    7.20
   2  -3  -3   24.10    1.40
  -2   3   3   27.10    1.80
   2  -3  -3   23.30    1.30
   2  -3  -3   23.40    2.40
   2  -3  -3   25.20    2.10
  -2   3   3   28.60    2.30
  -2   3   2  125.39    4.90
   2  -3  -2  116.09    4.10
   2  -3  -2  110.39    3.60
   2  -3  -2  113.49    5.20
  -2   3   2  109.29    3.80
   2  -3  -2  108.59    3.40
  -2   3   2  113.99    4.40
  -2   3   1  370.36   10.40
  -2   3   1  359.66    9.50
  -2   3   1  356.16    9.10
   2  -3  -1  371.96   10.70
  -2   3   1  351.36    8.20
   2  -3  -1  373.86    9.00
   2  -3  -1  371.36    8.70
   2  -3   0   28.70    2.10
  -2   3   0   24.50    2.20
  -2   3   0   26.40    1.80
  -2   3   0   25.60    1.90
   2  -3   1  417.56   11.10
  -2   3  -1  427.96   11.40
  -2   3  -1  406.86   12.10
  -2   3  -1  414.66   11.70
  -2   3  -1  416.86   11.00
  -2   3  -2  177.98    6.70
   2  -3   2  164.78    4.80
   2  -3   2  169.98    5.40
  -2   3  -2  164.68    5.70
  -2   3  -2  170.08    6.50
  -2   3  -3   36.40    3.10
  -2   3  -3   41.20    3.10
  -2   3  -4    9.90    1.30
  -2   3  -4   13.40    2.00
  -2   3  -4   10.00    1.90
  -2   3  -5   11.00    2.00
  -2   3  -5   10.30    2.00
  -2   3  -5   12.10    1.70
  -2   3  -6   26.50    2.80
  -2   3  -6   31.70    3.50
  -2   3  -6   29.00    3.50
  -2   3  -7    5.40    2.00
  -2   3  -7    3.50    1.60
   2  -2  -8    4.50    1.70
   2  -2  -7   34.70    2.90
   2  -2  -7   29.90    3.20
   2  -2  -7   32.70    3.70
   2  -2  -6   14.80    2.10
   2  -2  -6   13.70    1.70
   2  -2  -6   13.10    2.20
   2  -2  -5   78.09    4.80
   2  -2  -5   83.49    4.80
   2  -2  -5   82.79    2.80
   2  -2  -5   82.69    3.90
   2  -2  -4   32.60    1.30
   2  -2  -4   34.90    2.80
   2  -2  -4   32.60    1.30
   2  -2  -4   33.40    2.80
   2  -2  -4   30.10    1.90
  -2   2   3    0.50    0.50
   2  -2  -3   -0.40    0.60
   2  -2  -3    0.00    0.30
   2  -2  -3    0.80    0.80
   2  -2  -2   35.10    2.20
  -2   2   2   29.80    2.20
   2  -2  -2   31.50    2.40
   2  -2  -1  620.84   14.30
  -2   2   1  613.54   13.90
  -2   2   1  597.64   14.90
   2  -2  -1  639.34   15.70
  -2   2   1  626.64   13.90
  -2   2   0  374.36    9.40
   2  -2   0  409.56    9.40
  -2   2   0  394.66    9.00
  -2   2   0  386.86    9.80
   2  -2   0  425.36   10.70
  -2   2   0  390.46   10.60
   2  -2   0  390.96    9.10
  -2   2  -1  148.39    4.90
  -2   2  -1  149.29    5.60
  -2   2  -1  151.38    5.20
   2  -2   1  152.98    5.00
  -2   2  -1  149.88    4.00
  -2   2  -1  152.28    5.00
   2  -2   2   67.89    2.90
  -2   2  -2   72.09    3.50
  -2   2  -2   72.49    3.80
  -2   2  -2   72.09    3.60
   2  -2   2   73.29    2.70
  -2   2  -2   72.19    2.90
  -2   2  -2   75.19    3.40
  -2   2  -3   81.59    4.50
  -2   2  -3   97.39    4.60
  -2   2  -3   90.09    3.10
  -2   2  -4  173.78    7.20
  -2   2  -4  172.38    7.20
  -2   2  -4  161.08    4.40
  -2   2  -5    5.00    1.50
  -2   2  -5    2.90    1.20
  -2   2  -6   56.79    4.50
  -2   2  -6   59.79    4.60
  -2   2  -7   -1.10    1.20
  -2   2  -7    0.80    0.80
  -2   2  -8    5.40    1.80
  -2   2  -8    8.80    2.30
  -2   2  -8    7.60    2.00
   2  -1  -8   28.00    3.70
   2  -1  -7   -1.70    1.40
   2  -1  -7    0.10    1.00
   2  -1  -6   47.80    3.50
   2  -1  -6   47.00    4.20
   2  -1  -6   48.30    3.40
   2  -1  -5   48.00    3.00
   2  -1  -5   52.09    4.00
   2  -1  -5   51.49    3.60
   2  -1  -5   56.49    2.50
   2  -1  -4   29.10    2.70
   2  -1  -4   28.40    1.50
   2  -1  -4   27.40    2.40
   2  -1  -4   28.30    2.00
   2  -1  -3   41.00    2.00
   2  -1  -3   38.40    2.70
   2  -1  -3   38.50    1.30
   2  -1  -3   36.10    2.60
   2  -1  -2   86.89    2.50
   2  -1  -2   86.39    3.80
   2  -1  -2   89.49    3.90
  -2   1   2   82.79    2.40
  -2   1   1 1181.18   26.20
   2  -1  -1 1142.19   25.70
   2  -1  -1 1158.38   26.30
  -2   1   0  995.80   21.30
   2  -1   0 1029.20   23.00
   2  -1   0 1021.20   22.10
  -2   1   0 1032.90   22.10
  -2   1  -1 1939.51   41.00
  -2   1  -1 1907.51   41.70
   2  -1   1 1983.10   42.30
  -2   1  -1 2093.09   42.40
  -2   1  -1 2043.60   41.60
  -2   1  -1 1963.00   42.30
  -2   1  -2  149.09    4.60
  -2   1  -2  152.78    5.20
  -2   1  -2  153.48    5.40
  -2   1  -2  164.68    4.90
  -2   1  -2  152.58    5.20
   2  -1   2  159.78    4.50
  -2   1  -3  717.53   17.70
  -2   1  -3  745.03   17.00
  -2   1  -3  748.73   18.40
  -2   1  -3  768.82   18.30
  -2   1  -4    2.00    0.90
  -2   1  -4    1.50    0.50
  -2   1  -5    2.10    1.10
  -2   1  -6   88.89    5.50
  -2   1  -6   92.69    5.40
  -2   1  -7   79.89    5.40
  -2   1  -7   89.79    6.00
  -2   1  -8   10.90    2.30
  -2   1  -8    9.70    2.10
  -2   1  -9    4.70    1.80
  -2   1  -9    5.80    1.70
   2   0  -8    3.20    1.40
   2   0  -8    7.40    2.30
   2   0  -7    2.90    1.40
   2   0  -7    1.80    1.50
   2   0  -6    0.70    0.80
   2   0  -6    1.10    1.10
   2   0  -5    6.60    1.00
   2   0  -5    8.80    1.90
   2   0  -5    8.10    1.30
   2   0  -5    6.80    1.30
   2   0  -4   43.60    2.30
   2   0  -4   42.80    2.70
   2   0  -4   38.00    3.20
   2   0  -4   41.10    2.70
   2   0  -3  124.39    3.90
   2   0  -3  119.89    4.40
   2   0  -3  121.29    4.80
   2   0  -3  127.19    3.90
   2   0  -3  126.69    5.50
   2   0  -2  845.82   20.40
  -2   0   2  830.72   18.90
   2   0  -2  853.71   18.20
   2   0  -2  843.52   19.80
   2   0  -2  841.22   18.80
   2   0  -1   21.40    1.00
  -2   0   1   19.10    1.00
   2   0  -1   20.20    1.60
  -2   0   1   18.70    0.80
   2   0  -1   19.10    1.50
   2   0   0   89.19    3.50
  -2   0   0   94.49    3.30
  -2   0   0   87.89    3.40
  -2   0   0   97.49    2.60
   2   0   0   87.19    3.30
  -2   0  -1    1.30    0.50
  -2   0  -1    2.00    0.60
  -2   0  -1    2.20    0.70
  -2   0  -2  208.88    5.90
   2   0   2  220.28    6.00
  -2   0  -2  217.18    6.10
  -2   0  -2  207.08    6.30
  -2   0  -3  840.92   19.50
  -2   0  -3  843.62   19.80
  -2   0  -4   30.50    2.30
  -2   0  -4   30.50    2.00
  -2   0  -5    1.00    0.70
  -2   0  -5    0.50    0.80
  -2   0  -6   25.60    2.80
  -2   0  -7   27.50    3.20
  -2   0  -8    9.70    2.20
  -2   0  -8   12.00    2.10
  -2   0  -9   32.30    4.00
  -2   0  -9   22.10    3.20
   2   1  -8    1.10    0.90
   2   1  -8    0.80    1.10
   2   1  -7   36.70    4.20
   2   1  -7   35.70    3.60
   2   1  -6   36.50    2.90
   2   1  -6   36.40    3.80
   2   1  -6   37.00    3.40
   2   1  -5    9.40    1.40
   2   1  -5    6.90    1.10
   2   1  -5   10.80    2.10
   2   1  -5    8.30    1.60
   2   1  -4   24.60    2.10
   2   1  -4   17.30    1.90
   2   1  -4   18.10    1.60
   2   1  -4   20.30    2.40
   2   1  -3  333.37    9.80
   2   1  -3  345.67   10.80
   2   1  -3  339.37    9.20
   2   1  -3  326.57    9.20
   2   1  -2   26.30    2.20
   2   1  -2   27.00    1.70
   2   1  -2   27.00    1.80
   2   1  -2   28.10    1.90
   2   1  -1    6.20    1.00
  -2  -1   1    9.90    0.90
   2   1  -1    6.50    0.80
  -2  -1   1    5.80    0.80
   2   1  -1    7.00    0.80
   2   1  -1    5.00    0.80
   2   1   0  706.33   16.40
  -2  -1   0  727.83   16.40
  -2  -1   0  719.63   16.40
  -2  -1   0  748.63   16.90
   2   1   0  720.33   17.00
   2   1   0  759.92   16.80
  -2  -1  -1 1143.59   25.00
   2   1   1 1154.78   25.70
  -2  -1  -1 1110.39   25.10
  -2  -1  -1 1203.18   25.70
   2   1   1 1136.39   25.20
  -2  -1  -2  452.35   11.00
  -2  -1  -2  449.16   11.00
   2   1   2  423.36   11.20
  -2  -1  -3  291.57    8.40
  -2  -1  -4  154.98    4.90
  -2  -1  -4  151.58    5.90
  -2  -1  -5    6.40    1.40
  -2  -1  -5    5.00    0.80
  -2  -1  -6  111.69    5.90
  -2  -1  -7  104.19    6.10
  -2  -1  -7  113.39    6.50
  -2  -1  -8   20.70    2.90
  -2  -1  -9   13.60    2.50
  -2  -1  -9   15.90    2.90
  -2  -1 -10   21.60    3.10
   2   2  -8   31.10    3.90
   2   2  -7   16.60    2.90
   2   2  -7   14.40    2.50
   2   2  -6    5.00    1.40
   2   2  -6    5.20    1.30
   2   2  -6    3.90    1.50
   2   2  -5  127.99    6.90
   2   2  -5  111.39    5.60
   2   2  -5  112.79    6.10
   2   2  -4   72.59    4.50
   2   2  -4   82.29    5.00
   2   2  -4   78.39    4.20
   2   2  -3   31.20    2.80
   2   2  -3   30.70    2.30
   2   2  -3   31.40    2.60
   2   2  -2  247.48    8.30
   2   2  -2  251.97    7.70
   2   2  -2  252.97    8.00
   2   2  -1  760.12   18.00
   2   2  -1  767.22   18.30
   2   2  -1  752.62   18.50
   2   2   0  416.86   10.80
   2   2   0  433.06   10.80
   2   2   0  404.36   11.00
  -2  -2  -1  102.99    3.30
   2   2   1  108.29    4.10
   2   2   1  111.69    3.50
  -2  -2  -2    1.60    0.40
  -2  -2  -2    0.90    0.60
   2   2   2    2.40    0.60
  -2  -2  -3   56.89    3.00
   2   2   3   49.10    3.00
  -2  -2  -4  178.38    6.60
   2   2   4  181.08    6.90
  -2  -2  -5   24.90    2.60
  -2  -2  -5   28.90    1.60
  -2  -2  -6   19.70    2.50
  -2  -2  -7   17.20    2.60
  -2  -2  -8   17.50    2.20
  -2  -2  -8   23.60    3.20
  -2  -2  -8   17.90    2.70
  -2  -2  -9   76.09    5.90
  -2  -2 -10   74.49    6.10
   2   3  -7   13.50    2.80
   2   3  -7   11.70    2.50
   2   3  -6    5.00    1.80
   2   3  -6    6.10    1.70
   2   3  -6    5.60    1.70
   2   3  -5   33.90    3.60
   2   3  -5   34.70    3.20
   2   3  -5   41.60    4.00
   2   3  -4   30.50    2.90
   2   3  -4   34.60    3.30
   2   3  -4   43.10    3.60
   2   3  -3   82.59    4.90
   2   3  -3   84.39    4.60
   2   3  -3   90.89    5.00
   2   3  -2   90.29    4.60
   2   3  -2   88.99    4.70
   2   3  -2   92.79    4.50
  -2  -3   2   92.19    3.40
   2   3  -1    1.30    0.90
   2   3  -1    1.70    0.80
   2   3  -1    0.90    0.70
   2   3   0   30.60    2.30
   2   3   0   24.40    2.10
   2   3   0   27.90    2.10
   2   3   1    5.20    1.00
  -2  -3  -1    7.10    0.60
   2   3   1    5.20    1.10
  -2  -3  -2   16.50    1.60
   2   3   2   16.00    1.10
   2   3   2   14.10    0.90
  -2  -3  -3   19.70    1.80
  -2  -3  -4  397.96   11.50
   2   3   4  367.26   11.60
  -2  -3  -5  168.48    6.90
   2   3   5  162.08    7.00
  -2  -3  -6    4.20    1.40
  -2  -3  -6    3.90    0.40
  -2  -3  -7    1.80    1.20
  -2  -3  -8   39.90    4.00
  -2  -3  -8   38.90    3.50
  -2  -3  -9    0.90    1.20
  -2  -3  -9    0.60    1.30
  -2  -3 -10   43.50    4.60
   2   4  -6   15.40    2.60
   2   4  -6   10.50    2.40
   2   4  -6   15.10    2.80
   2   4  -5    3.00    1.40
   2   4  -5    2.20    1.20
   2   4  -5    2.90    1.30
   2   4  -4   41.00    3.80
   2   4  -4   36.10    3.50
   2   4  -4   35.20    3.40
   2   4  -3   16.30    2.40
   2   4  -3   17.00    2.20
   2   4  -3   17.40    2.20
   2   4  -2  183.08    7.50
   2   4  -2  189.08    7.90
   2   4  -2  183.38    7.30
   2   4  -1    0.50    1.10
   2   4  -1    1.60    0.90
   2   4  -1    2.40    0.80
   2   4   0  195.48    7.30
   2   4   0  187.48    6.60
   2   4   0  193.78    7.40
   2   4   1  198.78    7.20
   2   4   1  184.88    6.50
   2   4   1  199.38    7.30
  -2  -4  -2   47.60    2.90
   2   4   2   48.70    3.20
   2   4   2   39.00    1.80
  -2  -4  -3  410.76   11.70
  -2  -4  -4 1201.38   28.90
   2   4   5    1.30    1.20
  -2  -4  -5    0.40    0.80
  -2  -4  -6   13.80    2.20
   2   4   6   11.30    2.10
  -2  -4  -7   32.10    3.40
  -2  -4  -8    8.80    2.20
  -2  -4  -9    6.00    1.90
  -2  -4  -9    7.70    1.90
  -2  -4 -10   37.30    4.30
   2   5  -6    2.80    1.50
   2   5  -5   48.60    4.90
   2   5  -5   51.19    4.70
   2   5  -5   57.89    4.80
   2   5  -4    9.30    2.20
   2   5  -4    6.20    1.70
   2   5  -4    7.00    1.80
   2   5  -3   42.20    3.90
   2   5  -3   38.00    3.80
   2   5  -3   47.00    3.80
   2   5  -2  148.99    7.40
   2   5  -2  150.28    6.70
   2   5  -2  130.89    6.90
   2   5  -1  256.37    9.90
   2   5  -1  253.77    9.80
   2   5  -1  256.67    8.90
   2   5   0    4.50    1.30
   2   5   0    3.00    1.30
   2   5   0    3.60    0.90
   2   5   1    0.90    1.00
   2   5   1    1.50    0.90
   2   5   2  101.19    5.40
  -2  -5  -2  107.79    4.90
  -2  -5  -3    4.30    1.10
  -2  -5  -4   28.50    2.60
  -2  -5  -5   47.40    3.60
   2   5   5   49.70    4.00
   2   5   6   14.80    2.40
  -2  -5  -6   14.80    2.10
  -2  -5  -7   10.90    2.20
   2   5   7    7.60    1.90
  -2  -5  -8   44.20    4.30
  -2  -5  -9   33.30    4.10
  -2  -5  -9   39.90    4.20
  -2  -5 -10    3.50    1.80
  -2  -5 -10    0.60    1.10
   2   6  -5    2.50    1.20
   2   6  -4    2.10    1.40
   2   6  -4    7.80    2.00
   2   6  -3   24.20    3.40
   2   6  -3   21.70    3.00
   2   6  -2  127.89    7.30
   2   6  -2  124.49    7.40
   2   6  -2  143.29    6.60
   2   6  -1  205.88    9.40
   2   6  -1  190.48    9.00
   2   6  -1  202.68    7.70
   2   6   0   33.10    3.40
   2   6   0   27.20    3.00
   2   6   0   28.30    2.50
  -2  -6  -1    0.60    0.70
   2   6   1    3.70    1.30
   2   6   1    2.10    1.30
   2   6   2   -0.60    1.20
  -2  -6  -2    0.60    0.60
  -2  -6  -3   31.30    2.80
  -2  -6  -4  420.96   13.10
  -2  -6  -5   55.09    4.00
  -2  -6  -6   35.70    3.50
   2   6   6   36.20    3.70
  -2  -6  -7   26.40    3.20
   2   6   7   24.40    3.30
  -2  -6  -8    3.90    1.60
  -2  -6  -8    1.60    1.20
   2   6   8    1.90    1.50
  -2  -6  -9    1.80    1.50
  -2  -6  -9    1.60    1.50
  -2  -6 -10   -0.90    1.00
   2   7  -3    9.10    2.60
   2   7  -3    9.80    2.40
   2   7  -2   55.19    5.20
   2   7  -2   53.59    5.00
   2   7  -1  135.29    7.90
   2   7  -1  138.49    8.00
   2   7   0   35.80    3.90
   2   7   0   30.20    3.60
  -2  -7  -1   -1.00    0.80
   2   7   1   -0.50    1.00
  -2  -7  -2   -0.80    0.80
   2   7   2    0.40    1.00
  -2  -7  -3    0.50    0.70
  -2  -7  -4    1.60    0.90
  -2  -7  -5   81.49    5.10
  -2  -7  -6    9.00    1.80
  -2  -7  -7    9.70    2.10
   2   7   7   13.80    2.70
  -2  -7  -8   37.50    4.10
  -2  -7  -8   37.10    4.30
   2   7   8   37.60    4.40
  -2  -7  -9   33.10    4.10
  -2  -7  -9   40.90    4.80
   2   7   9   38.20    4.50
   2   8  -2    4.40    1.90
   2   8  -1   57.49    5.70
   2   8  -1   65.59    5.80
  -2  -8   0    5.50    1.50
   2   8   0    5.50    1.80
   2   8   0    3.00    1.60
  -2  -8  -1    9.00    1.80
   2   8   1   13.00    2.60
   2   8   2   37.70    4.20
  -2  -8  -2   43.20    3.60
  -2  -8  -3   -0.20    0.70
  -2  -8  -4   60.19    4.30
  -2  -8  -5   47.70    4.00
  -2  -8  -6    3.90    1.50
   2   8   7   38.00    4.30
  -2  -8  -7   35.90    3.90
  -2  -8  -7   45.60    4.80
   2   8   8    7.40    2.40
  -2  -8  -8    3.20    1.60
  -2  -8  -8    6.20    1.90
  -2  -8  -9    4.00    1.60
   2   9   1    0.60    1.30
   2   9   2   27.00    3.90
  -2  -9  -3   27.70    3.40
  -2  -9  -4   -0.60    0.90
  -2  -9  -5   71.09    5.90
  -2  -9  -6   52.59    4.50
  -2  -9  -6   40.00    4.60
   2   9   7    6.60    2.50
  -2  -9  -7    6.30    2.00
  -2  -9  -7    3.30    1.50
  -2  -9  -8    0.00    0.90
  -2 -10  -4    6.10    2.00
  -2 -10  -5    9.00    2.30
   3  -9  -3    3.70    1.70
   3  -8  -5   17.20    3.20
   3  -8  -4    9.70    2.30
   3  -8  -3   34.60    4.10
   3  -8  -2    2.50    1.40
  -3   8   1   21.90    3.10
   3  -8  -1   23.10    3.00
  -3   8   0   46.10    4.60
  -3   8  -1    1.90    1.40
  -3   8  -2   39.50    4.40
   3  -7  -6   67.39    6.10
   3  -7  -5   27.00    3.80
   3  -7  -4   24.80    3.50
  -3   7   3   19.70    2.60
   3  -7  -3   19.50    3.00
  -3   7   2    8.90    1.80
   3  -7  -2    9.50    2.10
  -3   7   1    6.40    1.70
   3  -7  -1    4.00    1.40
  -3   7   0   13.40    2.20
  -3   7   0   10.90    2.10
   3  -7   0    8.30    1.80
  -3   7  -1   30.70    3.30
  -3   7  -1   22.10    3.10
  -3   7  -2    2.20    1.20
  -3   7  -2    2.60    1.40
  -3   7  -3    3.00    1.60
  -3   7  -3   -0.40    1.60
   3  -6  -7    0.00    1.10
   3  -6  -6    7.10    2.10
   3  -6  -5   24.30    3.40
  -3   6   4    0.60    0.80
   3  -6  -4   -0.20    0.90
  -3   6   3    4.40    1.30
   3  -6  -3    3.40    1.50
  -3   6   2   12.20    1.80
   3  -6  -2   15.30    2.40
  -3   6   1   54.99    3.90
   3  -6  -1   57.69    4.40
  -3   6   0  435.56   13.50
  -3   6   0  426.86   14.10
   3  -6   0  417.06   13.90
  -3   6   0  455.35   12.90
  -3   6  -1   49.30    3.90
  -3   6  -1   45.50    4.10
   3  -6   1   47.20    3.50
  -3   6  -2    0.00    0.90
  -3   6  -2    0.20    1.20
  -3   6  -3   -0.90    0.90
  -3   6  -3    1.10    1.20
  -3   6  -4   10.70    2.20
  -3   6  -4   12.50    2.60
  -3   6  -5   41.70    4.70
   3  -5  -8   12.50    2.50
   3  -5  -8   12.40    2.70
   3  -5  -7   -0.60    1.00
   3  -5  -7    0.10    1.00
   3  -5  -6    4.30    1.40
   3  -5  -6    3.60    1.50
   3  -5  -5   20.70    2.40
   3  -5  -5   12.40    2.60
  -3   5   4   11.70    1.90
   3  -5  -4    9.90    1.50
   3  -5  -4    8.30    1.80
  -3   5   3   10.40    1.80
   3  -5  -3   11.40    1.30
   3  -5  -3    9.00    2.00
  -3   5   2   77.39    3.90
   3  -5  -2   74.59    5.00
  -3   5   1  142.49    5.50
  -3   5   1  140.99    6.00
   3  -5  -1  139.19    6.70
  -3   5   0   21.80    2.30
  -3   5   0   19.50    2.00
   3  -5   0   21.20    2.30
  -3   5  -1   27.90    2.70
  -3   5  -1   36.50    3.20
   3  -5   1   29.40    2.70
  -3   5  -1   36.30    2.70
  -3   5  -2   79.69    4.90
  -3   5  -2   68.59    5.00
  -3   5  -2   79.79    4.20
   3  -5   2   72.69    4.00
  -3   5  -3   27.80    3.20
  -3   5  -3   29.30    3.10
  -3   5  -4    0.80    0.90
  -3   5  -4    0.60    1.00
  -3   5  -5   57.69    5.10
  -3   5  -5   61.09    5.40
  -3   5  -6   10.10    2.60
   3  -4  -8   -0.50    1.30
   3  -4  -8    1.90    1.30
   3  -4  -7    1.80    1.20
   3  -4  -7    4.50    1.70
   3  -4  -6  168.88    8.20
   3  -4  -6  160.58    8.60
   3  -4  -5  126.59    6.40
   3  -4  -5  105.59    6.60
  -3   4   4    3.30    0.80
   3  -4  -4    2.40    0.90
   3  -4  -4    2.60    1.20
   3  -4  -3  172.28    6.30
  -3   4   3  171.88    6.60
  -3   4   3  167.88    7.00
   3  -4  -3  163.28    7.70
  -3   4   2   -1.90    1.10
  -3   4   2    1.20    0.50
  -3   4   2   -0.80    0.80
   3  -4  -2    1.30    0.60
   3  -4  -2    0.00    0.80
  -3   4   1    8.60    1.20
  -3   4   1    8.10    1.00
  -3   4   1    8.90    1.60
   3  -4  -1    7.70    0.70
   3  -4  -1    8.70    1.70
  -3   4   0  710.53   17.60
  -3   4   0  713.43   18.40
  -3   4   0  697.43   19.50
   3  -4   0  744.83   19.20
  -3   4  -1  157.38    6.10
  -3   4  -1  158.58    7.20
  -3   4  -1  154.18    6.60
   3  -4   1  161.68    6.40
  -3   4  -1  156.18    6.20
  -3   4  -2   -1.20    0.90
  -3   4  -2   -0.60    0.80
  -3   4  -2    0.60    0.70
   3  -4   2    0.40    0.60
  -3   4  -3    2.00    1.10
  -3   4  -3    0.00    0.80
  -3   4  -4  118.89    6.50
  -3   4  -4  104.49    6.40
  -3   4  -5   25.70    3.30
  -3   4  -5   24.30    3.20
  -3   4  -6    4.60    1.90
  -3   4  -6    4.80    2.10
   3  -3  -8    0.00    1.10
   3  -3  -8    3.10    1.40
   3  -3  -7    4.50    1.60
   3  -3  -7    4.60    1.80
   3  -3  -6   62.89    4.90
   3  -3  -6   59.59    4.80
   3  -3  -5    1.60    0.90
   3  -3  -5    2.40    1.40
   3  -3  -4   25.20    2.50
  -3   3   4   27.10    2.00
  -3   3   4   23.80    1.80
   3  -3  -4   23.60    2.80
  -3   3   3   21.00    2.30
   3  -3  -3   24.00    2.20
  -3   3   3   24.90    2.00
   3  -3  -3   17.50    2.40
   3  -3  -2   20.80    1.80
  -3   3   2   18.60    1.90
   3  -3  -2   23.20    2.40
  -3   3   2   20.60    2.20
  -3   3   2   18.60    1.20
  -3   3   1  218.78    5.60
  -3   3   1  239.38    8.00
  -3   3   1  226.48    6.60
   3  -3  -1  228.98    8.30
   3  -3  -1  237.28    6.60
  -3   3   0  129.19    4.30
  -3   3   0  130.39    5.70
  -3   3   0  126.99    4.90
  -3   3   0  130.69    3.80
   3  -3   0  129.99    5.60
  -3   3  -1    1.10    0.70
  -3   3  -1    1.60    1.00
  -3   3  -1    0.30    0.70
   3  -3   1   -0.20    0.60
  -3   3  -1    0.40    0.30
  -3   3  -1    0.50    0.60
   3  -3   2   10.30    0.60
  -3   3  -2   13.30    2.00
  -3   3  -2   10.50    1.50
  -3   3  -2   11.50    1.70
  -3   3  -2    8.20    0.80
   3  -3   2    9.80    1.30
  -3   3  -2   11.30    1.50
  -3   3  -3   24.40    2.40
  -3   3  -3   25.40    2.70
  -3   3  -3   28.90    2.80
  -3   3  -4   15.40    2.10
  -3   3  -4   13.30    2.30
  -3   3  -5    1.10    1.30
  -3   3  -5    0.20    0.90
  -3   3  -6    4.00    1.70
  -3   3  -6    3.40    1.50
  -3   3  -7   27.70    3.70
  -3   3  -7   29.70    3.80
   3  -2  -8   -0.40    1.30
   3  -2  -7    8.20    2.20
   3  -2  -7    6.70    1.70
   3  -2  -6  152.28    7.60
   3  -2  -6  136.49    7.60
   3  -2  -5  253.57   10.10
   3  -2  -5  244.38    9.80
   3  -2  -4   49.90    2.20
   3  -2  -4   49.50    3.70
   3  -2  -4   51.29    3.90
   3  -2  -3   25.70    1.00
   3  -2  -3   25.60    2.30
  -3   2   3   25.10    1.40
   3  -2  -3   24.90    2.60
   3  -2  -2   58.69    3.20
  -3   2   2   59.19    3.60
   3  -2  -2   63.19    3.80
  -3   2   1  490.65   11.50
  -3   2   1  476.75   13.20
  -3   2   1  455.35   10.90
   3  -2  -1  483.75   13.40
   3  -2  -1  472.85   12.00
  -3   2   0   13.00    0.90
  -3   2   0   14.30    1.20
  -3   2   0   13.20    1.60
  -3   2   0   13.30    1.10
   3  -2   0   14.30    1.20
   3  -2   0   14.60    1.70
  -3   2  -1    3.60    0.30
  -3   2  -1    2.60    0.50
  -3   2  -1    2.80    0.60
  -3   2  -1    2.60    1.00
  -3   2  -1    3.50    0.80
   3  -2   1    4.40    1.00
  -3   2  -2  140.99    5.90
  -3   2  -2  126.09    3.90
  -3   2  -2  133.89    5.10
  -3   2  -2  130.39    5.30
   3  -2   2  136.09    5.10
  -3   2  -2  142.19    5.50
   3  -2   2  130.59    3.80
  -3   2  -3   71.69    4.00
  -3   2  -3   69.59    4.10
  -3   2  -3   68.29    4.00
  -3   2  -3   75.59    4.00
  -3   2  -4  106.69    5.50
  -3   2  -4  108.59    5.60
  -3   2  -4  104.89    5.40
  -3   2  -5  197.28    8.40
  -3   2  -5  184.88    8.30
  -3   2  -6  113.59    6.60
  -3   2  -6  100.49    6.30
  -3   2  -7    2.80    1.30
  -3   2  -7    3.60    1.60
  -3   2  -8   19.10    2.80
  -3   2  -8   20.00    3.30
  -3   2  -8   21.80    3.30
   3  -1  -8    8.00    2.20
   3  -1  -7   30.30    3.80
   3  -1  -6   21.20    3.00
   3  -1  -6   21.80    2.60
   3  -1  -5   36.30    2.50
   3  -1  -5   41.20    3.70
   3  -1  -5   37.60    3.20
   3  -1  -4    6.00    0.80
   3  -1  -4    4.20    1.30
   3  -1  -4    4.10    1.30
   3  -1  -3  187.58    5.20
   3  -1  -3  180.18    7.20
   3  -1  -3  195.18    7.40
   3  -1  -2  180.28    4.20
   3  -1  -2  178.68    6.60
   3  -1  -2  189.58    6.90
  -3   1   1   66.69    3.60
  -3   1   1   62.89    1.80
   3  -1  -1   72.99    3.70
   3  -1  -1   62.79    3.10
  -3   1   0  331.67    7.50
   3  -1   0  348.87   10.00
   3  -1   0  336.17    9.10
  -3   1  -1  433.46   10.10
  -3   1  -1  416.56   10.40
   3  -1   1  449.06   11.70
  -3   1  -2    0.60    0.40
   3  -1   2    0.80    0.40
  -3   1  -2    1.90    0.60
  -3   1  -2    0.30    0.60
  -3   1  -3   85.69    3.60
  -3   1  -3   80.29    4.00
  -3   1  -3   89.69    4.30
  -3   1  -3   82.09    4.10
  -3   1  -4  163.98    6.10
  -3   1  -4  163.18    6.70
  -3   1  -4  170.98    6.60
  -3   1  -5    4.80    1.10
  -3   1  -5    6.40    1.20
  -3   1  -5    4.70    1.30
  -3   1  -6   17.70    2.60
  -3   1  -7   36.60    3.80
  -3   1  -7   28.90    3.40
  -3   1  -8    5.40    1.90
  -3   1  -8    9.90    2.20
  -3   1  -9   11.30    2.60
   3   0  -7   54.89    5.20
   3   0  -6    0.30    0.70
   3   0  -6   -1.20    1.20
   3   0  -5   52.79    3.40
   3   0  -5   48.60    4.20
   3   0  -5   45.80    3.40
   3   0  -4   56.39    3.20
   3   0  -4   56.99    4.20
   3   0  -4   62.99    2.50
   3   0  -4   57.49    3.70
   3   0  -3  239.78    8.70
   3   0  -3  231.98    5.90
   3   0  -3  232.28    8.10
   3   0  -3  227.88    6.90
   3   0  -2   13.60    1.10
  -3   0   2   15.60    1.10
   3   0  -2   14.20    1.80
   3   0  -2   16.20    1.80
  -3   0   1    6.90    0.60
  -3   0   1    6.80    0.60
   3   0  -1    7.10    1.20
   3   0  -1    7.00    1.20
  -3   0   0  373.06   10.30
  -3   0   0  372.46    8.70
   3   0   0  359.66   10.30
   3   0   0  365.36   10.10
  -3   0   0  377.26    8.70
  -3   0  -1  871.81   19.60
   3   0   1  859.81   20.50
   3   0   1  859.01   20.20
  -3   0  -2   94.59    3.50
  -3   0  -2   95.49    4.10
  -3   0  -3   60.69    3.00
  -3   0  -3   57.99    3.30
  -3   0  -4   10.90    1.50
  -3   0  -4    7.90    1.20
  -3   0  -5    1.30    0.80
  -3   0  -5    2.40    0.80
  -3   0  -5    2.10    1.00
  -3   0  -6  108.59    5.80
  -3   0  -6  110.09    6.00
  -3   0  -7    1.70    1.10
  -3   0  -8   24.00    3.20
  -3   0  -9    6.50    2.10
  -3   0  -9    2.60    1.70
   3   1  -7   12.70    2.60
   3   1  -6   29.00    3.60
   3   1  -6   21.30    2.60
   3   1  -5   32.30    2.90
   3   1  -5   28.50    3.20
   3   1  -4  169.58    7.80
   3   1  -4  170.08    6.60
   3   1  -4  174.48    5.80
   3   1  -4  163.18    6.50
   3   1  -3   91.69    4.20
   3   1  -3  102.59    3.80
   3   1  -3   99.09    5.30
   3   1  -3   91.99    4.50
   3   1  -2   64.99    3.80
   3   1  -2   60.49    3.40
   3   1  -2   63.09    3.00
   3   1  -2   64.09    2.70
   3   1  -1  183.18    5.50
  -3  -1   1  180.08    5.20
   3   1  -1  179.68    6.20
   3   1  -1  179.68    6.60
  -3  -1   0    2.60    0.60
  -3  -1   0    2.50    0.60
   3   1   0    2.00    0.50
   3   1   0    1.70    0.90
   3   1   1 1037.30   24.20
  -3  -1  -1 1049.00   23.80
   3   1   1 1045.60   23.30
  -3  -1  -2  252.97    7.40
  -3  -1  -2  254.87    7.60
  -3  -1  -3  908.71   21.50
  -3  -1  -3  915.61   21.80
  -3  -1  -4   94.79    4.40
  -3  -1  -5  236.58    7.50
  -3  -1  -5  224.48    8.40
  -3  -1  -6   51.29    3.90
  -3  -1  -6   57.09    3.10
  -3  -1  -7   21.00    2.80
  -3  -1  -7   17.80    2.60
  -3  -1  -8   55.19    4.80
  -3  -1  -8   58.19    4.90
  -3  -1  -9   38.00    4.30
  -3  -1 -10    2.00    1.20
   3   2  -7   33.50    4.20
   3   2  -7   36.20    3.90
   3   2  -6    1.00    1.00
   3   2  -6    1.50    1.10
   3   2  -5   -0.20    1.10
   3   2  -5    1.10    1.00
   3   2  -4   -0.20    0.90
   3   2  -4   -0.70    1.00
   3   2  -4    0.30    0.60
   3   2  -3    8.40    1.30
   3   2  -3   10.60    1.40
   3   2  -3    7.70    1.70
   3   2  -2   45.60    2.90
   3   2  -2   44.60    2.70
   3   2  -2   41.60    3.20
   3   2  -1  303.27    9.00
   3   2  -1  301.47    8.70
   3   2  -1  307.17    9.70
   3   2   0  484.25   12.40
   3   2   0  461.35   13.00
   3   2   1   53.99    3.10
  -3  -2  -2    0.80    0.50
  -3  -2  -2    0.50    0.60
   3   2   2    0.30    0.70
  -3  -2  -2    0.80    0.60
  -3  -2  -3    1.40    0.80
   3   2   3    0.50    0.90
  -3  -2  -4  153.98    6.10
  -3  -2  -5  194.28    7.60
  -3  -2  -6    7.00    1.60
  -3  -2  -6    7.40    1.10
  -3  -2  -7    1.20    1.00
  -3  -2  -8   17.90    2.90
  -3  -2  -9    6.40    2.10
  -3  -2  -9    4.10    1.80
  -3  -2 -10    1.90    1.30
   3   3  -7    2.80    1.40
   3   3  -6   10.20    2.20
   3   3  -6   11.60    2.50
   3   3  -5   34.10    3.50
   3   3  -5   27.30    2.80
   3   3  -5   32.10    3.70
   3   3  -4  114.99    6.70
   3   3  -4  115.09    6.30
   3   3  -4  120.89    5.90
   3   3  -3    1.10    0.90
   3   3  -3    1.70    0.80
   3   3  -3    0.80    1.00
   3   3  -2  102.09    4.90
   3   3  -2  103.49    5.20
   3   3  -2  102.69    5.40
   3   3  -1   68.29    3.90
   3   3  -1   71.59    3.80
   3   3  -1   70.59    4.10
   3   3   0   14.00    1.70
   3   3   0   14.30    1.70
   3   3   0   16.30    1.90
   3   3   1    5.00    1.10
  -3  -3  -1    5.90    0.80
   3   3   2   50.29    2.30
  -3  -3  -2   53.49    3.20
  -3  -3  -2   49.80    2.50
  -3  -3  -3  615.34   16.30
   3   3   3  628.34   16.50
  -3  -3  -4  191.78    7.10
  -3  -3  -4  180.48    4.70
   3   3   4  177.98    7.40
  -3  -3  -5  116.49    5.70
   3   3   5  111.49    5.80
  -3  -3  -6   38.90    3.40
  -3  -3  -7   40.30    3.80
  -3  -3  -8  117.39    7.10
  -3  -3  -9   24.40    3.50
  -3  -3 -10    1.90    1.40
   3   4  -6   19.40    3.10
   3   4  -6   23.30    3.50
   3   4  -5   22.10    3.20
   3   4  -5   24.10    2.90
   3   4  -5   23.60    3.30
   3   4  -4   12.50    2.30
   3   4  -4   13.30    2.10
   3   4  -4   19.20    2.70
   3   4  -3   44.50    3.90
   3   4  -3   43.50    3.60
   3   4  -3   42.60    3.80
   3   4  -2    7.10    1.60
   3   4  -2   10.60    1.90
   3   4  -2    7.40    1.50
   3   4  -1   50.39    3.70
   3   4  -1   46.00    3.40
   3   4  -1   47.30    3.50
   3   4   0  248.18    8.90
   3   4   0  247.88    8.80
   3   4   0  248.08    8.70
   3   4   1  246.38    8.60
  -3  -4  -1  237.38    6.30
   3   4   1  231.18    8.20
  -3  -4  -2    1.40    0.80
  -3  -4  -3  143.69    6.00
   3   4   4   12.80    2.10
  -3  -4  -4   15.50    2.10
   3   4   5    3.70    1.50
  -3  -4  -5    1.30    1.00
  -3  -4  -6   59.69    4.30
   3   4   6   51.99    4.30
  -3  -4  -7    1.80    1.30
  -3  -4  -8    2.50    1.30
  -3  -4  -9    0.80    1.40
  -3  -4 -10    9.00    2.30
   3   5  -5   51.89    5.10
   3   5  -5   40.70    4.20
   3   5  -5   47.00    4.70
   3   5  -4    4.60    1.70
   3   5  -4    5.90    1.70
   3   5  -3    9.90    2.00
   3   5  -3    9.50    2.10
   3   5  -3    9.30    2.00
   3   5  -2   24.60    3.00
   3   5  -2   26.20    3.00
   3   5  -2   29.00    3.10
   3   5  -1    4.80    1.30
   3   5  -1    3.30    1.20
   3   5  -1    4.20    1.40
   3   5   0   11.90    2.00
   3   5   0   15.50    2.40
   3   5   0   12.00    1.80
   3   5   1    1.70    1.20
   3   5   1    1.90    0.90
  -3  -5  -2    5.00    1.20
  -3  -5  -3    9.40    1.60
  -3  -5  -4   39.70    3.20
  -3  -5  -5    0.40    0.80
   3   5   5    1.00    1.20
  -3  -5  -6  240.08    9.80
   3   5   6  241.68   10.20
  -3  -5  -7   52.49    4.40
   3   5   7   49.99    4.50
  -3  -5  -8   28.00    3.60
  -3  -5  -9    4.60    1.90
  -3  -5 -10    5.30    1.90
  -3  -5 -10    7.30    2.10
   3   6  -4   17.40    3.00
   3   6  -4   17.60    3.50
   3   6  -3    1.80    1.20
   3   6  -3   -0.30    1.00
   3   6  -3    0.20    1.00
   3   6  -2    5.30    1.80
   3   6  -2    1.40    1.20
   3   6  -2    3.10    1.30
   3   6  -1    1.10    1.20
   3   6  -1    4.30    1.40
   3   6  -1    5.10    1.50
   3   6   0   40.20    3.80
   3   6   0   46.90    3.60
   3   6   0   38.50    3.90
  -3  -6  -1   18.50    2.30
   3   6   1   19.60    2.70
   3   6   2   57.09    4.50
  -3  -6  -2   63.89    4.20
  -3  -6  -3  138.79    6.50
  -3  -6  -4   20.60    2.50
  -3  -6  -5   24.10    2.70
  -3  -6  -6  161.48    7.90
   3   6   6  163.78    8.40
   3   6   7    0.60    1.30
  -3  -6  -7    0.00    1.00
  -3  -6  -8    0.90    1.10
   3   6   8   -1.50    1.60
  -3  -6  -9    0.90    1.40
  -3  -6 -10    8.00    2.30
   3   7  -3   31.10    4.00
   3   7  -2   -0.20    1.20
   3   7  -2   -0.70    1.20
   3   7  -1   30.60    3.80
   3   7  -1   30.90    3.80
   3   7   0   73.09    5.80
   3   7   0   74.49    5.60
  -3  -7  -1  126.89    6.70
   3   7   1  134.69    7.70
  -3  -7  -2    3.60    1.20
   3   7   2    8.60    2.10
  -3  -7  -3    2.90    1.20
  -3  -7  -4   10.60    1.90
  -3  -7  -5    0.10    0.80
  -3  -7  -6   46.20    4.10
   3   7   6   43.70    4.40
   3   7   7   39.20    4.30
  -3  -7  -7   44.90    4.30
  -3  -7  -8   -0.20    1.00
   3   7   8    0.60    1.40
  -3  -7  -9    2.80    1.50
   3   7   9   -0.30    1.50
   3   8  -1    7.10    2.40
   3   8  -1    8.00    2.20
  -3  -8   0   67.79    5.10
   3   8   0   54.49    5.40
  -3  -8  -1   33.60    3.60
   3   8   1   30.20    4.00
  -3  -8  -2   42.30    3.90
   3   8   2   39.40    4.50
  -3  -8  -3    0.70    0.80
  -3  -8  -4    3.60    1.40
  -3  -8  -5   15.60    2.50
  -3  -8  -6   90.19    6.10
   3   8   7    6.30    2.20
  -3  -8  -7    8.20    2.00
   3   8   8    5.40    2.40
  -3  -8  -8   -0.30    1.20
   3   9   1   73.59    6.50
  -3  -9  -2    4.50    1.40
   3   9   2   12.20    2.80
  -3  -9  -3    1.00    1.10
  -3  -9  -4    2.80    1.20
  -3  -9  -5    3.00    1.20
  -3  -9  -6   -0.10    0.90
  -3  -9  -7    9.60    2.20
   3   9   7   15.10    3.20
  -3  -9  -8   -1.40    1.00
  -3 -10  -4    9.60    2.10
  -3 -10  -5    8.80    2.30
   4  -8  -3    0.00    1.10
   4  -8  -2    5.60    1.80
  -4   8  -1    2.70    1.40
   4  -7  -5  112.09    8.10
   4  -7  -4    8.60    2.30
  -4   7   3    6.40    1.80
   4  -7  -3    5.30    1.70
   4  -7  -2   24.30    3.40
   4  -7  -1    6.30    1.90
  -4   7   0   19.20    2.70
   4  -7   0   22.00    2.80
  -4   7  -1   40.30    4.10
  -4   7  -2   -0.30    1.10
   4  -6  -6    5.10    2.00
   4  -6  -5    5.80    2.00
  -4   6   4   -0.80    0.90
   4  -6  -4    0.70    1.20
  -4   6   3    8.90    1.90
   4  -6  -3    4.30    1.50
  -4   6   2   76.59    5.30
   4  -6  -2   76.39    5.60
  -4   6   1   53.49    3.80
   4  -6  -1   56.79    4.70
  -4   6   0   15.00    2.20
   4  -6   0   11.10    2.10
  -4   6   0   10.50    1.70
  -4   6  -1   17.30    2.60
   4  -6   1   15.30    2.20
  -4   6  -2   18.10    2.50
  -4   6  -2   22.90    3.10
  -4   6  -3    6.90    1.80
  -4   6  -3    7.00    2.10
  -4   6  -4   37.10    4.20
  -4   6  -4   41.70    4.70
   4  -5  -7    3.20    1.30
   4  -5  -7    4.10    1.60
   4  -5  -6   11.00    2.10
   4  -5  -6   15.70    2.90
   4  -5  -5  209.88    8.80
   4  -5  -5  206.08   10.50
   4  -5  -4  115.99    7.30
  -4   5   4  124.29    6.80
  -4   5   3    7.10    1.60
  -4   5   3    6.20    1.40
   4  -5  -3    5.50    1.80
  -4   5   2   11.20    2.00
  -4   5   2    8.80    1.80
   4  -5  -2   12.80    2.30
  -4   5   1   36.60    3.50
  -4   5   1   37.50    2.90
   4  -5  -1   35.20    3.50
  -4   5   0    7.40    1.80
  -4   5   0    5.30    1.40
   4  -5   0    7.10    1.60
  -4   5  -1    5.60    1.30
  -4   5  -1    6.30    1.40
   4  -5   1    6.90    1.40
  -4   5  -1    6.70    1.30
  -4   5  -2   11.50    1.90
  -4   5  -2    9.30    1.90
  -4   5  -2   10.40    1.80
   4  -5   2   10.20    1.70
  -4   5  -3   17.50    2.50
  -4   5  -3   17.20    2.60
  -4   5  -4    1.60    1.10
  -4   5  -4    0.20    1.10
  -4   5  -5    0.60    1.10
  -4   5  -5    2.20    1.50
   4  -4  -7   19.40    3.00
   4  -4  -7   17.90    3.00
   4  -4  -6    8.30    1.90
   4  -4  -6   11.30    2.40
   4  -4  -5    4.00    1.40
   4  -4  -5    3.60    1.40
  -4   4   4   12.40    1.70
   4  -4  -4   13.10    2.50
   4  -4  -4   11.70    1.80
  -4   4   3   52.59    3.60
   4  -4  -3   49.30    4.30
  -4   4   3   53.29    4.00
   4  -4  -3   49.70    3.30
  -4   4   2    3.20    1.10
   4  -4  -2    2.80    0.80
  -4   4   2    1.90    0.90
   4  -4  -2    2.90    1.30
  -4   4   1   32.30    3.00
  -4   4   1   31.40    2.20
   4  -4  -1   29.70    3.10
   4  -4  -1   32.60    2.00
  -4   4   0    4.50    0.80
  -4   4   0    7.50    1.70
  -4   4   0    5.10    1.10
   4  -4   0    3.30    1.10
  -4   4  -1  206.68    7.20
  -4   4  -1  194.68    8.70
  -4   4  -1  221.18    8.20
   4  -4   1  221.18    8.40
  -4   4  -1  210.28    8.00
  -4   4  -2  638.74   17.40
  -4   4  -2  602.24   18.90
  -4   4  -2  629.44   18.20
   4  -4   2  653.53   17.50
  -4   4  -2  645.84   17.80
  -4   4  -3   18.20    2.40
  -4   4  -3   18.70    2.70
  -4   4  -3   17.50    2.20
  -4   4  -4    0.30    1.00
  -4   4  -4    7.40    1.90
  -4   4  -5    3.50    1.60
  -4   4  -5    4.00    1.80
  -4   4  -6    0.50    1.20
  -4   4  -6   -0.80    1.10
   4  -3  -7   -0.50    1.20
   4  -3  -7    0.60    1.20
   4  -3  -6   53.19    4.90
   4  -3  -6   57.99    4.90
   4  -3  -5    1.60    1.20
   4  -3  -5    1.50    1.20
   4  -3  -4   96.09    5.50
  -4   3   4  102.59    4.70
   4  -3  -4   83.29    5.70
   4  -3  -3   48.50    3.40
  -4   3   3   51.79    3.40
   4  -3  -3   51.69    4.20
  -4   3   3   53.29    4.00
  -4   3   2    0.60    1.00
   4  -3  -2    3.00    0.90
  -4   3   2    2.20    0.80
   4  -3  -2    0.40    0.90
  -4   3   1   43.70    3.50
  -4   3   1   48.40    2.40
  -4   3   1   54.19    3.60
   4  -3  -1   46.10    3.60
   4  -3  -1   53.29    2.90
  -4   3   0   47.40    2.10
  -4   3   0   52.39    3.70
  -4   3   0   51.49    2.80
   4  -3   0   42.80    3.40
  -4   3  -1   64.69    3.10
  -4   3  -1   68.59    4.40
  -4   3  -1   66.69    3.70
   4  -3   1   58.79    3.90
  -4   3  -2    1.10    0.90
  -4   3  -2    0.70    1.10
  -4   3  -2    0.00    0.60
   4  -3   2    1.30    0.90
  -4   3  -2    1.30    0.90
  -4   3  -3   29.00    2.70
  -4   3  -3   26.60    3.00
  -4   3  -3   31.60    3.10
  -4   3  -3   31.10    2.80
  -4   3  -4   34.50    3.40
  -4   3  -4   27.10    2.90
  -4   3  -4   36.80    3.50
  -4   3  -5   76.39    5.30
  -4   3  -5   74.19    5.30
  -4   3  -6    0.10    1.10
  -4   3  -6    0.80    1.10
  -4   3  -7   81.19    6.30
  -4   3  -7   81.09    6.40
   4  -2  -7    2.30    1.40
   4  -2  -7   -0.60    1.00
   4  -2  -6    1.20    1.30
   4  -2  -6    0.80    1.20
   4  -2  -5    0.30    1.10
   4  -2  -5   -0.50    1.10
   4  -2  -4  269.77   10.30
   4  -2  -4  269.77   10.60
   4  -2  -3  301.67   10.30
   4  -2  -3  304.47   11.10
   4  -2  -2   26.30    2.80
  -4   2   2   32.40    3.00
   4  -2  -2   33.50    2.60
  -4   2   1  194.78    7.70
  -4   2   1  183.88    5.00
   4  -2  -1  195.08    7.70
   4  -2  -1  185.28    6.60
  -4   2   0    7.10    0.60
  -4   2   0    8.60    1.00
   4  -2   0    8.10    1.10
   4  -2   0    9.50    1.70
  -4   2  -1    2.00    0.30
  -4   2  -1    1.40    0.50
  -4   2  -1    1.80    0.70
  -4   2  -1    3.00    1.10
   4  -2   1    2.90    1.10
  -4   2  -2 1396.06   30.60
  -4   2  -2 1495.05   32.60
  -4   2  -2 1415.76   34.30
  -4   2  -2 1430.16   33.20
   4  -2   2 1431.46   33.40
  -4   2  -2 1452.75   33.70
  -4   2  -3  191.08    6.00
  -4   2  -3  208.38    7.50
  -4   2  -3  200.68    8.20
  -4   2  -3  206.88    7.80
  -4   2  -3  219.58    8.00
  -4   2  -4   26.50    2.70
  -4   2  -4   26.70    2.80
  -4   2  -4   24.80    2.70
  -4   2  -5   10.50    2.00
  -4   2  -5    5.40    1.40
  -4   2  -5    5.70    1.50
  -4   2  -6   54.69    4.60
  -4   2  -6   60.29    4.90
  -4   2  -7    2.50    1.30
  -4   2  -7   -0.40    1.00
  -4   2  -8    0.70    1.10
  -4   2  -8    4.30    1.70
   4  -1  -7    1.50    1.10
   4  -1  -6    1.30    1.30
   4  -1  -6   -0.40    0.80
   4  -1  -5   21.40    2.90
   4  -1  -5   24.10    2.90
   4  -1  -4    8.70    1.80
   4  -1  -4   13.00    2.00
   4  -1  -3  141.39    6.60
   4  -1  -3  143.29    6.70
   4  -1  -2   51.39    3.70
   4  -1  -2   50.09    3.40
  -4   1   1    0.50    0.90
   4  -1  -1    0.20    0.70
  -4   1   1    0.70    0.30
   4  -1  -1    0.80    1.00
  -4   1   1    0.40    0.20
  -4   1   0   10.20    0.60
  -4   1   0   10.10    1.60
   4  -1   0    8.90    1.50
   4  -1   0   10.60    1.40
  -4   1  -1  143.09    4.50
  -4   1  -1  146.59    4.60
   4  -1   1  144.39    6.00
   4  -1   1  150.08    5.50
  -4   1  -2   24.20    1.60
  -4   1  -2   23.60    1.90
  -4   1  -2   21.80    2.20
  -4   1  -3    5.30    0.90
  -4   1  -3    7.40    1.30
  -4   1  -3    6.30    1.30
  -4   1  -3    7.30    1.50
  -4   1  -4   57.19    3.20
  -4   1  -4   56.89    3.70
  -4   1  -4   51.49    3.70
  -4   1  -5   26.20    2.50
  -4   1  -5   27.30    2.90
  -4   1  -5   27.00    2.70
  -4   1  -6   21.00    2.40
  -4   1  -6   20.40    2.50
  -4   1  -6   19.40    2.60
  -4   1  -7    9.90    2.10
  -4   1  -7    9.80    2.10
  -4   1  -8   34.70    4.10
  -4   1  -8   33.30    3.90
   4   0  -7    8.10    2.40
   4   0  -6   23.80    3.40
   4   0  -5    1.60    1.00
   4   0  -5    4.40    1.50
   4   0  -4  176.28    8.40
   4   0  -4  192.58    6.40
   4   0  -4  180.68    7.90
   4   0  -3  379.86   13.00
   4   0  -3  419.76   10.60
   4   0  -3  408.56   12.90
  -4   0   2   13.00    1.10
   4   0  -2   14.90    2.00
   4   0  -2   14.60    2.00
  -4   0   1   45.10    1.80
  -4   0   1   46.70    1.80
   4   0  -1   44.80    3.20
   4   0  -1   46.40    3.20
  -4   0   0    1.60    0.90
  -4   0   0    1.10    0.30
   4   0   0    1.20    1.00
   4   0   0    0.60    0.80
  -4   0  -1  698.83   17.90
   4   0   1  689.43   18.00
   4   0   1  691.93   17.50
  -4   0  -2    8.70    1.10
  -4   0  -2    8.20    1.30
  -4   0  -3   94.39    4.70
  -4   0  -3   96.69    4.10
  -4   0  -4   74.69    3.90
  -4   0  -5  192.28    7.50
  -4   0  -5  193.38    7.50
  -4   0  -6  104.89    5.70
  -4   0  -6  108.79    6.20
  -4   0  -6  116.19    5.60
  -4   0  -7   56.29    4.40
  -4   0  -7   60.39    4.90
  -4   0  -8   38.80    4.20
  -4   0  -9    6.40    2.00
  -4   0  -9    8.80    2.10
   4   1  -6   22.20    3.30
   4   1  -5    7.50    1.40
   4   1  -5   10.70    2.30
   4   1  -4   40.80    3.80
   4   1  -4   41.60    3.00
   4   1  -4   42.30    3.30
   4   1  -3    5.40    1.10
   4   1  -3    6.30    1.70
   4   1  -3    6.30    1.30
   4   1  -2   41.00    2.50
   4   1  -2   43.30    3.20
   4   1  -2   46.00    3.50
   4   1  -1   90.09    4.50
   4   1  -1   85.29    4.70
   4   1   0    0.10    0.80
   4   1   1  248.38    8.30
  -4  -1  -1  246.68    8.00
  -4  -1  -2  158.48    5.70
  -4  -1  -2  154.28    5.60
  -4  -1  -2  153.88    5.90
  -4  -1  -3  319.57    9.60
  -4  -1  -3  327.27   10.10
  -4  -1  -4   78.49    4.10
  -4  -1  -5    0.10    0.80
  -4  -1  -6   42.90    3.60
  -4  -1  -6   41.90    3.00
  -4  -1  -7    0.90    1.00
  -4  -1  -7   -0.70    0.70
  -4  -1  -8   -1.10    1.00
  -4  -1  -8    0.40    1.00
  -4  -1  -9   52.99    5.00
   4   2  -6    2.30    1.30
   4   2  -5   26.30    2.90
   4   2  -5   21.90    3.20
   4   2  -4    0.50    0.70
   4   2  -4    0.20    0.90
   4   2  -3   46.90    3.30
   4   2  -3   42.50    2.80
   4   2  -3   41.70    3.70
   4   2  -2   35.20    2.60
   4   2  -2   32.40    2.40
   4   2  -2   31.40    3.00
   4   2  -1  122.49    5.10
   4   2  -1  128.59    6.10
   4   2   0    8.40    1.50
   4   2   1   34.10    2.80
   4   2   1   38.70    2.30
  -4  -2  -2  337.27   10.30
  -4  -2  -2  353.36   10.10
  -4  -2  -2  339.47    9.60
   4   2   2  344.57   10.00
  -4  -2  -3  100.39    4.10
  -4  -2  -3  100.39    4.70
  -4  -2  -3  100.19    4.60
  -4  -2  -4    3.00    1.00
  -4  -2  -5   60.69    4.00
  -4  -2  -6   14.80    2.20
  -4  -2  -7    0.70    0.90
  -4  -2  -7    0.40    0.60
  -4  -2  -8   41.20    4.10
  -4  -2  -9    0.90    1.30
  -4  -2  -9    3.10    1.50
   4   3  -6    9.20    2.30
   4   3  -5    4.90    1.50
   4   3  -5    2.00    1.20
   4   3  -4    1.60    1.00
   4   3  -4    0.30    1.30
   4   3  -3   91.49    5.20
   4   3  -3   91.69    4.90
   4   3  -3   92.29    5.90
   4   3  -2  148.99    6.70
   4   3  -2  158.88    6.50
   4   3  -2  168.18    7.70
   4   3  -1   92.39    4.80
   4   3  -1   91.79    4.70
   4   3  -1  103.59    5.50
   4   3   0    5.10    1.30
   4   3   1  301.07   10.10
  -4  -3  -1  297.27    8.70
   4   3   2   17.80    1.90
  -4  -3  -2   17.30    2.10
  -4  -3  -2   17.20    1.70
  -4  -3  -3  296.97    9.70
  -4  -3  -3  287.77    9.00
   4   3   3  286.67    9.60
  -4  -3  -4   49.60    3.50
   4   3   4   45.10    3.50
  -4  -3  -4   48.10    2.30
  -4  -3  -5  138.39    6.40
  -4  -3  -6   30.90    3.10
  -4  -3  -7   15.50    2.50
  -4  -3  -8   52.89    4.80
  -4  -3  -9   10.60    2.50
  -4  -3 -10   19.60    3.40
  -4  -3 -10   12.40    2.70
   4   4  -5   24.20    3.60
   4   4  -5   25.10    3.40
   4   4  -4    1.10    1.00
   4   4  -4    0.70    1.20
   4   4  -3    2.70    2.00
   4   4  -3    1.60    1.20
   4   4  -3   -0.10    0.70
   4   4  -2   -0.50    0.90
   4   4  -2    0.90    1.00
   4   4  -2    0.20    0.80
   4   4  -1    8.70    1.70
   4   4  -1    9.90    1.80
   4   4  -1    8.60    1.60
   4   4   0    5.40    1.40
   4   4   0    9.00    1.70
   4   4   1  180.38    7.70
  -4  -4  -1  194.78    6.10
  -4  -4  -2   26.40    2.60
  -4  -4  -2   27.50    2.00
  -4  -4  -3   73.79    4.40
   4   4   3   69.89    4.30
   4   4   4    1.00    1.20
  -4  -4  -4    3.10    1.30
  -4  -4  -5    0.60    1.00
   4   4   5   -1.00    1.30
  -4  -4  -6    7.70    1.80
   4   4   6    8.70    2.00
  -4  -4  -7   15.20    2.50
  -4  -4  -8   14.50    2.60
  -4  -4  -9    1.80    1.20
  -4  -4 -10    3.60    1.80
   4   5  -4   10.70    2.50
   4   5  -4   12.10    2.30
   4   5  -3    4.80    1.70
   4   5  -3    3.40    1.50
   4   5  -3    2.50    1.30
   4   5  -2  148.69    7.90
   4   5  -2  145.59    7.50
   4   5  -2  158.48    8.10
   4   5  -1    9.80    2.00
   4   5  -1    7.60    1.70
   4   5  -1   10.40    2.10
   4   5   0  106.39    6.30
   4   5   0  115.89    6.30
   4   5   0  124.29    6.40
  -4  -5  -1   26.00    1.60
   4   5   1   25.00    2.70
  -4  -5  -2    1.60    1.10
  -4  -5  -3    1.40    1.00
   4   5   4    1.60    1.40
  -4  -5  -4   -0.30    1.00
  -4  -5  -5  182.88    8.10
   4   5   5  178.38    8.40
  -4  -5  -6   21.50    2.80
   4   5   6   25.50    3.20
  -4  -5  -7   24.30    3.10
   4   5   7   23.40    3.10
  -4  -5  -8    0.80    1.30
  -4  -5  -9   47.30    5.00
   4   6  -3   26.80    3.50
   4   6  -3   20.70    3.20
   4   6  -3   25.50    3.40
   4   6  -2    4.70    1.80
   4   6  -2    7.70    2.10
   4   6  -2    6.90    1.80
   4   6  -1    1.60    1.20
   4   6  -1    0.10    0.90
   4   6  -1    1.20    1.00
   4   6   0   -0.30    1.00
   4   6   0   -1.00    0.80
   4   6   1   53.39    4.50
   4   6   1   54.49    4.20
  -4  -6  -2   78.69    5.20
  -4  -6  -3    9.40    1.70
  -4  -6  -4   11.50    2.00
  -4  -6  -5   54.79    4.30
   4   6   5   49.60    4.40
   4   6   6    6.10    2.00
  -4  -6  -6    8.20    1.90
  -4  -6  -7   18.60    2.90
   4   6   7    1.80    1.40
  -4  -6  -8   28.10    3.60
   4   6   8   28.00    3.70
  -4  -6  -9    0.70    1.20
   4   7  -2    0.50    1.10
   4   7  -2    0.30    1.20
   4   7  -1    0.40    1.60
   4   7  -1    1.00    1.10
   4   7  -1    2.70    1.20
   4   7   0   30.80    3.70
   4   7   0   33.20    3.50
  -4  -7  -1   -0.30    1.00
   4   7   1    2.70    1.50
  -4  -7  -2    2.30    1.10
  -4  -7  -3    8.50    1.80
  -4  -7  -4    4.50    1.40
  -4  -7  -5   19.80    2.80
   4   7   6    7.40    2.20
  -4  -7  -6    9.70    2.00
   4   7   7    5.90    2.10
  -4  -7  -7    3.30    1.50
  -4  -7  -8   96.39    6.90
   4   7   8  106.99    7.50
  -4  -7  -9    0.60    1.30
   4   8  -1    0.00    1.30
  -4  -8   0   -0.20    0.90
   4   8   0    1.30    1.50
  -4  -8  -1    5.70    1.60
   4   8   1    3.90    1.80
  -4  -8  -2   -0.30    1.10
  -4  -8  -3   17.10    2.60
  -4  -8  -4    6.50    1.80
  -4  -8  -5   60.09    5.00
   4   8   6    3.50    1.80
  -4  -8  -6    3.60    1.40
  -4  -8  -7   -0.50    1.10
   4   8   7    0.20    1.40
   4   8   8   22.40    3.70
  -4  -8  -8   31.10    4.00
  -4  -9  -1    7.20    1.90
  -4  -9  -2   29.30    3.50
  -4  -9  -3   60.69    5.20
  -4  -9  -4    2.30    1.30
  -4  -9  -5    0.80    1.00
  -4  -9  -6    0.90    0.90
  -4  -9  -7    1.60    1.00
  -4 -10  -5   -0.30    0.90
  -5   7   3    1.20    1.40
   5  -7  -3   -0.20    1.50
  -5   7   2    0.00    1.20
   5  -7  -2   -0.40    1.00
   5  -7  -1    4.50    1.60
   5  -7   0    2.10    1.20
  -5   7  -2    2.00    1.40
  -5   6   4    2.40    1.60
   5  -6  -4    1.10    1.50
  -5   6   3    1.10    1.20
   5  -6  -3    0.20    1.20
  -5   6   2    0.00    1.20
   5  -6  -2    1.00    1.50
   5  -6  -1    0.70    1.00
   5  -6   0    0.00    1.10
  -5   6   0   -0.50    0.70
  -5   6  -1   19.00    2.60
   5  -6   1   22.30    2.90
  -5   6  -2    1.80    1.30
  -5   6  -3   35.60    4.10
   5  -5  -5    6.00    2.10
   5  -5  -4    5.70    1.90
  -5   5   3  109.19    6.20
   5  -5  -3  108.69    7.20
  -5   5   3  106.99    6.60
  -5   5   2   -2.30    1.40
  -5   5   2    0.40    1.00
   5  -5  -2    0.70    1.00
  -5   5   1   10.80    2.20
   5  -5  -1   11.10    2.20
  -5   5   0   45.70    4.30
  -5   5   0   52.29    3.70
   5  -5   0   45.50    4.20
  -5   5  -1   32.80    3.20
  -5   5  -1   32.00    3.70
   5  -5   1   27.20    3.10
  -5   5  -1   33.20    3.20
  -5   5  -2    6.00    1.70
   5  -5   2    3.50    1.20
  -5   5  -2    5.00    1.60
  -5   5  -3   35.10    3.40
  -5   5  -3   28.00    3.40
  -5   5  -3   29.80    3.20
  -5   5  -4    0.30    0.90
  -5   5  -4    0.30    1.00
  -5   5  -5   11.30    2.30
  -5   5  -5   12.30    2.70
   5  -4  -7    0.80    1.10
   5  -4  -6    2.70    1.40
   5  -4  -6    1.80    1.40
   5  -4  -5   27.90    3.90
   5  -4  -5   29.50    3.40
   5  -4  -4    4.60    1.30
   5  -4  -4    5.80    1.90
  -5   4   3   21.20    3.00
  -5   4   3   20.40    2.50
   5  -4  -3   17.90    2.80
   5  -4  -3   20.40    2.30
  -5   4   2   10.90    2.00
  -5   4   2   15.00    2.20
   5  -4  -2   11.90    2.20
  -5   4   1    0.70    1.30
  -5   4   1    1.40    1.00
   5  -4  -1    0.70    1.10
  -5   4   0  147.89    7.60
  -5   4   0  156.58    6.30
   5  -4   0  155.98    7.80
  -5   4  -1   24.20    2.50
  -5   4  -1   22.10    2.90
   5  -4   1   27.90    3.20
  -5   4  -1   21.10    2.50
  -5   4  -2   23.10    2.30
  -5   4  -2   20.90    2.90
  -5   4  -2   21.00    2.50
   5  -4   2   24.10    2.80
  -5   4  -2   20.60    2.50
  -5   4  -3    1.20    1.20
  -5   4  -3    1.40    1.10
  -5   4  -3    3.40    1.30
  -5   4  -3    2.80    1.20
  -5   4  -4    0.60    1.00
  -5   4  -4   -1.10    0.90
  -5   4  -5    9.60    2.10
  -5   4  -5   11.30    2.30
  -5   4  -6   18.00    3.00
  -5   4  -6   20.90    3.40
   5  -3  -7    0.90    1.10
   5  -3  -6   20.30    3.10
   5  -3  -6   22.30    3.20
   5  -3  -5   16.80    2.60
   5  -3  -5   16.10    2.80
   5  -3  -4    8.20    1.70
   5  -3  -4   12.90    2.40
  -5   3   3  369.86   11.90
   5  -3  -3  351.26   13.30
   5  -3  -3  346.17   11.80
  -5   3   3  323.47   12.50
  -5   3   2   90.79    5.10
   5  -3  -2   76.89    5.40
   5  -3  -2   83.19    4.60
  -5   3   2   70.79    5.00
  -5   3   1   10.10    2.10
  -5   3   1    9.20    1.70
   5  -3  -1    9.20    1.30
   5  -3  -1    9.10    2.00
  -5   3   0    6.60    1.10
  -5   3   0   11.20    2.00
   5  -3   0    6.40    1.50
  -5   3  -1   38.60    2.30
  -5   3  -1   39.00    3.60
  -5   3  -1   40.00    2.90
   5  -3   1   42.70    3.50
  -5   3  -2   23.90    2.10
  -5   3  -2   24.30    2.50
  -5   3  -2   21.50    2.80
   5  -3   2   25.30    2.60
  -5   3  -2   29.00    2.90
  -5   3  -3    1.00    0.90
  -5   3  -3    0.00    1.00
  -5   3  -3    0.10    0.80
  -5   3  -3    0.60    0.70
  -5   3  -4    0.50    1.40
  -5   3  -4    0.00    0.70
  -5   3  -4    0.40    0.90
  -5   3  -5    1.10    1.10
  -5   3  -5   -0.10    0.80
  -5   3  -5   -0.10    1.40
  -5   3  -6   -2.10    1.30
  -5   3  -6    1.70    1.30
  -5   3  -7    3.30    1.50
  -5   3  -7    4.30    1.80
   5  -2  -6    0.20    1.00
   5  -2  -6    5.00    1.80
   5  -2  -5   51.39    4.60
   5  -2  -5   46.20    4.50
   5  -2  -4   35.90    3.80
   5  -2  -4   31.20    3.30
   5  -2  -3    5.10    1.30
   5  -2  -3    5.30    1.70
  -5   2   2   13.70    2.20
   5  -2  -2   14.10    1.90
   5  -2  -2   12.20    2.00
   5  -2  -1   31.40    3.20
   5  -2  -1   33.70    2.80
  -5   2   1   34.30    3.30
  -5   2   0   48.40    3.80
  -5   2   0   44.80    2.50
   5  -2   0   46.40    3.70
   5  -2   0   46.80    3.00
  -5   2  -1   29.60    1.60
  -5   2  -1   29.60    1.70
  -5   2  -1   31.60    2.30
   5  -2   1   28.70    2.90
  -5   2  -2   10.10    0.90
  -5   2  -2    9.70    1.30
  -5   2  -2   11.10    1.60
  -5   2  -2    7.10    1.70
   5  -2   2   12.40    1.90
  -5   2  -2    8.20    1.50
  -5   2  -3  269.67    9.10
  -5   2  -3  256.17   10.30
  -5   2  -3  271.07   10.00
  -5   2  -4  386.16   12.50
  -5   2  -4  372.46   13.30
  -5   2  -4  382.26   12.90
  -5   2  -4  375.36   12.90
  -5   2  -5    0.90    1.10
  -5   2  -5    1.10    0.80
  -5   2  -5   -0.70    1.00
  -5   2  -6    3.20    1.40
  -5   2  -6    2.20    1.40
  -5   2  -6    2.00    1.20
  -5   2  -7    7.00    1.80
  -5   2  -7    4.40    1.60
   5  -1  -6   13.30    2.40
   5  -1  -6   18.70    3.10
   5  -1  -5    4.60    1.60
   5  -1  -5    5.00    1.70
   5  -1  -4  101.29    6.30
   5  -1  -4   90.69    5.90
   5  -1  -3   26.00    3.00
   5  -1  -3   33.80    3.30
   5  -1  -2  253.47   10.00
   5  -1  -2  240.38    9.30
  -5   1   1   25.90    1.20
   5  -1  -1   28.60    3.00
   5  -1  -1   26.20    2.60
  -5   1   1   29.20    3.00
  -5   1   0   31.90    3.00
  -5   1   0   24.90    0.90
   5  -1   0   31.90    3.00
   5  -1   0   27.80    2.50
  -5   1  -1   19.00    1.60
  -5   1  -1   19.90    1.40
   5  -1   1   18.80    2.00
   5  -1   1   20.50    2.30
  -5   1  -2    4.50    0.80
  -5   1  -2    3.30    0.80
  -5   1  -2    3.60    1.20
  -5   1  -3   30.10    2.10
  -5   1  -3   28.10    2.40
  -5   1  -3   30.10    2.90
  -5   1  -4    4.10    1.00
  -5   1  -4    5.00    1.40
  -5   1  -4    3.20    1.20
  -5   1  -4    4.40    1.40
  -5   1  -5    1.90    0.90
  -5   1  -5    2.90    1.20
  -5   1  -5   -0.30    0.90
  -5   1  -6    0.40    0.70
  -5   1  -6    0.80    0.80
  -5   1  -6    0.90    1.00
  -5   1  -7   54.49    4.80
  -5   1  -8    6.80    1.80
  -5   1  -8    3.80    1.30
   5   0  -6   17.20    3.10
   5   0  -5    2.30    1.30
   5   0  -5    3.20    1.10
   5   0  -4   -0.40    1.00
   5   0  -4    0.30    0.90
   5   0  -3    0.70    0.80
   5   0  -3    0.90    0.90
   5   0  -2  389.76   12.90
   5   0  -2  382.06   12.90
   5   0  -1  437.86   13.90
   5   0  -1  448.46   13.80
  -5   0   0    9.00    1.70
  -5   0   0    7.70    0.80
   5   0   0    6.60    1.50
   5   0   0    5.10    1.30
  -5   0  -1   55.29    3.80
   5   0   1   58.99    3.70
  -5   0  -2    7.40    1.10
  -5   0  -2    7.00    1.30
  -5   0  -3   77.99    3.80
  -5   0  -3   74.49    4.50
  -5   0  -4 1119.29   26.60
  -5   0  -4 1082.29   27.90
  -5   0  -5   67.19    4.10
  -5   0  -5   68.89    4.50
  -5   0  -6   50.09    3.80
  -5   0  -6   49.99    4.20
  -5   0  -6   43.20    3.70
  -5   0  -7    6.20    1.60
  -5   0  -7    7.70    1.70
  -5   0  -7    5.90    1.80
  -5   0  -8   18.80    2.80
  -5   0  -8   22.40    3.20
   5   1  -6   29.40    4.00
   5   1  -5    0.30    1.00
   5   1  -4    3.00    1.40
   5   1  -4    5.40    1.50
   5   1  -3    8.20    1.90
   5   1  -3   10.90    1.80
   5   1  -2   44.80    3.60
   5   1  -2   38.80    3.60
   5   1  -1  348.97   11.90
   5   1   0   10.50    1.70
  -5  -1  -1    9.00    1.60
   5   1   1   10.20    1.70
  -5  -1  -2   21.70    2.00
  -5  -1  -2   19.00    2.10
  -5  -1  -2   21.40    2.20
  -5  -1  -3   36.90    2.70
  -5  -1  -3   35.80    3.00
  -5  -1  -4    6.40    1.30
  -5  -1  -4    4.90    1.40
  -5  -1  -5   20.90    2.30
  -5  -1  -6   29.70    3.10
  -5  -1  -6   31.90    2.90
  -5  -1  -7   35.40    3.60
  -5  -1  -7   37.40    3.20
  -5  -1  -8    1.50    1.10
  -5  -1  -8    2.20    1.50
  -5  -1  -9   40.90    4.50
  -5  -1  -9   36.00    4.30
   5   2  -5    2.40    1.60
   5   2  -4   43.80    4.40
   5   2  -3    9.40    1.60
   5   2  -3    7.50    1.90
   5   2  -2  163.18    6.50
   5   2  -2  157.48    7.90
   5   2  -1  480.25   15.20
   5   2   0   -0.30    0.80
   5   2   0    0.10    0.40
   5   2   1    5.10    1.40
  -5  -2  -2   42.20    3.10
  -5  -2  -2   40.60    3.00
  -5  -2  -2   45.00    3.00
  -5  -2  -3  194.98    6.90
  -5  -2  -3  179.48    7.10
  -5  -2  -3  179.78    7.20
  -5  -2  -4   97.59    5.00
  -5  -2  -4   91.09    5.00
  -5  -2  -5  114.69    5.80
  -5  -2  -6   44.30    3.80
  -5  -2  -7  143.99    7.60
  -5  -2  -7  151.98    6.70
  -5  -2  -8   39.10    4.10
  -5  -2  -9    7.20    2.10
  -5  -2  -9   10.80    2.50
   5   3  -5    8.80    2.60
   5   3  -4   10.00    1.90
   5   3  -4    8.90    2.20
   5   3  -3    1.30    1.10
   5   3  -3    2.00    1.40
   5   3  -2   17.80    2.70
   5   3  -2   12.40    1.90
   5   3  -1   16.20    2.40
   5   3   0   24.40    2.80
   5   3   1    2.00    0.80
   5   3   1    1.60    1.20
  -5  -3  -2   35.20    3.00
  -5  -3  -2   33.60    2.60
   5   3   2   34.20    2.60
  -5  -3  -3  112.29    5.60
  -5  -3  -3  110.19    5.20
   5   3   3  111.79    5.40
  -5  -3  -4   36.00    3.10
  -5  -3  -4   37.40    2.40
  -5  -3  -5  207.38    6.70
  -5  -3  -5  190.68    8.20
  -5  -3  -6  111.09    6.20
  -5  -3  -7    2.60    1.40
  -5  -3  -8    6.40    2.00
  -5  -3  -9    1.50    1.40
   5   4  -4    3.20    1.80
   5   4  -4   -1.40    1.20
   5   4  -3    7.30    2.30
   5   4  -3    6.50    1.70
   5   4  -2    1.70    1.30
   5   4  -2    0.60    1.10
   5   4  -2    0.50    0.90
   5   4  -1   54.59    4.50
   5   4   0    0.00    0.90
   5   4   1   17.10    2.40
  -5  -4  -1   18.90    1.80
  -5  -4  -2   23.60    2.70
  -5  -4  -2   23.80    2.10
   5   4   2   25.40    2.50
  -5  -4  -3   28.10    2.80
  -5  -4  -3   30.10    2.50
   5   4   3   27.90    2.80
  -5  -4  -4   50.99    4.00
   5   4   4   48.00    3.80
  -5  -4  -5    2.70    1.10
   5   4   5    3.00    1.30
  -5  -4  -6   12.20    2.10
  -5  -4  -7   72.59    5.50
  -5  -4  -8   24.40    3.40
  -5  -4  -9   -0.30    1.30
   5   5  -4    2.00    1.40
   5   5  -4    4.00    1.60
   5   5  -3    3.00    1.70
   5   5  -3    0.40    1.10
   5   5  -2    7.90    2.10
   5   5  -2    7.50    1.80
   5   5  -2    7.90    2.20
   5   5  -1   60.59    4.60
   5   5  -1   52.69    4.60
   5   5   0   69.79    5.10
   5   5   1   23.80    2.90
  -5  -5  -2   11.90    2.10
  -5  -5  -2   11.30    1.40
  -5  -5  -3  160.78    7.70
   5   5   3  169.68    7.60
   5   5   4    0.30    1.00
  -5  -5  -4    4.90    1.40
  -5  -5  -5   78.29    5.20
   5   5   5   66.69    5.00
  -5  -5  -6   48.90    4.30
   5   5   6   48.90    4.50
  -5  -5  -7   14.50    2.60
  -5  -5  -8    1.70    1.10
  -5  -5  -9    3.50    1.60
   5   6  -3    4.60    1.70
   5   6  -3    3.50    1.50
   5   6  -2    4.60    1.90
   5   6  -2    6.00    1.90
   5   6  -2    3.10    1.40
   5   6  -1   -0.50    1.20
   5   6  -1   -0.30    1.00
   5   6   0    2.70    1.20
   5   6   1    0.90    1.20
  -5  -6  -2    0.20    0.90
  -5  -6  -3   30.30    3.30
   5   6   4    1.40    1.10
  -5  -6  -4    1.20    1.20
   5   6   5   21.20    3.10
  -5  -6  -5   25.10    3.10
   5   6   6    4.20    2.00
  -5  -6  -6    4.50    1.60
  -5  -6  -7    5.10    1.80
   5   6   7    2.00    1.60
  -5  -6  -8    2.90    1.50
  -5  -6  -9   -1.80    1.50
   5   7  -2    0.10    1.10
   5   7  -1    0.50    1.20
   5   7  -1    1.00    1.30
   5   7   0   89.79    6.40
  -5  -7  -1   10.20    2.40
  -5  -7  -2   39.50    4.10
  -5  -7  -3   17.70    2.70
  -5  -7  -4    0.00    1.10
   5   7   5   -0.20    1.40
  -5  -7  -5   -0.80    1.00
   5   7   6    2.50    1.50
  -5  -7  -6   -1.10    1.20
   5   7   7   22.20    3.50
  -5  -7  -7   26.80    3.60
  -5  -7  -8   -1.70    1.50
   5   7   8    1.40    1.80
  -5  -8   0    2.10    1.20
  -5  -8  -1    0.40    1.10
  -5  -8  -2    0.40    1.00
  -5  -8  -3   26.40    3.30
  -5  -8  -4    5.90    1.70
  -5  -8  -5    3.60    1.60
   5   8   6    4.00    1.80
  -5  -8  -6    5.80    1.80
   5   8   7   21.00    3.50
  -5  -8  -7   19.80    3.30
  -5  -8  -8    0.70    1.20
  -5  -9  -2   23.40    3.30
  -5  -9  -3    1.30    1.10
  -5  -9  -4    5.30    1.90
  -5  -9  -5    4.00    1.80
  -5  -9  -6    6.90    2.10
   6  -7  -1    7.10    2.10
  -6   6   3    4.30    1.90
   6  -6  -3    1.70    1.60
  -6   6   2   -0.10    1.10
   6  -6  -2   -1.10    1.20
  -6   6   1   21.10    3.20
   6  -6  -1   17.30    3.00
   6  -6   0   11.10    2.40
  -6   6   0    9.60    2.00
   6  -6   1   48.40    4.60
  -6   6  -3    7.70    2.10
   6  -5  -4    6.60    2.20
  -6   5   3    1.50    1.50
   6  -5  -3   -0.60    1.50
  -6   5   2   39.40    4.10
   6  -5  -2   44.80    4.70
  -6   5   2   36.40    4.10
  -6   5   1    0.70    1.20
  -6   5   1    0.10    1.00
   6  -5  -1    2.20    1.50
  -6   5   0    8.20    2.10
   6  -5   0    7.00    2.10
  -6   5  -1   26.00    3.60
   6  -5   1   25.10    3.20
  -6   5  -1   23.80    3.20
  -6   5  -2    1.10    1.00
  -6   5  -2    1.80    1.30
   6  -5   2    1.70    1.10
  -6   5  -2    1.50    0.90
  -6   5  -3   38.60    4.00
  -6   5  -3   39.40    3.90
  -6   5  -4    6.60    2.00
   6  -4  -5   -0.50    1.20
   6  -4  -4    1.30    1.20
  -6   4   3   27.40    3.50
  -6   4   3   22.20    2.90
   6  -4  -3   22.50    3.40
  -6   4   2    5.90    1.80
  -6   4   2    8.10    1.90
   6  -4  -2    8.50    2.10
  -6   4   1    0.00    1.10
  -6   4   1    0.70    1.00
   6  -4  -1    0.80    1.10
  -6   4   0    0.30    1.00
  -6   4   0    1.10    1.30
   6  -4   0    0.60    1.10
  -6   4  -1   12.80    2.30
   6  -4   1   18.60    2.60
  -6   4  -1   17.10    2.50
  -6   4  -2    6.60    2.00
  -6   4  -2    4.50    1.30
   6  -4   2    6.90    1.70
  -6   4  -2    5.30    1.50
  -6   4  -3   23.10    3.40
  -6   4  -3   26.60    3.20
  -6   4  -3   23.70    3.00
  -6   4  -4    2.70    1.70
  -6   4  -4    6.00    1.80
  -6   4  -5   61.79    5.60
  -6   4  -6    1.60    1.20
   6  -3  -6    5.10    1.70
   6  -3  -5    2.50    1.20
   6  -3  -5    2.00    1.20
   6  -3  -4   20.70    2.80
   6  -3  -4   22.20    3.30
   6  -3  -3    2.90    1.30
  -6   3   3   -0.90    0.80
   6  -3  -3    1.50    1.10
  -6   3   2    0.80    1.20
  -6   3   2    1.60    1.00
   6  -3  -2    2.80    2.40
   6  -3  -2    1.00    0.80
  -6   3   1   52.89    4.30
   6  -3  -1   44.20    4.30
   6  -3  -1   55.09    3.70
  -6   3   1   54.89    4.70
  -6   3   0    0.80    0.90
   6  -3   0    0.50    1.00
  -6   3  -1   28.70    2.50
  -6   3  -1   28.70    3.20
   6  -3   1   27.30    3.10
  -6   3  -2   38.20    3.90
  -6   3  -2   42.50    3.40
   6  -3   2   34.30    3.50
  -6   3  -2   47.10    4.00
  -6   3  -3   99.69    6.60
  -6   3  -3  102.49    5.90
  -6   3  -3  115.89    6.60
  -6   3  -4    2.20    1.40
  -6   3  -4    0.30    0.70
  -6   3  -4    0.70    1.00
  -6   3  -4    1.90    1.20
  -6   3  -5   24.50    3.50
  -6   3  -5   26.10    3.00
  -6   3  -5   25.30    3.40
  -6   3  -6    0.30    1.30
  -6   3  -6    0.30    1.00
   6  -2  -6    3.80    1.70
   6  -2  -5   -1.90    1.40
   6  -2  -5    0.60    1.40
   6  -2  -4    8.90    1.90
   6  -2  -4   12.80    2.60
   6  -2  -3   24.90    3.40
   6  -2  -3   30.20    3.30
  -6   2   2    1.90    1.40
   6  -2  -2    0.10    0.90
   6  -2  -2    1.10    1.50
   6  -2  -1   34.60    3.60
   6  -2  -1   45.20    3.50
  -6   2   1   38.40    3.90
  -6   2   0   70.39    5.10
   6  -2   0   64.39    4.80
   6  -2   0   62.89    4.00
  -6   2  -1    9.60    1.90
  -6   2  -1   10.10    1.40
   6  -2   1    7.90    1.70
  -6   2  -2   86.39    5.60
  -6   2  -2   94.09    4.90
  -6   2  -2   91.39    5.60
  -6   2  -3    1.70    0.90
  -6   2  -3   -0.60    1.20
  -6   2  -3   -1.20    0.70
  -6   2  -3    1.40    1.00
  -6   2  -4    8.70    1.60
  -6   2  -4    6.20    1.80
  -6   2  -4    5.00    1.40
  -6   2  -4    6.20    1.70
  -6   2  -5   33.70    3.40
  -6   2  -5   38.20    3.90
  -6   2  -5   34.40    3.60
  -6   2  -6    2.30    1.40
  -6   2  -6    1.10    1.20
  -6   2  -6    0.40    1.10
  -6   2  -7    1.80    1.30
  -6   2  -7    2.50    1.70
   6  -1  -5    9.80    2.30
   6  -1  -5    7.40    2.00
   6  -1  -4   14.70    2.60
   6  -1  -4   13.10    2.50
   6  -1  -3    6.60    1.80
   6  -1  -3    6.50    1.80
   6  -1  -2   15.30    2.40
   6  -1  -2   11.60    2.20
   6  -1  -1  211.58    9.40
   6  -1  -1  225.28    9.00
  -6   1   1  214.48    9.40
  -6   1   0    6.30    1.70
   6  -1   0    6.90    1.50
   6  -1   0    4.70    1.60
  -6   1  -1   30.20    2.20
  -6   1  -1   26.10    3.00
   6  -1   1   28.10    3.10
  -6   1  -2    9.30    1.20
  -6   1  -2    9.40    1.20
  -6   1  -2   13.00    2.00
  -6   1  -3   54.49    3.10
  -6   1  -3   56.59    3.40
  -6   1  -3   55.29    4.20
  -6   1  -4   68.49    4.30
  -6   1  -4   71.79    5.10
  -6   1  -4   69.29    4.90
  -6   1  -5   -1.70    1.20
  -6   1  -5   -0.30    0.70
  -6   1  -6   13.50    2.40
  -6   1  -6   16.80    2.60
  -6   1  -7    2.30    1.20
  -6   1  -7    4.00    1.40
  -6   1  -8    6.90    2.00
   6   0  -5   22.00    3.40
   6   0  -5   17.90    2.90
   6   0  -4    9.80    2.20
   6   0  -4    7.20    1.80
   6   0  -3   83.59    5.80
   6   0  -3   76.89    5.60
   6   0  -2   20.20    2.80
   6   0  -2   21.90    2.80
   6   0  -1    1.50    1.00
   6   0  -1    1.20    1.20
  -6   0   0    1.80    1.40
   6   0   0    4.60    1.60
   6   0   0    1.80    1.10
  -6   0  -1    0.70    1.10
  -6   0  -1    0.40    0.60
   6   0   1    0.60    0.90
  -6   0  -2   65.79    4.40
  -6   0  -2   63.69    3.60
  -6   0  -2   64.39    4.30
  -6   0  -3    0.30    0.50
  -6   0  -3   -0.40    0.80
  -6   0  -4   41.00    3.00
  -6   0  -4   36.30    3.40
  -6   0  -5   96.09    5.10
  -6   0  -5   94.59    5.80
  -6   0  -6  113.09    6.10
  -6   0  -6  112.39    6.50
  -6   0  -6  118.89    6.70
  -6   0  -7   -0.10    0.80
  -6   0  -7    1.40    1.00
  -6   0  -7    1.30    1.00
  -6   0  -8   -0.30    0.90
   6   1  -5    1.90    1.60
   6   1  -4   -0.10    1.30
   6   1  -3   15.70    2.70
   6   1  -2   58.29    4.80
   6   1  -1   60.89    4.70
   6   1   0  195.68    8.50
  -6  -1  -1    6.80    1.60
   6   1   1    7.40    1.70
  -6  -1  -2   21.80    2.20
  -6  -1  -2   24.30    2.60
  -6  -1  -2   22.80    2.50
  -6  -1  -3   -0.10    0.90
  -6  -1  -3    0.00    0.80
  -6  -1  -3   -0.10    0.90
  -6  -1  -4    1.20    0.70
  -6  -1  -4    1.30    1.00
  -6  -1  -5   23.20    2.60
  -6  -1  -6   28.80    3.00
  -6  -1  -7   14.10    2.40
  -6  -1  -7   20.50    2.70
  -6  -1  -8   -0.50    1.10
  -6  -1  -8    1.10    1.20
  -6  -1  -9   13.10    2.50
  -6  -1  -9   12.20    2.70
   6   2  -4    8.10    2.20
   6   2  -3    0.40    1.20
   6   2  -2   -0.90    1.20
   6   2  -1   -0.50    1.10
   6   2   0  355.36   12.90
   6   2   1  210.78    9.10
  -6  -2  -2   11.60    1.90
  -6  -2  -2   12.60    1.90
  -6  -2  -2   11.70    1.80
  -6  -2  -3   11.40    1.80
  -6  -2  -3   10.60    1.70
  -6  -2  -3   12.60    1.90
  -6  -2  -4    1.70    0.80
  -6  -2  -4    0.90    0.90
  -6  -2  -4    1.00    1.00
  -6  -2  -5   78.59    4.90
  -6  -2  -6  398.46   13.70
  -6  -2  -7    5.00    1.60
  -6  -2  -8   30.20    3.70
  -6  -2  -9    2.70    1.40
  -6  -2  -9    1.90    1.70
   6   3  -4   24.50    3.80
   6   3  -3    2.00    1.30
   6   3  -2    4.70    1.90
   6   3  -1    1.80    1.30
   6   3   0  132.29    7.30
   6   3   1  286.57   11.30
   6   3   1  302.77    9.20
  -6  -3  -2    0.00    0.90
  -6  -3  -2    0.30    0.70
  -6  -3  -3   -0.40    0.90
  -6  -3  -3    0.70    0.90
  -6  -3  -4   23.10    2.60
  -6  -3  -4   17.80    2.30
  -6  -3  -4   23.50    2.20
  -6  -3  -5   19.20    2.60
  -6  -3  -5   23.50    2.20
  -6  -3  -6    0.90    1.00
  -6  -3  -7    3.40    1.30
  -6  -3  -8    3.40    1.50
  -6  -3  -9   21.30    3.40
   6   4  -3    3.80    1.70
   6   4  -2   31.60    3.90
   6   4  -1   10.80    2.40
   6   4   0  130.09    7.50
   6   4   1  355.46   13.20
  -6  -4  -1  358.76   11.30
   6   4   1  353.06   11.10
   6   4   2    0.70    0.90
  -6  -4  -2    0.20    0.80
  -6  -4  -2    0.10    0.50
  -6  -4  -3    4.70    1.40
  -6  -4  -3    6.40    1.40
   6   4   3    6.40    1.60
  -6  -4  -4   27.90    3.10
   6   4   4   31.60    3.20
  -6  -4  -5    5.30    1.50
  -6  -4  -6  107.39    6.50
  -6  -4  -7   42.30    4.20
  -6  -4  -8   21.50    3.10
  -6  -4  -9   59.29    5.60
   6   5  -2    0.80    1.20
   6   5  -1    3.00    1.80
   6   5   0    2.50    1.60
   6   5   1   54.69    4.80
   6   5   2    2.30    1.20
  -6  -5  -2    1.50    1.20
  -6  -5  -2    1.90    0.80
   6   5   3    4.20    1.50
  -6  -5  -3    4.80    1.40
  -6  -5  -3    5.70    1.20
   6   5   4   17.90    2.60
  -6  -5  -4   16.30    2.40
  -6  -5  -5   39.40    3.90
   6   5   5   40.00    3.90
  -6  -5  -6   20.60    3.00
   6   5   6   24.40    3.30
  -6  -5  -7  109.99    7.10
  -6  -5  -8   48.60    4.90
  -6  -5  -9    4.60    1.90
   6   6  -2    1.00    1.60
   6   6  -1    4.10    1.60
   6   6   0    3.30    1.50
   6   6   1   73.79    5.80
  -6  -6  -2   24.50    3.20
   6   6   3    7.00    1.90
  -6  -6  -3    6.60    1.90
   6   6   4   22.60    3.00
  -6  -6  -4   19.50    2.90
   6   6   5    5.30    1.80
  -6  -6  -5    5.50    1.70
  -6  -6  -6    0.30    0.90
   6   6   6   -1.20    1.30
  -6  -6  -7   12.10    2.50
   6   6   7   14.40    2.80
  -6  -6  -8    2.80    1.70
   6   7  -1   16.10    3.00
   6   7   0    8.70    2.20
  -6  -7  -1    9.70    2.40
  -6  -7  -2   26.50    3.60
  -6  -7  -3    0.50    1.30
   6   7   4   16.60    2.70
  -6  -7  -4   16.60    2.80
  -6  -7  -5   54.49    5.00
   6   7   5   60.19    5.40
   6   7   6    5.20    2.10
  -6  -7  -6    2.90    1.40
  -6  -7  -7   42.50    4.50
   6   7   7   31.30    4.20
  -6  -7  -8   26.30    3.80
   6   7   8   34.00    4.50
  -6  -8  -2   14.80    2.80
  -6  -8  -3    4.30    1.70
   6   8   4    5.90    2.00
  -6  -8  -4    5.10    1.70
   6   8   5   -0.50    1.40
  -6  -8  -5    0.90    1.10
   6   8   6   -2.30    1.70
  -6  -8  -6    1.80    1.30
   6   8   7   -0.30    1.30
  -6  -8  -7    1.60    1.00
  -7   6   0   -1.00    1.10
  -7   5   2    4.60    2.00
  -7   5   2    0.30    1.00
  -7   5   1   10.10    2.60
  -7   5   1   12.30    2.70
   7  -5  -1    9.20    2.40
  -7   5   0   24.80    3.70
  -7   5   0   40.00    4.50
   7  -5   0   39.90    4.40
  -7   5   0   35.70    4.10
  -7   5  -1   34.20    4.40
  -7   5  -1   39.50    4.20
   7  -5   1   31.80    3.90
  -7   5  -2   30.60    3.70
  -7   5  -3   -0.90    1.00
   7  -4  -3   64.49    6.00
  -7   4   2   26.60    3.80
  -7   4   2   28.60    3.50
   7  -4  -2   26.10    3.80
  -7   4   1    7.50    2.20
  -7   4   1    6.30    1.80
   7  -4  -1    8.80    2.40
  -7   4   0   -1.20    1.90
  -7   4   0    1.20    1.30
   7  -4   0   -0.30    1.00
  -7   4  -1   66.89    5.70
  -7   4  -1   55.59    5.30
   7  -4   1   60.69    5.40
  -7   4  -1   57.09    5.00
  -7   4  -2   37.70    4.50
  -7   4  -2   47.70    4.50
  -7   4  -3   53.59    5.40
  -7   4  -3   64.19    5.00
  -7   4  -3   53.99    4.90
  -7   4  -4   46.10    5.20
  -7   4  -4   43.50    4.40
  -7   4  -4   41.60    4.40
   7  -3  -4    6.00    2.10
   7  -3  -3   17.60    3.20
  -7   3   2   31.50    3.90
  -7   3   2   28.40    3.40
   7  -3  -2   25.30    3.60
  -7   3   1   -0.40    1.20
  -7   3   1    4.30    1.60
   7  -3  -1    4.40    1.80
  -7   3   0   49.80    4.80
  -7   3   0   54.29    4.80
   7  -3   0   44.80    4.50
  -7   3  -1    5.90    2.10
  -7   3  -1    3.70    1.40
   7  -3   1    4.20    1.60
  -7   3  -1    4.40    1.50
  -7   3  -2   39.30    4.20
  -7   3  -2   39.30    4.00
  -7   3  -3   28.80    3.20
  -7   3  -3   27.10    3.80
  -7   3  -3   29.50    3.60
  -7   3  -4    0.60    1.30
  -7   3  -4    0.80    1.00
  -7   3  -4   -0.60    1.00
  -7   3  -5   25.90    3.80
  -7   3  -5   27.00    3.60
   7  -2  -4   14.20    2.70
   7  -2  -4   13.10    2.70
   7  -2  -3   11.60    2.40
   7  -2  -3   10.00    2.30
   7  -2  -2   10.80    2.40
   7  -2  -2    8.90    1.90
   7  -2  -1   68.29    5.60
   7  -2  -1   78.49    5.20
  -7   2   1   73.69    5.70
  -7   2   0    8.00    2.10
   7  -2   0    9.60    1.90
   7  -2   0    9.70    2.10
  -7   2  -1    2.40    1.60
   7  -2   1    5.70    1.60
  -7   2  -2   12.30    2.30
  -7   2  -2   15.40    1.90
  -7   2  -2    8.50    1.80
  -7   2  -2   10.80    2.10
  -7   2  -3   52.79    4.80
  -7   2  -3   55.09    4.10
  -7   2  -3   50.39    4.50
  -7   2  -4    5.90    1.80
  -7   2  -4    8.10    1.60
  -7   2  -4    9.20    2.10
  -7   2  -5   11.50    2.50
  -7   2  -5    8.80    1.90
  -7   2  -6   13.10    2.80
  -7   2  -6    8.40    2.10
  -7   2  -7   33.60    4.20
  -7   2  -7   27.00    3.70
   7  -1  -5    0.90    1.40
   7  -1  -4    4.10    1.80
   7  -1  -4    6.70    2.10
   7  -1  -3    0.60    1.00
   7  -1  -3    5.10    1.70
   7  -1  -2   94.39    6.60
   7  -1  -2   93.69    6.20
  -7   1   1    0.50    1.20
   7  -1  -1   -0.90    1.20
   7  -1  -1    0.20    1.00
  -7   1   0    6.40    1.70
   7  -1   0    9.40    1.90
   7  -1   0    4.80    1.90
  -7   1  -1   22.60    3.00
  -7   1  -2    1.20    1.10
  -7   1  -2    0.50    1.00
  -7   1  -3   28.20    3.30
  -7   1  -4    3.10    1.10
  -7   1  -4    6.80    1.90
  -7   1  -4    6.70    1.80
  -7   1  -5  139.69    7.00
  -7   1  -5  135.69    7.90
  -7   1  -5  136.09    7.90
  -7   1  -6    1.80    1.10
  -7   1  -6    2.40    1.20
  -7   1  -7   15.10    2.80
  -7   1  -7   11.30    2.40
   7   0  -4    1.10    1.40
   7   0  -4    1.70    1.10
   7   0  -3   -2.00    1.50
   7   0  -3    1.80    1.50
   7   0  -2   21.60    3.10
   7   0  -2   23.50    3.40
   7   0  -1    1.90    1.10
  -7   0   0   15.40    2.60
   7   0   0   14.20    2.30
  -7   0  -1   81.99    4.60
   7   0   1   73.29    5.10
  -7   0  -1   82.19    5.50
  -7   0  -2   82.79    5.50
  -7   0  -2   85.19    4.60
  -7   0  -2   77.99    5.30
  -7   0  -3   -0.40    1.00
  -7   0  -3   -0.10    0.50
  -7   0  -3    1.00    1.00
  -7   0  -4   12.60    1.80
  -7   0  -4   12.50    2.20
  -7   0  -5    6.10    1.40
  -7   0  -5    7.80    2.00
  -7   0  -6    2.50    1.40
  -7   0  -6    3.20    1.60
  -7   0  -7   45.70    4.40
  -7   0  -7   46.50    4.50
  -7   0  -8    1.80    1.70
   7   1  -3   29.60    3.80
   7   1  -2   27.60    3.70
   7   1  -1    1.70    1.30
   7   1   0   25.80    3.20
  -7  -1  -1   45.00    3.60
   7   1   1   41.30    3.90
  -7  -1  -1   43.10    3.90
  -7  -1  -2    2.20    1.20
  -7  -1  -2    1.80    1.00
  -7  -1  -2    0.60    0.80
  -7  -1  -3   10.70    2.10
  -7  -1  -3    6.70    1.50
  -7  -1  -3    6.50    1.60
  -7  -1  -4    0.00    0.80
  -7  -1  -4    0.80    0.80
  -7  -1  -4    1.50    1.10
  -7  -1  -5   87.29    5.30
  -7  -1  -5   89.79    6.00
  -7  -1  -6   71.29    4.90
  -7  -1  -7    1.50    1.20
  -7  -1  -7    0.70    1.00
  -7  -1  -8   22.40    3.40
   7   2  -3   10.80    2.40
   7   2  -2   20.70    3.30
   7   2  -1   46.50    4.50
   7   2   0    2.00    1.30
   7   2   1    1.10    0.90
  -7  -2  -2    5.80    1.60
  -7  -2  -2    5.10    1.40
  -7  -2  -3    4.80    1.40
  -7  -2  -3    6.70    1.50
  -7  -2  -3    3.60    1.30
  -7  -2  -4   14.80    2.10
  -7  -2  -4   10.70    1.90
  -7  -2  -4    8.90    1.90
  -7  -2  -5   26.80    2.80
  -7  -2  -5   27.00    2.90
  -7  -2  -5   24.50    3.00
  -7  -2  -6   16.90    2.50
  -7  -2  -6   21.60    2.50
  -7  -2  -7   10.30    2.10
  -7  -2  -8   25.90    3.50
  -7  -2  -9   -0.80    0.90
   7   3  -3    4.20    1.80
   7   3  -2    4.50    1.70
   7   3  -1    3.50    1.50
   7   3   0   19.20    2.90
   7   3   1   22.50    3.10
  -7  -3  -1   25.50    2.80
  -7  -3  -2   82.79    5.40
  -7  -3  -2   72.79    4.90
  -7  -3  -3    9.70    1.90
  -7  -3  -3    8.40    1.70
  -7  -3  -4    3.80    1.30
  -7  -3  -4    2.10    1.20
  -7  -3  -4    3.50    1.30
  -7  -3  -5    0.90    0.90
  -7  -3  -5    0.50    0.90
  -7  -3  -6    9.40    2.00
  -7  -3  -7   12.30    2.50
  -7  -3  -8   49.60    4.80
  -7  -3  -9   29.00    4.00
   7   4  -2    4.80    2.00
   7   4  -1    0.40    1.00
   7   4   0    0.20    1.10
   7   4   1    0.20    1.20
  -7  -4  -1    1.40    0.70
  -7  -4  -2  148.19    8.00
  -7  -4  -2  161.98    7.40
  -7  -4  -3   26.80    3.20
  -7  -4  -3   30.60    3.10
  -7  -4  -4   30.50    3.40
  -7  -4  -4   28.40    3.10
  -7  -4  -5    9.30    2.20
  -7  -4  -6    6.30    1.60
  -7  -4  -7   25.90    3.40
  -7  -4  -8   74.39    6.10
  -7  -4  -9    1.40    1.30
   7   5  -1    5.30    1.90
   7   5   0    1.10    1.80
   7   5   1   14.50    2.70
  -7  -5  -2  107.39    6.90
  -7  -5  -3  141.49    7.90
  -7  -5  -3  141.89    6.70
   7   5   3  132.39    7.00
  -7  -5  -4    2.50    1.50
   7   5   4   -0.40    1.20
  -7  -5  -5   -0.70    1.10
  -7  -5  -6    0.60    1.10
  -7  -5  -7   23.90    3.40
  -7  -5  -8    0.10    1.20
   7   6   0   10.50    2.60
  -7  -6  -1    4.10    1.80
  -7  -6  -2   82.59    6.30
  -7  -6  -3  125.99    7.90
   7   6   3  122.59    7.00
  -7  -6  -4    4.10    1.70
   7   6   4    4.40    1.70
  -7  -6  -5   11.40    2.50
   7   6   5    9.50    2.10
  -7  -6  -6    3.50    1.70
   7   6   6    3.40    1.60
  -7  -6  -7    3.40    1.60
  -7  -6  -8   47.30    5.10
  -7  -7  -2   10.10    2.50
  -7  -7  -3   36.40    4.30
   7   7   3   35.40    4.00
   7   7   4   -1.30    1.20
  -7  -7  -4   -0.70    1.30
   7   7   5    7.10    2.00
  -7  -7  -5    5.30    2.00
  -7  -7  -6    5.70    1.90
   7   7   6    4.60    1.80
  -7  -7  -7   16.80    3.10
   7   7   7   22.30    3.70
   7   8   4   15.30    2.80
   7   8   5   12.90    2.60
   7   8   6   19.60    3.50
  -8   4   1  102.39    7.30
  -8   4   0   11.90    2.80
   8  -4   0   11.30    2.70
   8  -4   1   15.50    2.90
  -8   4  -1   26.00    3.60
  -8   4  -2    5.60    1.90
  -8   3   2   33.00    4.00
  -8   3   1   -2.10    1.40
  -8   3   1    1.00    1.10
   8  -3  -1    2.80    1.80
  -8   3   0    0.30    1.30
  -8   3   0   -2.10    1.30
   8  -3   0    0.80    1.20
  -8   3  -1    5.70    2.10
  -8   3  -1    8.20    1.90
  -8   3  -2    5.40    2.00
  -8   3  -2   11.50    2.60
  -8   3  -2    6.90    2.10
  -8   3  -3   51.39    5.30
  -8   3  -3   53.29    5.20
  -8   3  -4   11.50    2.50
   8  -2  -3    4.80    1.70
   8  -2  -2   28.20    3.50
   8  -2  -2   35.80    4.50
   8  -2  -1   66.79    5.90
   8  -2  -1   69.19    5.30
  -8   2   1   75.29    6.20
  -8   2   0   18.10    3.10
   8  -2   0   21.50    3.40
  -8   2  -1    2.20    1.30
  -8   2  -1    1.30    0.90
  -8   2  -2    2.90    1.40
  -8   2  -2    6.30    2.00
  -8   2  -2    5.30    1.80
  -8   2  -3   86.89    6.60
  -8   2  -3   84.59    6.60
  -8   2  -3   89.89    6.60
  -8   2  -4   38.90    4.50
  -8   2  -4   41.70    4.00
  -8   2  -4   45.90    4.70
  -8   2  -5   14.00    2.90
  -8   2  -5   18.20    2.80
  -8   2  -5   13.30    2.70
   8  -1  -3    9.60    2.50
   8  -1  -2   47.10    5.10
   8  -1  -2   39.60    4.30
   8  -1  -1   37.40    4.00
  -8   1   0   18.50    3.10
   8  -1   0   21.20    2.90
  -8   1  -1    1.50    1.50
  -8   1  -2    9.90    2.40
  -8   1  -2   13.00    2.50
  -8   1  -3   27.30    3.60
  -8   1  -3   36.20    4.00
  -8   1  -4   37.30    4.20
  -8   1  -4   41.80    4.30
  -8   1  -5   20.90    3.20
  -8   1  -5   19.80    3.10
  -8   1  -6    0.60    1.00
   8   0  -2    4.50    1.70
   8   0  -1    8.90    2.10
   8   0   0   15.40    2.60
  -8   0  -1   62.49    5.20
  -8   0  -2    6.10    1.60
  -8   0  -2    5.40    1.70
  -8   0  -3    1.10    1.20
  -8   0  -3    0.50    1.10
  -8   0  -4   38.90    4.00
  -8   0  -4   31.90    3.80
  -8   0  -5   55.59    5.20
  -8   0  -6    0.40    1.00
  -8   0  -7    4.70    1.70
  -8   0  -7    3.00    1.30
   8   1  -2   -2.10    1.80
   8   1  -1   28.90    3.70
   8   1   0  123.59    7.70
  -8  -1  -1    3.50    1.20
   8   1   1    0.10    1.00
  -8  -1  -2   13.70    2.60
  -8  -1  -2   16.60    2.30
  -8  -1  -2    9.70    2.10
  -8  -1  -3   22.80    3.10
  -8  -1  -3   20.60    2.50
  -8  -1  -3   24.70    3.20
  -8  -1  -4    0.80    1.00
  -8  -1  -4    2.80    1.10
  -8  -1  -4    2.50    1.50
  -8  -1  -5   13.40    2.30
  -8  -1  -5   13.70    2.60
  -8  -1  -6    0.40    0.90
  -8  -1  -7   79.59    6.10
  -8  -1  -7   78.99    6.20
   8   2  -2    1.90    1.50
   8   2  -1    1.90    1.30
   8   2   0    6.60    2.00
  -8  -2  -1    4.50    1.70
   8   2   1    0.60    1.30
  -8  -2  -1    2.50    1.30
  -8  -2  -2   13.20    2.30
  -8  -2  -2   18.10    2.80
  -8  -2  -3   79.19    5.40
  -8  -2  -3   72.49    5.50
  -8  -2  -3   84.29    5.60
  -8  -2  -4   21.40    2.80
  -8  -2  -4   24.00    2.90
  -8  -2  -4   21.90    3.00
  -8  -2  -5   18.50    2.70
  -8  -2  -5   18.20    2.60
  -8  -2  -5   18.50    2.90
  -8  -2  -6    0.50    0.80
  -8  -2  -7    3.80    1.50
   8   3  -1   20.00    3.40
   8   3   0   49.10    5.00
  -8  -3  -1    1.50    1.70
   8   3   1   -0.80    1.30
  -8  -3  -1    1.40    1.10
  -8  -3  -2   54.49    4.70
  -8  -3  -2   47.60    4.30
  -8  -3  -3    2.50    1.30
  -8  -3  -3    3.30    1.40
  -8  -3  -4    2.60    1.30
  -8  -3  -4    0.00    0.90
  -8  -3  -5    0.70    1.20
  -8  -3  -5    4.10    1.60
  -8  -3  -6    3.90    1.60
  -8  -3  -7   92.39    6.60
  -8  -3  -8   25.50    3.50
   8   4   0   14.00    2.90
  -8  -4  -1    4.90    1.80
   8   4   1    4.30    1.90
  -8  -4  -1    2.30    1.20
  -8  -4  -2   17.90    2.80
  -8  -4  -2   18.40    2.60
  -8  -4  -3    4.50    1.70
  -8  -4  -3    4.90    1.50
  -8  -4  -4   11.00    2.20
  -8  -4  -4   12.60    2.30
  -8  -4  -5   -0.10    0.90
  -8  -4  -6   -0.50    1.20
  -8  -4  -7   24.20    3.40
  -8  -4  -8    1.70    1.20
  -8  -5  -1    0.90    1.50
   8   5   1   -0.90    1.10
  -8  -5  -2    7.60    2.10
  -8  -5  -3    4.10    1.60
  -8  -5  -4   24.00    3.30
  -8  -5  -5   17.60    3.00
  -8  -5  -6    0.20    1.20
  -8  -5  -7    1.50    1.00
  -8  -6  -2    4.50    1.50
  -8  -6  -3    3.30    1.60
  -8  -6  -4   26.10    3.70
  -8  -6  -5   -0.50    1.00
  -8  -6  -6   15.90    2.90
   8   7   5   54.69    5.20
   9  -1  -1   18.50    3.00
  -9   1  -1   28.80    4.00
  -9   1  -1   30.20    3.90
  -9   1  -2   -1.00    1.20
  -9   1  -2    1.80    1.20
  -9   1  -3   -1.10    1.30
  -9   1  -3   -0.70    1.40
  -9   1  -4   -0.60    1.40
   9   0  -1    2.00    1.60
   9   0   0   23.80    3.50
  -9   0  -1   74.69    6.10
  -9   0  -2    0.40    1.40
  -9   0  -2    2.80    1.50
  -9   0  -3   -0.60    1.40
  -9   0  -3    1.20    1.20
  -9   0  -4   18.80    3.20
  -9   0  -4   15.20    2.80
  -9   0  -5   70.99    6.00
  -9   0  -5   72.69    6.30
  -9   0  -6    7.50    2.20
   9   1   0   62.79    5.80
  -9  -1  -1    9.40    2.20
  -9  -1  -2   11.40    2.30
  -9  -1  -3    3.50    1.60
  -9  -1  -3    0.80    1.30
  -9  -1  -4    1.00    1.20
  -9  -1  -4    0.70    1.10
  -9  -1  -5   43.30    4.70
  -9  -1  -5   41.50    4.40
   9   2   0   -0.10    1.10
  -9  -2  -1    4.00    1.30
  -9  -2  -1    3.20    1.40
  -9  -2  -2    0.30    0.80
  -9  -2  -2    2.90    1.40
  -9  -2  -3   18.50    2.80
  -9  -2  -3   20.20    3.10
  -9  -2  -4    3.70    1.40
  -9  -2  -4    4.20    1.40
  -9  -2  -5    2.50    1.00
  -9  -3   0   10.30    2.40
  -9  -3  -1   44.60    4.60
  -9  -3  -1   46.60    4.50
  -9  -3  -2   89.39    6.40
  -9  -3  -2   81.99    6.10
  -9  -3  -3    1.80    1.00
  -9  -3  -3    1.50    1.10
  -9  -3  -4    5.50    1.70
  -9  -3  -4    1.50    1.20
  -9  -3  -5   23.80    3.30
  -9  -3  -5   16.20    2.80
  -9  -3  -6   -1.10    1.20
  -9  -3  -7    1.60    1.50
  -9  -4  -2   -0.30    1.00
  -9  -4  -2    1.60    1.10
  -9  -4  -3    4.80    1.70
  -9  -4  -3    3.40    1.50
  -9  -4  -4    7.50    1.90
  -9  -4  -4    5.10    1.70
  -9  -4  -5   33.60    4.00
  -9  -4  -6    1.10    1.00
  -9  -5  -4   35.40    4.30
  -9  -5  -5    0.50    1.10
   0   0   0    0.00    0.00

_computing_structure_solution     'SHELXT 2018/2 (Sheldrick, 2018)'
;
_shelx_hkl_checksum              59063
loop_
_space_group_symop_operation_xyz
'x, y, z'
'-x, -y, -z'
loop_
_atom_site_label
_atom_site_type_symbol
_atom_site_fract_x
_atom_site_fract_y
_atom_site_fract_z
_atom_site_U_iso_or_equiv
_atom_site_adp_type
_atom_site_occupancy
_atom_site_site_symmetry_order
_atom_site_calc_flag
_atom_site_refinement_flags_posn
_atom_site_refinement_flags_adp
_atom_site_refinement_flags_occupancy
_atom_site_disorder_assembly
_atom_site_disorder_group
O1 O 0.57443(15) 0.35429(14) 0.27635(14) 0.0185(2) Uani 1 1 d . . . . .
O2 O 0.19920(15) 0.38286(15) 0.53973(16) 0.0224(3) Uani 1 1 d . . . . .
O3 O 0.14410(15) 0.10983(15) 0.82308(15) 0.0227(3) Uani 1 1 d . . . . .
N5 N 0.26677(17) 0.22161(17) 0.66246(17) 0.0148(3) Uani 1 1 d . . . . .
N2 N 0.95734(18) 0.23884(17) 0.30499(19) 0.0182(3) Uani 1 1 d . . . . .
N6 N 0.2966(2) 0.7184(2) 0.1221(2) 0.0183(3) Uani 1 1 d . . . . .
N4 N 0.47439(17) 0.15667(17) 0.64157(17) 0.0157(3) Uani 1 1 d . . . . .
N1 N 0.81518(17) 0.16242(18) 0.47045(18) 0.0180(3) Uani 1 1 d . . . . .
N3 N 1.0978(2) 0.2958(2) 0.1685(2) 0.0256(3) Uani 1 1 d . . . . .
C1 C 0.6069(2) 0.2414(2) 0.4464(2) 0.0148(3) Uani 1 1 d . . . . .
H6A H 0.317(3) 0.593(3) 0.207(3) 0.033(5) Uiso 1 1 d . . . . .
H6B H 0.344(3) 0.724(3) -0.016(3) 0.038(5) Uiso 1 1 d . . . . .
H6C H 0.162(3) 0.772(3) 0.147(3) 0.036(5) Uiso 1 1 d . . . . .
H6D H 0.373(3) 0.807(3) 0.138(3) 0.046(6) Uiso 1 1 d . . . . .
loop_
_atom_site_aniso_label
_atom_site_aniso_U_11
_atom_site_aniso_U_22
_atom_site_aniso_U_33
_atom_site_aniso_U_23
_atom_site_aniso_U_13
_atom_site_aniso_U_12
O1 0.0183(5) 0.0202(5) 0.0151(5) -0.0046(4) -0.0058(4) 0.0025(4)
O2 0.0165(5) 0.0200(5) 0.0231(5) -0.0005(4) -0.0064(4) 0.0041(4)
O3 0.0159(5) 0.0244(5) 0.0188(5) -0.0011(4) 0.0002(4) -0.0019(4)
N5 0.0134(5) 0.0165(6) 0.0152(5) -0.0059(4) -0.0049(4) 0.0001(4)
N2 0.0171(6) 0.0183(6) 0.0199(6) -0.0065(5) -0.0078(5) 0.0020(5)
N6 0.0175(6) 0.0189(7) 0.0170(6) -0.0050(5) -0.0060(5) 0.0024(5)
N4 0.0118(5) 0.0174(6) 0.0171(6) -0.0054(5) -0.0047(5) 0.0014(4)
N1 0.0129(6) 0.0200(6) 0.0172(6) -0.0040(5) -0.0026(5) 0.0005(4)
N3 0.0194(6) 0.0312(7) 0.0228(7) -0.0070(5) -0.0019(6) -0.0047(5)
C1 0.0150(7) 0.0125(6) 0.0187(7) -0.0070(5) -0.0064(5) 0.0015(5)
loop_
_atom_type_symbol
_atom_type_description
_atom_type_scat_dispersion_real
_atom_type_scat_dispersion_imag
_atom_type_scat_source
C C 0.0033 0.0016 'International Tables Vol C Tables 4.2.6.8 and 6.1.1.4'
H H 0.0000 0.0000 'International Tables Vol C Tables 4.2.6.8 and 6.1.1.4'
N N 0.0061 0.0033 'International Tables Vol C Tables 4.2.6.8 and 6.1.1.4'
O O 0.0106 0.0060 'International Tables Vol C Tables 4.2.6.8 and 6.1.1.4'
loop_
_geom_angle_atom_site_label_1
_geom_angle_atom_site_label_2
_geom_angle_atom_site_label_3
_geom_angle
_geom_angle_site_symmetry_1
_geom_angle_site_symmetry_3
_geom_angle_publ_flag
O2 N5 O3 120.79(10) . . ?
O2 N5 N4 124.33(11) . . ?
O3 N5 N4 114.82(10) . . ?
N3 N2 N1 173.19(13) . . ?
H6A N6 H6B 110.8(17) . . ?
H6A N6 H6C 114.4(16) . . ?
H6B N6 H6C 109.4(17) . . ?
H6A N6 H6D 109.0(18) . . ?
H6B N6 H6D 107.3(17) . . ?
H6C N6 H6D 105.6(17) . . ?
N5 N4 C1 116.10(10) . . ?
N2 N1 C1 112.50(11) . . ?
O1 C1 N4 132.49(12) . . ?
O1 C1 N1 122.37(12) . . ?
N4 C1 N1 105.09(10) . . ?
loop_
_geom_bond_atom_site_label_1
_geom_bond_atom_site_label_2
_geom_bond_distance
_geom_bond_site_symmetry_2
_geom_bond_publ_flag
O1 C1 1.2232(16) . ?
O2 N5 1.2329(14) . ?
O3 N5 1.2427(14) . ?
N5 N4 1.3534(15) . ?
N2 N3 1.1196(16) . ?
N2 N1 1.2566(16) . ?
N6 H6A 0.860(19) . ?
N6 H6B 0.92(2) . ?
N6 H6C 0.90(2) . ?
N6 H6D 0.91(2) . ?
N4 C1 1.3639(17) . ?
N1 C1 1.4301(16) . ?
loop_
_geom_contact_atom_site_label_1
_geom_contact_atom_site_label_2
_geom_contact_distance
_geom_contact_site_symmetry_1
_geom_contact_site_symmetry_2
_geom_contact_publ_flag
? ? ? ? ? ?
loop_
_geom_hbond_atom_site_label_D
_geom_hbond_atom_site_label_H
_geom_hbond_atom_site_label_A
_geom_hbond_distance_DH
_geom_hbond_distance_HA
_geom_hbond_distance_DA
_geom_hbond_angle_DHA
_geom_hbond_site_symmetry_A
N6 H6A O1 0.860(19) 2.186(19) 2.8975(15) 140.0(16) .
loop_
_geom_torsion_atom_site_label_1
_geom_torsion_atom_site_label_2
_geom_torsion_atom_site_label_3
_geom_torsion_atom_site_label_4
_geom_torsion
_geom_torsion_site_symmetry_1
_geom_torsion_site_symmetry_2
_geom_torsion_site_symmetry_3
_geom_torsion_site_symmetry_4
_geom_torsion_publ_flag
O2 N5 N4 C1 -18.63(19) . . . . ?
O3 N5 N4 C1 164.26(12) . . . . ?
N5 N4 C1 O1 -7.2(2) . . . . ?
N5 N4 C1 N1 175.32(11) . . . . ?
N2 N1 C1 O1 6.69(19) . . . . ?
N2 N1 C1 N4 -175.52(11) . . . . ?
