#------------------------------------------------------------------------------
#$Date: 2021-02-04 02:43:47 +0200 (Thu, 04 Feb 2021) $
#$Revision: 261459 $
#$URL: file:///home/coder/svn-repositories/cod/cif/4/13/55/4135585.cif $
#------------------------------------------------------------------------------
#
# This file is available in the Crystallography Open Database (COD),
# http://www.crystallography.net/
#
# All data on this site have been placed in the public domain by the
# contributors.
#
data_4135585
loop_
_publ_author_name
'Merzlyakova, Elena'
'Wolf, Silke'
'Lebedkin, Sergei'
'Bayarjargal, Lkhamsuren'
'Neumeier, B. Lilli'
'Bartenbach, Daniel'
'Holzer, Christof'
'Klopper, Wim'
'Winkler, Bjoern'
'Kappes, Manfred'
'Feldmann, Claus'
_publ_contact_author
;
      Prof. Dr. Clas Feldmann
      Karlsruhe Institute of Technology (KIT), CS
      Institut fuer Anorganische Chemie (AOC)
      Engesserstr. 15, Geb. 30.45
      76131 Karlsruhe 
      Deutschland
;
_publ_section_title
;
 18-Crown-6 Coordinated Metal Halides with Bright Luminescence and
 Nonlinear Optical Effects.
;
_journal_issue                   2
_journal_name_full               'Journal of the American Chemical Society'
_journal_page_first              798
_journal_page_last               804
_journal_paper_doi               10.1021/jacs.0c09454
_journal_volume                  143
_journal_year                    2021
_chemical_formula_moiety         'C12 Eu O6, 2(I)'
_chemical_formula_sum            'C12 H24 Eu I2 O6'
_chemical_formula_weight         645.88
_space_group_crystal_system      monoclinic
_space_group_IT_number           12
_space_group_name_Hall           '-C 2y'
_space_group_name_H-M_alt        'C 1 2/m 1'
_audit_creation_date             2020-03-23
_audit_creation_method
;
Olex2 1.3
(compiled 2020.02.04 svn.rd84adfe8 for OlexSys, GUI svn.r6032)
;
_cell_angle_alpha                90
_cell_angle_beta                 120.34(3)
_cell_angle_gamma                90
_cell_formula_units_Z            2
_cell_length_a                   12.962(3)
_cell_length_b                   10.883(2)
_cell_length_c                   8.0284(16)
_cell_measurement_reflns_used    3023
_cell_measurement_temperature    200(2)
_cell_measurement_theta_max      29.2
_cell_measurement_theta_min      1.15
_cell_volume                     977.4(5)
_computing_cell_refinement       'CELL, SELECT (STOE)'
_computing_data_collection       'EXPOSE (STOE)'
_computing_data_reduction        'INTEGRATE (STOE)'
_computing_molecular_graphics    'Olex2 1.3 (Dolomanov et al., 2009)'
_computing_publication_material  'Olex2 1.3 (Dolomanov et al., 2009)'
_computing_structure_refinement  'SHELXL 2018/3 (Sheldrick, 2015)'
_computing_structure_solution    'SHELXS 2018/3 (Sheldrick, 2015)'
_diffrn_ambient_temperature      200(2)
_diffrn_measured_fraction_theta_full 1.000
_diffrn_measured_fraction_theta_max 0.990
_diffrn_measurement_device_type  'STOE IPDS II'
_diffrn_measurement_method       'image plate'
_diffrn_radiation_type           MoK\a
_diffrn_radiation_wavelength     0.71073
_diffrn_reflns_av_R_equivalents  0.0908
_diffrn_reflns_av_unetI/netI     0.0841
_diffrn_reflns_Laue_measured_fraction_full 1.000
_diffrn_reflns_Laue_measured_fraction_max 0.990
_diffrn_reflns_limit_h_max       17
_diffrn_reflns_limit_h_min       -17
_diffrn_reflns_limit_k_max       14
_diffrn_reflns_limit_k_min       -14
_diffrn_reflns_limit_l_max       9
_diffrn_reflns_limit_l_min       -10
_diffrn_reflns_number            4663
_diffrn_reflns_point_group_measured_fraction_full 1.000
_diffrn_reflns_point_group_measured_fraction_max 0.990
_diffrn_reflns_theta_full        25.242
_diffrn_reflns_theta_max         29.213
_diffrn_reflns_theta_min         2.611
_diffrn_source                   'fine-focus sealed tube'
_exptl_absorpt_coefficient_mu    6.383
_exptl_absorpt_correction_T_max  0.809
_exptl_absorpt_correction_T_min  0.619
_exptl_absorpt_correction_type   numerical
_exptl_absorpt_process_details
'(X-RED, Data Reduction Program, Version 1.61.1, Stoe & Cie GmbH, Darmstadt 2014.; X-SHAPE, Crystal Optimisation for Numerical Absorption Correction, Version 2.17, Stoe & Cie GmbH, Darmstadt 2014.)'
_exptl_crystal_colour            colorless
_exptl_crystal_density_diffrn    2.195
_exptl_crystal_description       block
_exptl_crystal_F_000             578
_exptl_crystal_size_max          0.03
_exptl_crystal_size_mid          0.025
_exptl_crystal_size_min          0.02
_refine_diff_density_max         2.206
_refine_diff_density_min         -1.692
_refine_diff_density_rms         0.231
_refine_ls_extinction_method     none
_refine_ls_goodness_of_fit_ref   0.978
_refine_ls_hydrogen_treatment    undef
_refine_ls_matrix_type           full
_refine_ls_number_parameters     80
_refine_ls_number_reflns         1389
_refine_ls_number_restraints     0
_refine_ls_restrained_S_all      0.978
_refine_ls_R_factor_all          0.0940
_refine_ls_R_factor_gt           0.0424
_refine_ls_shift/su_max          0.000
_refine_ls_shift/su_mean         0.000
_refine_ls_structure_factor_coef Fsqd
_refine_ls_weighting_details
'w=1/[\s^2^(Fo^2^)+(0.0397P)^2^] where P=(Fo^2^+2Fc^2^)/3'
_refine_ls_weighting_scheme      calc
_refine_ls_wR_factor_gt          0.0803
_refine_ls_wR_factor_ref         0.0948
_reflns_Friedel_coverage         0.000
_reflns_number_gt                837
_reflns_number_total             1389
_reflns_threshold_expression     'I > 2\s(I)'
_cod_data_source_file            ja0c09454_si_011.cif
_cod_data_source_block           EuI2(18-crown-6)
_cod_original_cell_volume        977.4(4)
_cod_database_code               4135585
_shelx_shelxl_version_number     2018/3
_shelx_space_group_comment
;
The symmetry employed for this shelxl refinement is uniquely defined
by the following loop, which should always be used as a source of
symmetry information in preference to the above space-group names.
They are only intended as comments.
;
_olex2_refinement_description
;
1. Others
 Fixed Sof: O1(0.5) O2(0.5) O3(0.5) C1(0.5) C2(0.5) C4(0.5)
;
_shelx_res_file
;
TITL C2M OLEX2: imported from CIF
    c2m.res
    created by SHELXL-2018/3 at 14:58:36 on 23-Mar-2020
CELL 0.71073 12.962 10.883 8.0284 90 120.34 90
ZERR 2 0.003 0.002 0.0016 0 0.03 0
LATT 7
SYMM -X,+Y,-Z
SFAC C Eu I O
DISP C 0.0033 0.0016
DISP Eu -0.1578 3.6682
DISP I -0.4742 1.8119
DISP O 0.0106 0.006
UNIT 24 2 4 12
EQIV $1 +X,-Y,+Z
EQIV $2 0.5-X,-0.5+Y,-Z
EQIV $3 -0.5+X,0.5+Y,+Z
EQIV $4 -X,+Y,-Z
EQIV $5 0.5-X,0.5+Y,-Z

L.S. 10
PLAN  1
TEMP 20(2)
CONF
FREE O1 O1_$1
FREE O1 C1_$5
FREE O2 O1_$2
FREE O2 C2
FREE C4 C4_$4
FREE C2 C1
FREE O3 O2_$3
FREE O3 O3_$4
FREE O3 C4
fmap 2 53
MORE -1
ACTA
REM <olex2.extras>
REM <HklSrc "%.\\EuI2_18c6.hkl">
REM </olex2.extras>

WGHT    0.039700
FVAR       0.08158
EU1   2    0.000000    0.000000    0.000000    10.25000    0.02340    0.02061 =
         0.02650    0.00000    0.01359    0.00000
O1    4    0.097486    0.078951   -0.212578    10.50000    0.02565    0.02404 =
         0.03592   -0.00282    0.01388   -0.00962
O2    4    0.422562   -0.330955    0.161766    10.50000    0.02830    0.02515 =
         0.03433    0.00583    0.01682    0.00395
O3    4   -0.043941    0.242875    0.011420    10.50000    0.03838    0.02620 =
         0.03640   -0.00697    0.02018    0.00055
C1    1    0.382400   -0.369554    0.293340    10.50000    0.07373    0.03364 =
         0.03703   -0.01239    0.03697   -0.01938
C2    1    0.358439   -0.297787    0.187497    10.50000    0.03361    0.03663 =
         0.04500   -0.00148    0.01623    0.00103
C3    1    0.180571    0.000000   -0.214696    10.50000    0.04819    0.04518 =
         0.05016    0.00000    0.04274    0.00000
C4    1   -0.001761    0.331227    0.062272    10.50000    0.04759    0.02570 =
         0.06787    0.01019    0.04165    0.00830
C5    1   -0.025128    0.279484    0.206250    11.00000    0.11361    0.02819 =
         0.09383   -0.01464    0.08019   -0.01477
I1    3    0.267247    0.000000    0.370351    10.50000    0.02971    0.03995 =
         0.03038    0.00000    0.01376    0.00000
HKLF 4




REM  C2M OLEX2: imported from CIF
REM wR2 = 0.0948, GooF = S = 0.978, Restrained GooF = 0.978 for all data
REM R1 = 0.0424 for 837 Fo > 4sig(Fo) and 0.0940 for all 1389 data
REM 80 parameters refined using 0 restraints

END

WGHT      0.0397      0.0000

REM Highest difference peak  2.206,  deepest hole -1.692,  1-sigma level  0.231
Q1    1  -0.0701  0.0000 -0.1283  10.50000  0.05    2.21
;
_shelx_res_checksum              56508
_shelx_hkl_file
;
  -2   0   2  112.89    5.57
   2   0  -2  108.64    5.71
  -4   0   4   -2.54    4.24
   4   0  -4    3.06    4.36
   6   0  -6    2.47    3.37
   6   0  -6    9.64    3.45
   8   0  -8   36.83    3.80
   8   0  -8   27.91    3.29
  10   0 -10   26.69    4.18
  10   0 -10   17.22    3.70
   1  -1  -1  307.66    6.19
  -1   1   1  326.86    6.25
   1   1  -1  285.83    7.11
   2   1  -2    5.18    6.13
  -2   1   2    4.50    5.99
   2   1  -2    1.21    6.04
   2  -1  -2   14.93    6.17
   3   1  -3   23.04    4.42
   3  -1  -3   25.01    4.07
  -3   1   3   22.35    4.56
   4  -1  -4    5.86    3.75
  -4   1   4    3.49    3.68
   4   1  -4    8.91    4.27
   4   1  -4    5.92    3.73
   5   1  -5    4.81    3.99
  -5   1   5    3.41    3.79
   5  -1  -5    4.43    3.39
   5   1  -5    1.50    3.41
   6  -1  -6   -2.13    3.44
   6   1  -6   -8.07    4.06
   6   1  -6    0.69    3.45
   7   1  -7   10.58    3.92
   7  -1  -7   11.68    3.30
   7   1  -7   13.56    3.45
   7  -1  -7   14.01    3.82
   8   1  -8   -5.10    3.81
   8   1  -8    2.67    3.22
   8  -1  -8   -1.50    3.77
   8  -1  -8    0.02    3.34
   9   1  -9   31.77    3.92
   9  -1  -9   27.68    3.88
   9  -1  -9   37.45    3.42
   9   1  -9   26.23    3.89
  10  -1 -10   -5.56    4.18
  10   1 -10   -0.88    4.19
  10  -1 -10   -1.89    4.18
  10   1 -10   -3.49    4.25
   0   2   0  381.09    8.21
   0  -2   0  364.95    8.63
   1   2  -1    5.23    8.24
   1  -2  -1    8.95    6.52
  -1   2   1   15.38    6.56
  -1  -2   1    5.10    7.59
   2   2  -2  175.47    6.27
   2  -2  -2  195.97    5.04
   2   2  -2  202.41    6.20
  -2   2   2  200.35    5.06
   3  -2  -3    1.21    4.06
  -3   2   3   -0.21    4.67
   3   2  -3    0.21    4.68
   3   2  -3    2.30    4.13
   4   2  -4   22.54    4.29
  -4   2   4   28.08    3.62
   4  -2  -4   24.18    3.65
   4   2  -4   19.50    4.19
   5   2  -5    4.65    4.08
   5  -2  -5    0.21    3.45
  -5   2   5   -3.00    3.38
   5   2  -5    2.77    4.20
   6   2  -6   -0.64    4.07
   6   2  -6    2.36    3.97
  -6   2   6   -0.58    3.32
   6  -2  -6   -3.12    3.47
   7   2  -7   -3.48    3.73
   7  -2  -7    3.42    3.22
   7   2  -7   -0.06    3.71
   8   2  -8   26.07    3.78
   8  -2  -8   27.45    3.33
   8   2  -8   35.66    3.84
   8  -2  -8   34.54    3.36
   9   2  -9    1.85    3.31
   9  -2  -9    1.78    3.91
   9  -2  -9   -4.81    3.94
   9   2  -9   -1.02    3.83
  10  -2 -10   24.69    3.73
  10   2 -10   28.67    4.30
  10  -2 -10   31.64    3.78
  10   2 -10   27.62    3.82
  -1  -3   1  385.74    8.49
   1   3  -1  415.70    8.51
   1  -3  -1  484.73    6.32
  -1   3   1  484.94    6.42
   2   3  -2   -1.70    5.23
  -2  -3   2    1.50    5.20
  -2   3   2   -1.95    3.97
   2  -3  -2    5.38    4.67
  -3   3   3   12.18    3.95
   3   3  -3   10.31    4.19
   3   3  -3   12.01    4.70
   3  -3  -3   12.18    3.90
   4   3  -4   -6.19    4.14
   4  -3  -4   -3.34    3.55
   4   3  -4   -0.75    4.70
  -4   3   4   -2.36    3.50
   5   3  -5    7.50    4.06
   5  -3  -5    7.30    3.97
   5   3  -5    2.75    4.18
  -5   3   5    7.27    3.38
   6   3  -6   -0.51    3.92
  -6   3   6    0.60    3.85
   6   3  -6   -6.01    4.06
   6  -3  -6    0.24    3.93
   7   3  -7    3.65    3.67
   7   3  -7    5.62    3.76
   7  -3  -7    4.01    3.22
   8  -3  -8    1.28    3.32
   8   3  -8   -2.92    3.68
   8   3  -8    2.92    3.84
   9  -3  -9   32.08    3.54
   9   3  -9   25.26    4.08
   9   3  -9   32.53    3.90
   9  -3  -9   25.27    3.53
  10  -3 -10   -3.81    3.77
  10   3 -10   -3.86    4.22
  10  -3 -10    3.51    4.24
  10   3 -10    1.24    3.73
   0  -4   0  527.70    6.44
   0   4   0  553.43    6.72
   1   4  -1   -1.59    5.85
   1  -4  -1   -1.69    4.20
  -1   4   1   -1.29    4.39
  -1  -4   1   -0.87    5.83
   2   4  -2  102.23    5.87
  -2  -4   2   98.37    5.74
   2  -4  -2  124.25    4.51
  -2   4   2  123.69    4.62
   3   4  -3   12.49    4.80
   3  -4  -3   10.01    3.67
   3   4  -3   13.67    4.82
  -3   4   3   14.81    4.32
  -4   4   4    0.51    3.40
   4   4  -4   -2.89    4.62
   4  -4  -4    1.67    3.92
   4   4  -4   -0.99    4.52
   5  -4  -5   -0.79    3.45
  -5   4   5   -2.24    3.92
   5   4  -5    2.50    4.59
   5   4  -5    1.19    4.46
   6   4  -6    4.75    3.91
  -6   4   6  -10.82    3.33
   6   4  -6   -1.70    4.51
   6  -4  -6   10.16    3.83
   7   4  -7    1.59    3.64
   7  -4  -7    6.15    3.20
  -7   4   7    2.88    3.19
   7   4  -7   -3.43    3.66
   8   4  -8   19.24    3.92
   8  -4  -8   34.86    3.80
   8   4  -8   18.83    3.85
   9  -4  -9   -1.83    3.53
   9   4  -9   -0.18    4.13
   9  -4  -9   -0.75    3.52
   9   4  -9    4.65    4.19
  10  -4 -10   20.49    3.89
  10  -4 -10   13.36    4.45
  10   4 -10   10.19    4.49
  10   4 -10   13.23    4.43
   1   5  -1  254.06    6.66
   1  -5  -1  253.83    4.95
  -1   5   1  246.21    5.22
  -1  -5   1  214.00    6.47
  -2   5   2    0.42    3.75
  -2  -5   2   -0.72    5.93
   2   5  -2    1.76    6.00
   2  -5  -2    2.26    4.17
   3   5  -3   15.44    4.84
  -3   5   3   11.57    3.96
   3  -5  -3   12.97    3.43
   4  -5  -4   -4.55    3.88
  -4   5   4    1.95    3.90
   4   5  -4    0.78    4.88
   4   5  -4    1.59    4.40
   5   5  -5    0.39    4.45
  -5   5   5    3.50    3.88
   5  -5  -5    1.10    3.94
   5   5  -5    3.96    4.58
  -6   5   6    3.72    3.72
   6   5  -6    0.48    3.83
   6   5  -6   -0.58    4.11
   6  -5  -6   -2.32    3.22
   7   5  -7   12.56    4.14
   7   5  -7    2.35    3.68
   7  -5  -7    3.39    3.68
  -7   5   7   11.70    3.19
   8   5  -8   -2.73    3.93
   8  -5  -8    1.18    3.32
   8   5  -8    0.51    3.86
   9   5  -9   27.74    4.25
   9  -5  -9   15.69    3.62
   9   5  -9   27.49    4.23
   9  -5  -9   23.68    4.19
  10   5 -10    0.99    4.68
  10  -5 -10    0.14    4.63
  10  -5 -10   -7.07    4.57
  10   5 -10   -7.07    4.52
   0  -6   0  267.43    5.46
   0   6   0  276.31    5.83
  -1   6   1   -4.23    4.83
  -1  -6   1   -2.16    5.58
   1   6  -1   -1.54    5.74
   1  -6  -1    0.79    4.49
   2   6  -2   82.45    5.92
   2  -6  -2   87.50    4.64
  -2   6   2   82.75    4.33
  -2  -6   2   67.51    5.95
   3  -6  -3    1.86    3.55
  -3   6   3   -0.40    4.19
   3   6  -3   -0.49    5.17
  -4   6   4    8.05    4.00
   4   6  -4   -0.97    4.80
   4  -6  -4    0.57    3.42
   4   6  -4   -1.69    5.09
   5  -6  -5    1.07    3.98
   5   6  -5    0.37    4.45
  -5   6   5    3.60    3.48
   5   6  -5    2.91    4.76
   6   6  -6    1.29    4.09
   6  -6  -6    0.81    3.31
  -6   6   6    0.75    3.26
   6   6  -6   -0.57    4.18
   7  -6  -7   -7.65    3.79
  -7   6   7    1.34    3.83
   7   6  -7   -2.27    3.77
   7   6  -7    4.19    4.33
   8   6  -8   20.68    4.45
   8  -6  -8   18.81    3.99
   8   6  -8   25.47    4.53
   9   6  -9   -5.14    4.70
   9  -6  -9   -4.11    3.77
   9   6  -9    0.86    4.37
   9  -6  -9    2.59    4.21
   1  -7  -1  148.85    4.19
   1   7  -1  151.15    5.98
  -1   7   1  153.23    4.87
  -1  -7   1  129.40    5.98
  -2  -7   2    1.22    5.90
   2   7  -2    3.53    6.04
   2  -7  -2    5.47    4.00
  -2   7   2    8.85    4.17
  -3   7   3    1.68    4.12
   3  -7  -3    4.00    3.95
   3   7  -3    0.76    5.39
  -4   7   4    6.19    4.02
   4   7  -4    3.21    5.11
   4   7  -4    4.00    5.34
   4  -7  -4   13.59    3.97
   5  -7  -5   -0.77    3.81
   5   7  -5   -0.96    4.94
  -5   7   5   -9.27    3.86
   5   7  -5   -3.73    4.92
   6   7  -6   -0.92    4.31
   6  -7  -6    6.20    3.73
  -6   7   6   -2.19    3.26
   6   7  -6   -4.33    4.54
  -7   7   7    4.31    3.82
   7   7  -7    4.04    4.35
   7  -7  -7   12.73    3.70
   7   7  -7    3.95    4.34
   8   7  -8    0.28    4.61
   8   7  -8    3.12    4.53
   8  -7  -8   -3.17    3.47
   9  -7  -9   21.24    4.38
   9   7  -9   19.88    5.01
   9   7  -9   13.03    4.95
   9  -7  -9    1.10    4.33
   0  -8   0  152.81    5.33
   0   8   0  163.59    5.68
  -1  -8   1    0.88    5.80
   1   8  -1    7.76    5.73
   1  -8  -1    3.88    4.36
  -1   8   1    3.15    4.65
   2  -8  -2   74.00    4.06
  -2  -8   2   63.03    6.28
  -2   8   2   72.98    4.22
   2   8  -2   72.96    6.23
  -3   8   3    5.38    4.02
   3  -8  -3   -1.13    3.89
   3   8  -3    1.64    5.80
  -4   8   4   -1.94    3.77
   4  -8  -4    1.96    3.70
   4   8  -4   -2.49    5.20
   4   8  -4   -1.75    5.45
   5  -8  -5    2.46    3.73
   5   8  -5   -3.59    5.12
   5   8  -5    2.44    4.91
  -5   8   5    0.63    3.27
   6   8  -6   -0.46    5.08
   6   8  -6    1.17    4.99
   6  -8  -6    4.05    3.20
  -6   8   6    3.71    3.75
   7   8  -7    0.68    4.78
   7   8  -7   -0.67    4.86
   7  -8  -7    1.54    3.31
  -7   8   7    1.66    3.81
   8   8  -8   10.73    5.15
   8   8  -8   10.84    4.88
   8  -8  -8   14.11    3.67
   9  -8  -9   -1.73    4.01
   9   8  -9   -2.13    5.07
   9  -8  -9   -0.65    4.59
   9   8  -9    1.09    5.29
   1   9  -1   91.21    6.07
  -1  -9   1   80.13    5.91
  -1   9   1   93.02    5.13
   1  -9  -1   93.13    4.82
   2   9  -2    1.14    6.55
  -2   9   2    1.09    3.92
   2  -9  -2    4.37    4.17
  -2  -9   2   -0.32    6.55
   3  -9  -3    8.30    3.67
  -3   9   3    2.98    4.17
   3   9  -3   11.80    6.57
   4  -9  -4    2.46    3.61
   4   9  -4    0.39    5.88
   4   9  -4   -0.13    6.04
  -4   9   4   -3.48    3.71
   5   9  -5   -1.09    5.66
  -5   9   5   -0.95    3.32
   5   9  -5    0.18    5.94
   5  -9  -5    4.58    3.72
   6   9  -6    2.01    5.68
   6   9  -6   -0.20    5.32
  -6   9   6    1.75    3.31
   6  -9  -6   -1.50    3.28
  -7   9   7    0.25    4.12
   7  -9  -7    1.95    4.04
   7   9  -7    3.42    5.39
   7   9  -7    2.17    5.43
   8  -9  -8    7.91    4.40
   8   9  -8    1.96    5.50
   8   9  -8   -3.12    5.42
   0 -10   0   75.99    4.98
   0  10   0   82.18    5.07
   1  10  -1    1.10    5.86
   1 -10  -1   -4.12    4.49
  -1  10   1   -0.73    4.67
  -1 -10   1    3.40    5.78
  -2 -10   2   19.61    7.26
   2  10  -2   26.51    7.29
  -2  10   2   25.32    4.20
   2 -10  -2   26.26    4.06
  -3  10   3    5.50    4.16
   3 -10  -3    5.54    3.63
   4 -10  -4    1.05    3.75
  -4  10   4   -0.58    3.84
   5 -10  -5   -3.72    3.81
   5  10  -5   -2.44    7.05
  -5  10   5    0.47    3.85
   5  10  -5   -0.74    6.77
   6  10  -6    2.18    6.56
   6  10  -6    1.68    6.41
  -6  10   6    3.49    4.02
   6 -10  -6    4.80    3.98
   7 -10  -7    3.13    4.16
   7  10  -7    2.60    6.69
   7  10  -7   -0.43    6.52
   8 -10  -8    8.74    4.55
   8  10  -8    6.64    6.77
   1  11  -1   40.89    5.98
  -1 -11   1   38.86    6.12
   1 -11  -1   39.74    4.59
  -1  11   1   39.55    4.77
  -2  11   2    2.70    4.34
   2 -11  -2   -3.07    4.50
  -3  11   3    0.74    3.88
   3 -11  -3    4.43    3.77
   4 -11  -4   -2.84    3.84
  -4  11   4   -0.13    3.95
   5 -11  -5   -0.65    3.92
  -5  11   5   -2.61    3.98
   6 -11  -6    4.28    4.20
  -6  11   6   -4.83    4.30
   7 -11  -7   -2.99    4.58
   0 -12   0   49.37    5.80
   0  12   0   51.84    5.53
  -1  12   1    0.29    5.11
   1  12  -1   -0.87    6.98
  -1 -12   1   -2.82    7.22
   1 -12  -1   -1.39    5.01
   2 -12  -2   16.93    4.27
  -2  12   2   13.04    4.44
  -3  12   3    0.38    4.39
   3 -12  -3    1.37    4.40
   4 -12  -4    2.91    4.40
  -4  12   4   -5.63    4.17
  -5  12   5    1.68    4.35
   5 -12  -5   -1.32    4.32
   6 -12  -6   -5.03    4.43
   1 -13  -1   24.43    5.47
  -1  13   1   23.66    5.47
  -2  13   2   -2.49    5.18
   2 -13  -2    4.63    4.94
   3 -13  -3    4.30    4.74
  -3  13   3    3.63    4.72
  -4  13   4    4.37    4.87
   4 -13  -4    0.19    4.92
   5 -13  -5    0.32    5.13
   0 -14   0   16.01    8.34
   1 -14  -1   -2.25    5.89
   2 -14  -2    6.11    5.87
   3 -14  -3   -1.86    5.15
   8   0  -9   17.88    3.79
   8   0  -9    9.99    3.68
   6   0  -7   81.61    3.44
   6   0  -7   85.70    3.97
   4   0  -5   66.02    3.42
   4   0  -5   70.98    3.51
   2   0  -3   -4.84    4.50
   2   0  -3   -3.65    4.50
   0   0  -1   40.62    6.12
   0   0   1   39.85    6.15
   2   0  -1  181.65    6.64
  -2   0   1  188.86    6.66
  -4   0   3  506.21    5.23
   4   0  -3  497.80    5.26
   6   0  -5   36.67    4.01
  -6   0   5   32.15    3.43
   8   0  -7    2.28    3.38
  10   0  -9   -3.63    3.92
  10   0  -9   -3.94    3.38
   9  -1 -10   -3.63    4.23
   9  -1 -10   -1.36    3.59
   9   1 -10    0.50    3.68
   9   1 -10    3.41    3.65
   8  -1  -9   -0.44    3.34
   8   1  -9   -1.21    3.88
   8  -1  -9    0.38    3.38
   8   1  -9    1.75    3.83
   7  -1  -8   61.75    3.40
   7  -1  -8   53.37    3.37
   7   1  -8   48.53    3.82
   7   1  -8   61.19    3.78
   6   1  -7   -1.08    3.95
   6  -1  -7    2.19    3.26
   6  -1  -7   -1.00    3.27
   6   1  -7   -2.70    3.94
   5  -1  -6  118.61    4.09
   5   1  -6  117.88    4.12
   5   1  -6  107.39    4.03
   5  -1  -6  103.32    3.54
   4  -1  -5   -7.00    3.39
   4   1  -5   -1.00    3.39
   4   1  -5   -5.77    3.88
   4  -1  -5   -0.87    3.34
   3  -1  -4    5.17    3.75
   3   1  -4    7.51    3.70
   3   1  -4    1.37    4.28
   2  -1  -3   -2.35    4.59
   2   1  -3   -0.42    3.85
   2   1  -3   -5.37    3.87
   1  -1  -2  107.53    6.07
  -1  -1   2   94.47    6.13
   1   1  -2   93.51    6.03
   0  -1   1    2.19    5.97
   0  -1  -1   -0.03    6.03
   0   1  -1   -2.24    6.05
   1  -1   0  136.89    6.38
  -1   1   0  136.18    5.67
   1   1   0  118.77    8.66
  -1  -1   0  121.71    8.45
  -2  -1   1   -5.90    7.77
  -2   1   1   -4.22    5.42
   2   1  -1   -3.87    7.05
   2  -1  -1   -4.38    5.32
  -3  -1   2  579.18    6.78
   3  -1  -2  571.09    6.56
   3   1  -2  566.52    6.78
  -3   1   2  578.06    5.90
   4   1  -3    2.97    4.30
   4  -1  -3   -0.13    3.91
  -4  -1   3    2.11    4.21
  -4   1   3   -1.04    4.47
  -5   1   4  166.36    3.87
   5   1  -4  169.67    4.45
  -5  -1   4  172.91    4.37
   5  -1  -4  158.72    3.88
   6  -1  -5    0.35    3.39
   6   1  -5    5.16    4.12
  -6   1   5    1.54    3.35
  -6  -1   5    5.03    3.98
   7  -1  -6    2.36    3.47
   7   1  -6   -4.91    4.13
  -7   1   6   -0.76    3.40
   8   1  -7   -3.90    3.87
   8  -1  -7   -6.93    3.81
  -8   1   7    3.07    3.22
   8   1  -7   -3.27    3.84
   9   1  -8    0.36    3.77
   9   1  -8    1.82    3.30
   9  -1  -8    5.78    3.78
  10   1  -9   -5.32    3.33
  10  -1  -9    2.34    3.80
  10   1  -9   -0.47    3.79
  10  -1  -9   -3.97    3.83
  11  -1 -10    4.32    4.36
  11  -1 -10    3.28    3.81
  11   1 -10    9.99    4.33
  11   1 -10    8.72    3.81
   9   2 -10    0.85    4.28
   9  -2 -10    6.84    3.68
   9   2 -10    2.89    3.72
   9  -2 -10   -3.38    3.71
   8  -2  -9    7.78    3.52
   8   2  -9   12.29    3.32
   8   2  -9   11.89    3.89
   8  -2  -9   18.68    3.46
   7  -2  -8    6.28    3.69
   7   2  -8    2.48    3.24
   7   2  -8   -1.79    3.80
   7  -2  -8    6.78    3.31
   6   2  -7  104.07    3.91
   6   2  -7  114.00    3.48
   6  -2  -7  118.16    3.43
   6  -2  -7  103.71    3.37
   5  -2  -6    5.81    3.94
   5   2  -6    2.60    4.08
   5  -2  -6    8.03    3.86
   5   2  -6    0.18    3.44
   4   2  -5   35.53    3.48
   4   2  -5   48.35    4.09
   4  -2  -5   40.56    3.46
   3  -2  -4   16.24    3.65
   3   2  -4    9.64    4.13
   3   2  -4   11.23    4.12
   2  -2  -3    7.22    4.00
  -2   2   3   10.52    3.97
   2   2  -3    2.02    4.16
   1   2  -2   -1.65    5.00
  -1  -2   2   -5.65    4.91
  -1   2   2   -3.56    5.18
   1  -2  -2   -3.63    5.18
   0  -2  -1   40.64    6.54
   0   2  -1   36.12    6.98
   0  -2   1   36.48    6.19
   0   2   1   44.56    6.41
   1  -2   0    0.82    5.99
  -1  -2   0   -1.95    9.80
  -1  -2   0   -1.90   10.15
  -1   2   0    0.33    6.11
   2   2  -1  217.32   11.17
   2  -2  -1  232.71    6.55
  -2   2   1  223.21    5.88
  -3  -2   2   -3.51    5.28
   3   2  -2   -6.04    6.01
  -3   2   2   -2.88    4.45
   3  -2  -2   -6.59    4.43
  -4   2   3  339.41    5.02
  -4  -2   3  344.95    4.73
   4   2  -3  333.51    4.82
   4  -2  -3  337.43    4.37
   5   2  -4    5.46    4.70
   5  -2  -4    8.59    3.58
  -5   2   4    6.92    3.63
   6  -2  -5   43.01    3.97
  -6   2   5   43.40    3.98
   6   2  -5   42.38    4.17
   7   2  -6    1.82    3.97
   7  -2  -6    3.12    3.42
   7   2  -6   -0.57    4.08
  -7   2   6    1.25    3.38
  -8   2   7   -0.03    3.23
   8  -2  -7    1.81    3.77
   8   2  -7    3.46    3.79
   8   2  -7   -3.83    3.67
   9   2  -8    3.04    3.79
   9  -2  -8   -0.50    3.33
   9   2  -8    0.40    3.80
  10   2  -9    3.53    3.97
  10  -2  -9    0.40    3.43
  10  -2  -9    1.70    3.43
  10   2  -9   -1.65    3.94
  11  -2 -10    3.27    4.38
  11   2 -10    3.88    3.80
  11   2 -10   -5.29    4.36
  11  -2 -10   -4.88    4.22
   9   3 -10    1.27    4.34
   9  -3 -10    6.17    3.82
   9   3 -10    5.80    3.81
   9  -3 -10    5.46    4.20
   8  -3  -9    3.52    3.51
   8  -3  -9    0.63    3.50
   8   3  -9   -2.30    3.93
   8   3  -9    1.28    3.89
   7  -3  -8   40.79    3.29
   7  -3  -8   49.14    3.79
   7   3  -8   50.32    3.85
   7   3  -8   50.71    3.88
   6  -3  -7   -5.21    3.25
   6   3  -7   -0.66    3.31
   6  -3  -7    3.28    3.22
   6   3  -7    4.56    3.64
   5  -3  -6  111.14    3.59
   5   3  -6  110.98    4.08
   5   3  -6   96.92    4.03
   4  -3  -5    6.00    3.90
   4   3  -5   -1.21    4.05
   4   3  -5    2.54    4.01
   3   3  -4   -0.28    4.07
   3   3  -4   -1.24    4.06
   3  -3  -4    2.26    3.55
  -3   3   4   -0.01    3.50
   2   3  -3    6.96    4.08
  -2   3   3   11.63    4.42
   2  -3  -3    8.04    3.87
  -2  -3   3    4.45    4.04
   1   3  -2    9.51    4.27
  -1   3   2    8.21    4.45
  -1  -3   2    7.89    4.69
   1  -3  -2   10.82    3.89
   0   3   1   -1.16    5.25
   0   3  -1   -1.23    5.55
   0  -3   1   -5.12    5.51
   0  -3  -1   -5.09    5.25
  -1   3   0   59.46    6.34
  -1  -3   0   57.15    8.77
   1   3   0   57.42    9.20
   1  -3   0   57.92    5.50
  -2   3   1   -8.34    5.14
   2  -3  -1   -5.72    4.87
  -3   3   2  422.15    4.74
   3  -3  -2  435.34    5.16
   3   3  -2  370.13    6.93
   3   3  -2  414.81    6.90
   4   3  -3    8.10    5.05
  -4   3   3    4.50    4.50
   4   3  -3    5.54    4.93
   4  -3  -3    8.20    3.76
  -5   3   4  146.11    3.72
   5  -3  -4  148.43    3.67
   5   3  -4  148.11    4.96
   5   3  -4  128.72    4.83
   6   3  -5    6.58    4.08
  -6   3   5    1.57    3.93
   6  -3  -5    2.22    3.92
   6   3  -5    4.61    4.19
  -7   3   6    2.20    3.41
   7   3  -6    2.10    4.08
   7   3  -6    5.32    3.96
   7  -3  -6    4.16    3.39
  -8   3   7   -8.51    3.61
   8   3  -7   -2.41    3.72
   8   3  -7    1.56    3.66
   8  -3  -7    3.87    3.56
  -9   3   8    5.83    3.28
   9  -3  -8    1.19    3.29
   9   3  -8   -4.60    3.80
   9   3  -8    0.96    3.84
  10   3  -9    2.85    3.54
  10   3  -9   -1.98    4.02
  10  -3  -9    0.35    3.88
  11   3 -10   10.94    4.25
  11   3 -10    3.76    3.90
  11  -3 -10   12.28    3.82
  11  -3 -10    2.49    3.78
   9   4 -10   -7.29    4.38
   9   4 -10    5.22    4.43
   9  -4 -10   -1.94    4.45
   9  -4 -10    4.94    4.33
   8  -4  -9   17.20    3.51
   8   4  -9   16.05    4.07
   8  -4  -9    6.86    3.92
   8   4  -9   10.56    3.56
   7   4  -8   -3.34    3.79
   7  -4  -8    2.10    3.25
   7  -4  -8    6.13    3.67
   7   4  -8    1.00    3.81
   6  -4  -7   68.44    3.34
   6   4  -7   77.77    3.76
   6  -4  -7   66.10    3.27
   6   4  -7   71.15    3.76
   5   4  -6   -0.61    4.03
   5   4  -6    3.18    3.92
   5  -4  -6   -2.18    3.40
   4   4  -5   50.93    4.15
   4   4  -5   43.08    4.55
  -4   4   5   50.40    3.46
   4  -4  -5   53.77    4.05
   3  -4  -4    8.60    3.91
  -3   4   4   -1.95    3.36
   3   4  -4    0.72    4.53
  -2  -4   3    0.61    4.18
   2  -4  -3    1.34    3.64
  -2   4   3    5.04    4.22
   2   4  -3    1.16    4.74
  -1  -4   2   -2.40    4.84
   1  -4  -2    0.55    4.26
   1   4  -2   -1.07    5.09
  -1   4   2   -0.39    4.34
   0  -4   1   -2.70    4.53
   0   4   1   -0.34    4.34
   0  -4  -1   -0.28    4.76
   0   4  -1   -1.46    4.60
   1  -4   0    0.93    4.57
  -1  -4   0   -0.84    6.33
  -1   4   0   -2.21    4.74
   1   4   0   -1.90    6.60
  -2   4   1  256.03    4.73
   2  -4  -1  253.59    4.50
   3   4  -2    2.53    6.98
   3  -4  -2    2.64    4.25
  -3   4   2    2.60    4.49
   3   4  -2    1.88    6.98
   4   4  -3  226.21    6.00
   4  -4  -3  256.77    3.91
   4   4  -3  252.57    6.25
  -4   4   3  255.81    4.04
  -5   4   4    3.02    3.38
   5  -4  -4    3.08    3.32
   5   4  -4   -2.20    4.60
   5   4  -4   -5.55    4.45
   6   4  -5   30.67    4.66
   6   4  -5   21.08    4.53
   6  -4  -5   34.54    3.96
  -6   4   5   37.20    3.98
   7  -4  -6   -3.40    3.81
   7   4  -6    3.82    4.47
  -7   4   6   -4.19    3.34
   7   4  -6   -3.84    4.34
   8   4  -7    2.84    4.10
   8  -4  -7    5.58    3.16
  -8   4   7    2.75    3.16
   8   4  -7   -5.32    4.15
  -9   4   8    0.59    3.30
   9  -4  -8   -4.85    3.28
   9   4  -8   -0.95    3.81
   9   4  -8    3.10    3.83
  10   4  -9   -0.68    4.16
  10  -4  -9    0.38    4.01
  10   4  -9    1.28    4.20
  11   4 -10    4.56    4.95
  11  -4 -10    1.88    3.85
  11  -4 -10   -4.24    4.50
  11   4 -10    7.73    4.57
   9  -5 -10    2.69    4.00
   9   5 -10    6.53    4.44
   9   5 -10    3.60    5.02
   9  -5 -10    3.62    3.93
   8  -5  -9    7.34    3.60
   8   5  -9    2.66    4.23
   8  -5  -9   -1.03    4.16
   8   5  -9   -3.77    4.10
   7   5  -8   38.62    3.89
   7   5  -8   37.34    3.82
   7  -5  -8   38.89    3.86
   7  -5  -8   32.20    3.41
   6  -5  -7    9.28    3.23
   6   5  -7   -3.60    4.13
   6   5  -7   -2.21    3.71
   5   5  -6   80.53    4.36
   5  -5  -6   81.51    3.92
   5   5  -6   76.74    3.87
  -4   5   5    2.35    3.40
   4   5  -5    5.68    4.53
   4   5  -5    2.77    4.41
   4  -5  -5    5.25    3.99
  -3   5   4    2.83    3.36
   3  -5  -4    8.23    3.91
   3   5  -4    2.11    4.45
  -2  -5   3   -1.28    4.84
   2   5  -3   -1.71    4.88
  -2   5   3    2.45    3.43
   2  -5  -3    1.01    3.98
   1  -5  -2    8.67    4.19
   1   5  -2    8.11    5.22
  -1  -5   2    3.16    5.12
  -1   5   2   12.05    4.69
   0   5  -1    6.11    5.18
   0   5   1    6.60    5.03
   0  -5   1    3.46    4.76
   0  -5  -1    5.91    5.26
   1   5   0   28.84    6.36
  -1   5   0   27.24    4.72
   1  -5   0   24.32    4.53
  -1  -5   0   26.74    6.28
   2   5  -1   11.46   11.32
  -2   5   1   14.04    4.35
   2  -5  -1   16.70    4.06
  -2  -5   1   11.50   10.87
   3   5  -2  297.68    8.82
   3   5  -2  312.39    9.21
   3  -5  -2  328.20    4.03
  -3   5   2  335.21    4.68
   4   5  -3    1.69    5.69
   4   5  -3    4.75    5.81
   4  -5  -3    0.20    3.81
  -4   5   3    1.11    4.04
  -5   5   4  102.67    4.00
   5   5  -4  101.11    5.56
   5  -5  -4  105.27    3.96
   5   5  -4   92.18    5.31
  -6   5   5   -3.37    3.42
   6   5  -5    3.18    4.40
   6  -5  -5   -1.44    3.86
   6   5  -5    1.00    4.98
  -7   5   6    2.41    3.73
   7   5  -6   -0.95    4.19
   7  -5  -6   -3.03    3.22
   7   5  -6   -4.38    4.21
  -8   5   7   -3.15    3.59
   8   5  -7    1.57    3.72
   8  -5  -7   -8.05    3.63
   8   5  -7    2.75    3.79
   9   5  -8   -6.38    3.93
   9   5  -8   -0.47    3.92
  -9   5   8    5.65    3.79
   9  -5  -8   -1.80    3.35
  10  -5  -9   -5.15    4.07
  10   5  -9    5.15    4.74
  10   5  -9    3.68    4.75
  11  -5 -10    3.34    3.97
  11  -5 -10    9.81    4.02
  11   5 -10    0.20    4.73
  11   5 -10    6.45    5.18
   9   6 -10   -2.58    4.83
   9  -6 -10   -3.98    4.09
   9  -6 -10    1.83    4.02
   9   6 -10    3.72    5.20
   8   6  -9    9.21    4.80
   8   6  -9   17.01    4.34
   8  -6  -9   12.38    3.66
   8  -6  -9   13.83    3.70
   7  -6  -8   -4.58    3.42
   7   6  -8    1.07    3.89
   7  -6  -8    3.26    3.91
   7   6  -8   -2.66    4.36
   6  -6  -7   48.12    3.38
   6   6  -7   45.33    4.23
   6   6  -7   40.82    4.33
   5   6  -6   -7.05    4.17
  -5   6   6    0.06    3.31
   5   6  -6   -6.84    4.07
   5  -6  -6   -4.14    3.34
   4  -6  -5   39.59    3.67
  -4   6   5   47.56    4.09
   4   6  -5   38.90    4.44
   4   6  -5   41.84    4.56
  -3   6   4    4.20    4.01
   3  -6  -4    5.90    4.07
   3   6  -4   -0.09    4.79
  -2  -6   3    4.65    4.71
   2  -6  -3    0.26    4.19
   2   6  -3    3.03    4.66
  -2   6   3    1.74    4.16
  -1   6   2    0.23    4.17
  -1  -6   2   -1.56    5.10
   1   6  -2    1.55    4.77
   1  -6  -2   -0.75    4.12
   0   6   1   -1.81    5.19
   0  -6   1   -1.73    4.86
   0  -6  -1   -3.96    4.57
   0   6  -1   -3.99    4.97
  -1   6   0    1.72    4.76
  -1  -6   0    0.11    5.59
   1   6   0    4.28    6.00
   1  -6   0    3.12    4.50
  -2  -6   1   97.10    9.12
   2  -6  -1  120.14    4.55
  -2   6   1  115.12    4.45
   2   6  -1  119.53    9.12
  -3   6   2   -2.34    4.13
   3  -6  -2   -0.53    3.92
   3   6  -2   -1.25    9.99
   4   6  -3  144.01    6.63
   4  -6  -3  175.81    4.07
   4   6  -3  159.27    7.10
  -4   6   3  169.02    4.30
  -5   6   4   -3.11    3.50
   5   6  -4    1.83    5.22
   5   6  -4   -1.89    5.44
   5  -6  -4    1.89    3.40
   6  -6  -5   32.64    3.43
  -6   6   5   30.28    3.95
   6   6  -5   30.99    4.94
   6   6  -5   28.08    4.76
  -7   6   6   -2.57    3.25
   7   6  -6   -0.80    4.63
   7  -6  -6   -1.88    3.24
   7   6  -6    0.57    4.43
   8  -6  -7    2.02    3.29
   8   6  -7   -0.15    4.32
  -8   6   7   -5.44    3.32
   8   6  -7    5.34    4.26
  -9   6   8   -5.88    3.52
   9  -6  -8   -3.63    3.51
   9   6  -8    2.27    4.50
   9   6  -8   -2.52    4.47
  10   6  -9    1.13    4.84
  10   6  -9    4.87    4.82
  10  -6  -9    5.65    3.81
   8  -7  -9    3.39    3.81
   8  -7  -9   -1.42    3.76
   8   7  -9   -2.18    4.95
   8   7  -9   -2.53    4.87
   7   7  -8   35.10    4.59
   7  -7  -8   39.71    4.05
   7  -7  -8   33.25    3.47
   7   7  -8   35.64    4.13
   6  -7  -7    0.19    3.82
   6   7  -7   -3.22    4.23
   6   7  -7   -3.26    3.80
   5   7  -6   45.61    4.21
   5  -7  -6   48.20    3.33
   5   7  -6   47.77    4.30
  -5   7   6   57.81    3.29
   4   7  -5    0.53    4.62
  -4   7   5   -4.24    3.84
   4  -7  -5   -1.79    3.32
   4   7  -5    0.27    4.65
   3  -7  -4    8.53    4.00
  -3   7   4    3.25    4.00
   3   7  -4    3.63    4.74
   2   7  -3   -0.36    4.99
  -2  -7   3   -4.27    4.71
  -2   7   3    1.31    4.08
   2  -7  -3   -0.94    4.06
   1   7  -2    8.33    5.13
  -1   7   2    5.68    4.60
   1  -7  -2    8.32    4.44
  -1  -7   2    6.73    5.15
   0  -7   1    0.22    4.65
   0   7  -1    2.55    4.77
   0  -7  -1    3.04    4.71
   0   7   1    4.22    4.92
   1   7   0   31.96    5.69
   1  -7   0   25.04    4.37
  -1  -7   0   32.28    5.41
  -1   7   0   30.14    4.62
  -2  -7   1    0.63    8.21
   2  -7  -1    0.39    4.28
   2   7  -1    1.60    8.24
  -2   7   1    1.23    4.57
   3  -7  -2  151.48    4.22
  -3   7   2  152.11    4.81
  -4   7   3   -3.16    4.12
   4   7  -3   -1.05    7.58
   4  -7  -3   -0.26    3.40
   4   7  -3   -1.14    8.46
   5   7  -4  106.70    6.52
   5  -7  -4  112.62    4.01
   5   7  -4   95.41    5.81
  -5   7   4  105.18    4.16
  -6   7   5   -1.77    3.32
   6   7  -5    2.64    4.88
   6   7  -5   -2.28    4.77
   6  -7  -5   -5.14    3.80
   7   7  -6   -0.90    4.63
  -7   7   6   -0.94    3.78
   7   7  -6    0.60    4.63
   7  -7  -6    2.55    3.24
   8   7  -7   -1.58    4.71
  -8   7   7   -3.68    3.37
   8   7  -7    2.21    4.73
   8  -7  -7   -1.21    3.29
   9   7  -8   -0.39    4.64
  -9   7   8   -4.74    3.49
   9   7  -8    5.34    4.64
   9  -7  -8    4.42    3.50
  10  -7  -9    5.55    3.82
  10   7  -9   -1.30    5.04
  10   7  -9    1.26    5.11
   8   8  -9    1.18    5.29
   8  -8  -9    4.50    4.42
   8  -8  -9    0.76    3.90
   8   8  -9    2.84    5.30
   7   8  -8    0.86    5.14
   7   8  -8    0.88    4.73
   7  -8  -8   -2.61    4.19
   7  -8  -8    4.18    3.56
   6   8  -7   33.47    4.45
   6   8  -7   32.99    4.41
   6  -8  -7   33.81    3.41
   5  -8  -6    6.44    3.73
   5   8  -6    0.12    4.71
   5   8  -6   -2.55    4.21
   4  -8  -5   34.26    3.81
   4   8  -5   31.77    4.64
   4   8  -5   27.17    4.61
  -4   8   5   36.13    3.81
  -3   8   4    0.32    3.30
   3   8  -4    0.74    4.86
   3  -8  -4   -2.75    3.79
  -2   8   3    4.27    4.04
  -2  -8   3   -0.94    5.47
   2  -8  -3    2.14    4.39
   2   8  -3    2.38    5.03
   1  -8  -2   -4.95    4.45
  -1  -8   2    2.88    5.05
  -1   8   2   -0.37    4.59
   1   8  -2    1.38    5.01
   0  -8   1   -0.70    4.76
   0   8   1    1.35    5.00
   0   8  -1   -4.20    4.92
   0  -8  -1    0.02    4.76
   1  -8   0   -0.89    4.74
  -1   8   0    1.43    4.59
   1   8   0    1.10    5.74
  -1  -8   0    2.52    5.44
  -2   8   1   88.80    4.32
   2  -8  -1   93.68    4.03
  -2  -8   1   77.28    8.69
   2   8  -1   91.63    8.57
   3  -8  -2    0.77    4.27
  -3   8   2    3.02    4.54
  -4   8   3   90.85    4.14
   4  -8  -3  100.46    3.95
   5  -8  -4   -0.55    3.60
   5   8  -4   -2.13    7.04
  -5   8   4   -2.20    3.77
   5   8  -4   -1.09    7.09
   6  -8  -5   20.71    3.23
   6   8  -5   20.63    5.86
  -6   8   5   22.56    3.70
   6   8  -5   18.34    5.43
   7  -8  -6    3.74    3.73
  -7   8   6    1.73    3.28
   7   8  -6   -1.24    5.35
   7   8  -6   -1.87    5.29
   8   8  -7   -1.45    5.14
   8  -8  -7   -2.93    3.36
  -8   8   7   -1.99    3.80
   8   8  -7    2.93    5.20
   9   8  -8   -4.00    5.66
  -9   8   8    3.39    4.24
   9   8  -8    3.71    5.20
   9  -8  -8    3.15    3.64
  10   8  -9    4.22    5.30
  10  -8  -9    6.85    4.49
   7   9  -8   13.08    5.53
   7  -9  -8   14.64    3.89
   7   9  -8   13.60    5.47
   7  -9  -8   14.57    4.19
   6  -9  -7    5.88    4.04
   6   9  -7    0.64    4.86
   6   9  -7    4.57    5.05
   5   9  -6   30.56    4.82
   5   9  -6   36.79    5.14
   5  -9  -6   38.00    3.77
   4   9  -5   -1.43    4.86
   4   9  -5    2.61    4.99
   4  -9  -5    2.63    3.24
  -4   9   5    6.32    3.75
  -3   9   4   -6.32    4.10
   3  -9  -4   -0.57    3.57
   3   9  -4   -1.42    5.01
  -2   9   3   -4.25    4.17
  -2  -9   3   -3.11    5.16
   2   9  -3   -0.34    4.90
   2  -9  -3   -0.16    3.65
  -1  -9   2   -2.31    5.37
   1   9  -2   -1.48    5.00
   1  -9  -2    2.44    4.16
  -1   9   2    2.00    4.31
   0   9   1    6.32    4.88
   0  -9  -1    4.92    4.70
   0  -9   1    2.23    5.08
   0   9  -1    7.18    5.29
   1   9   0   15.36    5.51
  -1   9   0   17.61    4.92
  -1  -9   0   16.95    5.77
   1  -9   0   15.15    4.26
  -2   9   1   -0.81    4.52
  -2  -9   1    1.64    9.99
   2  -9  -1    4.29    4.23
  -3   9   2  145.09    4.11
   3  -9  -2  145.81    3.89
  -4   9   3   -5.16    3.74
   4  -9  -3   -0.16    3.56
  -5   9   4   27.74    3.78
   5  -9  -4   32.70    3.70
   6   9  -5   -0.80    7.28
   6   9  -5    1.50    7.98
  -6   9   5    0.32    3.31
   6  -9  -5   10.82    3.74
   7  -9  -6    2.80    3.28
  -7   9   6    5.50    3.75
   7   9  -6   -0.51    6.34
   7   9  -6    0.55    6.23
   8   9  -7    0.14    6.00
   8  -9  -7    1.27    3.55
  -8   9   7    6.49    4.15
   8   9  -7   -3.28    6.09
  -9   9   8   -4.15    3.89
   9   9  -8    1.09    6.30
   9   9  -8   -0.65    6.28
   9  -9  -8   -0.43    3.85
   7 -10  -8   -4.75    4.62
   7 -10  -8   -3.65    4.67
   7  10  -8   -2.58    6.05
   7  10  -8    0.33    6.29
   6 -10  -7   28.00    4.29
   6  10  -7   19.92    5.71
   6  10  -7   23.49    5.68
   5  10  -6    5.37    5.68
   5 -10  -6   -2.97    3.91
   5  10  -6    3.28    5.42
   4 -10  -5   19.34    3.87
  -4  10   5   12.69    3.93
   4  10  -5   16.42    5.57
   4  10  -5   13.42    5.50
   3 -10  -4   -3.70    3.74
   3  10  -4    1.21    5.22
  -3  10   4   -1.27    3.78
  -2  10   3    2.92    3.75
   2 -10  -3    0.54    3.62
   2  10  -3    1.31    5.36
  -2 -10   3    1.69    5.48
  -1 -10   2   -0.43    5.24
   1  10  -2   -1.82    5.20
  -1  10   2    0.50    4.13
   1 -10  -2    1.38    3.99
   0  10  -1   -1.21    4.95
   0 -10  -1   -3.46    4.87
   0  10   1    3.82    4.64
   0 -10   1   -0.28    4.78
  -1  10   0   -2.64    4.72
  -1 -10   0   -2.69    5.78
   1 -10   0    4.33    4.51
   1  10   0    3.48    5.46
  -2  10   1   29.62    4.62
   2 -10  -1   30.70    4.06
   3 -10  -2   -6.79    4.05
  -3  10   2    1.23    3.80
  -4  10   3   65.24    3.88
   4 -10  -3   64.82    3.73
   5 -10  -4    2.34    3.66
  -5  10   4    1.71    3.83
   6 -10  -5    9.80    3.86
  -6  10   5   14.93    3.93
   7 -10  -6   -3.34    4.01
  -7  10   6   -3.59    3.56
   8  10  -7    1.55    8.60
   8 -10  -7   -1.06    4.31
   8  10  -7    1.71    8.38
  -8  10   7   -3.12    4.34
   6  11  -7   -1.53    7.08
   6 -11  -7    2.14    3.96
   6  11  -7    0.11    7.27
   6 -11  -7    5.11    4.59
   5 -11  -6   21.26    4.21
   5  11  -6   15.29    6.62
   5  11  -6   14.70    7.39
   4 -11  -5    3.32    4.06
   4  11  -5    1.11    6.61
   4  11  -5   -1.70    6.94
   3  11  -4    5.36    6.48
   3 -11  -4    8.27    3.78
   3  11  -4    4.30    6.54
  -3  11   4    1.29    3.90
   2  11  -3    0.76    6.07
  -2 -11   3    1.30    6.23
   2 -11  -3   -1.48    4.14
  -2  11   3   -0.73    4.34
  -1  11   2    3.08    4.29
   1  11  -2    3.88    5.61
   1 -11  -2    1.47    4.52
  -1 -11   2    1.28    5.57
   0  11   1    0.90    5.28
   0  11  -1   -3.70    5.07
   0 -11   1   -3.51    5.34
   0 -11  -1    0.75    4.95
   1 -11   0   15.96    4.54
  -1  11   0   16.15    4.75
  -1 -11   0   10.75    6.10
  -2  11   1    3.78    4.73
   2 -11  -1    0.75    4.50
   3 -11  -2   35.01    3.75
  -3  11   2   35.48    3.90
   4 -11  -3   -0.47    4.14
  -4  11   3   -1.02    4.26
  -5  11   4   26.03    4.00
   5 -11  -4   35.24    3.78
  -6  11   5   -1.40    3.53
   6 -11  -5    0.02    3.98
   7 -11  -6   -1.09    4.31
  -7  11   6    2.54    4.35
  -8  11   7   -3.27    4.64
   8 -11  -7    3.24    4.04
   5 -12  -6    3.20    4.50
   5 -12  -6   -2.57    4.47
   4 -12  -5    7.01    4.33
   3 -12  -4    1.17    4.55
   2 -12  -3   -1.50    4.36
   2  12  -3    0.62    8.31
   1  12  -2   -1.17    6.39
   1 -12  -2    1.49    4.63
  -1 -12   2    2.40    6.65
   0 -12   1    2.27    5.66
   0  12  -1    1.40    5.46
   0 -12  -1    2.92    5.33
  -1  12   0    0.37    4.82
   1 -12   0   -5.02    4.96
  -1 -12   0    1.17    7.21
   2 -12  -1   23.86    4.69
  -2  12   1   25.59    4.78
   3 -12  -2    0.09    4.26
  -3  12   2   -2.16    4.51
   4 -12  -3   47.99    4.47
  -4  12   3   35.99    4.59
   5 -12  -4   -5.73    4.15
  -5  12   4   -1.47    4.61
   6 -12  -5    4.43    4.30
  -6  12   5    7.18    3.87
   7 -12  -6   -0.94    3.98
  -7  12   6    0.16    4.07
   4 -13  -5    3.00    5.03
   4 -13  -5   -1.83    5.12
   3 -13  -4    0.28    4.72
   2 -13  -3   -1.14    4.70
   1  13  -2    0.97    8.15
  -1 -13   2    0.31    9.16
   1 -13  -2    2.71    4.98
   0 -13  -1    0.53    6.02
   0 -13  -1    0.22    6.11
   0  13  -1   -1.75    6.37
   0 -13   1    2.69    6.47
   1 -13   0    8.66    5.67
  -1  13   0    9.16    5.30
  -2  13   1   -2.54    5.10
   2 -13  -1   -1.37    4.88
  -3  13   2   23.53    5.16
   3 -13  -2   23.23    4.68
  -4  13   3    0.57    4.84
   4 -13  -3    1.47    4.27
  -5  13   4   12.80    4.57
   5 -13  -4   15.42    5.01
   6 -13  -5    5.25    4.64
  -6  13   5   -2.94    4.72
   2 -14  -3    1.50    5.57
   2 -14  -3    0.95    5.59
   1 -14  -2   -3.70    5.95
   1 -14  -2    2.08    5.96
   0 -14   1    2.37    8.05
   0 -14  -1   -0.25    7.62
   0 -14  -1    2.11    7.32
   0  14  -1    0.68    8.02
  -1  14   0    2.80    6.25
   1 -14   0   -1.21    6.57
  -2  14   1    6.78    5.49
   2 -14  -1    8.00    5.45
   3 -14  -2    3.26    5.37
  -3  14   2    3.66    5.44
   4 -14  -3   15.23    4.66
  -4  14   3    6.08    5.29
   8   0 -10    0.88    3.70
   8   0 -10   -1.95    3.66
   6   0  -8   -2.27    3.27
   6   0  -8   -2.45    3.37
   4   0  -6   60.52    3.92
   4   0  -6   73.34    3.98
   2   0  -4  395.44    4.67
   2   0  -4  442.26    4.20
   0   0   2   -3.20    4.79
   0   0  -2    2.61    4.75
  -2   0   0   -1.00    5.20
   2   0   0    3.19    5.25
   4   0  -2    7.13    5.05
  -4   0   2   11.15    5.37
  -6   0   4  257.72    4.44
   6   0  -4  243.51    3.90
  -8   0   6   88.25    4.04
   8   0  -6   89.34    4.17
  10   0  -8    6.32    3.23
  12   0 -10    0.17    3.82
  12   0 -10   -5.25    4.43
   8  -1 -10    3.41    4.21
   8   1 -10    0.31    4.20
   8  -1 -10    0.04    4.02
   8   1 -10   -0.58    4.14
   7  -1  -9    8.55    3.38
   7   1  -9    1.69    3.80
   7   1  -9    4.67    3.81
   7  -1  -9   -0.98    3.85
   6  -1  -8   -2.71    3.32
   6   1  -8   -0.10    3.27
   6  -1  -8   -2.97    3.32
   6   1  -8    3.80    3.78
   5   1  -7   12.69    3.45
   5  -1  -7   14.01    3.81
   5   1  -7    7.22    3.37
   5  -1  -7   10.04    3.71
   4   1  -6   -2.43    3.82
   4  -1  -6    2.35    3.38
   4   1  -6    3.36    3.40
   4  -1  -6    0.37    3.93
   3  -1  -5  181.99    4.09
   3   1  -5  180.68    3.54
   3   1  -5  200.85    3.59
   3  -1  -5  200.95    3.63
   2  -1  -4    1.94    3.61
   2   1  -4    4.43    3.63
   2  -1  -4   -1.46    4.12
   1   1  -3  197.94    4.67
  -1  -1   3  188.97    4.10
   1  -1  -3  223.87    4.71
   1  -1  -3  202.63    4.79
   0  -1  -2   -4.21    4.57
   0   1   2   -2.33    4.56
   0   1  -2   -5.71    4.49
   0  -1   2   -2.92    5.17
  -1  -1  -1   23.56    6.17
   1   1   1   16.68    5.40
   1  -1   1   18.48    5.24
  -1   1  -1   17.68    5.31
   2   1   0   -0.75    6.17
  -2   1   0    1.68    5.23
  -2  -1   0   -0.13    6.80
   2  -1   0    1.40    5.23
   3  -1  -1   99.67    6.13
  -3   1   1   89.18    5.43
   3   1  -1   87.34    6.33
  -3  -1   1   89.43    6.50
  -4   1   2   -6.34    4.43
  -4  -1   2   -5.61    5.45
   4  -1  -2   -9.54    4.94
   4   1  -2   -4.68    4.75
  -5   1   3   76.60    4.12
  -5  -1   3   79.29    4.47
   5   1  -3   81.17    4.48
   5  -1  -3   84.52    4.62
  -6  -1   4   -3.80    4.12
   6  -1  -4   -4.16    3.54
   6   1  -4   -0.46    4.10
  -6   1   4   -8.28    3.62
  -7  -1   5  183.84    4.35
  -7   1   5  188.45    4.11
   7  -1  -5  181.25    3.61
   7   1  -5  190.32    4.39
   8   1  -6   -1.18    4.07
   8  -1  -6    4.09    3.48
  -8  -1   6    8.16    3.94
  -8   1   6    3.40    3.48
   9  -1  -7   39.64    3.81
   9   1  -7   44.98    3.82
  -9   1   7   41.87    3.37
 -10   1   8   -2.54    3.25
  10   1  -8    2.55    3.33
  10   1  -8   -9.46    3.80
  10  -1  -8   -4.42    3.28
  11   1  -9   -1.39    3.42
  11  -1  -9   -2.98    3.85
  11   1  -9   -6.99    3.96
  12   1 -10    2.45    4.43
  12  -1 -10    1.12    4.24
  12   1 -10   -3.19    3.84
  12  -1 -10    2.17    4.43
   8  -2 -10   -5.28    3.68
   8   2 -10    8.53    4.22
   8   2 -10    5.81    3.76
   8  -2 -10   -1.96    3.74
   7  -2  -9    0.35    3.48
   7   2  -9    0.81    3.88
   7  -2  -9   -1.71    3.93
   7   2  -9   -5.70    3.77
   6  -2  -8    3.68    3.20
   6  -2  -8    2.12    3.75
   6   2  -8    6.73    3.31
   6   2  -8    2.26    3.71
   5  -2  -7    2.74    3.20
   5   2  -7   -1.30    3.28
   5   2  -7   -1.48    3.35
   5  -2  -7   -3.50    3.27
   4   2  -6   93.45    4.17
   4  -2  -6   92.33    3.97
   4  -2  -6   96.67    4.06
   4   2  -6   89.52    3.57
   3  -2  -5    5.51    3.40
   3  -2  -5    4.19    3.33
   3   2  -5    1.33    3.86
   3   2  -5    0.19    3.91
   2  -2  -4  223.22    3.87
   2   2  -4  202.13    4.34
   2  -2  -4  195.33    3.82
  -2  -2   4  181.10    3.77
  -1  -2   3   -2.66    3.61
   1  -2  -3   -5.45    4.45
   1   2  -3   -2.77    3.70
   1  -2  -3   -0.23    3.88
   0  -2  -2   42.08    4.29
   0  -2   2   30.90    4.68
   0  -2  -2   32.78    4.27
   0   2  -2   29.34    4.35
   1   2   1    0.41    5.85
   1  -2   1   10.72    5.63
  -1   2  -1   -0.56    4.87
  -1  -2  -1    1.91    5.74
   2  -2   0  152.46    5.39
  -2  -2   0  137.96    8.32
  -2   2   0  167.23    6.20
   2   2   0  134.60    7.91
  -3   2   1   -2.55    5.40
   3  -2  -1   -3.25    4.57
  -3  -2   1   -3.77    7.77
   3   2  -1   -0.75    6.88
  -4   2   2   14.94    4.18
  -4  -2   2   17.30    5.47
   4  -2  -2   14.19    4.03
   4   2  -2   12.51    4.87
  -5   2   3   18.17    3.89
  -5  -2   3    9.88    4.34
   5  -2  -3   17.33    3.81
   5   2  -3    6.10    4.34
  -6   2   4  157.43    3.77
   6   2  -4  163.46    4.44
  -6  -2   4  165.49    4.42
   6  -2  -4  164.51    4.16
   7   2  -5    1.65    4.20
  -7  -2   5    5.70    4.08
  -7   2   5    0.69    3.97
   7  -2  -5   -0.12    3.41
   8   2  -6  150.76    4.19
  -8   2   6  148.94    3.59
   8  -2  -6  155.93    4.02
  -9   2   7   -1.42    3.24
   9   2  -7   -2.08    3.61
   9  -2  -7   -2.45    3.26
   9   2  -7    4.09    3.70
  10  -2  -8   10.98    3.77
  10   2  -8    2.28    3.79
  10   2  -8    1.59    3.81
 -10   2   8   -0.09    3.32
  11   2  -9    0.50    3.92
  11   2  -9    1.14    3.99
  11  -2  -9   -1.19    3.44
  12   2 -10    2.64    4.45
  12  -2 -10   -6.97    4.46
  12  -2 -10    4.06    4.31
  12   2 -10   -3.19    4.44
   8  -3 -10   -2.71    3.81
   8   3 -10    1.54    3.74
   8   3 -10    3.01    4.39
   8  -3 -10    4.70    3.77
   7   3  -9   -1.84    3.87
   7  -3  -9   -6.32    3.45
   7   3  -9    0.63    3.92
   7  -3  -9    1.14    3.48
   6  -3  -8   -2.43    3.67
   6   3  -8    4.68    3.73
   6   3  -8    2.25    3.33
   6  -3  -8   -5.95    3.26
   5   3  -7   10.00    3.69
   5  -3  -7    6.04    3.22
   5   3  -7    9.85    3.75
   5  -3  -7   16.80    3.26
   4   3  -6    6.31    3.93
   4   3  -6    6.84    3.97
   4  -3  -6    6.32    3.49
   4  -3  -6    7.29    3.87
   3  -3  -5  139.98    3.54
   3   3  -5  142.05    4.20
   3   3  -5  134.56    3.72
   3  -3  -5  156.12    3.63
   2  -3  -4   -0.88    3.48
   2   3  -4    0.71    3.94
  -2  -3   4   -2.65    3.87
   2  -3  -4    0.04    3.44
   1  -3  -3  172.44    4.00
   1  -3  -3  205.60    4.09
  -1  -3   3  172.10    4.33
   1   3  -3  184.41    4.43
   0   3  -2   -1.71    4.15
   0  -3  -2   -0.46    4.20
   0  -3   2   -7.63    4.59
   0  -3  -2   -0.68    4.27
   1  -3   1   -0.82    4.46
  -1  -3  -1   -1.34    5.10
  -1   3  -1   -3.58    4.55
  -1  -3  -1   -3.48    5.06
  -2  -3   0   -0.06    7.07
  -2   3   0   -1.70    4.82
   2  -3   0   -1.51    4.66
  -3  -3   1   -2.50   10.08
   3   3  -1   -3.26    9.13
   3  -3  -1   -1.65    4.45
  -3   3   1   -8.63    4.67
  -4   3   2    2.48    4.66
   4  -3  -2    9.64    4.46
   4   3  -2    5.54    5.86
  -4  -3   2    8.69    5.90
  -5   3   3   67.78    3.85
   5  -3  -3   65.05    3.71
  -5  -3   3   67.99    4.99
   5   3  -3   71.13    5.51
   6   3  -4   -7.98    4.70
  -6   3   4    3.01    4.04
   6  -3  -4   -4.76    3.43
   7   3  -5  169.00    4.40
   7  -3  -5  169.51    3.58
  -7   3   5  176.04    3.65
   8   3  -6    1.39    3.97
   8  -3  -6    1.84    3.34
  -8   3   6    6.68    3.90
   8   3  -6    3.55    4.01
  -9   3   7   31.31    3.22
   9   3  -7   29.67    3.75
   9  -3  -7   35.93    3.20
   9   3  -7   23.43    3.66
  10  -3  -8   -0.18    3.28
 -10   3   8   -7.71    3.30
  10   3  -8   -6.53    3.84
  10   3  -8   -0.21    3.85
  11   3  -9    1.77    4.10
  11   3  -9   -0.38    4.01
  11  -3  -9    0.98    3.46
  12  -3 -10   -1.09    3.88
  12  -3 -10   -6.71    3.90
  12   3 -10   -2.56    4.57
  12   3 -10    3.88    4.51
   8   4 -10   -2.99    4.20
   8   4 -10    3.79    4.25
   8  -4 -10    2.26    3.95
   8  -4 -10   -2.95    3.88
   7  -4  -9    1.70    3.50
   7  -4  -9    3.86    3.99
   7   4  -9    0.44    4.02
   7   4  -9    0.79    3.86
   6   4  -8   -1.29    3.79
   6   4  -8    4.68    3.84
   6  -4  -8    8.93    3.82
   6  -4  -8   -6.77    3.28
   5   4  -7   -4.02    3.66
   5  -4  -7   -8.94    3.19
   5  -4  -7    6.35    3.12
   5   4  -7   -1.63    3.64
   4   4  -6   65.32    3.95
   4  -4  -6   55.19    3.42
   4   4  -6   75.68    3.99
   4  -4  -6   78.37    4.01
   3  -4  -5   -5.57    3.98
   3   4  -5    5.33    4.03
   3  -4  -5    0.27    3.37
   2   4  -4  220.66    4.31
  -2  -4   4  215.42    4.30
   2  -4  -4  259.52    4.26
   1  -4  -3    1.00    4.17
  -1  -4   3   -0.13    4.00
   1   4  -3    1.51    4.12
   0  -4  -2   45.98    4.27
   0   4  -2   49.85    4.21
   0  -4   2   45.89    4.10
   0  -4  -2   54.72    4.87
  -1   4  -1    3.81    4.05
  -1  -4  -1    0.99    4.84
   1  -4   1    4.43    4.48
  -1  -4  -1    4.53    4.67
  -2  -4   0    9.17    6.92
  -2  -4   0   14.80    7.17
   2  -4   0   11.47    4.02
  -2   4   0   15.72    4.16
   3  -4  -1   -2.63    4.13
  -3   4   1    2.95    4.30
   4   4  -2    1.15    7.56
  -4   4   2    3.47    3.81
   4  -4  -2    2.07    4.18
   4   4  -2   -1.36    7.62
   5   4  -3   -2.99    5.45
  -5   4   3   -6.89    4.19
   5   4  -3   -0.30    5.45
   5  -4  -3    1.51    3.41
   6   4  -4  150.61    5.22
  -6   4   4  159.39    3.67
   6  -4  -4  157.28    3.56
   6   4  -4  131.99    4.66
   7   4  -5   -1.04    4.60
   7   4  -5   -2.95    4.51
   7  -4  -5   -1.87    3.40
  -7   4   5    4.25    3.47
   8   4  -6   68.99    4.32
   8  -4  -6   75.83    3.32
  -8   4   6   78.14    3.91
   8   4  -6   73.16    3.96
  -9   4   7    0.77    3.17
   9   4  -7    6.42    4.11
   9   4  -7    6.82    4.15
   9  -4  -7    3.87    3.14
 -10   4   8    6.71    3.34
  10  -4  -8    6.44    3.33
  10   4  -8    3.19    4.25
  10   4  -8   -0.19    3.88
  11  -4  -9    1.23    3.60
  11   4  -9   -5.88    4.60
 -11   4   9    2.99    3.58
  11   4  -9    4.18    4.21
  12  -4 -10    5.96    4.56
  12   4 -10   -0.03    5.10
  12   4 -10   -1.85    5.08
   8   5 -10   -7.08    4.59
   8   5 -10    2.85    4.46
   8  -5 -10   -8.55    3.95
   8  -5 -10    1.49    3.85
   7  -5  -9    5.10    4.02
   7  -5  -9   -5.49    4.03
   7   5  -9   -1.98    4.12
   7   5  -9    0.09    4.03
   6  -5  -8   -4.91    3.92
   6   5  -8    3.69    3.85
   6  -5  -8   -0.38    3.31
   6   5  -8    1.20    3.86
   5  -5  -7    4.76    3.39
   5  -5  -7    8.90    3.34
   5   5  -7   13.07    3.69
   5   5  -7   15.12    3.62
   4  -5  -6   -3.50    3.42
   4  -5  -6   -1.18    3.74
   4   5  -6    5.16    3.76
   4   5  -6    0.12    3.78
   3  -5  -5  123.72    4.13
   3  -5  -5  113.92    3.57
   3   5  -5  111.59    4.10
   2  -5  -4    3.14    4.05
   2   5  -4   -1.83    3.96
  -2  -5   4   -0.75    3.96
  -1  -5   3  113.29    4.64
   1   5  -3  124.04    4.70
   1  -5  -3  135.41    4.23
   0  -5   2    3.53    4.60
   0  -5  -2    9.14    4.78
   0   5  -2    7.04    4.69
   1  -5   1    3.52    3.95
  -1  -5  -1    2.59    5.32
  -1   5  -1    2.48    4.05
  -1  -5  -1    5.85    5.47
  -2  -5   0   13.41    7.07
   2  -5   0   13.82    4.55
  -2   5   0   11.07    4.18
  -2  -5   0   10.44    6.96
  -3   5   1    4.01    4.25
   3  -5  -1    5.03    4.02
  -4   5   2   -3.42    4.10
   4  -5  -2   -0.28    3.88
   5   5  -3   44.81    6.11
   5  -5  -3   49.75    3.35
   5   5  -3   50.07    6.52
  -5   5   3   44.24    3.51
   6   5  -4    8.44    4.81
   6  -5  -4   10.00    3.35
  -6   5   4    7.91    3.51
   6   5  -4    6.34    5.23
   7   5  -5  114.04    4.88
   7  -5  -5  136.45    3.90
   7   5  -5  124.68    4.67
  -7   5   5  127.22    3.56
  -8   5   6   -4.30    3.20
   8  -5  -6   -0.70    3.63
   8   5  -6   -3.42    4.15
   8   5  -6   -1.20    4.20
  -9   5   7   35.22    3.26
   9   5  -7   31.68    4.26
   9  -5  -7   32.85    3.20
   9   5  -7   29.46    4.30
  10  -5  -8   -1.53    3.43
  10   5  -8    0.67    4.02
 -10   5   8    6.93    3.44
  10   5  -8    0.29    4.47
  11   5  -9   -0.25    4.34
 -11   5   9   12.80    3.69
  11  -5  -9    0.67    3.74
  11   5  -9    0.15    4.32
  12  -5 -10   -3.41    4.05
   8   6 -10   -6.91    5.18
   8  -6 -10   -2.29    4.49
   8  -6 -10    1.83    4.42
   8   6 -10   -2.15    4.80
   7   6  -9   -0.86    4.37
   7  -6  -9    9.22    4.28
   7   6  -9   -4.00    4.29
   7  -6  -9    8.78    3.66
   6   6  -8    2.57    3.92
   6  -6  -8   -1.82    3.88
   6  -6  -8    2.05    3.85
   6   6  -8    2.07    3.91
   5  -6  -7   -5.55    3.81
   5  -6  -7   -1.51    3.25
   5   6  -7    2.65    3.76
   5   6  -7   -4.46    4.13
   4   6  -6   57.08    3.77
   4  -6  -6   52.56    3.30
   4   6  -6   52.15    4.21
   4  -6  -6   60.29    3.40
   3  -6  -5    5.05    4.06
   3   6  -5   -1.27    4.36
   2   6  -4  105.97    4.60
   2  -6  -4  124.32    3.74
  -2  -6   4   98.91    4.52
   1  -6  -3   10.83    4.59
  -1  -6   3    4.88    4.38
   1   6  -3    1.83    4.39
   0  -6   2   22.79    4.39
   0   6  -2   26.34    4.45
   0  -6  -2   32.14    4.63
   1  -6   1    6.32    4.35
  -1   6  -1    1.30    4.46
  -1  -6  -1    0.86    4.97
  -2  -6   0    9.31    6.48
   2  -6   0   12.11    3.99
  -2  -6   0   11.82    6.87
  -2   6   0    9.43    4.14
  -3   6   1    0.81    4.10
   3  -6  -1    2.55    3.89
   4  -6  -2    5.51    3.34
  -4   6   2    1.01    3.52
  -5   6   3   -2.83    3.51
   5   6  -3    4.00    9.09
   5   6  -3    3.23    9.06
   5  -6  -3    8.45    3.80
   6   6  -4  109.58    5.98
  -6   6   4  125.29    4.13
   6  -6  -4  129.24    3.58
   6   6  -4  118.66    6.40
   7  -6  -5    0.69    3.75
   7   6  -5   -2.14    5.09
  -7   6   5   -5.21    3.30
   7   6  -5    2.02    5.01
   8   6  -6   48.47    4.71
  -8   6   6   55.87    3.33
   8   6  -6   57.78    4.73
   8  -6  -6   60.07    3.33
  -9   6   7   -7.22    3.86
   9  -6  -7    2.23    3.69
   9   6  -7    3.39    4.64
   9   6  -7    4.54    4.36
  10   6  -8    5.62    4.53
 -10   6   8   -0.02    3.51
  10   6  -8    4.37    4.49
  10  -6  -8    2.83    3.49
  11   6  -9    5.83    4.88
  11  -6  -9   -2.91    3.89
  11   6  -9   -1.83    4.82
 -11   6   9   -0.86    3.85
   7  -7  -9    3.34    3.72
   7   7  -9    4.51    5.01
   7   7  -9    4.31    4.42
   7  -7  -9   -4.91    3.77
   6  -7  -8    1.81    3.99
   6   7  -8   -2.00    4.07
   6  -7  -8   -6.76    3.38
   6   7  -8    2.10    4.42
   5  -7  -7    7.61    3.30
   5   7  -7    4.86    4.28
   5   7  -7   -0.17    4.28
   5  -7  -7   -2.72    3.22
   4   7  -6    3.58    4.15
   4  -7  -6    5.24    3.53
   4  -7  -6    1.72    3.75
   4   7  -6    2.42    4.13
   3  -7  -5  108.66    3.43
   3   7  -5  102.02    4.32
   2   7  -4   -1.13    4.37
   2  -7  -4    3.22    4.01
  -2  -7   4    1.51    4.38
   1  -7  -3   80.00    4.19
  -1  -7   3   65.83    4.88
   1   7  -3   69.40    4.81
   0   7  -2    0.05    4.30
   0  -7   2    0.53    4.31
   0  -7  -2   -3.64    4.47
   1  -7   1    0.96    4.35
  -1   7  -1   -0.52    4.42
  -1  -7  -1    4.15    4.84
  -2  -7   0    4.10    6.82
  -2   7   0    3.22    4.44
   2  -7   0    0.65    4.33
  -2  -7   0    3.20    6.88
   3  -7  -1    0.47    4.30
  -3   7   1    7.19    4.15
   4  -7  -2   -0.13    3.91
  -4   7   2    1.68    4.17
   5  -7  -3   24.59    3.95
  -5   7   3   28.52    3.64
  -6   7   4   -1.13    3.58
   6   7  -4    1.58    7.56
   6  -7  -4   -2.65    3.44
   6   7  -4    2.67    7.41
   7  -7  -5   94.68    3.84
  -7   7   5   73.24    4.01
   7   7  -5   83.70    5.69
   7   7  -5   76.11    5.57
  -8   7   6    1.22    3.34
   8  -7  -6    1.51    3.27
   8   7  -6    1.40    4.95
   8   7  -6   -0.67    4.88
  -9   7   7   23.27    3.88
   9   7  -7   21.57    4.79
   9  -7  -7   24.24    3.33
   9   7  -7   32.81    5.09
  10   7  -8    0.56    5.18
  10   7  -8   -0.21    5.06
 -10   7   8    4.06    3.57
  10  -7  -8   -0.16    3.58
 -11   7   9   -0.88    3.93
  11   7  -9    3.32    5.22
  11  -7  -9    1.67    3.92
  11   7  -9   -4.07    5.22
   7   8  -9    0.60    5.06
   7  -8  -9    2.53    4.60
   7   8  -9    7.47    5.14
   7  -8  -9   -8.67    3.90
   6   8  -8   -1.30    4.79
   6  -8  -8    1.14    4.09
   6  -8  -8   -6.57    3.62
   6   8  -8    4.85    4.62
   5  -8  -7    0.17    3.28
   5  -8  -7    0.80    3.36
   5   8  -7   -2.27    4.38
   5   8  -7    1.21    4.35
   4  -8  -6   31.18    3.32
   4   8  -6   35.53    4.25
   4   8  -6   36.12    4.29
   4  -8  -6   38.71    3.85
   3  -8  -5    6.68    3.75
   3   8  -5    3.82    4.14
   2   8  -4   74.10    4.32
   2  -8  -4   90.50    4.26
  -2  -8   4   71.58    4.33
  -1  -8   3    6.15    4.68
   1   8  -3    5.19    4.23
   1  -8  -3    4.16    4.39
   0  -8  -2   28.41    4.45
   0  -8   2   21.51    4.76
   0   8  -2   26.00    4.78
  -1   8  -1   -0.15    4.80
   1  -8   1    0.01    4.68
  -1  -8  -1    3.73    5.00
  -2  -8   0    1.95    6.68
  -2   8   0   -0.63    4.57
   2  -8   0    2.22    4.30
  -2  -8   0    2.60    7.12
   3  -8  -1    2.07    3.83
  -3   8   1   -1.72    4.56
   4  -8  -2    3.88    3.81
  -4   8   2    4.37    4.08
  -5   8   3   -9.07    3.97
   5  -8  -3    1.98    3.25
   6  -8  -4   75.89    3.78
  -6   8   4   79.77    3.95
   7  -8  -5    6.82    3.68
   7   8  -5   -0.72    6.94
  -7   8   5   -0.68    3.29
   7   8  -5    1.94    6.94
  -8   8   6   35.65    3.35
   8   8  -6   38.06    5.96
   8  -8  -6   36.67    3.27
   8   8  -6   31.84    5.91
  -9   8   7   -0.78    3.43
   9   8  -7   -0.39    5.52
   9  -8  -7   -3.42    3.40
   9   8  -7   -4.17    5.13
 -10   8   8    7.21    3.73
  10   8  -8    4.17    5.30
  10  -8  -8    1.34    3.71
  10   8  -8    2.87    5.69
   6  -9  -8    1.49    4.26
   6  -9  -8   -3.84    4.44
   6   9  -8    3.34    5.31
   6   9  -8    2.82    4.96
   5   9  -7   11.39    4.59
   5   9  -7    5.55    4.98
   5  -9  -7    9.82    3.96
   5  -9  -7    5.97    3.97
   4   9  -6   -8.72    4.71
   4   9  -6    1.83    4.63
   4  -9  -6   -5.97    3.80
   4  -9  -6   -1.19    3.75
   3  -9  -5   44.46    3.84
   3   9  -5   40.03    4.66
   2   9  -4   -0.57    4.57
   2  -9  -4   -0.10    3.63
  -2  -9   4   -2.14    4.51
  -1  -9   3   63.86    4.69
   1   9  -3   71.21    4.67
   1  -9  -3   79.61    3.80
   0   9  -2   -1.84    4.66
   0  -9  -2    0.94    4.62
   0  -9   2   -1.84    4.66
  -1   9  -1    0.98    4.35
   1  -9   1    1.93    4.60
  -1  -9  -1    1.83    5.00
  -2   9   0    8.26    4.43
  -2  -9   0    1.29    7.28
   2  -9   0    1.83    4.25
  -2  -9   0    2.70    7.17
  -3   9   1    5.76    3.95
   3  -9  -1    3.11    4.17
   4  -9  -2    5.86    3.65
  -4   9   2   -1.51    4.25
  -5   9   3   14.99    3.78
   5  -9  -3   16.84    3.59
   6  -9  -4   -1.98    3.22
  -6   9   4    1.25    3.80
  -7   9   5   50.57    3.92
   7  -9  -5   50.56    3.31
  -8   9   6   -2.46    3.88
   8  -9  -6   -1.14    3.38
   9   9  -7   10.20    6.80
   9  -9  -7    9.40    3.62
  -9   9   7   12.64    3.67
   9   9  -7   11.33    6.92
  10  -9  -8    5.15    4.34
  10   9  -8   -0.43    6.42
  10   9  -8   -0.62    7.06
 -10   9   8   -2.76    4.37
   6 -10  -8    1.25    4.55
   6 -10  -8    3.73    4.03
   6  10  -8    1.93    5.70
   6  10  -8    1.27    6.12
   5 -10  -7    3.62    4.23
   5 -10  -7    2.53    4.11
   5  10  -7   -1.70    5.61
   5  10  -7    1.02    5.22
   4 -10  -6   21.15    3.98
   4  10  -6   24.37    5.04
   4 -10  -6   17.46    3.91
   4  10  -6   21.08    5.32
   3  10  -5   -1.85    5.04
   3 -10  -5    4.79    3.84
   3 -10  -5    3.12    4.13
   2  10  -4   52.33    5.09
   2 -10  -4   60.58    4.18
  -2 -10   4   38.64    5.12
  -1 -10   3   -1.33    4.87
   1 -10  -3    4.67    4.09
   1  10  -3    1.77    4.86
   0 -10  -2    6.55    4.43
   0  10  -2    9.71    4.58
   0 -10   2    8.76    4.55
   1 -10   1   -1.98    4.47
  -1 -10  -1   -0.53    4.93
  -1 -10  -1    1.60    5.13
  -1  10  -1    4.23    4.19
  -2 -10   0    0.08    8.35
   2 -10   0   -2.76    4.33
  -2 -10   0   -0.23    8.29
  -2  10   0   -3.17    4.18
   3 -10  -1    0.07    3.61
  -3  10   1   -1.91    4.16
  -4  10   2    5.03    4.15
   4 -10  -2    7.33    3.57
  -5  10   3   -6.11    3.84
   5 -10  -3   -1.67    3.65
  -6  10   4   35.68    3.95
   6 -10  -4   38.42    3.83
   7 -10  -5   -0.19    3.79
  -7  10   5    1.56    3.34
   8 -10  -6   30.82    4.13
  -8  10   6   35.54    3.61
  -9  10   7   -1.70    3.90
   9 -10  -7   -1.58    3.83
   5 -11  -7    2.27    4.41
   5  11  -7    2.93    6.18
   5 -11  -7   -0.67    4.51
   5  11  -7   -0.23    6.48
   4  11  -6    1.56    5.95
   4 -11  -6   -4.92    4.23
   4 -11  -6    0.39    4.08
   4  11  -6   -0.87    5.97
   3  11  -5   25.09    5.35
   3 -11  -5   24.56    3.99
   3 -11  -5   33.88    4.03
   3  11  -5   26.59    5.26
   2 -11  -4   -8.13    4.37
   2  11  -4   -1.14    5.05
  -2 -11   4   -0.24    5.44
   2 -11  -4   -0.76    3.82
   1 -11  -3   14.81    4.20
   1  11  -3   20.09    4.99
   1 -11  -3   18.27    4.19
  -1 -11   3   18.97    5.09
   0 -11   2   -0.22    5.01
   0 -11  -2    2.39    4.81
   0  11  -2    2.03    5.01
   0 -11  -2    0.69    4.86
   1 -11   1    2.56    4.52
  -1 -11  -1    1.33    5.68
  -1  11  -1    0.87    4.67
  -1 -11  -1   -0.37    5.55
  -2  11   0   -3.45    4.72
   2 -11   0    2.45    4.20
  -3  11   1    5.20    4.22
   3 -11  -1   -2.11    4.08
   4 -11  -2    1.54    3.73
  -4  11   2    1.93    4.23
  -5  11   3   22.47    3.87
   5 -11  -3   17.80    3.75
  -6  11   4    1.56    4.01
   6 -11  -4   -0.62    3.92
  -7  11   5   27.75    4.15
   7 -11  -5   34.06    3.57
   8 -11  -6   -5.14    4.33
  -8  11   6    4.76    4.41
  -9  11   7   14.63    4.15
   4 -12  -6    7.29    4.51
   4  12  -6   10.35    7.17
   4 -12  -6    3.04    4.56
   4  12  -6   11.03    7.09
   3  12  -5    1.33    6.59
   3 -12  -5    2.29    4.83
   3  12  -5    0.92    6.49
   3 -12  -5   -3.94    4.31
   2  12  -4   29.29    6.11
   2 -12  -4   24.38    4.56
   2 -12  -4   41.45    4.63
  -1 -12   3   -0.08    5.99
   1 -12  -3   -0.31    4.34
   1  12  -3   -1.64    5.81
   1 -12  -3   -4.49    4.71
   0 -12  -2    9.31    5.05
   0 -12  -2   10.90    4.67
   0 -12   2   13.10    5.47
   0  12  -2    8.14    5.13
  -1 -12  -1   -0.19    5.93
  -1  12  -1    1.00    5.19
   1 -12   1   -1.35    4.97
  -1 -12  -1    1.53    5.99
   2 -12   0    1.36    4.63
  -2 -12   0    0.01    1.69
  -2  12   0    2.11    4.38
   3 -12  -1    1.84    4.26
  -3  12   1   -0.27    4.38
   4 -12  -2    1.34    3.99
  -4  12   2    3.78    4.12
  -5  12   3   -1.36    4.10
   5 -12  -3    1.75    4.03
  -6  12   4   12.76    4.27
   6 -12  -4   20.14    4.18
   7 -12  -5   -6.64    4.34
  -7  12   5   -9.75    4.32
   8 -12  -6   11.31    4.07
  -8  12   6   13.06    4.78
   3 -13  -5   12.74    4.68
   3 -13  -5    2.64    5.17
   2 -13  -4    5.88    4.90
   2 -13  -4    5.40    4.91
   2  13  -4   -1.05    8.59
   1  13  -3   11.75    7.04
   1 -13  -3   16.23    5.22
  -1 -13   3   12.75    7.07
   1 -13  -3   12.96    5.11
   0 -13   2    0.09    5.84
   0 -13  -2   -0.79    5.74
   0 -13  -2   -0.99    5.73
   0  13  -2    2.80    6.11
  -1  13  -1    4.67    5.48
  -1 -13  -1    3.61    7.36
   1 -13   1    2.97    5.46
  -1 -13  -1   -1.90    7.56
   2 -13   0    5.29    4.89
  -2  13   0    2.00    5.12
  -3  13   1    0.16    4.75
   3 -13  -1    0.29    4.64
  -4  13   2   -0.49    4.68
   4 -13  -2   -5.89    4.72
  -5  13   3    3.97    4.48
   5 -13  -3    8.67    4.86
   6 -13  -4   -6.20    4.52
  -6  13   4   -0.34    4.57
   1 -14  -3    0.06    6.12
   1 -14  -3   -2.59    5.97
   0 -14   2   -0.74    7.76
   0 -14  -2    1.04    6.37
   0  14  -2    0.16    7.37
   0 -14  -2    3.72    6.63
   1 -14   1   -5.56    6.36
  -1  14  -1    2.05    6.35
  -2  14   0   -0.55    5.47
   2 -14   0    1.37    5.88
  -3  14   1   -5.93    5.41
   3 -14  -1    3.06    4.97
  -4  14   2   -3.37    5.08
   4 -14  -2    2.79    5.04
   5 -14  -3    0.59    5.12
  -5  14   3    2.94    5.32
   6   0  -9    8.12    3.40
   6   0  -9    6.07    3.37
   4   0  -7   11.10    3.17
   4   0  -7    5.46    3.23
   2   0  -5   12.68    3.33
   2   0  -5   12.20    3.78
   0   0  -3  185.93    4.12
   0   0   3  177.22    4.08
  -2   0  -1  985.13    6.38
   2   0   1 1000.00    6.99
   4   0  -1    7.17    4.50
  -4   0   1   10.71    4.66
   6   0  -3   15.06    4.30
  -6   0   3   15.48    4.44
   8   0  -5    4.89    4.00
  -8   0   5    4.97    3.99
 -10   0   7   54.74    3.33
  10   0  -7   48.08    3.75
  12   0  -9   23.51    3.50
   7  -1 -10   15.91    4.23
   7  -1 -10   18.41    3.62
   7   1 -10   20.56    4.12
   7   1 -10   12.36    3.63
   6  -1  -9   -0.03    3.89
   6  -1  -9   -9.01    3.91
   6   1  -9    2.79    3.77
   6   1  -9   -7.92    3.30
   5   1  -8   -0.62    3.64
   5   1  -8    1.87    3.69
   5  -1  -8    2.42    3.77
   5  -1  -8   -1.54    3.24
   4   1  -7    3.66    3.27
   4  -1  -7   -3.45    3.25
   4   1  -7   -7.05    3.85
   4  -1  -7   -4.06    3.21
   3   1  -6    2.07    3.35
   3  -1  -6   -1.35    3.41
   3  -1  -6    0.46    3.82
   3   1  -6   -6.60    3.82
   2  -1  -5    3.12    3.31
   2   1  -5   -0.59    3.28
   2  -1  -5    4.64    3.84
   1  -1  -4   99.81    4.15
  -1  -1   4   91.22    3.59
   1   1  -4   93.20    4.18
   1  -1  -4  104.21    3.60
   0  -1   3   -3.48    4.36
   0  -1  -3   -0.95    4.45
   0   1  -3    5.56    4.43
   0   1   3    2.81    3.83
  -1  -1  -2  338.81    4.68
   1   1   2  338.49    4.68
  -1   1  -2  345.21    4.62
   1  -1   2  325.66    4.53
   2   1   1    4.11    5.45
  -2   1  -1    5.93    4.73
   2  -1   1    3.61    4.65
  -2  -1  -1   10.15    4.74
   3  -1   0   78.30    4.89
  -3  -1   0   78.13    5.69
   3   1   0   78.76    5.72
  -3   1   0   87.80    4.96
   4  -1  -1   -4.67    4.22
  -4   1   1   -2.63    4.38
  -4  -1   1   -4.42    4.83
   4   1  -1   -4.00    4.77
  -5   1   2   -3.52    4.58
   5   1  -2    1.42    4.11
   5  -1  -2    3.31    3.77
  -5  -1   2    0.50    4.77
   6  -1  -3    5.29    4.22
   6   1  -3    9.08    4.13
  -6   1   3    2.12    3.82
  -6  -1   3    0.48    4.32
  -7   1   4    1.23    3.97
   7  -1  -4    0.99    3.36
  -7  -1   4    3.00    4.10
   7   1  -4   -2.27    3.45
  -8  -1   5    2.76    4.10
   8  -1  -5   -0.10    3.84
   8   1  -5   -6.85    4.07
  -8   1   5    1.23    3.42
   9   1  -6   74.07    3.97
  -9  -1   6   72.83    3.56
  -9   1   6   68.08    4.07
   9  -1  -6   68.11    4.04
 -10  -1   7   -2.52    3.26
 -10   1   7   -2.84    3.68
  10  -1  -7    1.09    3.66
  10   1  -7    4.82    3.77
  11  -1  -8   54.58    3.82
  11   1  -8   51.42    3.33
 -11   1   8   52.76    3.86
  12  -1  -9    1.97    3.91
  12   1  -9    1.56    4.06
  12   1  -9    1.57    3.59
  13  -1 -10    3.70    4.52
  13   1 -10    3.32    3.97
  13   1 -10    1.15    4.51
  13  -1 -10    7.31    4.50
   7  -2 -10   -2.40    3.70
   7   2 -10   -6.34    4.30
   7  -2 -10   -4.30    4.24
   7   2 -10   -2.96    3.69
   6  -2  -9    2.09    3.94
   6   2  -9    7.67    3.37
   6  -2  -9    2.49    3.91
   6   2  -9    7.66    3.36
   5   2  -8    7.80    3.20
   5   2  -8    4.69    3.28
   5  -2  -8   -4.86    3.25
   5  -2  -8    1.09    3.15
   4   2  -7    0.80    3.23
   4  -2  -7   -1.81    3.26
   4  -2  -7   -2.71    3.70
   4   2  -7    5.42    3.80
   3   2  -6    1.90    3.39
   3  -2  -6   -4.87    3.37
   3  -2  -6    0.48    3.42
   3   2  -6    2.92    3.95
   2   2  -5    0.64    3.29
   2  -2  -5   -6.43    3.80
   2  -2  -5   -0.99    3.88
   1   2  -4   -8.69    3.92
   1  -2  -4   -4.72    3.45
  -1  -2   4   -2.03    3.36
   1  -2  -4   -7.97    3.98
   0  -2   3  214.94    4.47
   0  -2  -3  218.13    4.06
   0   2  -3  222.23    4.57
   1   2   2   -3.09    3.79
   1  -2   2   -4.62    3.71
  -1  -2  -2   -3.97    4.38
  -1   2  -2   -2.45    4.40
  -2  -2  -1  225.31    5.13
  -2   2  -1  228.38    5.21
   2   2   1  221.01    5.68
   2  -2   1  222.65    4.58
   3   2   0   -0.59    5.32
  -3  -2   0   -1.53    5.27
   3  -2   0   -2.36    4.78
  -3   2   0   -1.52    4.86
  -4  -2   1   20.87    5.39
  -4   2   1   17.33    4.16
   4   2  -1   15.33    5.29
   4  -2  -1   17.16    4.06
   5   2  -2   -1.13    4.57
  -5  -2   2    1.15    4.80
   5  -2  -2   -4.28    4.35
  -5   2   2   -4.62    4.59
  -6  -2   3   12.16    4.95
  -6   2   3   12.05    3.75
   6   2  -3   16.89    4.77
   6  -2  -3   12.21    3.58
  -7   2   4   -3.07    3.43
  -7  -2   4   -6.04    4.12
   7  -2  -4   -2.32    3.79
   7   2  -4   -3.99    4.55
   8  -2  -5   18.79    3.39
   8   2  -5   18.09    4.08
  -8  -2   5   21.94    4.09
  -8   2   5   16.32    3.50
  -9   2   6   -1.37    3.91
   9   2  -6    5.88    3.92
  -9  -2   6    7.29    3.88
   9  -2  -6    3.77    3.31
  10   2  -7   74.26    3.31
 -10   2   7   71.03    3.39
  10  -2  -7   68.95    3.42
  11   2  -8    1.92    3.37
  11  -2  -8   -2.56    3.80
 -11   2   8   -1.68    3.27
  11   2  -8   -6.13    3.90
  12   2  -9   22.02    4.13
  12  -2  -9   26.35    3.98
 -12   2   9   28.68    3.56
  12   2  -9   29.35    4.14
  13  -2 -10    0.56    3.93
  13   2 -10   -1.03    4.54
  13   2 -10   -5.46    4.53
   7  -3 -10    2.86    3.88
   7  -3 -10    5.72    3.91
   7   3 -10   11.73    4.24
   7   3 -10    6.05    4.34
   6  -3  -9   -1.54    3.47
   6   3  -9    4.45    3.90
   6  -3  -9    2.78    3.49
   6   3  -9   -2.38    3.38
   5   3  -8    4.26    3.69
   5  -3  -8    2.48    3.75
   5  -3  -8   -0.79    3.24
   5   3  -8    4.47    3.25
   4   3  -7   -3.69    3.72
   4   3  -7    2.52    3.23
   4  -3  -7   -0.92    3.54
   4  -3  -7   -1.65    3.20
   3   3  -6   -1.25    3.93
   3   3  -6    1.78    3.37
   3  -3  -6    5.85    3.81
   3  -3  -6    6.12    3.79
   2  -3  -5    0.81    3.40
   2   3  -5    1.31    3.87
   2  -3  -5   -0.25    3.37
  -2  -3   5    8.00    3.97
   1   3  -4   75.09    3.85
  -1  -3   4   69.71    3.39
   1  -3  -4   72.20    3.93
   1  -3  -4   85.18    3.96
   0  -3  -3    1.87    3.62
   0  -3   3    4.98    4.05
   0  -3  -3    2.63    3.62
   0   3  -3    2.90    3.61
   1  -3   2  333.33    4.55
  -1   3  -2  344.14    4.77
  -1  -3  -2  344.62    4.74
  -2  -3  -1    0.37    4.13
   2  -3   1   -0.91    4.33
   2   3   1   -0.20    4.69
  -2   3  -1   -1.16    3.80
   3  -3   0  194.70    4.63
   3   3   0  170.06    6.00
  -3  -3   0  174.45    5.95
  -3   3   0  201.23    4.79
  -4   3   1   -1.46    3.87
   4  -3  -1   -0.07    4.25
   4   3  -1    2.46    6.13
  -4  -3   1    1.19    5.84
   5   3  -2   12.29    5.61
   5  -3  -2   16.47    3.66
  -5  -3   2   11.46    5.96
  -5   3   2   13.13    3.83
  -6   3   3   -2.59    4.15
   6   3  -3   -0.77    4.57
   6  -3  -3   -0.60    3.39
  -6  -3   3   -6.89    5.18
  -7   3   4    0.34    3.47
   7  -3  -4    1.95    3.30
   7   3  -4    0.64    4.48
  -7  -3   4    2.56    4.49
  -8  -3   5   -0.86    4.50
   8   3  -5   -2.54    4.55
  -8   3   5   -2.37    3.51
   8  -3  -5   -2.12    3.36
  -9   3   6   53.53    3.36
   9  -3  -6   52.09    3.72
   9   3  -6   49.16    4.31
  10   3  -7   -2.09    3.75
  10  -3  -7    0.51    3.72
  10   3  -7    2.83    3.72
 -10   3   7    3.95    3.76
 -11   3   8   35.69    3.92
  11   3  -8   39.27    3.93
  11  -3  -8   37.48    3.34
  11   3  -8   41.91    3.91
 -12   3   9   -2.60    3.56
  12  -3  -9   -3.77    3.56
  12   3  -9   -3.62    4.07
  12   3  -9   -3.13    4.22
  13  -3 -10   -2.84    4.01
  13   3 -10    2.75    5.06
  13   3 -10    4.40    4.50
   7   4 -10   -8.57    3.82
   7  -4 -10    4.71    3.82
   7   4 -10   -6.03    4.44
   7  -4 -10    4.89    4.50
   6   4  -9    8.99    4.02
   6  -4  -9    3.16    3.90
   6  -4  -9    8.19    4.12
   6   4  -9   11.84    4.07
   5   4  -8   -7.15    3.80
   5  -4  -8    3.88    3.84
   5   4  -8   -3.85    3.76
   5  -4  -8    0.02    3.68
   4   4  -7    0.75    3.65
   4  -4  -7   -0.81    3.22
   4   4  -7   -1.84    3.69
   4  -4  -7   -5.33    3.76
   3   4  -6    1.76    3.39
   3   4  -6    3.52    3.84
   3  -4  -6   -0.13    3.25
   3  -4  -6    0.41    3.87
   2   4  -5    3.70    3.44
   2  -4  -5    5.50    3.31
   2  -4  -5    7.23    3.94
  -2  -4   5    3.96    3.96
  -1  -4   4    2.18    4.00
   1  -4  -4   -0.11    3.90
   1  -4  -4    7.49    3.84
   1   4  -4   12.10    3.93
   0  -4  -3  186.73    3.75
   0  -4  -3  215.91    3.81
   0   4  -3  183.14    4.22
   0  -4   3  181.31    4.11
  -1  -4  -2    3.53    4.10
   1  -4   2    3.62    4.12
  -1   4  -2    4.18    4.20
  -1  -4  -2   -1.30    4.16
  -2  -4  -1  298.52    5.65
   2  -4   1  249.23    4.50
  -2  -4  -1  250.89    5.50
  -2   4  -1  272.58    4.51
  -3  -4   0    4.29    6.27
   3  -4   0    1.39    4.15
  -3   4   0    1.53    4.23
   4  -4  -1   42.75    4.21
  -4  -4   1   40.40    9.88
  -4   4   1   35.70    3.79
   4   4  -1   33.33    9.56
   5  -4  -2   21.59    3.46
  -5  -4   2   20.96    7.00
  -5   4   2   21.01    3.66
   5   4  -2   18.96    6.73
   6   4  -3   11.93    5.10
   6  -4  -3   11.55    3.30
  -6  -4   3   11.27    5.19
  -6   4   3   13.49    3.96
  -7   4   4   -4.27    3.47
   7  -4  -4   -1.48    3.80
   7   4  -4    1.65    4.85
   8  -4  -5   11.28    3.35
   8   4  -5   13.54    4.49
  -8   4   5   -0.53    3.99
   9   4  -6   -2.48    4.18
   9   4  -6   -3.30    4.21
   9  -4  -6   -4.86    3.69
  -9   4   6   -2.67    3.28
  10  -4  -7   56.43    3.25
  10   4  -7   42.06    4.17
 -10   4   7   44.67    3.75
  10   4  -7   42.68    4.17
 -11   4   8   -4.72    3.90
  11  -4  -8   -0.56    3.87
  11   4  -8    2.70    3.88
  11   4  -8    1.67    4.26
  12   4  -9   21.63    4.84
  12  -4  -9   17.46    3.65
 -12   4   9   16.97    3.74
  12   4  -9   16.78    4.35
   7  -5 -10    7.69    3.97
   7   5 -10    8.74    4.61
   7   5 -10    6.50    4.64
   7  -5 -10    8.73    3.89
   6   5  -9    4.12    4.16
   6  -5  -9   -7.73    3.98
   6   5  -9    6.33    4.02
   6  -5  -9   -1.63    3.61
   5  -5  -8    2.03    3.87
   5   5  -8    1.48    3.88
   5  -5  -8    0.45    3.73
   5   5  -8    2.97    3.92
   4   5  -7    0.96    3.67
   4  -5  -7   -3.33    3.29
   4   5  -7    2.47    3.15
   4  -5  -7    1.29    3.32
   3   5  -6   -4.20    3.74
   3  -5  -6   -3.45    3.78
   3  -5  -6   -1.74    3.88
   2   5  -5   -1.39    3.89
  -2  -5   5   -0.47    3.88
   2  -5  -5   -3.97    3.52
   2  -5  -5    2.81    3.46
   1  -5  -4   48.78    3.99
   1   5  -4   44.66    4.08
   1  -5  -4   57.00    3.67
  -1  -5   4   41.53    4.05
   0   5  -3   -6.99    3.97
   0  -5   3   -1.38    3.92
   0  -5  -3    0.65    4.13
   0  -5  -3   -1.87    4.05
  -1   5  -2  290.67    4.48
  -1  -5  -2  333.61    5.09
  -1  -5  -2  284.04    4.96
   1  -5   2  277.00    4.38
   2  -5   1   -1.40    3.97
  -2  -5  -1    0.52    5.26
  -2  -5  -1   -1.85    5.14
  -2   5  -1   -1.02    4.05
  -3   5   0   61.79    3.62
  -3  -5   0   52.39    6.95
   3  -5   0   60.05    4.04
  -3  -5   0   63.72    7.28
  -4   5   1   -2.68    4.03
   4  -5  -1    0.45    3.36
  -5   5   2    3.45    4.00
   5  -5  -2    2.00    3.25
  -6   5   3    2.83    3.97
   6   5  -3    0.30    6.26
   6  -5  -3    2.39    3.74
   6   5  -3    3.70    6.42
   7   5  -4    2.85    5.16
  -7   5   4    0.11    3.51
   7   5  -4    1.38    4.98
   7  -5  -4    1.29    3.33
   8   5  -5    2.28    4.67
   8  -5  -5    6.81    3.25
   8   5  -5   -0.61    4.79
  -8   5   5   -3.95    3.93
   9   5  -6   32.75    4.16
   9  -5  -6   34.78    3.58
  -9   5   6   33.46    3.29
   9   5  -6   35.50    4.15
  10   5  -7    1.44    4.31
  10  -5  -7   -2.47    3.20
 -10   5   7    1.59    3.24
  10   5  -7    2.07    4.27
 -11   5   8   37.70    3.54
  11   5  -8   35.99    4.41
  11   5  -8   40.23    4.52
  11  -5  -8   31.51    3.52
  12   5  -9    2.34    4.79
  12  -5  -9    2.31    3.80
  12   5  -9    1.23    4.77
 -12   5   9   -3.89    4.32
   7  -6 -10   -7.22    4.00
   6   6  -9    5.75    4.71
   6  -6  -9   -0.17    3.70
   6   6  -9    3.19    4.67
   6  -6  -9    5.09    3.65
   5  -6  -8   -7.17    3.91
   5   6  -8    2.46    3.79
   5   6  -8   -3.89    3.95
   5  -6  -8   -2.42    3.38
   4  -6  -7    6.36    3.70
   4  -6  -7    4.04    3.80
   4   6  -7    2.12    3.80
   4   6  -7    3.09    3.79
   3  -6  -6    0.98    3.84
   3   6  -6    0.72    3.63
   3  -6  -6   -1.03    3.21
   2  -6  -5    3.39    3.35
   2  -6  -5    6.75    3.47
   2   6  -5    4.25    4.27
  -2  -6   5    7.17    4.26
   1   6  -4   -0.98    4.31
   1  -6  -4    0.41    4.00
  -1  -6   4    3.62    4.34
   1  -6  -4   -2.56    3.96
   0  -6   3   92.75    4.52
   0  -6  -3  129.67    4.35
   0  -6  -3   99.50    4.12
   0   6  -3  102.81    4.54
   1  -6   2   -1.97    3.91
  -1  -6  -2   -2.78    4.44
  -1  -6  -2    0.67    4.61
  -1   6  -2    2.20    3.93
  -2  -6  -1  161.15    5.12
  -2  -6  -1  196.80    5.39
  -2   6  -1  186.53    4.23
   2  -6   1  176.93    4.62
  -3  -6   0   -3.00    7.45
   3  -6   0   -0.31    3.87
  -3  -6   0   -1.93    7.38
  -3   6   0   -0.73    3.99
  -4   6   1   21.78    3.91
   4  -6  -1   15.66    3.32
   5  -6  -2    2.93    3.75
  -5   6   2   -0.63    3.97
  -6   6   3   -2.05    3.93
   6  -6  -3    3.18    3.22
  -7   6   4   13.76    3.93
   7   6  -4   -1.49    6.03
   7  -6  -4   -0.23    3.72
   7   6  -4    0.93    5.95
   8   6  -5   -0.14    4.81
   8   6  -5    1.06    5.07
   8  -6  -5   -5.05    3.59
  -8   6   5    3.79    3.73
   9  -6  -6    0.45    3.21
   9   6  -6   -0.16    4.55
   9   6  -6   -0.83    4.66
  -9   6   6   -3.38    3.29
  10   6  -7   43.92    4.42
  10  -6  -7   54.83    3.35
  10   6  -7   46.52    4.82
 -10   6   7   44.52    3.42
  11   6  -8    4.15    4.57
  11   6  -8   -0.50    4.98
  11  -6  -8    3.61    3.55
 -11   6   8   -4.00    4.01
  12   6  -9   13.84    5.42
 -12   6   9   11.14    3.86
  12   6  -9    4.70    5.48
  12  -6  -9   10.63    3.92
   6   7  -9    3.13    4.49
   6   7  -9    2.38    4.54
   6  -7  -9   -2.43    3.86
   6  -7  -9    0.22    3.79
   5   7  -8   -1.61    4.12
   5  -7  -8    3.33    3.49
   5   7  -8   -0.19    4.11
   5  -7  -8   -2.60    3.55
   4  -7  -7    1.48    3.30
   4   7  -7    3.23    4.22
   4   7  -7    4.83    3.90
   4  -7  -7   -5.51    3.20
   3  -7  -6    0.45    3.60
   3  -7  -6   -0.45    3.67
   3   7  -6    2.38    4.08
  -2  -7   5    1.57    3.67
   2  -7  -5    6.73    3.66
   2  -7  -5   -1.76    3.57
   2   7  -5   -0.68    3.70
  -1  -7   4   28.38    4.31
   1  -7  -4   40.02    4.06
   1  -7  -4   34.10    3.85
   1   7  -4   31.78    4.37
   0  -7   3    1.87    4.38
   0  -7  -3    0.87    3.86
   0   7  -3   -0.46    4.42
   0  -7  -3    4.08    4.06
   1  -7   2  126.34    4.51
  -1  -7  -2  151.88    4.84
  -1  -7  -2  124.62    4.63
  -1   7  -2  132.55    4.56
  -2  -7  -1    1.93    5.18
   2  -7   1   -2.39    3.90
  -2   7  -1    1.54    4.41
  -2  -7  -1    0.79    5.39
  -3  -7   0   82.61    9.10
  -3  -7   0   65.93    8.88
   3  -7   0   69.55    4.04
  -3   7   0   80.11    4.17
  -4   7   1   10.04    4.10
   4  -7  -1    7.06    3.88
   5  -7  -2    9.59    3.86
  -5   7   2    8.10    4.10
   6  -7  -3    0.70    3.82
  -6   7   3    5.74    3.58
  -7   7   4    0.59    4.01
   7  -7  -4    5.14    3.81
   8   7  -5   -2.43    5.68
   8   7  -5   -0.67    5.62
   8  -7  -5    2.45    3.71
  -8   7   5   -1.28    3.32
   9   7  -6   18.34    5.37
  -9   7   6   26.36    3.95
   9   7  -6   24.15    5.29
   9  -7  -6   23.39    3.82
 -10   7   7    0.33    3.49
  10   7  -7   -1.99    5.10
  10  -7  -7   -8.12    3.98
  10   7  -7   -2.36    4.80
  11   7  -8   22.91    5.24
  11  -7  -8   21.64    4.24
  11   7  -8   22.05    5.24
 -11   7   8   25.15    3.77
  12  -7  -9    4.83    4.04
 -12   7   9   -2.64    3.98
  12   7  -9    1.91    5.80
  12   7  -9    4.09    5.64
   6   8  -9    1.48    4.70
   6  -8  -9    3.54    3.98
   6  -8  -9    3.58    3.94
   6   8  -9    7.30    4.73
   5  -8  -8   -1.07    3.58
   5   8  -8    0.38    4.67
   5   8  -8    1.70    4.61
   5  -8  -8   -3.63    4.22
   4   8  -7    5.79    4.34
   4  -8  -7    2.75    3.37
   4  -8  -7   -2.09    3.29
   4   8  -7   -1.85    4.35
   3   8  -6   -2.74    3.78
   3  -8  -6   -0.40    3.66
   3  -8  -6   -2.01    3.82
  -2  -8   5    3.54    4.08
   2   8  -5    7.01    4.07
   2  -8  -5   -0.52    3.62
   2  -8  -5    2.65    3.54
   1  -8  -4   -3.80    3.70
  -1  -8   4   -2.53    4.00
   1   8  -4    0.18    4.02
   1  -8  -4    5.56    3.57
   0  -8  -3   95.84    3.93
   0   8  -3  108.81    4.39
   0  -8   3   99.74    4.38
   0  -8  -3  118.69    4.53
   1  -8   2    3.04    4.37
  -1  -8  -2    4.72    4.37
  -1  -8  -2    2.14    4.73
  -1   8  -2    5.15    4.37
  -2  -8  -1   92.76    5.65
  -2  -8  -1  114.27    5.37
   2  -8   1   94.38    4.05
  -2   8  -1  103.01    4.56
  -3   8   0    2.08    3.98
   3  -8   0    2.36    4.23
  -4   8   1   21.98    4.03
   4  -8  -1   17.81    3.82
   5  -8  -2    7.71    3.79
  -5   8   2    7.91    4.03
  -6   8   3    6.05    3.37
   6  -8  -3    5.42    3.65
  -7   8   4   -3.05    3.35
   7  -8  -4    8.37    3.18
   8  -8  -5    4.15    3.18
  -8   8   5    1.54    3.35
  -9   8   6    1.69    3.33
   9  -8  -6   -0.45    3.25
   9   8  -6    2.04    6.32
   9   8  -6    1.13    6.26
  10  -8  -7   26.20    3.52
  10   8  -7   24.09    5.73
  10   8  -7   24.13    6.06
 -10   8   7   27.57    3.57
 -11   8   8    3.30    3.84
  11   8  -8    0.63    6.26
  11  -8  -8   -0.36    4.17
  11   8  -8   -1.14    5.85
   5  -9  -8   -0.19    3.81
   5   9  -8    2.38    4.85
   5   9  -8   -2.36    4.84
   5  -9  -8    5.78    3.90
   4   9  -7   -3.24    4.50
   4   9  -7    0.48    4.60
   4  -9  -7    4.16    4.14
   4  -9  -7   -3.48    3.98
   3   9  -6    1.18    4.66
   3  -9  -6    0.47    3.85
   3  -9  -6   -3.65    3.82
   2  -9  -5    7.43    3.77
  -2  -9   5    3.84    4.53
   2   9  -5   -3.23    4.21
   2  -9  -5    0.38    3.70
  -1  -9   4   24.52    4.16
   1  -9  -4   26.81    3.73
   1   9  -4   29.85    4.53
   1  -9  -4   19.87    3.62
   0   9  -3   -2.32    4.39
   0  -9  -3   -0.34    3.97
   0  -9   3    1.54    4.01
   0  -9  -3   -4.31    4.08
  -1   9  -2  109.94    4.29
  -1  -9  -2  121.22    4.83
   1  -9   2   97.44    4.27
  -1  -9  -2   91.47    4.77
  -2  -9  -1    0.06    5.54
  -2  -9  -1    2.25    5.15
   2  -9   1   -0.23    3.68
  -2   9  -1   -2.05    3.73
  -3   9   0   31.71    4.28
   3  -9   0   33.37    3.74
  -4   9   1   -1.82    4.24
   4  -9  -1    3.40    3.65
  -5   9   2    0.77    3.83
   5  -9  -2    4.71    3.63
   6  -9  -3    2.42    3.53
  -6   9   3   -0.57    3.32
  -7   9   4    5.63    3.81
   7  -9  -4   -0.95    3.67
   8  -9  -5   -5.44    3.29
  -8   9   5    2.38    3.88
   9  -9  -6   16.16    3.48
  -9   9   6   19.17    3.55
  10  -9  -7    2.74    3.70
 -10   9   7    0.38    4.19
  11   9  -8    4.94    8.35
 -11   9   8   10.64    4.07
  11   9  -8    9.06    8.32
  11  -9  -8   13.83    4.01
   5  10  -8   -3.71    5.73
   5 -10  -8   -6.11    4.02
   5  10  -8   -1.03    5.75
   5 -10  -8   -2.21    3.98
   4  10  -7   -1.05    4.96
   4  10  -7    2.48    4.88
   4 -10  -7   -0.90    4.29
   4 -10  -7   -4.21    4.22
   3  10  -6   -3.36    4.61
   3 -10  -6    0.64    4.02
   3  10  -6   -2.51    4.58
   3 -10  -6   -2.85    3.97
  -2 -10   5    1.64    4.32
   2 -10  -5    2.89    3.78
   2 -10  -5    3.13    3.84
   2  10  -5    2.45    4.69
  -1 -10   4   -1.95    4.63
   1 -10  -4    7.21    4.17
   1  10  -4    3.00    4.20
   1 -10  -4    1.67    3.68
   0 -10  -3   36.94    4.27
   0  10  -3   34.02    4.64
   0 -10   3   35.23    4.61
   0 -10  -3   32.92    4.22
  -1 -10  -2   -0.51    4.52
  -1  10  -2    2.40    4.11
  -1 -10  -2   -0.18    4.84
   1 -10   2    5.84    4.43
   2 -10   1   54.63    4.09
  -2  10  -1   53.33    4.15
  -2 -10  -1   47.26    5.94
  -2 -10  -1   61.43    5.86
  -3  10   0   -2.00    4.18
   3 -10   0    4.64    3.98
   4 -10  -1    5.63    4.02
  -4  10   1    8.87    3.77
  -5  10   2   -3.49    3.76
   5 -10  -2    0.34    3.56
  -6  10   3    0.51    3.85
   6 -10  -3   -0.10    3.70
  -7  10   4   -1.53    3.83
   7 -10  -4   -1.42    3.72
  -8  10   5    2.78    3.49
   8 -10  -5    6.98    3.38
   9 -10  -6   -2.94    3.58
  -9  10   6   -6.11    4.20
 -10  10   7   15.34    4.33
  10 -10  -7   15.90    4.45
   4  11  -7   -2.43    5.98
   4 -11  -7    1.98    4.45
   4  11  -7    0.33    6.05
   4 -11  -7    0.90    4.58
   3  11  -6    0.79    5.55
   3 -11  -6    6.54    4.25
   3 -11  -6    0.35    4.33
   3  11  -6   -0.40    5.26
   2 -11  -5   -7.33    4.45
   2 -11  -5    4.98    4.56
  -2 -11   5    0.96    5.00
   2  11  -5    4.69    4.98
  -1 -11   4   18.33    4.81
   1  11  -4   13.60    4.80
   1 -11  -4   16.57    4.44
   1 -11  -4   18.98    4.39
   0 -11   3   -1.98    4.53
   0 -11  -3   -1.80    4.50
   0 -11  -3   -1.47    4.61
   0  11  -3    0.56    4.59
  -1 -11  -2   41.90    5.07
   1 -11   2   39.42    4.29
  -1  11  -2   37.02    4.33
  -1 -11  -2   35.06    5.07
  -2 -11  -1    0.57    6.43
   2 -11   1    2.41    4.50
  -2 -11  -1    0.02    6.07
  -2  11  -1    1.92    4.27
   3 -11   0   23.08    4.12
  -3  11   0   23.09    3.84
  -4  11   1    4.35    3.82
   4 -11  -1    0.59    4.03
  -5  11   2   -3.41    4.25
   5 -11  -2    0.13    4.07
  -6  11   3    1.23    3.47
   6 -11  -3    1.00    3.82
  -7  11   4   -0.42    4.03
   7 -11  -4   -1.95    3.80
   8 -11  -5    2.96    4.14
  -8  11   5    5.68    3.68
  -9  11   6   11.32    3.97
   9 -11  -6    4.00    3.90
   3  12  -6    0.52    6.37
   3 -12  -6    5.51    4.58
   3  12  -6    2.53    6.12
   3 -12  -6    5.86    4.97
   2 -12  -5    1.61    4.81
   2  12  -5    3.60    5.54
   2 -12  -5    0.65    4.36
   1 -12  -4    0.14    4.92
   1  12  -4   -0.48    5.26
   1 -12  -4   -0.44    4.43
  -1 -12   4   -2.90    5.53
   0 -12   3   20.29    4.97
   0 -12  -3   27.56    4.80
   0  12  -3   17.25    4.89
   0 -12  -3   18.29    4.90
   1 -12   2    1.42    5.07
  -1  12  -2    3.11    4.73
  -1 -12  -2   -1.72    5.44
  -1 -12  -2   -0.81    5.42
   2 -12   1   32.12    4.68
  -2 -12  -1   31.43    8.52
  -2 -12  -1   35.23    8.48
  -2  12  -1   38.07    4.41
  -3  12   0    0.84    4.74
   3 -12   0   -4.62    4.29
   4 -12  -1   -0.77    4.43
  -4  12   1    1.17    4.55
  -5  12   2    3.59    4.05
   5 -12  -2   -0.70    3.94
  -6  12   3    1.38    4.12
   6 -12  -3    1.29    4.11
  -7  12   4   -1.44    3.73
   7 -12  -4    0.75    4.17
  -8  12   5    2.62    3.94
   8 -12  -5    6.17    4.29
   2  13  -5   -1.78    6.73
   2 -13  -5   -1.70    4.68
   2  13  -5    4.56    6.87
   2 -13  -5   -0.65    5.02
   1 -13  -4    4.78    4.92
   1  13  -4    6.06    6.17
   1 -13  -4   11.66    4.98
  -1 -13   4    9.34    6.43
   0  13  -3   -3.70    5.64
   0 -13  -3    2.95    5.58
   0 -13   3   -0.82    6.03
   0 -13  -3    0.88    5.56
   1 -13   2   20.02    5.55
  -1  13  -2   25.99    5.50
  -1 -13  -2   20.30    6.29
  -1 -13  -2   27.85    6.20
  -2  13  -1    2.43    5.53
   2 -13   1    0.98    5.12
  -3  13   0   11.72    4.78
   3 -13   0   11.68    4.71
  -4  13   1    3.02    4.81
   4 -13  -1   -2.26    4.71
   5 -13  -2    5.28    4.27
  -5  13   2    5.99    4.72
  -6  13   3    6.71    4.87
   6 -13  -3   -4.60    4.43
  -7  13   4   -2.06    4.60
   7 -13  -4   -4.05    4.57
   0  14  -3    5.75    7.06
   0 -14   3    6.79    7.03
   0 -14  -3    4.28    6.51
   0 -14  -3    7.80    6.18
  -1  14  -2   -0.27    6.45
  -1 -14  -2    0.69    8.20
  -1 -14  -2    1.13    8.46
   1 -14   2    3.29    6.39
  -2  14  -1   14.61    6.06
   2 -14   1   13.70    5.89
   3 -14   0    1.94    5.43
  -3  14   0    2.69    5.57
   4 -14  -1    0.67    5.06
  -4  14   1    1.67    5.14
   5 -14  -2   -1.20    5.14
  -5  14   2    0.68    5.22
   6   0 -10   16.61    3.66
   6   0 -10   19.29    3.72
   4   0  -8   50.15    3.33
   4   0  -8   47.05    3.30
   2   0  -6    1.64    3.82
   2   0  -6    1.65    3.34
   0   0   4   -3.76    3.42
   0   0  -4   -1.80    3.45
  -2   0  -2   72.40    3.88
   2   0   2   72.05    3.84
   4   0   0  349.00    5.15
  -4   0   0  370.23    5.03
  -6   0   2  216.51    4.63
   6   0  -2  217.41    4.47
   8   0  -4    1.44    3.88
  -8   0   4   -0.77    4.10
 -10   0   6    0.97    3.86
  10   0  -6    6.68    3.78
  12   0  -8   15.64    3.88
 -12   0   8   19.83    3.83
  14   0 -10    6.88    4.63
  14   0 -10    8.41    4.10
   6  -1 -10   -4.49    3.78
   6   1 -10   -2.53    3.76
   6  -1 -10    6.43    3.71
   6   1 -10    4.17    3.70
   5   1  -9   35.37    3.41
   5  -1  -9   33.41    3.89
   5   1  -9   35.66    3.43
   5  -1  -9   36.99    3.54
   4  -1  -8   -1.33    3.25
   4  -1  -8    0.72    3.75
   4   1  -8   -1.02    3.25
   4   1  -8    9.35    3.28
   3   1  -7   25.59    3.77
   3   1  -7   32.98    3.35
   3  -1  -7   27.60    3.26
   3  -1  -7   31.44    3.22
   2  -1  -6   -0.24    3.84
   2   1  -6    1.42    3.77
   2   1  -6    3.53    3.36
   2  -1  -6   -3.03    3.81
  -1  -1   5   -3.88    3.83
   1  -1  -5    2.23    3.31
   1  -1  -5    3.56    3.31
   1   1  -5    7.14    3.31
   0   1  -4    4.44    3.37
   0  -1  -4    0.09    3.39
   0   1   4    2.53    3.90
   0  -1   4    4.64    3.33
  -1  -1  -3    6.15    3.71
  -1   1  -3   12.96    3.65
   1  -1   3   11.44    3.60
   1   1   3   10.44    3.63
   2  -1   2   -4.01    3.88
  -2   1  -2    5.30    3.92
  -2  -1  -2    3.39    4.19
   2   1   2    0.89    3.69
   3   1   1  213.14    4.20
   3  -1   1  223.85    4.79
  -3  -1  -1  212.63    4.21
  -3   1  -1  226.69    4.34
   4   1   0   -0.35    4.28
   4  -1   0   -2.84    3.81
  -4  -1   0    1.04    4.29
  -4   1   0   -3.34    3.83
   5  -1  -1  392.15    4.32
  -5  -1   1  411.28    4.84
  -5   1   1  414.73    4.42
   5   1  -1  377.53    4.73
   6  -1  -2    1.95    4.24
  -6   1   2    5.21    3.80
  -6  -1   2    5.21    4.27
   6   1  -2    3.24    4.07
   7  -1  -3   55.04    3.48
   7   1  -3   53.76    4.07
  -7  -1   3   56.36    4.24
  -7   1   3   52.37    4.17
   8  -1  -4    3.79    3.29
   8   1  -4    1.75    4.05
  -8  -1   4    4.74    4.26
  -8   1   4   -2.58    4.00
  -9  -1   5   10.39    4.11
   9   1  -5    2.11    3.44
   9  -1  -5    0.38    3.83
  -9   1   5   -2.99    4.05
  10  -1  -6   -3.38    3.37
  10   1  -6   -2.40    3.70
 -10  -1   6    4.25    3.75
 -10   1   6   -8.05    3.46
 -11  -1   7    1.74    3.27
  11  -1  -7    2.62    3.70
  11   1  -7    0.29    3.69
 -11   1   7   -0.02    3.31
  12  -1  -8   -6.62    3.35
 -12  -1   8   -1.22    3.87
  12   1  -8   -4.56    3.87
 -12   1   8    7.23    3.83
 -13   1   9   20.63    3.65
  13   1  -9   12.55    3.59
  13  -1  -9   16.19    4.03
  14  -1 -10    0.95    4.03
  14   1 -10   -2.22    4.63
  14   1 -10   -5.83    4.68
   6  -2 -10   21.26    3.78
   6   2 -10   22.70    4.19
   6  -2 -10   23.11    3.80
   6   2 -10   27.51    4.21
   5   2  -9    0.94    3.45
   5  -2  -9   -3.67    3.52
   5   2  -9   -3.52    3.49
   5  -2  -9   -5.49    3.45
   4  -2  -8   34.38    3.66
   4  -2  -8   58.60    3.31
   4   2  -8   40.87    3.66
   4   2  -8   45.59    3.78
   3  -2  -7    3.44    3.15
   3   2  -7   -2.89    3.29
   3  -2  -7    1.42    3.61
   3   2  -7    5.02    3.25
   2  -2  -6    1.81    3.34
   2   2  -6    3.63    3.94
   2  -2  -6    4.90    3.40
   1  -2  -5   -0.37    3.32
  -1  -2   5    3.87    3.75
   1   2  -5    2.73    3.77
   1  -2  -5    3.50    3.34
   0  -2  -4   14.19    3.35
   0   2  -4   13.05    3.34
   0  -2   4   10.91    3.29
  -1  -2  -3   -3.97    3.60
   1   2   3   -1.01    3.61
   1  -2   3    1.11    3.98
  -1   2  -3    5.27    4.12
   2  -2   2   20.20    4.36
   2   2   2   16.33    3.59
  -2  -2  -2   22.49    4.22
  -2   2  -2   18.50    4.45
  -3   2  -1   -1.19    3.78
   3   2   1   -1.06    4.07
  -3  -2  -1   -0.78    4.07
   3  -2   1   -2.53    3.72
  -4  -2   0  271.29    5.11
   4   2   0  258.41    4.67
   4  -2   0  277.40    4.20
  -4   2   0  282.39    4.26
  -5   2   1   -6.32    3.88
  -5  -2   1    2.54    4.58
   5   2  -1   -2.31    4.55
   5  -2  -1   -3.55    3.74
   6  -2  -2  240.60    4.43
  -6   2   2  245.02    4.06
  -6  -2   2  249.00    4.74
   6   2  -2  238.83    5.03
   7   2  -3    1.38    4.50
  -7  -2   3    2.42    4.75
   7  -2  -3   -1.20    3.35
  -7   2   3   -3.62    3.53
   8  -2  -4   -0.89    3.27
   8   2  -4   -0.85    3.98
  -8  -2   4   -1.00    4.66
  -8   2   4   -2.20    3.44
  -9   2   5   -4.83    3.50
  -9  -2   5   -2.52    4.05
   9  -2  -5   -2.09    3.81
   9   2  -5   -0.62    3.94
 -10  -2   6    4.78    3.72
  10  -2  -6   -9.50    3.22
  10   2  -6   -7.09    3.73
 -10   2   6   -7.43    3.86
  11  -2  -7   -6.09    3.72
 -11  -2   7    5.41    3.69
  11   2  -7   -0.58    4.04
 -11   2   7    5.90    3.77
 -12   2   8   11.06    3.78
  12  -2  -8    2.15    3.69
  12   2  -8   14.17    3.91
  13   2  -9   -4.06    4.26
  13  -2  -9    2.34    4.17
  13   2  -9   -0.07    4.21
 -13   2   9   -2.40    4.22
  14   2 -10   16.08    4.57
  14  -2 -10   15.35    4.55
  14   2 -10    7.75    4.76
   6  -3 -10    6.21    3.92
   6  -3 -10    6.06    3.82
   6   3 -10    0.63    3.81
   6   3 -10   -1.49    3.84
   5  -3  -9   28.46    3.53
   5  -3  -9   37.47    3.55
   5   3  -9   41.45    3.92
   5   3  -9   40.47    3.97
   4  -3  -8   -4.86    3.27
   4   3  -8    0.72    3.73
   4  -3  -8   -1.97    3.83
   4   3  -8   -4.97    3.29
   3   3  -7   30.46    3.29
   3   3  -7   23.22    3.78
   3  -3  -7   34.25    3.20
   3  -3  -7   27.60    3.19
   2   3  -6    1.84    3.98
   2  -3  -6   -5.65    3.28
   2  -3  -6    0.35    3.79
   1  -3  -5    0.19    3.39
   1   3  -5    1.09    3.89
   1  -3  -5    7.93    3.83
  -1  -3   5    3.18    3.32
   0  -3  -4    4.43    3.80
   0   3  -4   -1.06    3.32
   0  -3   4    4.11    3.28
   0  -3  -4   -1.31    3.30
  -1  -3  -3   -1.21    3.96
   1  -3   3    0.11    3.85
  -1   3  -3    0.45    3.42
  -2   3  -2   -5.68    3.68
   2  -3   2   -0.42    3.57
   2   3   2    1.69    4.13
  -2  -3  -2   -1.56    4.09
  -3  -3  -1  128.46    4.82
   3   3   1  125.68    4.33
  -3   3  -1  127.36    3.98
   3  -3   1  128.28    3.91
   4   3   0   -2.04    4.94
  -4  -3   0    0.97    4.53
   4  -3   0    0.92    3.73
  -4   3   0    0.37    3.78
  -5   3   1  382.96    4.72
   5  -3  -1  363.63    4.63
  -5  -3   1  383.71    6.07
   5   3  -1  311.30    5.89
   6  -3  -2    3.59    3.40
  -6   3   2    7.52    3.56
   6   3  -2    2.82    5.05
  -6  -3   2    5.20    5.34
   7   3  -3   54.07    4.41
  -7   3   3   54.17    3.58
   7  -3  -3   52.74    3.37
  -7  -3   3   53.23    4.68
  -8  -3   4    7.08    4.53
   8   3  -4    5.25    4.31
  -8   3   4    1.54    4.02
   8  -3  -4    4.83    3.29
   9  -3  -5   -3.54    3.30
   9   3  -5    5.76    4.39
  -9  -3   5    2.26    4.02
  -9   3   5    1.94    3.46
  10  -3  -6   -2.30    3.64
  10   3  -6    1.21    3.73
 -10  -3   6    1.49    4.05
 -10   3   6   -8.39    3.77
  11  -3  -7   -1.84    3.64
  11   3  -7    6.56    3.75
 -11   3   7   -0.43    3.33
  12   3  -8   -3.61    3.99
  12  -3  -8   -5.01    3.33
  12   3  -8    1.62    4.33
 -12   3   8   -6.26    3.90
  13  -3  -9   19.02    4.27
  13   3  -9   16.50    4.75
 -13   3   9   11.87    3.70
  13   3  -9   14.65    4.76
   6  -4 -10   14.77    4.30
   6   4 -10    7.52    4.52
   6  -4 -10   17.55    3.94
   6   4 -10   14.27    4.52
   5   4  -9    1.92    4.06
   5  -4  -9   -0.89    3.57
   5   4  -9    4.35    3.59
   5  -4  -9    2.36    3.50
   4   4  -8   33.53    3.32
   4  -4  -8   38.96    3.93
   4   4  -8   35.19    3.84
   4  -4  -8   33.11    3.86
   3   4  -7   -5.41    3.69
   3  -4  -7    1.74    3.33
   3   4  -7   -2.66    3.27
   3  -4  -7   -3.12    3.73
   2  -4  -6    4.47    3.90
   2   4  -6   -1.87    3.77
  -2  -4   6   -3.75    3.75
   2  -4  -6   -3.18    3.30
   1   4  -5    2.77    3.91
   1  -4  -5   -3.79    3.45
  -1  -4   5   -3.56    3.82
   1  -4  -5    6.86    3.88
   0   4  -4    1.37    3.38
   0  -4   4    4.76    3.90
   0  -4  -4   -1.20    3.42
   0  -4  -4    6.81    3.37
  -1  -4  -3    2.19    3.86
   1  -4   3   -1.51    3.72
  -1   4  -3    3.58    3.83
  -1  -4  -3   -1.92    3.87
  -2   4  -2   35.55    4.06
   2  -4   2   36.80    3.96
  -2  -4  -2   36.77    4.18
   3   4   1    6.76    5.21
  -3  -4  -1    4.82    5.14
   3  -4   1   -1.41    4.05
  -3   4  -1    2.36    4.13
  -4   4   0  348.65    4.11
   4   4   0  299.81    6.69
  -4  -4   0  314.57    6.34
   4  -4   0  342.88    4.51
  -5   4   1    1.60    3.55
  -5  -4   1    2.52    6.20
   5   4  -1    4.43    6.12
   5  -4  -1    4.57    3.41
  -6   4   2  109.84    4.10
  -6  -4   2  111.11    6.37
   6   4  -2   91.88    5.62
   6  -4  -2  105.29    3.43
  -7   4   3    2.24    3.44
   7  -4  -3   -1.10    3.25
   7   4  -3   -0.20    4.62
  -7  -4   3   -2.51    5.39
  -8   4   4   -2.88    4.02
   8   4  -4   -4.88    4.74
   8  -4  -4    4.13    3.79
  -8  -4   4    3.70    4.93
   9  -4  -5    5.01    3.71
   9   4  -5    3.77    4.33
  -9   4   5   -1.17    3.88
  -9  -4   5    1.12    4.40
  10  -4  -6    0.41    3.10
  10   4  -6    2.08    4.07
 -10   4   6    3.75    3.27
 -11   4   7   -2.16    3.86
  11  -4  -7    2.68    3.25
  11   4  -7    5.31    4.14
  11   4  -7   -2.76    3.85
  12  -4  -8   14.05    3.49
  12   4  -8   10.60    4.00
 -12   4   8   14.15    3.87
  12   4  -8    8.67    4.04
 -13   4   9   -1.05    4.33
  13   4  -9    0.96    4.42
  13   4  -9    1.81    4.45
  13  -4  -9    3.02    4.20
   6   5 -10    2.84    4.63
   6  -5 -10    3.29    4.44
   6  -5 -10   -1.33    4.34
   6   5 -10   -1.74    4.01
   5  -5  -9   30.50    4.12
   5   5  -9   28.37    4.24
   5   5  -9   33.82    4.19
   5  -5  -9   26.55    3.57
   4   5  -8   -7.58    3.87
   4   5  -8    0.48    3.84
   4  -5  -8   -2.52    3.85
   4  -5  -8   -3.99    3.86
   3   5  -7   27.11    3.30
   3  -5  -7   20.13    3.81
   3  -5  -7   16.57    3.75
   3   5  -7   27.40    3.31
  -2  -5   6   -1.92    3.73
   2   5  -6    0.59    3.62
   2  -5  -6    1.84    3.68
   2  -5  -6    1.47    3.83
   1  -5  -5   -2.36    4.02
   1  -5  -5    3.47    3.44
   1   5  -5    2.66    3.87
  -1  -5   5    2.65    3.85
   0  -5  -4   -2.61    3.98
   0  -5  -4   -6.74    4.08
   0   5  -4   -2.47    3.94
   0  -5   4   -0.74    3.83
   1  -5   3    0.90    3.94
  -1   5  -3    1.18    4.02
  -1  -5  -3    2.14    4.02
  -1  -5  -3    6.60    4.09
  -2  -5  -2    2.64    4.11
  -2  -5  -2    0.82    4.47
   2  -5   2   -2.28    3.70
  -2   5  -2   -2.60    3.83
  -3  -5  -1   72.30    4.98
   3  -5   1   79.32    3.84
  -3   5  -1   81.81    3.88
  -3  -5  -1   87.82    5.03
  -4   5   0   12.29    3.90
  -4  -5   0    9.16    6.16
   4  -5   0   15.44    3.77
  -5  -5   1  277.57   10.11
  -5   5   1  259.84    3.74
   5  -5  -1  252.14    3.58
   6   5  -2   -1.88    7.84
  -6   5   2   -1.65    3.34
   6  -5  -2    2.37    3.62
  -6  -5   2   -1.08    8.23
   7  -5  -3   48.81    3.32
   7   5  -3   37.79    6.02
  -7   5   3   47.00    3.51
   8  -5  -4    2.95    3.73
   8   5  -4    0.51    4.88
  -8   5   4    2.14    3.48
   9   5  -5   -0.37    4.52
   9  -5  -5    4.24    3.65
  -9   5   5   -1.76    3.75
   9   5  -5    6.11    4.75
  10  -5  -6   -2.91    3.07
  10   5  -6    2.04    4.16
  10   5  -6    2.88    4.23
 -10   5   6    3.97    3.59
  11  -5  -7    1.54    3.25
 -11   5   7    0.20    3.32
  11   5  -7    0.53    4.62
  11   5  -7   -0.45    4.23
  12   5  -8    2.15    4.54
  12  -5  -8    1.32    3.97
  12   5  -8    4.70    4.41
 -12   5   8   -4.26    3.59
  13  -5  -9   11.93    3.84
  13   5  -9    9.43    4.93
 -13   5   9   12.61    3.82
  13   5  -9    4.94    5.03
   5   6  -9   -6.13    4.33
   5  -6  -9    3.72    3.64
   5   6  -9    4.78    4.31
   5  -6  -9    3.28    4.27
   4  -6  -8   23.33    3.40
   4   6  -8   24.80    4.01
   4  -6  -8   19.37    3.47
   4   6  -8   19.14    4.06
   3   6  -7   -4.53    3.77
   3  -6  -7   -1.66    3.81
   3  -6  -7   -2.81    3.67
   3   6  -7   -3.60    3.80
   2   6  -6    1.75    3.58
   2  -6  -6    2.94    3.31
  -2  -6   6   -0.26    3.67
   2  -6  -6    2.24    3.14
   1   6  -5   -3.97    3.78
  -1  -6   5   -1.26    3.75
   1  -6  -5   11.45    3.81
   1  -6  -5   -1.67    3.23
   0  -6   4    9.07    3.84
   0   6  -4    8.11    3.89
   0  -6  -4   10.73    3.85
   0  -6  -4   14.39    4.05
  -1  -6  -3    9.20    4.11
  -1   6  -3    3.14    3.97
   1  -6   3   -0.45    3.93
  -1  -6  -3   -2.69    4.40
  -2  -6  -2   29.68    4.57
  -2  -6  -2   21.95    4.46
   2  -6   2   21.95    3.98
  -2   6  -2   23.29    4.01
  -3  -6  -1    4.09    4.98
  -3  -6  -1    2.51    5.13
   3  -6   1    3.26    3.95
  -3   6  -1    1.36    3.99
  -4  -6   0  196.41    7.60
  -4   6   0  192.56    4.18
  -4  -6   0  169.36    7.13
   4  -6   0  181.06    4.09
  -5   6   1   -2.60    3.36
   5  -6  -1   -2.57    3.75
   6  -6  -2  112.12    3.78
  -6   6   2  110.22    4.00
   7  -6  -3   -0.01    3.28
  -7   6   3    0.96    3.98
   8  -6  -4    3.68    3.61
  -8   6   4    6.29    3.86
   8   6  -4    3.39    6.12
   8   6  -4    0.62    5.68
   9   6  -5   -2.49    4.70
   9  -6  -5    1.42    3.49
  -9   6   5   -3.59    3.21
   9   6  -5   -5.32    5.16
 -10   6   6    0.90    3.33
  10   6  -6   -1.75    4.47
  10  -6  -6    2.33    3.21
  10   6  -6    0.88    5.00
  11   6  -7    2.68    4.75
  11   6  -7   -0.54    4.34
  11  -6  -7    3.03    3.40
 -11   6   7    4.81    3.47
  12   6  -8    5.46    4.79
  12  -6  -8    4.31    4.20
  12   6  -8    5.05    5.17
 -12   6   8    2.58    3.66
  13   6  -9    1.86    5.57
  13   6  -9   -2.34    5.21
 -13   6   9    1.07    4.45
  13  -6  -9    1.21    4.07
   5  -7  -9   33.45    4.36
   5   7  -9   27.94    4.54
   5   7  -9   19.05    4.58
   5  -7  -9   26.43    3.83
   4  -7  -8   -1.11    4.14
   4   7  -8   -3.23    4.19
   4  -7  -8    0.02    4.05
   4   7  -8    2.23    4.20
   3  -7  -7   11.65    3.89
   3   7  -7   13.78    3.81
   3   7  -7    7.97    3.83
   3  -7  -7   13.85    3.74
   2  -7  -6    1.69    3.64
   2  -7  -6    5.79    3.79
  -2  -7   6    1.20    4.12
   2   7  -6    3.48    4.07
   1  -7  -5   -3.75    3.19
   1   7  -5    3.99    3.66
  -1  -7   5    0.47    3.55
   1  -7  -5   -0.42    3.56
   0  -7  -4    0.92    3.73
   0  -7   4   -2.84    4.10
   0  -7  -4   -0.61    3.89
   0   7  -4    0.64    4.16
   1  -7   3   -2.01    4.25
  -1  -7  -3   -3.98    3.85
  -1  -7  -3    2.22    4.52
  -1   7  -3    5.28    3.86
   2  -7   2    5.26    4.33
  -2  -7  -2   -3.44    5.03
  -2   7  -2    1.56    3.91
  -2  -7  -2    1.47    4.37
  -3   7  -1   73.37    4.05
  -3  -7  -1   66.01    5.24
   3  -7   1   68.97    4.01
  -3  -7  -1   67.89    5.92
   4  -7   0   -5.03    3.88
  -4  -7   0    1.28    9.86
  -4   7   0    0.02    3.96
  -4  -7   0    0.64    9.88
  -5   7   1  146.16    3.68
   5  -7  -1  137.09    3.51
  -6   7   2    0.38    4.09
   6  -7  -2    4.61    3.79
  -7   7   3   41.50    3.57
   7  -7  -3   43.67    3.87
  -8   7   4    2.26    3.42
   8  -7  -4    3.62    3.25
   9   7  -5    1.59    6.24
  -9   7   5    1.14    3.39
   9  -7  -5   -2.33    3.25
   9   7  -5    1.92    5.99
  10   7  -6    1.32    5.26
  10  -7  -6    4.62    3.21
  10   7  -6   -4.37    5.59
 -10   7   6    4.24    3.33
  11   7  -7   -0.15    5.17
 -11   7   7   -3.38    3.55
  11   7  -7   -0.15    5.13
  11  -7  -7    2.07    3.50
  12   7  -8   -0.86    5.67
  12  -7  -8    0.02    4.33
  12   7  -8   -0.23    5.72
 -12   7   8   -1.75    3.84
   5   8  -9    0.84    4.74
   5   8  -9   -6.16    5.13
   5  -8  -9   -3.75    4.10
   5  -8  -9   -3.01    4.01
   4   8  -8   14.46    4.38
   4   8  -8   20.17    4.89
   4  -8  -8    8.81    3.74
   4  -8  -8   14.92    4.16
   3  -8  -7    0.11    3.96
   3   8  -7   -4.00    3.98
   3  -8  -7   -8.13    3.83
   3   8  -7   -4.69    4.01
   2  -8  -6    7.09    3.32
  -2  -8   6    1.97    4.18
   2   8  -6   -0.40    3.84
   2  -8  -6    4.17    3.67
   1   8  -5   -0.86    4.01
   1  -8  -5   -2.98    3.73
   1  -8  -5   -1.19    3.56
  -1  -8   5    8.01    4.04
   0  -8   4    1.54    3.96
   0  -8  -4   -2.08    3.71
   0   8  -4    0.62    4.01
   0  -8  -4    2.61    3.53
   1  -8   3    0.57    4.02
  -1   8  -3    8.28    3.65
  -1  -8  -3   -5.43    4.21
  -1  -8  -3   -0.15    4.02
  -2   8  -2   13.30    3.85
  -2  -8  -2   11.91    4.84
  -2  -8  -2   14.81    4.71
   2  -8   2   14.52    3.83
  -3   8  -1    4.78    3.89
  -3  -8  -1    3.20    5.45
   3  -8   1    0.59    3.84
  -3  -8  -1    4.33    5.57
  -4   8   0  121.32    4.43
   4  -8   0  118.41    3.93
  -5   8   1   -0.45    3.96
   5  -8  -1   -3.70    3.77
  -6   8   2   53.05    3.48
   6  -8  -2   54.38    3.71
  -7   8   3   -1.88    3.30
   7  -8  -3    2.80    3.15
   8  -8  -4    1.33    3.65
  -8   8   4   -5.50    3.30
   9  -8  -5   -1.85    3.71
  -9   8   5   -4.98    3.36
  10  -8  -6   -2.37    3.35
  10   8  -6    0.86    8.11
  10   8  -6    1.25    8.04
 -10   8   6    2.32    3.42
  11   8  -7    1.70    6.45
  11   8  -7   -0.68    6.76
  11  -8  -7    0.40    3.48
 -11   8   7   -0.23    3.56
  12   8  -8    9.50    6.67
  12   8  -8    1.51    6.66
  12  -8  -8    6.90    4.48
 -12   8   8    0.75    4.55
   4  -9  -8    1.36    4.26
   4   9  -8    3.96    4.92
   4   9  -8   -4.89    5.09
   4  -9  -8    4.61    4.35
   3   9  -7   13.12    4.21
   3   9  -7    5.11    4.23
   3  -9  -7   12.86    4.01
   3  -9  -7   14.10    4.09
   2  -9  -6    5.53    3.83
   2   9  -6    1.04    4.47
  -2  -9   6   -6.52    4.47
   2  -9  -6   -2.19    3.36
   1  -9  -5   -0.84    3.69
   1   9  -5   -0.95    3.82
  -1  -9   5   -1.67    3.78
   1  -9  -5    1.13    3.81
   0  -9   4    1.77    4.09
   0   9  -4    3.12    4.07
   0  -9  -4    0.60    4.13
   0  -9  -4    1.20    3.91
  -1  -9  -3    0.33    3.98
  -1  -9  -3   -0.83    4.55
   1  -9   3    5.32    4.05
  -1   9  -3    6.83    4.08
  -2  -9  -2    3.15    4.85
   2  -9   2    2.26    3.60
  -2  -9  -2   -3.42    4.91
  -2   9  -2    5.35    3.68
  -3  -9  -1   35.34    5.93
  -3   9  -1   37.76    4.12
  -3  -9  -1   41.32    5.88
   3  -9   1   36.87    3.69
   4  -9   0   -1.49    3.60
  -4   9   0   -4.28    3.73
  -5   9   1  112.39    3.93
   5  -9  -1  117.65    3.79
   6  -9  -2    3.69    3.52
  -6   9   2   -2.55    3.73
  -7   9   3   14.80    3.32
   7  -9  -3   23.46    3.58
   8  -9  -4    3.71    3.68
  -8   9   4   -1.33    3.31
   9  -9  -5   -1.34    3.23
  -9   9   5   -4.93    3.36
 -10   9   6    5.68    3.50
  10  -9  -6    2.24    3.48
  11  -9  -7   -7.13    4.36
 -11   9   7    1.43    4.28
   3  10  -7    0.59    4.94
   3  10  -7   -4.33    4.97
   3 -10  -7   -3.41    4.34
   3 -10  -7   -0.84    4.25
   2 -10  -6    2.34    3.88
   2  10  -6    1.04    4.57
   2 -10  -6    0.46    3.96
  -2 -10   6   -0.64    4.49
   1 -10  -5   -0.43    4.14
   1 -10  -5    0.78    3.87
   1  10  -5    0.34    4.33
  -1 -10   5   -0.51    4.32
   0 -10   4   -0.53    4.20
   0 -10  -4    3.10    4.14
   0  10  -4    0.11    4.54
   0 -10  -4   -2.14    3.74
  -1 -10  -3   -2.46    4.52
  -1  10  -3   -0.76    4.19
   1 -10   3   -2.30    4.18
  -1 -10  -3    1.40    4.20
  -2  10  -2    7.88    4.13
   2 -10   2   10.24    4.11
  -2 -10  -2    9.54    4.96
  -2 -10  -2    6.99    4.91
  -3 -10  -1    0.27    6.43
  -3 -10  -1    2.86    6.33
  -3  10  -1   -3.32    3.67
   3 -10   1   -2.93    4.02
   4 -10   0   58.90    3.72
  -4  10   0   58.07    3.81
   5 -10  -1    0.94    3.63
  -5  10   1   -1.32    3.73
  -6  10   2   39.58    3.87
   6 -10  -2   28.14    3.76
  -7  10   3    4.11    3.88
   7 -10  -3    0.78    3.72
  -8  10   4    5.50    3.34
   8 -10  -4   -2.20    3.30
   9 -10  -5   -3.00    3.84
  -9  10   5    4.38    3.53
  10 -10  -6   -0.90    4.20
 -10  10   6   -0.59    4.31
  11 -10  -7   -1.05    3.98
 -11  10   7   -3.59    4.04
   3  11  -7    6.01    5.40
   3 -11  -7    8.36    4.65
   3  11  -7    8.51    5.62
   3 -11  -7    0.55    4.58
   2 -11  -6    6.09    4.78
   2  11  -6   -0.46    4.92
   2 -11  -6   -1.55    4.36
   1  11  -5   -1.01    5.01
   1 -11  -5    5.23    4.06
  -1 -11   5   -6.33    5.01
   1 -11  -5   -0.64    4.04
   0 -11  -4    0.50    4.34
   0  11  -4    3.45    4.35
   0 -11   4    1.08    4.68
   0 -11  -4    4.59    4.38
  -1 -11  -3   -1.56    4.61
   1 -11   3    1.87    4.29
  -1  11  -3    5.33    4.31
  -1 -11  -3    1.46    4.65
  -2 -11  -2    0.24    5.30
  -2 -11  -2   -1.36    4.98
   2 -11   2    3.38    4.25
  -2  11  -2    0.09    4.28
   3 -11   1   22.65    4.23
  -3  11  -1   26.49    3.85
   4 -11   0   -2.64    4.11
  -4  11   0    0.85    4.18
   5 -11  -1   35.38    3.79
  -5  11   1   33.84    3.90
   6 -11  -2   -0.32    3.81
  -6  11   2    0.75    3.85
  -7  11   3   15.08    4.07
   7 -11  -3   15.48    3.82
  -8  11   4   -4.95    3.63
   8 -11  -4    4.81    3.98
  -9  11   5   -2.87    4.21
   9 -11  -5    9.98    4.11
  10 -11  -6   -3.59    4.52
 -10  11   6   -7.23    4.01
   2  12  -6    4.51    5.54
   2 -12  -6   -2.14    4.68
   2 -12  -6    5.93    4.63
   1 -12  -5   -1.92    4.35
   1 -12  -5   -3.41    4.79
  -1 -12   5   -3.33    5.44
   1  12  -5    0.80    5.31
   0 -12   4    2.53    5.20
   0 -12  -4    0.31    4.65
   0  12  -4    1.84    5.08
   0 -12  -4    0.15    4.71
  -1 -12  -3    1.27    4.93
  -1 -12  -3   -5.27    4.93
   1 -12   3   -2.50    4.91
  -1  12  -3    0.97    4.52
  -2 -12  -2   13.71    6.19
  -2  12  -2    6.07    4.42
  -2 -12  -2    6.95    5.90
   2 -12   2    9.80    4.44
   3 -12   1   -1.58    4.72
  -3  12  -1    1.31    4.43
   4 -12   0   28.03    4.41
  -4  12   0   33.00    4.58
  -5  12   1   -8.56    4.43
   5 -12  -1   -1.38    3.97
  -6  12   2   26.65    4.22
   6 -12  -2   25.20    4.42
  -7  12   3    3.34    4.25
   7 -12  -3   -0.37    4.15
  -8  12   4   -7.89    4.36
   8 -12  -4   -1.81    4.25
  -9  12   5   -3.91    4.48
   9 -12  -5    3.42    3.96
   0 -13  -4   -3.25    5.53
   0  13  -4   -0.59    5.85
   0 -13   4    0.34    6.07
   0 -13  -4    1.00    5.50
  -1 -13  -3   -0.45    5.78
  -1 -13  -3    1.56    6.08
   1 -13   3    5.28    5.29
  -1  13  -3   -1.58    5.26
   2 -13   2   -5.10    5.27
  -2 -13  -2    0.25    7.74
  -2  13  -2    4.12    5.20
  -2 -13  -2    2.84    7.65
   3 -13   1   13.79    4.73
  -3  13  -1   16.44    4.73
   4 -13   0   -0.82    4.77
  -4  13   0   -1.22    4.80
  -5  13   1   23.13    4.36
   5 -13  -1   16.93    4.78
  -6  13   2    1.71    5.03
   6 -13  -2    3.07    4.39
   7 -13  -3    6.82    4.51
  -7  13   3    6.34    4.59
   8 -13  -4    6.27    4.47
   2 -14   2   -0.46    6.01
  -2  14  -2    6.04    5.66
  -3  14  -1   -0.03    5.58
   3 -14   1    2.34    5.49
   4 -14   0   15.69    5.49
  -4  14   0    7.22    5.14
   5 -14  -1    5.48    5.11
  -5  14   1    1.63    5.20
  -6  14   2   14.23    4.82
   4   0  -9   -3.62    3.48
   4   0  -9    1.49    3.41
   2   0  -7   69.99    3.17
   2   0  -7   68.96    3.20
   0   0  -5  145.74    3.46
   0   0   5  135.59    3.47
   2   0   3    4.12    3.45
  -2   0  -3   10.63    3.50
   4   0   1   -0.76    4.31
  -4   0  -1   -2.79    3.82
  -6   0   1   79.05    3.75
   6   0  -1   69.97    4.28
   8   0  -3  246.33    4.11
  -8   0   3  257.14    4.33
  10   0  -5   45.55    3.93
 -10   0   5   48.19    4.11
  12   0  -7   -0.21    3.22
 -12   0   7    1.42    3.30
 -14   0   9   -6.20    4.14
  14   0  -9   -0.43    4.22
   5   1 -10   -8.09    4.33
   5   1 -10   -0.23    4.35
   5  -1 -10   -4.50    3.76
   5  -1 -10    0.99    4.24
   4  -1  -9   -1.80    3.52
   4   1  -9   -3.58    3.94
   4   1  -9   -3.81    3.41
   4  -1  -9    1.86    3.48
   3  -1  -8   31.33    3.78
   3   1  -8   32.18    3.35
   3  -1  -8   36.75    3.73
   3   1  -8   29.76    3.35
   2   1  -7   -7.87    3.72
   2  -1  -7   -5.95    3.58
   2   1  -7    3.61    3.60
   2  -1  -7    1.56    3.54
   1  -1  -6  108.78    3.92
   1   1  -6  114.14    3.41
   1  -1  -6  126.51    3.45
   0   1  -5    4.14    3.31
   0  -1  -5    5.00    3.34
   0  -1   5    2.73    3.79
  -1  -1  -4   24.61    3.82
   1   1   4   24.35    3.29
  -1   1  -4   27.21    3.86
   1  -1   4   24.53    3.31
   2  -1   3   -1.61    3.88
  -2   1  -3    0.06    3.98
  -2  -1  -3   -2.00    3.99
   2   1   3   -3.07    3.44
   3   1   2    1.00    3.58
   3  -1   2    2.33    3.59
  -3   1  -2    5.26    4.23
  -3  -1  -2   -0.13    3.64
   4   1   1   -0.63    4.19
   4  -1   1    7.86    4.29
  -4  -1  -1    2.28    3.63
  -4   1  -1    3.95    4.35
   5   1   0    2.53    4.14
   5  -1   0    0.38    4.32
  -5  -1   0    3.02    4.05
  -5   1   0   -3.16    3.76
  -6  -1   1    3.63    4.11
  -6   1   1   -1.38    4.23
   6   1  -1    1.55    4.10
   6  -1  -1    6.01    3.58
   7  -1  -2  208.77    4.19
  -7  -1   2  215.17    4.43
  -7   1   2  209.40    4.33
   7   1  -2  205.84    4.28
   8  -1  -3   -4.32    3.73
   8   1  -3   -1.30    3.90
  -8   1   3   -2.61    3.93
  -8  -1   3    4.15    4.12
   9   1  -4  138.37    4.06
   9  -1  -4  135.92    3.43
  -9  -1   4  139.67    4.35
  -9   1   4  139.75    3.62
  10   1  -5    5.51    3.85
  10  -1  -5   11.88    3.94
 -10   1   5    8.64    4.16
 -10  -1   5    0.67    4.03
 -11   1   6   16.58    3.86
 -11  -1   6    6.89    3.73
  11   1  -6    9.14    3.66
  11  -1  -6    5.36    3.71
  12   1  -7    9.88    3.73
  12  -1  -7   -3.95    3.67
 -12   1   7    1.00    3.26
 -12  -1   7   -0.94    3.76
 -13   1   8    6.50    3.94
  13   1  -8   -0.13    3.42
  13  -1  -8    2.97    3.39
 -13  -1   8   -1.14    3.97
 -14  -1   9   -5.18    3.73
  14   1  -9   -4.11    4.26
  14  -1  -9   -2.89    4.16
 -14   1   9    2.51    4.19
   5  -2 -10   -2.03    3.83
   5   2 -10    2.23    3.83
   5   2 -10    3.40    3.84
   5  -2 -10    7.67    4.31
   4   2  -9    2.87    3.47
   4  -2  -9    6.47    3.48
   4   2  -9   -1.71    3.45
   4  -2  -9    5.33    4.05
   3   2  -8    3.38    3.26
   3   2  -8    4.44    3.68
   3  -2  -8   -2.80    3.22
   3  -2  -8   -8.68    3.73
   2  -2  -7   81.14    3.26
   2   2  -7   84.57    3.72
   2   2  -7   81.91    3.33
   2  -2  -7   85.44    3.74
   1   2  -6   -3.88    3.35
  -1  -2   6   -1.54    3.86
   1  -2  -6    5.99    3.81
   1  -2  -6   -0.85    3.28
   0  -2  -5   82.77    3.42
   0   2  -5   78.64    3.39
   0  -2   5   75.80    3.37
   0  -2  -5   72.83    3.40
  -1  -2  -4   -1.62    3.25
  -1   2  -4   -1.28    3.24
   1   2   4    1.84    3.28
   1  -2   4   -4.44    3.70
   2  -2   3   -1.62    3.80
  -2  -2  -3    1.77    3.33
  -2   2  -3   -2.37    3.94
   2   2   3    1.52    3.36
  -3  -2  -2    6.07    3.55
   3  -2   2   -0.38    3.51
   3   2   2   -1.47    4.09
  -3   2  -2    4.37    4.13
   4   2   1   31.33    4.17
   4  -2   1   28.10    3.67
  -4  -2  -1   25.76    4.20
  -4   2  -1   31.14    3.75
   5   2   0    0.82    4.52
   5  -2   0   -1.13    3.65
  -5  -2   0   -1.37    4.03
  -5   2   0   -0.01    3.66
  -6  -2   1   74.05    4.75
  -6   2   1   74.66    3.70
   6   2  -1   68.93    4.69
   6  -2  -1   69.61    3.63
  -7   2   2    1.53    3.48
  -7  -2   2    0.84    4.13
   7   2  -2    3.21    4.42
   7  -2  -2    3.02    3.33
   8   2  -3  223.53    4.58
  -8   2   3  229.98    3.65
   8  -2  -3  225.04    3.94
  -8  -2   3  227.73    4.49
   9   2  -4    5.62    3.94
   9  -2  -4   -0.22    3.76
  -9   2   4   -1.21    3.46
  -9  -2   4    9.15    4.66
  10   2  -5   87.62    4.02
  10  -2  -5   87.60    3.44
 -10   2   5   90.41    4.17
 -10  -2   5   91.14    4.20
  11   2  -6   -2.13    3.59
  11  -2  -6   10.74    3.20
 -11  -2   6    1.78    4.06
 -11   2   6    1.93    3.32
 -12   2   7   -0.50    3.30
  12   2  -7   -0.94    3.75
  12  -2  -7    2.74    3.23
 -12  -2   7   -5.22    3.73
 -13  -2   8   -0.99    4.03
  13   2  -8    0.23    3.98
  13  -2  -8   -6.79    3.86
 -13   2   8    0.34    3.49
  14   2  -9    4.21    4.42
  14  -2  -9   -4.04    3.73
 -14   2   9    6.32    3.74
   5   3 -10    4.88    4.45
   5  -3 -10   -6.66    4.28
   5  -3 -10    0.67    3.96
   5   3 -10    5.75    4.51
   4  -3  -9   -5.95    4.04
   4   3  -9    3.30    3.48
   4   3  -9   -2.35    3.50
   4  -3  -9   -1.85    3.56
   3  -3  -8   28.82    3.72
   3   3  -8   29.38    3.79
   3  -3  -8   32.31    3.36
   3   3  -8   29.20    3.33
   2   3  -7    0.01    3.17
   2  -3  -7    5.01    3.26
   2  -3  -7   -1.63    3.66
   1  -3  -6   77.15    3.27
   1   3  -6   79.18    3.44
  -1  -3   6   78.82    3.98
   1  -3  -6   90.51    3.33
   0  -3  -5   -4.33    3.81
   0  -3  -5    7.69    3.36
   0   3  -5    4.26    3.35
   0  -3   5   -6.83    3.84
   1  -3   4   30.79    3.25
  -1   3  -4   30.24    3.81
  -1  -3  -4   35.32    3.80
   2  -3   3    2.38    3.69
  -2   3  -3    3.47    3.29
  -2  -3  -3   -4.19    3.87
   2   3   3    2.77    3.82
  -3  -3  -2   11.17    4.02
   3  -3   2   17.24    3.40
  -3   3  -2   17.36    3.48
   3   3   2   17.11    4.02
   4   3   1   -0.47    4.62
  -4  -3  -1    3.42    4.13
   4  -3   1    6.64    4.01
  -4   3  -1    2.59    4.05
   5   3   0   19.68    4.70
   5  -3   0   19.50    3.53
  -5  -3   0   20.01    4.68
  -5   3   0   26.77    4.05
  -6  -3   1    3.11    4.99
  -6   3   1    0.48    3.98
   6   3  -1   -1.03    4.53
   6  -3  -1   -0.51    3.89
  -7   3   2  166.69    3.65
  -7  -3   2  164.02    5.25
   7   3  -2  143.95    4.98
   7  -3  -2  157.54    3.49
   8   3  -3    2.03    4.30
   8  -3  -3    5.29    3.22
  -8  -3   3    2.12    4.61
  -8   3   3    4.67    3.41
  -9   3   4  133.12    3.66
   9   3  -4  127.74    4.56
   9  -3  -4  136.42    3.43
  -9  -3   4  131.69    4.84
  10   3  -5    2.24    3.74
  10  -3  -5    3.95    3.18
 -10   3   5    4.95    3.89
 -10  -3   5    0.01    3.91
  11   3  -6    2.42    3.66
  11  -3  -6    3.47    3.25
 -11   3   6    0.83    3.30
 -11  -3   6    6.87    3.71
 -12   3   7    1.14    3.39
 -12  -3   7    1.08    3.82
  12  -3  -7    2.35    3.28
  12   3  -7   -3.40    4.16
  13   3  -8   -1.73    4.01
  13  -3  -8    4.77    3.82
 -13   3   8   -4.95    3.88
  14  -3  -9   -2.70    3.83
  14   3  -9    7.24    4.86
 -14   3   9    1.74    3.86
  14   3  -9   -0.81    4.53
   5  -4 -10    1.08    4.43
   5   4 -10    1.27    3.97
   5  -4 -10   -1.26    3.90
   5   4 -10    5.02    4.57
   4  -4  -9   13.61    3.55
   4   4  -9    6.41    3.57
   4  -4  -9    6.83    4.14
   4   4  -9    3.05    3.59
   3   4  -8   -0.47    3.31
   3   4  -8    3.17    3.82
   3  -4  -8    1.39    3.27
   3  -4  -8   -0.40    3.40
   2  -4  -7   70.30    3.32
   2  -4  -7   70.15    3.42
   2   4  -7   64.13    3.24
   1  -4  -6   -0.98    3.23
   1   4  -6   -2.66    3.25
   1  -4  -6    3.96    3.24
  -1  -4   6   -0.06    3.22
   0  -4  -5  110.48    3.66
   0  -4  -5   91.49    4.13
   0   4  -5   95.22    3.52
   0  -4   5   88.16    3.98
   1  -4   4   -0.84    3.81
  -1  -4  -4    3.16    3.40
  -1  -4  -4    5.95    3.94
  -1   4  -4    2.49    3.85
  -2  -4  -3    1.62    4.04
   2  -4   3    1.48    3.73
  -2   4  -3    5.93    3.77
  -3  -4  -2    0.32    4.01
   3  -4   2    5.58    3.24
  -3   4  -2    2.29    3.33
   3   4   2    4.50    4.05
  -4  -4  -1    8.65    4.50
   4  -4   1   11.22    3.31
  -4   4  -1   10.44    3.88
   4   4   1    9.24    4.58
  -5   4   0   -1.02    3.40
   5   4   0    5.24    4.85
   5  -4   0   -5.11    3.84
  -5  -4   0   -0.01    4.82
  -6   4   1   46.00    3.40
   6   4  -1   34.83    5.16
  -6  -4   1   43.46    5.22
   6  -4  -1   36.83    3.78
  -7   4   2    1.98    3.89
   7   4  -2   -1.77    4.90
  -7  -4   2   -1.90    5.35
   7  -4  -2    4.36    3.21
   8  -4  -3  174.43    3.40
  -8  -4   3  174.86    5.31
  -8   4   3  171.88    3.59
   8   4  -3  155.36    4.86
   9   4  -4    2.48    4.62
  -9   4   4    0.20    3.50
   9  -4  -4   -5.32    3.73
  -9  -4   4    3.54    4.89
  10   4  -5   44.51    4.17
 -10  -4   5   45.19    4.33
 -10   4   5   47.20    3.35
  10  -4  -5   44.38    3.20
  11  -4  -6   -6.77    3.17
 -11  -4   6   -2.72    4.14
  11   4  -6   -0.19    4.07
 -11   4   6    2.97    3.30
  12   4  -7   -3.80    4.24
  12  -4  -7    5.01    3.31
 -12   4   7    6.18    3.81
  13   4  -8    0.46    4.08
  13  -4  -8    4.58    3.46
 -13   4   8   -1.84    3.55
  13   4  -8   -0.59    4.53
  14   4  -9    4.11    4.52
  14  -4  -9   -6.21    3.88
 -14   4   9    1.44    3.85
  14   4  -9    7.05    4.57
   5  -5 -10   -4.33    4.39
   5  -5 -10    2.35    4.51
   5   5 -10   -3.20    4.56
   4  -5  -9    3.46    3.56
   4  -5  -9   10.34    4.21
   4   5  -9    1.81    3.64
   4   5  -9    0.48    4.24
   3  -5  -8   14.97    3.39
   3   5  -8   22.84    3.92
   3   5  -8   17.09    3.37
   3  -5  -8   24.24    3.45
   2   5  -7    9.02    3.65
   2  -5  -7    2.11    3.66
   2  -5  -7   -0.49    3.72
   1  -5  -6   74.29    3.35
   1   5  -6   79.20    3.67
   1  -5  -6   82.58    3.92
  -1  -5   6   70.14    3.73
   0   5  -5    3.44    3.85
   0  -5  -5    4.58    3.44
   0  -5  -5    1.49    3.37
   0  -5   5    2.00    3.30
  -1  -5  -4   17.49    3.91
   1  -5   4   15.08    3.32
  -1   5  -4   11.55    3.91
  -1  -5  -4   19.09    4.00
  -2  -5  -3    2.06    4.01
   2  -5   3    2.18    3.82
  -2   5  -3    2.20    3.41
  -2  -5  -3    6.09    4.44
  -3  -5  -2    3.78    3.93
   3  -5   2   -0.83    3.76
  -3  -5  -2    3.85    4.44
  -3   5  -2    2.40    3.78
  -4  -5  -1    2.68    4.64
   4  -5   1    6.06    3.25
  -4   5  -1    8.40    3.29
  -5   5   0    0.67    3.26
   5  -5   0    9.30    3.68
  -5  -5   0    1.71    5.05
   5   5   0    0.67    5.42
   6   5  -1   -2.32    6.06
  -6   5   1    5.51    3.81
  -6  -5   1    1.41    6.21
   6  -5  -1   -0.28    3.17
   7   5  -2   99.96    6.55
  -7  -5   2  122.99    7.18
  -7   5   2  113.18    3.54
   7  -5  -2  112.06    3.38
   8  -5  -3   -2.10    3.70
  -8  -5   3    3.17    5.70
   8   5  -3    1.65    5.15
  -8   5   3   -1.45    3.45
  -9   5   4   84.52    4.04
   9  -5  -4   87.13    3.31
  -9  -5   4   95.39    5.41
   9   5  -4   85.41    4.99
  10  -5  -5    3.78    3.51
 -10   5   5   -4.68    3.75
  10   5  -5   -0.75    4.43
  11   5  -6   10.32    4.56
  11  -5  -6    6.49    3.56
 -11   5   6   17.14    3.70
 -12   5   7   -0.40    3.45
  12   5  -7   -1.87    4.27
  12   5  -7    0.34    4.37
  12  -5  -7    2.67    3.84
  13  -5  -8    0.37    3.58
 -13   5   8    9.81    4.07
  13   5  -8    1.90    4.63
  13   5  -8   -6.84    4.76
  14  -5  -9   -1.33    3.99
  14   5  -9   -5.05    5.18
 -14   5   9   10.56    4.42
  14   5  -9   -0.72    5.19
   4  -6  -9    3.65    4.23
   4   6  -9    7.82    4.36
   4   6  -9    5.86    4.31
   4  -6  -9    6.46    4.40
   3  -6  -8   -4.40    4.00
   3   6  -8   -2.40    3.97
   3  -6  -8   -5.32    4.01
   3   6  -8   -1.96    3.89
   2   6  -7   42.80    3.80
   2  -6  -7   57.43    3.83
   2  -6  -7   40.44    3.25
  -1  -6   6    2.51    3.61
   1  -6  -6    0.69    3.09
   1   6  -6   -0.07    3.67
   1  -6  -6    0.23    3.67
   0   6  -5   42.04    3.29
   0  -6   5   39.72    3.67
   0  -6  -5   39.93    3.17
   0  -6  -5   44.24    3.28
   1  -6   4   10.17    3.77
  -1  -6  -4    4.37    3.92
  -1   6  -4    8.18    3.85
  -1  -6  -4   -1.16    3.81
  -2  -6  -3   -2.16    4.28
   2  -6   3   -0.13    3.84
  -2  -6  -3   -5.66    3.98
  -2   6  -3   -3.89    3.83
  -3  -6  -2    3.68    4.35
   3  -6   2   -0.77    3.36
  -3   6  -2   -3.45    3.88
  -3  -6  -2    2.95    4.49
  -4  -6  -1    2.76    4.75
  -4  -6  -1    4.55    4.91
   4  -6   1    3.95    3.37
  -4   6  -1    3.30    3.92
  -5   6   0    3.05    3.79
  -5  -6   0    2.61    6.03
   5  -6   0    4.01    3.70
  -5  -6   0    0.39    6.08
  -6   6   1   32.87    3.82
   6  -6  -1   35.09    3.22
   7  -6  -2    7.58    3.23
  -7   6   2    5.06    3.38
   8   6  -3  135.31    8.18
  -8   6   3  174.65    3.61
   8  -6  -3  170.82    3.43
   9  -6  -4    3.01    3.57
   9   6  -4   -3.43    5.45
  -9   6   4   -0.94    3.74
   9   6  -4   -1.27    5.78
  10  -6  -5   29.46    3.61
 -10   6   5   23.47    3.31
  10   6  -5   28.06    5.18
  10   6  -5   27.16    4.96
  11   6  -6    0.40    4.84
  11  -6  -6   -2.60    3.24
  11   6  -6    3.80    5.05
 -11   6   6    1.22    3.32
 -12   6   7   -2.23    3.53
  12   6  -7    3.15    5.15
  12  -6  -7    3.78    3.45
  12   6  -7    1.06    4.94
  13   6  -8    1.46    5.27
  13  -6  -8    0.45    4.26
 -13   6   8   -3.78    4.39
  13   6  -8    7.60    5.39
   4  -7  -9    3.87    3.82
   4  -7  -9    2.65    4.36
   4   7  -9   -2.55    4.55
   4   7  -9   -3.52    4.55
   3  -7  -8   17.74    3.61
   3  -7  -8   21.09    3.52
   3   7  -8   14.10    4.16
   3   7  -8    9.44    4.05
   2   7  -7    3.55    3.90
   2  -7  -7   -0.94    3.79
   2  -7  -7    6.76    3.75
   1  -7  -6   62.86    3.72
   1   7  -6   55.77    3.78
   1  -7  -6   70.50    3.84
  -1  -7   6   58.33    3.82
   0  -7  -5   -1.93    3.55
   0   7  -5   -1.93    3.63
   0  -7  -5   -0.18    3.67
   0  -7   5    1.27    3.59
   1  -7   4   15.22    3.67
  -1  -7  -4   15.15    3.63
  -1   7  -4   19.59    3.69
  -1  -7  -4   15.69    3.79
   2  -7   3    0.57    3.77
  -2  -7  -3    4.78    4.21
  -2   7  -3    2.27    3.80
  -2  -7  -3    2.67    3.97
  -3  -7  -2    2.29    4.24
   3  -7   2    9.41    3.80
  -3  -7  -2   12.96    4.91
  -3   7  -2    4.86    3.83
  -4   7  -1   -4.22    3.87
  -4  -7  -1    3.30    5.36
   4  -7   1   -2.30    3.82
  -4  -7  -1    2.56    5.35
  -5   7   0    7.59    3.92
  -5  -7   0    7.36    7.90
   5  -7   0    0.02    3.83
  -5  -7   0    6.69    7.54
  -6   7   1    5.01    4.01
   6  -7  -1   -2.27    3.84
  -7   7   2   71.88    4.14
   7  -7  -2   63.64    3.42
   8  -7  -3    2.03    3.17
  -8   7   3   -1.65    3.31
   9  -7  -4   72.10    3.75
  -9   7   4   66.42    3.82
  10   7  -5   -0.14    6.24
 -10   7   5    1.68    3.38
  10  -7  -5   -3.15    3.68
  10   7  -5    0.17    6.30
  11  -7  -6    3.16    3.33
  11   7  -6    6.29    5.76
 -11   7   6    8.72    3.95
  11   7  -6    3.98    5.59
  12   7  -7   -0.16    5.55
 -12   7   7   -3.04    3.66
  12  -7  -7    0.40    3.57
  12   7  -7    1.58    5.74
  13   7  -8    4.15    5.91
  13   7  -8   -1.75    5.93
  13  -7  -8    6.16    3.90
 -13   7   8   -7.41    4.33
   4  -8  -9   -3.77    4.01
   3  -8  -8   -6.39    3.72
   3   8  -8   -4.01    4.40
   3  -8  -8   -1.76    3.77
   3   8  -8    1.07    4.43
   2  -8  -7   29.71    3.94
   2   8  -7   30.57    4.45
   2  -8  -7   42.23    3.57
   1  -8  -6   -0.64    3.72
   1  -8  -6   -2.30    3.81
  -1  -8   6    0.51    3.76
   1   8  -6   -1.95    4.16
   0  -8   5   28.30    3.75
   0  -8  -5   28.91    3.72
   0  -8  -5   39.08    3.74
   0   8  -5   35.92    4.15
   1  -8   4   -5.28    3.58
  -1  -8  -4    2.41    3.68
  -1  -8  -4   -4.45    3.98
  -1   8  -4   -2.61    3.67
  -2  -8  -3    1.87    4.01
   2  -8   3    6.42    3.55
  -2  -8  -3    4.21    4.18
  -2   8  -3   -0.63    3.61
  -3  -8  -2   -0.59    4.58
   3  -8   2    2.54    3.69
  -3  -8  -2    1.16    4.81
  -3   8  -2    4.23    3.72
  -4  -8  -1    3.26    5.77
  -4   8  -1    4.25    3.71
  -4  -8  -1    3.98    5.54
   4  -8   1   -0.19    3.70
  -5   8   0   -3.34    3.81
   5  -8   0    4.02    3.25
  -6   8   1   24.71    3.90
   6  -8  -1   21.79    3.68
  -7   8   2   -1.81    3.30
   7  -8  -2   -5.39    3.17
   8  -8  -3   78.13    3.25
  -8   8   3   69.72    3.40
  -9   8   4    3.59    3.35
   9  -8  -4    1.77    3.56
  10  -8  -5   22.69    3.77
 -10   8   5   23.64    3.40
  11  -8  -6    1.00    3.42
 -11   8   6    9.85    3.49
  12  -8  -7   -1.86    3.69
 -12   8   7   -2.35    3.75
  12   8  -7    1.31    7.73
  12   8  -7    2.44    7.66
  13  -8  -8    5.13    4.02
 -13   8   8   -4.55    4.07
   3  -9  -8   10.51    4.52
   3   9  -8    7.98    5.05
   3   9  -8    9.78    4.62
   3  -9  -8    7.71    4.44
   2  -9  -7   -5.78    4.26
   2  -9  -7    0.42    3.57
   2   9  -7    1.61    4.34
   1  -9  -6   26.48    3.94
   1   9  -6   26.58    4.08
   1  -9  -6   28.66    4.03
  -1  -9   6   34.19    4.41
   0  -9   5   -0.73    4.29
   0  -9  -5    2.57    3.79
   0  -9  -5   -2.24    4.03
   0   9  -5    1.55    3.84
  -1  -9  -4   15.46    3.65
   1  -9   4   12.91    4.11
  -1  -9  -4   16.29    4.23
  -1   9  -4   12.43    3.71
  -2  -9  -3   -0.39    4.07
   2  -9   3   -4.13    3.66
  -2  -9  -3   -0.86    4.22
  -2   9  -3    0.77    3.68
  -3   9  -2   -5.71    3.65
   3  -9   2   -3.64    3.56
  -3  -9  -2   -3.99    4.53
  -3  -9  -2   -1.68    4.97
  -4   9  -1    2.94    3.53
  -4  -9  -1   -0.61    6.05
   4  -9   1    4.73    3.53
  -4  -9  -1    2.36    6.12
   5  -9   0    6.29    3.53
  -5   9   0    1.87    3.69
  -6   9   1    1.36    3.65
   6  -9  -1   -3.35    3.62
   7  -9  -2   48.31    3.24
  -7   9   2   48.30    3.89
  -8   9   3   -1.65    3.30
   8  -9  -3   -5.13    3.68
  -9   9   4   36.73    3.36
   9  -9  -4   34.55    3.25
  10  -9  -5   -1.96    3.35
 -10   9   5    3.50    3.92
  11  -9  -6    2.05    3.97
 -11   9   6    3.47    4.17
 -12   9   7    5.35    3.86
  12  -9  -7    4.04    3.83
   2 -10  -7    9.96    4.34
   2  10  -7   16.33    5.05
   2 -10  -7   18.61    4.34
   1 -10  -6    0.25    4.03
   1  10  -6    3.86    4.72
   1 -10  -6    0.78    4.22
  -1 -10   6    1.56    4.57
   0 -10   5   14.30    4.47
   0 -10  -5   16.90    4.36
   0  10  -5   22.60    4.50
   0 -10  -5   29.36    4.02
  -1 -10  -4    0.46    4.15
   1 -10   4   -3.67    4.32
  -1 -10  -4    1.00    4.33
  -1  10  -4    1.21    4.33
  -2  10  -3    0.54    3.76
  -2 -10  -3   -1.03    4.55
   2 -10   3   -2.13    3.73
  -2 -10  -3    1.32    4.66
  -3  10  -2    1.96    3.67
  -3 -10  -2    2.54    5.28
   3 -10   2    3.97    3.66
  -3 -10  -2   -1.30    5.06
  -4 -10  -1   -1.46    7.51
  -4  10  -1   -1.70    3.70
   4 -10   1   -1.92    3.65
  -4 -10  -1   -3.26    7.70
  -5  10   0    0.12    3.75
   5 -10   0   -1.15    3.69
   6 -10  -1   12.69    3.73
  -6  10   1   15.59    3.84
   7 -10  -2    0.11    3.71
  -7  10   2   -0.70    3.82
  -8  10   3   39.72    3.88
   8 -10  -3   48.24    3.30
  -9  10   4   -2.90    3.47
   9 -10  -4    6.19    3.80
 -10  10   5   17.60    3.68
  10 -10  -5   18.50    4.08
  11 -10  -6   -1.80    3.78
 -11  10   6    2.49    3.87
   1 -11  -6   12.22    4.81
  -1 -11   6    9.32    4.93
   1 -11  -6   21.95    5.01
   1  11  -6   16.64    4.94
   0 -11  -5   -0.76    4.10
   0  11  -5    0.47    4.76
   0 -11  -5    5.75    4.69
   0 -11   5    5.60    4.75
   1 -11   4    8.62    4.49
  -1 -11  -4    0.66    4.42
  -1  11  -4    3.01    4.04
  -1 -11  -4    5.53    4.49
  -2 -11  -3   -2.51    4.71
   2 -11   3    1.05    4.41
  -2  11  -3    2.48    4.43
  -2 -11  -3    0.66    5.07
  -3 -11  -2   -2.47    5.67
   3 -11   2   -6.28    3.86
  -3  11  -2   -0.33    4.24
  -3 -11  -2   -0.41    5.68
   4 -11   1   -1.35    3.82
  -4  11  -1   -3.75    3.88
   5 -11   0    1.30    3.75
  -5  11   0    0.48    4.25
   6 -11  -1   -1.63    3.82
  -6  11   1    0.30    3.80
  -7  11   2   30.47    3.99
   7 -11  -2   25.64    3.95
  -8  11   3    5.40    3.53
   8 -11  -3    2.04    3.86
  -9  11   4   21.09    3.72
   9 -11  -4   24.44    4.18
 -10  11   5    0.10    3.95
  10 -11  -5    6.62    3.83
   0 -12  -5   10.26    4.86
   0  12  -5   14.66    5.12
   0 -12  -5   16.90    4.95
   0 -12   5    9.70    5.11
   1 -12   4   -3.89    4.82
  -1  12  -4    1.11    4.67
  -1 -12  -4   -0.99    5.18
  -1 -12  -4    1.80    5.11
   2 -12   3    2.74    4.52
  -2 -12  -3    3.60    5.41
  -2 -12  -3    1.88    5.39
  -2  12  -3    6.03    4.62
  -3 -12  -2   -4.43    7.09
   3 -12   2    1.14    4.51
  -3 -12  -2    0.14    6.65
  -3  12  -2   -0.96    4.53
   4 -12   1   -0.79    4.47
  -4  12  -1   -0.98    4.05
   5 -12   0    1.37    4.53
  -5  12   0    4.69    4.11
  -6  12   1    4.96    4.18
   6 -12  -1    8.15    4.42
  -7  12   2    1.13    4.06
   7 -12  -2    0.42    4.12
  -8  12   3   21.08    4.22
   8 -12  -3   23.88    4.24
  -9  12   4   -3.38    4.48
   9 -12  -4   -6.23    4.43
   1 -13   4    1.77    5.59
  -1 -13  -4    6.73    5.55
  -1  13  -4    5.86    5.60
  -1 -13  -4    4.21    5.99
  -2 -13  -3    2.64    6.32
   2 -13   3   -3.73    5.05
  -2 -13  -3   -1.15    6.35
  -2  13  -3   -1.29    5.44
   3 -13   2    0.73    4.87
  -3  13  -2    0.55    4.80
   4 -13   1   -2.22    4.80
  -4  13  -1    4.21    4.78
   5 -13   0   -1.56    4.77
  -5  13   0    0.51    4.92
  -6  13   1   -2.67    4.51
   6 -13  -1    4.06    4.82
  -7  13   2   15.40    4.61
   7 -13  -2   17.63    4.52
  -8  13   3   -4.70    4.54
   8 -13  -3    1.21    4.46
   4 -14   1    4.07    5.14
  -4  14  -1    0.41    5.19
   5 -14   0   -0.61    5.11
  -5  14   0   -1.63    5.29
   4   0 -10   -0.04    3.77
   4   0 -10   -0.34    3.83
   2   0  -8    3.56    3.79
   2   0  -8    4.34    3.26
   0   0   6   36.38    3.26
   0   0  -6   39.00    3.25
  -2   0  -4  156.56    3.47
   2   0   4  144.01    3.44
   4   0   2  183.34    4.11
  -4   0  -2  188.37    4.17
   6   0   0    8.46    4.00
  -6   0   0    3.75    4.03
  -8   0   2   -1.19    3.40
   8   0  -2   -3.52    3.78
  10   0  -4   49.79    3.36
 -10   0   4   46.16    4.13
  12   0  -6   57.23    3.80
 -12   0   6   52.41    3.96
  14   0  -8   11.71    4.01
 -14   0   8    7.71    3.61
   4  -1 -10   -2.42    4.28
   4  -1 -10    2.66    3.80
   4   1 -10   -2.66    3.83
   4   1 -10   -1.19    4.42
   3  -1  -9   -0.36    3.48
   3  -1  -9    0.47    3.49
   3   1  -9    5.14    3.44
   3   1  -9   -1.02    3.47
   2  -1  -8    4.57    3.22
   2   1  -8   -5.69    3.29
   2   1  -8   -3.53    3.29
   2  -1  -8   -4.24    3.26
   1  -1  -7   -3.64    3.16
   1  -1  -7    3.72    3.15
   1   1  -7   -1.90    3.73
   0  -1  -6   -1.02    3.21
   0   1  -6   -0.99    3.70
   0  -1   6    2.01    3.22
   1   1   5  111.41    3.92
  -1  -1  -5  113.25    3.47
  -1   1  -5  110.38    3.91
   1  -1   5  109.75    3.43
  -2  -1  -4    3.39    3.82
  -2   1  -4   -8.18    3.81
   2  -1   4    0.37    3.26
   2   1   4    1.71    3.28
   3   1   3  163.32    3.49
   3  -1   3  166.22    3.52
  -3  -1  -3  164.45    3.52
  -3   1  -3  172.95    4.08
   4  -1   2   -4.02    3.35
  -4  -1  -2    1.65    3.35
  -4   1  -2   -0.30    3.90
   4   1   2    1.09    3.84
   5   1   1   11.73    3.45
   5  -1   1    3.53    3.41
  -5  -1  -1    5.74    4.01
  -5   1  -1    4.35    3.48
   6   1   0    4.29    3.92
   6  -1   0    3.19    3.40
  -6  -1   0    3.25    3.95
  -6   1   0    0.07    3.44
  -7  -1   1    5.44    3.92
  -7   1   1    6.09    3.90
   7   1  -1    8.11    3.78
   7  -1  -1    9.96    3.82
  -8   1   2   -4.23    3.33
  -8  -1   2    4.45    4.04
   8   1  -2    0.28    3.86
   8  -1  -2   -3.52    3.70
  -9   1   3    7.27    3.91
  -9  -1   3    4.69    4.17
   9   1  -3    9.64    3.86
   9  -1  -3   12.11    3.22
  10  -1  -4   -4.29    3.84
 -10  -1   4   -3.30    4.09
  10   1  -4   -0.85    3.84
 -10   1   4   -1.70    3.52
  11   1  -5  103.68    3.81
  11  -1  -5  105.85    3.93
 -11   1   5  104.11    4.09
 -11  -1   5  100.69    4.00
  12   1  -6    2.81    3.55
  12  -1  -6    6.44    3.61
 -12  -1   6   -3.01    3.68
 -12   1   6    1.46    3.70
 -13   1   7   45.55    3.40
  13   1  -7   35.40    3.87
  13  -1  -7   36.09    3.33
 -13  -1   7   42.90    3.96
  14  -1  -8    1.05    4.04
  14   1  -8    3.98    3.98
 -14  -1   8   -2.14    4.08
 -14   1   8    3.08    3.52
  15   1  -9    2.66    4.26
 -15  -1   9    5.83    4.35
  15  -1  -9    1.61    4.48
 -15   1   9   -1.55    4.53
   4   2 -10   -4.43    3.87
   4  -2 -10   -1.44    3.88
   4   2 -10   -8.80    3.88
   4  -2 -10   -1.47    4.36
   3  -2  -9   -3.62    3.53
   3  -2  -9    6.02    3.58
   3   2  -9   -1.35    3.49
   3   2  -9    0.07    3.52
   2  -2  -8   -2.49    3.26
   2   2  -8   -3.17    3.78
   2   2  -8   -3.74    3.27
   2  -2  -8   -3.47    3.30
   1  -2  -7    0.97    3.55
   1   2  -7   -9.53    3.67
   1  -2  -7    1.83    3.19
   0  -2  -6   12.39    3.17
   0   2  -6   14.40    3.18
   0  -2  -6   13.06    3.70
   0  -2   6   14.89    3.21
   1  -2   5   -1.49    3.28
  -1  -2  -5   -2.22    3.79
  -1   2  -5    4.55    3.75
   2  -2   4  144.51    3.42
  -2  -2  -4  147.68    3.95
  -2   2  -4  156.38    3.92
   2   2   4  155.31    3.94
   3  -2   3    3.13    3.24
  -3  -2  -3    7.87    3.79
  -3   2  -3    0.56    3.29
   3   2   3   -2.55    3.78
   4   2   2   68.38    3.85
   4  -2   2   71.77    3.42
  -4  -2  -2   69.31    3.85
  -4   2  -2   69.63    3.51
   5   2   1   -3.77    3.90
   5  -2   1   -3.44    3.84
  -5  -2  -1   -2.37    3.95
  -5   2  -1    2.03    3.40
   6   2   0   -0.12    3.99
   6  -2   0   -0.81    3.82
  -6  -2   0    5.14    4.01
  -6   2   0    2.93    3.40
  -7  -2   1    0.95    4.00
  -7   2   1    2.20    3.33
   7   2  -1   -0.63    3.95
   7  -2  -1   -1.25    3.26
  -8   2   2   -1.16    3.29
  -8  -2   2    2.42    4.42
   8   2  -2   -1.34    3.88
   8  -2  -2    1.78    3.59
  -9   2   3    3.93    3.39
  -9  -2   3    7.23    4.52
   9   2  -3    1.31    4.34
   9  -2  -3    0.39    3.70
 -10  -2   4   63.61    4.19
 -10   2   4   64.49    3.57
  10  -2  -4   67.67    3.79
  10   2  -4   58.18    3.93
  11   2  -5    2.68    3.65
  11  -2  -5   -0.97    3.18
 -11   2   5    1.44    3.90
 -11  -2   5   -4.71    3.83
  12   2  -6   72.35    4.09
  12  -2  -6   65.17    3.78
 -12  -2   6   67.83    3.87
 -12   2   6   73.01    3.90
 -13   2   7   -2.80    3.75
  13   2  -7   -1.76    3.80
  13  -2  -7    0.19    3.18
 -13  -2   7    6.77    3.85
  14   2  -8    9.07    4.09
  14  -2  -8    8.94    3.97
 -14  -2   8   10.65    4.13
 -14   2   8   14.75    4.13
  15   2  -9   -5.09    4.51
  15  -2  -9    5.59    3.92
 -15   2   9   -2.07    3.99
   4  -3 -10   -2.24    4.32
   4   3 -10   -2.04    3.97
   4   3 -10   -0.16    3.96
   4  -3 -10    2.22    3.98
   3  -3  -9   -2.13    3.59
   3   3  -9    3.03    3.59
   3   3  -9    2.26    4.14
   3  -3  -9    3.93    3.65
   2  -3  -8   -3.31    3.89
   2   3  -8   -1.92    3.27
   2   3  -8   -3.44    3.63
   2  -3  -8   -3.43    3.82
   1  -3  -7   -1.18    3.27
   1   3  -7    1.06    3.72
   1  -3  -7   -1.57    3.28
  -1  -3   7    0.98    3.25
   0  -3  -6   -7.41    3.30
   0   3  -6   -1.37    3.26
   0  -3   6    0.07    3.25
   0  -3  -6   -4.58    3.27
  -1  -3  -5  102.05    3.58
  -1  -3  -5   95.11    3.56
  -1   3  -5  104.49    3.90
   1  -3   5   86.98    3.43
   2  -3   4   -0.14    3.74
   2   3   4   -0.18    3.90
  -2   3  -4   -2.40    3.30
  -2  -3  -4    0.13    3.35
  -3  -3  -3  168.26    4.04
   3  -3   3  152.78    3.90
  -3   3  -3  161.25    3.46
   3   3   3  159.60    4.14
   4   3   2    1.39    3.94
   4  -3   2   -3.35    3.19
  -4  -3  -2   -0.33    3.41
  -4   3  -2   -0.44    3.24
   5   3   1   23.08    4.02
   5  -3   1   23.30    3.80
  -5  -3  -1   19.32    4.04
  -5   3  -1   24.95    3.80
   6   3   0    3.34    4.45
   6  -3   0    3.06    3.30
  -6  -3   0    2.90    4.45
  -6   3   0   -0.27    3.36
  -7  -3   1   11.79    4.38
  -7   3   1    6.01    3.37
   7   3  -1    9.47    4.40
   7  -3  -1    7.93    3.27
  -8   3   2    1.33    3.35
  -8  -3   2   -1.10    4.50
   8   3  -2    0.84    4.31
   8  -3  -2    1.63    3.68
  -9  -3   3   12.91    4.56
  -9   3   3   10.67    3.95
   9   3  -3    8.49    4.27
   9  -3  -3    4.32    3.23
  10  -3  -4    4.16    3.20
 -10   3   4    7.69    3.41
 -10  -3   4    3.72    4.55
  10   3  -4   -3.10    3.81
 -11  -3   5   93.74    4.34
  11   3  -5   87.73    3.71
  11  -3  -5   92.03    3.81
 -11   3   5   91.21    3.90
  12   3  -6   -5.53    4.07
  12  -3  -6    2.55    3.22
 -12   3   6   -3.15    3.78
 -12  -3   6   -1.11    3.77
 -13   3   7   29.99    3.42
  13  -3  -7   31.44    3.33
  13   3  -7   30.41    4.32
 -13  -3   7   31.18    3.91
  14   3  -8   -0.06    4.54
  14  -3  -8    4.81    4.10
 -14   3   8   -4.12    4.18
 -14  -3   8   -2.97    4.19
 -15   3   9   -2.33    3.96
  15   3  -9    2.99    5.04
  15  -3  -9    6.18    4.56
   4   4 -10    2.97    4.62
   4  -4 -10    2.13    4.51
   4  -4 -10   -5.41    4.03
   4   4 -10   -6.47    4.68
   3  -4  -9    1.43    4.13
   3   4  -9   -9.27    4.18
   3   4  -9   -4.30    4.06
   3  -4  -9   -5.13    4.24
   2  -4  -8   -1.12    3.83
   2   4  -8   -0.32    3.85
   2   4  -8   -4.96    3.75
   2  -4  -8    5.16    3.36
  -1  -4   7   -2.75    3.56
   1   4  -7   -5.21    3.67
   1  -4  -7    5.11    3.80
   1  -4  -7   -2.89    3.26
   0   4  -6   26.47    3.29
   0  -4  -6   25.19    3.27
   0  -4   6   29.37    3.73
   0  -4  -6   29.06    3.81
   1  -4   5   -1.54    3.39
  -1  -4  -5   -4.11    3.97
  -1  -4  -5    2.71    3.90
  -1   4  -5   -3.72    3.88
   2  -4   4  134.58    3.98
  -2  -4  -4  142.34    4.00
  -2   4  -4  142.19    3.52
   3  -4   3    3.70    3.67
  -3  -4  -3    0.85    3.97
  -3   4  -3    8.99    3.21
   3   4   3   -1.12    4.03
   4   4   2   59.28    4.08
  -4  -4  -2   57.49    4.03
   4  -4   2   64.25    3.76
  -4   4  -2   63.66    3.76
   5   4   1    3.23    4.39
   5  -4   1    2.98    3.18
  -5  -4  -1    5.40    4.29
  -5   4  -1    1.72    3.72
  -6   4   0    1.74    3.27
   6   4   0   -3.35    4.68
   6  -4   0   -8.90    3.22
  -6  -4   0   -0.75    4.68
  -7  -4   1    8.96    4.72
  -7   4   1    7.35    3.82
   7   4  -1   10.09    4.65
   7  -4  -1    8.45    3.69
  -8   4   2    5.56    3.88
   8   4  -2    4.53    4.61
  -8  -4   2    3.52    4.89
   8  -4  -2    3.95    3.70
  -9  -4   3   -1.55    4.96
  -9   4   3    3.15    3.47
   9   4  -3   -0.71    4.61
   9  -4  -3   -2.46    3.26
  10  -4  -4   47.84    3.65
 -10   4   4   44.75    3.89
 -10  -4   4   43.92    4.54
  10   4  -4   45.68    4.21
  11  -4  -5    3.75    3.10
 -11   4   5   -0.33    3.64
 -11  -4   5    3.77    4.14
  11   4  -5    1.60    3.98
  12   4  -6   40.27    4.25
  12  -4  -6   43.66    3.30
 -12   4   6   42.31    3.44
 -12  -4   6   43.30    4.36
  13   4  -7   -0.03    4.29
  13  -4  -7    1.03    3.38
 -13   4   7   -2.02    3.47
 -13  -4   7   -2.10    4.02
  14   4  -8    8.86    4.69
  14  -4  -8    3.30    3.61
 -14   4   8    8.96    3.65
  15   4  -9    6.81    5.23
  15  -4  -9    2.44    4.07
  15   4  -9   -1.16    5.19
   3   5  -9   -1.79    4.26
   3   5  -9    4.64    3.72
   3  -5  -9    1.44    4.29
   3  -5  -9    5.08    4.09
   2  -5  -8   -0.12    3.40
   2   5  -8    9.24    3.92
   2   5  -8   -7.27    3.39
   2  -5  -8   -3.96    3.42
   1  -5  -7    3.14    3.27
   1   5  -7    6.81    3.72
   1  -5  -7    3.87    3.25
  -1  -5   7    7.10    3.69
   0  -5  -6   -2.00    3.20
   0   5  -6   -0.22    3.60
   0  -5  -6   -3.99    3.72
   0  -5   6   -0.53    3.17
  -1  -5  -5   73.05    3.87
  -1  -5  -5   61.73    3.29
  -1   5  -5   60.38    3.35
   1  -5   5   64.72    3.81
   2  -5   4    1.64    3.36
  -2  -5  -4   -2.32    3.88
  -2   5  -4   -0.08    3.85
  -2  -5  -4   -0.67    3.89
  -3  -5  -3  148.68    4.12
   3  -5   3  149.22    3.49
  -3  -5  -3  172.85    4.15
  -3   5  -3  150.81    3.54
  -4  -5  -2    0.67    4.34
   4  -5   2    0.09    3.21
  -4   5  -2    1.40    3.73
   4   5   2    2.98    4.38
   5   5   1    5.31    4.44
   5  -5   1    4.57    3.19
  -5  -5  -1    5.23    4.32
  -5   5  -1    5.47    3.72
   6   5   0    0.62    5.08
   6  -5   0    1.34    3.18
  -6  -5   0   -2.09    5.11
  -6   5   0    0.13    3.76
   7   5  -1   12.01    5.35
  -7   5   1   10.55    3.33
  -7  -5   1    9.99    5.55
   7  -5  -1   12.29    3.26
   8   5  -2    2.26    5.22
  -8   5   2   -0.21    3.39
   8  -5  -2    5.51    3.23
  -8  -5   2    2.00    5.65
   9  -5  -3   16.99    3.22
   9   5  -3    3.78    5.14
  -9  -5   3    7.21    5.33
  -9   5   3    7.97    3.95
  10  -5  -4    1.60    3.12
 -10  -5   4    2.42    4.97
  10   5  -4   -3.52    4.61
 -10   5   4   -1.08    3.28
  11  -5  -5   63.80    3.58
 -11   5   5   54.29    3.26
  11   5  -5   54.92    4.55
 -11  -5   5   60.84    4.75
  12  -5  -6    0.18    3.22
 -12   5   6    0.47    3.33
  12   5  -6    3.54    4.58
  13   5  -7   26.49    4.77
  13  -5  -7   36.95    3.51
 -13   5   7   29.79    3.63
  14   5  -8    3.37    4.85
  14  -5  -8    4.60    4.28
 -14   5   8    1.07    4.32
  14   5  -8    0.90    4.92
   3  -6  -9    7.80    3.83
   3   6  -9    0.40    4.44
   3  -6  -9   -0.43    4.50
   3   6  -9   -2.80    4.32
   2   6  -8   -1.97    3.56
   2  -6  -8    0.57    4.06
   2  -6  -8   10.06    4.11
   1  -6  -7   -4.47    3.73
   1   6  -7   -2.87    3.85
   1  -6  -7   -5.64    3.33
  -1  -6   7   -1.80    3.30
   0  -6  -6   14.14    3.28
   0  -6  -6   13.80    3.18
   0   6  -6   18.32    3.75
   0  -6   6   21.04    3.73
   1  -6   5    3.03    3.62
  -1  -6  -5   -3.22    3.11
  -1  -6  -5    1.36    3.63
  -1   6  -5    2.72    3.17
   2  -6   4   70.19    3.75
  -2  -6  -4   76.86    3.76
  -2   6  -4   75.46    3.35
  -2  -6  -4   90.86    3.90
  -3  -6  -3    1.78    4.28
   3  -6   3   -0.81    3.29
  -3  -6  -3    4.07    4.41
  -3   6  -3    3.26    3.31
  -4  -6  -2   52.16    4.36
   4  -6   2   49.68    3.94
  -4  -6  -2   58.73    4.53
  -4   6  -2   49.25    3.47
   5  -6   1    2.66    3.30
  -5  -6  -1   -0.31    4.67
  -5   6  -1   -2.03    3.78
  -6   6   0    2.32    3.30
   6  -6   0    3.32    3.23
  -6  -6   0   -0.71    5.33
  -7   6   1    0.91    3.86
  -7  -6   1   -1.56    6.80
   7  -6  -1    0.71    3.71
   7   6  -1   -3.47    6.34
  -8   6   2    1.21    3.36
   8  -6  -2   -0.40    3.25
   8   6  -2   -0.52    7.04
  -8  -6   2    4.52    7.88
  -9  -6   3   -1.87    6.46
   9   6  -3   -1.74    5.84
  -9   6   3    5.12    3.23
   9  -6  -3   -2.68    3.62
 -10   6   4   31.42    3.29
  10   6  -4   19.12    5.51
  10  -6  -4   24.50    3.08
  11  -6  -5   -3.05    3.17
 -11   6   5    6.40    3.77
  11   6  -5    0.80    5.13
  12  -6  -6   49.25    3.39
 -12   6   6   45.32    3.90
  12   6  -6   45.97    5.00
  12   6  -6   45.53    5.20
  13  -6  -7    3.80    4.10
 -13   6   7   -2.87    3.64
  13   6  -7    6.00    5.09
  13   6  -7    0.03    4.94
  14  -6  -8   -0.93    3.91
 -14   6   8    1.70    4.51
  14   6  -8    5.93    5.60
  14   6  -8    7.58    5.53
   3  -7  -9   -3.99    4.41
   3  -7  -9   -4.10    4.06
   3   7  -9   -1.10    4.68
   3   7  -9   -3.13    4.52
   2  -7  -8   -4.99    3.58
   2  -7  -8    0.96    3.66
   2   7  -8   -0.69    4.08
   1   7  -7    1.87    3.98
   1  -7  -7    4.67    3.29
   1  -7  -7    4.66    3.94
  -1  -7   7    3.56    3.84
   0  -7  -6   -2.42    3.61
   0  -7   6    2.72    3.68
   0   7  -6   -2.41    3.81
   0  -7  -6    0.52    3.76
   1  -7   5   41.39    3.78
  -1  -7  -5   41.68    3.63
  -1   7  -5   49.97    3.79
  -1  -7  -5   50.79    3.81
  -2  -7  -4    3.05    3.52
  -2  -7  -4   -0.10    3.60
  -2   7  -4    3.83    3.61
   2  -7   4    3.50    3.46
  -3  -7  -3   67.24    3.77
   3  -7   3   65.43    3.68
  -3  -7  -3   79.77    4.33
  -3   7  -3   72.09    3.28
  -4  -7  -2   -1.79    4.55
   4  -7   2    3.14    3.74
  -4  -7  -2    0.35    4.41
  -4   7  -2   -2.52    3.78
  -5   7  -1    6.53    3.41
   5  -7   1   11.27    3.80
  -5  -7  -1   18.41    5.29
  -5  -7  -1   17.19    5.30
  -6   7   0   -0.88    3.93
   6  -7   0    8.65    3.35
  -6  -7   0    8.19    6.63
  -6  -7   0    3.83    6.27
  -7   7   1    1.98    3.98
   7  -7  -1    4.64    3.83
  -8   7   2    2.67    3.28
   8  -7  -2    0.56    3.61
  -9   7   3    7.71    3.81
   9  -7  -3   10.87    3.17
 -10   7   4   -1.90    3.33
  10  -7  -4    2.37    3.18
  11  -7  -5   45.31    3.75
  11   7  -5   41.74    6.48
 -11   7   5   40.43    3.98
  11   7  -5   32.85    6.48
  12   7  -6   -0.58    6.18
 -12   7   6    2.56    3.58
  12  -7  -6   -8.48    3.97
  12   7  -6    0.22    5.98
  13   7  -7   17.58    5.96
  13  -7  -7   24.93    3.79
  13   7  -7   15.53    5.56
 -13   7   7   27.91    4.26
  14   7  -8   -4.26    6.22
  14  -7  -8   -4.45    4.07
  14   7  -8   -1.09    6.53
   2  -8  -8    4.64    3.73
   2  -8  -8    1.07    3.90
   2   8  -8   -1.45    4.32
   1  -8  -7   -5.77    3.48
   1  -8  -7   -4.07    3.95
   1   8  -7   -3.41    4.13
  -1  -8   7   -0.15    4.53
   0  -8  -6   13.75    3.80
   0  -8  -6    6.99    3.94
   0   8  -6    8.77    3.91
   0  -8   6   12.31    3.76
   1  -8   5   -0.25    3.74
  -1  -8  -5   -2.21    3.69
  -1  -8  -5   -4.78    4.20
  -1   8  -5    3.69    3.67
   2  -8   4   69.07    3.69
  -2  -8  -4   73.39    4.09
  -2  -8  -4   92.66    3.85
  -2   8  -4   83.66    3.77
  -3  -8  -3   -4.01    3.56
   3  -8   3   -2.60    3.51
  -3  -8  -3   -4.12    4.12
  -3   8  -3   -1.49    3.62
  -4  -8  -2   23.54    4.52
   4  -8   2   27.53    3.59
  -4  -8  -2   29.99    4.76
  -4   8  -2   30.33    3.66
  -5   8  -1    0.80    3.56
   5  -8   1    3.13    3.10
  -5  -8  -1   -0.69    5.35
  -5  -8  -1    2.54    5.31
  -6   8   0   -2.69    3.20
   6  -8   0   -8.07    3.13
  -7   8   1   -2.32    3.77
   7  -8  -1   -3.23    3.13
  -8   8   2    2.42    3.67
   8  -8  -2    1.57    3.60
   9  -8  -3    5.01    3.18
  -9   8   3   -2.18    3.79
 -10   8   4   13.32    3.80
  10  -8  -4   15.86    3.65
 -11   8   5    4.26    3.88
  11  -8  -5    2.40    3.83
  12  -8  -6   22.59    3.58
 -12   8   6   25.59    3.64
  13  -8  -7    3.05    3.80
  13   8  -7   -1.48    8.80
  13   8  -7   -1.15    9.05
 -13   8   7    7.56    3.87
   2  -9  -8   -2.52    4.10
   2  -9  -8    0.71    4.58
   2   9  -8   -2.38    4.69
   1  -9  -7    4.34    4.18
   1  -9  -7    6.14    4.29
   1   9  -7    7.94    4.45
  -1  -9   7    0.05    4.42
   0  -9   6   -4.95    4.07
   0  -9  -6   -5.01    4.03
   0  -9  -6    0.71    4.12
   0   9  -6    6.46    4.38
  -1  -9  -5   26.56    4.15
  -1  -9  -5   32.23    3.90
   1  -9   5   23.96    3.88
  -1   9  -5   28.69    3.93
   2  -9   4   -0.36    3.74
  -2  -9  -4    0.94    3.71
  -2  -9  -4   -3.31    3.84
  -2   9  -4   -5.47    3.77
  -3  -9  -3   51.77    4.24
   3  -9   3   60.63    3.81
  -3  -9  -3   65.35    4.72
  -3   9  -3   60.79    3.84
  -4   9  -2   -2.21    3.65
  -4  -9  -2   -1.53    4.69
  -4  -9  -2    0.00    4.86
   4  -9   2    0.30    3.63
   5  -9   1    7.41    3.62
  -5   9  -1    8.01    3.67
  -5  -9  -1    4.99    5.94
  -5  -9  -1    9.18    6.22
  -6   9   0   -1.43    3.77
   6  -9   0   -0.20    3.71
  -7   9   1    3.75    3.77
   7  -9  -1   -0.72    3.58
   8  -9  -2    4.25    3.65
  -8   9   2   -2.55    3.78
   9  -9  -3   -1.36    3.21
  -9   9   3    4.45    3.80
 -10   9   4   -1.23    3.88
  10  -9  -4   -2.50    3.67
 -11   9   5   23.36    3.59
  11  -9  -5   23.10    3.86
  12  -9  -6    0.86    4.22
 -12   9   6   -3.45    3.73
 -13   9   7    2.16    4.09
  13  -9  -7   11.62    4.03
   1 -10  -7   -3.25    4.45
   1 -10  -7   -3.97    4.52
   1  10  -7   -0.45    5.03
  -1 -10   7    4.64    4.62
   0 -10  -6    5.01    4.37
   0 -10  -6    8.56    4.61
   0  10  -6    6.11    4.87
   0 -10   6    9.53    4.37
   1 -10   5    5.76    4.06
  -1 -10  -5    2.65    4.55
  -1 -10  -5   -2.21    4.44
  -1  10  -5    2.76    4.14
  -2 -10  -4   32.87    4.47
   2 -10   4   28.98    3.91
  -2 -10  -4   29.18    4.32
  -2  10  -4   24.33    4.39
  -3  10  -3   -3.43    4.15
   3 -10   3   -2.04    3.75
  -3 -10  -3    4.26    4.52
  -3 -10  -3   -1.52    4.72
  -4  10  -2   18.06    3.81
   4 -10   2   14.18    4.11
  -4 -10  -2   17.22    5.36
  -4 -10  -2   22.41    5.44
  -5  10  -1    2.76    4.15
   5 -10   1    1.44    3.72
  -6  10   0    7.42    3.79
   6 -10   0   -0.33    3.75
   7 -10  -1    0.33    3.59
  -7  10   1   -1.88    3.29
   8 -10  -2    0.62    3.76
  -8  10   2    5.45    3.34
  -9  10   3    5.63    3.43
   9 -10  -3   -5.10    3.34
 -10  10   4   18.65    4.12
  10 -10  -4   13.56    3.48
 -11  10   5   -3.26    4.25
  11 -10  -5   -1.54    3.67
 -12  10   6   21.44    4.47
  12 -10  -6   12.30    4.54
   0 -11  -6   -3.53    4.56
   0 -11  -6   -3.88    5.09
   0  11  -6   -0.51    5.00
   0 -11   6    0.43    5.14
  -1 -11  -5   19.76    4.26
   1 -11   5   17.48    4.86
  -1  11  -5   21.29    4.90
  -1 -11  -5   30.79    4.40
   2 -11   4   -1.56    4.63
  -2 -11  -4   -3.72    4.89
  -2 -11  -4   -3.55    5.02
  -2  11  -4    5.06    4.63
   3 -11   3   18.12    4.40
  -3 -11  -3   20.64    4.92
  -3  11  -3   25.69    4.09
  -3 -11  -3   27.95    5.42
  -4  11  -2   -3.54    3.96
   4 -11   2    4.88    3.84
  -4 -11  -2    0.71    5.91
  -4 -11  -2   -1.69    6.24
   5 -11   1    2.40    3.89
  -5  11  -1    6.56    3.95
   6 -11   0    4.18    3.85
  -6  11   0    0.94    3.92
   7 -11  -1    1.02    3.95
  -7  11   1    5.58    4.01
   8 -11  -2   -3.36    3.88
  -8  11   2    2.48    3.52
  -9  11   3    5.59    4.19
   9 -11  -3    6.02    4.10
 -10  11   4    8.00    4.27
  10 -11  -4   -1.33    4.26
  11 -11  -5   18.51    4.53
 -11  11   5   16.91    4.47
  -1  12  -5   -2.33    5.16
  -1 -12  -5    0.98    5.21
  -1 -12  -5    0.55    5.09
   1 -12   5    3.99    5.12
   2 -12   4   19.34    4.97
  -2  12  -4   17.84    4.96
  -2 -12  -4   12.76    4.90
  -2 -12  -4   11.69    5.47
   3 -12   3   -1.13    4.64
  -3 -12  -3   -4.86    5.60
  -3  12  -3   -2.11    4.66
  -3 -12  -3   -2.09    6.06
  -4 -12  -2   19.10    8.51
   4 -12   2   12.08    4.72
  -4  12  -2   13.69    4.22
  -4 -12  -2   14.96    8.49
   5 -12   1    2.45    4.54
  -5  12  -1   -0.90    4.19
   6 -12   0   -6.54    4.12
  -6  12   0   -3.01    4.22
  -7  12   1   -4.52    3.70
   7 -12  -1   -0.07    4.19
  -8  12   2    5.07    4.30
   8 -12  -2    1.75    4.21
  -9  12   3   -4.29    4.48
   9 -12  -3    3.36    4.37
 -10  12   4    6.13    4.09
  10 -12  -4    6.22    4.56
   3 -13   3    9.14    5.18
  -3 -13  -3   16.71    6.91
  -3 -13  -3    9.26    7.18
  -3  13  -3   14.66    5.17
   4 -13   2    3.50    4.48
  -4  13  -2   -2.82    5.04
   5 -13   1    0.37    4.48
  -5  13  -1   12.65    4.98
   6 -13   0    2.20    4.49
  -6  13   0   -5.96    4.89
  -7  13   1   -5.29    4.60
   7 -13  -1   -2.03    4.51
  -8  13   2   -2.33    4.67
   8 -13  -2    0.26    4.60
   2   0  -9   17.78    4.01
   2   0  -9   15.15    3.62
   0   0  -7   -1.74    3.13
  -2   0  -5   -0.12    3.29
   2   0   5   -1.57    3.30
   4   0   3   95.27    3.37
  -4   0  -3  104.63    3.41
   6   0   1  196.86    3.51
  -6   0  -1  212.75    4.03
  -8   0   1   44.12    3.86
   8   0  -1   42.33    3.29
 -10   0   3   11.73    3.95
  10   0  -3    5.05    3.31
  12   0  -5   -2.54    3.09
 -12   0   5   -4.72    3.77
  14   0  -7   30.85    3.86
 -14   0   7   28.21    3.95
  16   0  -9   10.91    4.71
 -16   0   9   15.45    4.73
   3  -1 -10   17.96    3.96
   3  -1 -10   21.98    4.33
   3   1 -10   15.65    3.90
   3   1 -10   23.62    4.37
   2  -1  -9   -3.04    4.12
   2   1  -9   -5.53    3.54
   2   1  -9    2.34    4.09
   2  -1  -9   -3.65    3.61
   1  -1  -8    5.15    3.33
   1   1  -8   -2.36    3.80
   1  -1  -8    3.00    3.33
   1   1  -8   -1.77    3.40
   0  -1  -7   -4.12    3.15
   0   1  -7   -4.39    3.22
   0  -1  -7    1.98    3.14
  -1  -1  -6   -2.60    3.11
  -1   1  -6    4.40    3.60
   1  -1   6    0.83    3.11
   1   1   6   -4.34    3.12
  -2  -1  -5    0.15    3.27
  -2   1  -5    2.19    3.28
   2  -1   5    2.78    3.24
   2   1   5    4.47    3.24
   3  -1   4   13.59    3.76
  -3  -1  -4    3.95    3.78
  -3   1  -4    8.41    3.35
   3   1   4    5.02    3.72
   4   1   3    3.96    3.21
   4  -1   3    2.25    3.24
  -4  -1  -3    6.10    3.23
  -4   1  -3    3.69    3.79
   5   1   2  196.09    3.97
   5  -1   2  202.73    3.49
  -5  -1  -2  203.96    3.57
  -5   1  -2  204.06    3.53
   6   1   1    1.82    3.79
   6  -1   1   -4.89    3.69
  -6  -1  -1   -5.68    3.33
  -6   1  -1   -1.92    3.73
   7   1   0  112.49    3.91
   7  -1   0  120.31    3.83
  -7  -1   0  133.18    3.52
  -7   1   0  131.11    3.41
  -8   1   1   -4.80    3.77
   8   1  -1    3.47    3.94
  -8  -1   1   -1.49    4.01
   8  -1  -1   -1.41    3.68
  -9   1   2    2.84    3.32
  -9  -1   2   -1.35    4.04
   9   1  -2    6.71    3.88
   9  -1  -2   -2.26    3.66
 -10   1   3    0.58    3.99
 -10  -1   3    6.49    4.03
  10   1  -3   -3.22    3.83
  10  -1  -3    0.01    3.79
 -11  -1   4   -2.27    3.91
 -11   1   4    6.46    4.08
  11   1  -4    4.97    3.69
  11  -1  -4   -2.81    3.89
  12  -1  -5   -1.81    3.67
 -12   1   5   -1.29    3.76
 -12  -1   5    1.84    3.71
  12   1  -5   -3.35    3.57
  13   1  -6   14.24    3.68
  13  -1  -6   11.35    3.65
 -13   1   6   13.39    3.83
 -13  -1   6   12.52    3.83
  14   1  -7   -4.18    3.91
  14  -1  -7   -0.98    3.84
 -14  -1   7    2.49    3.89
 -14   1   7    1.56    3.38
  15   1  -8   22.60    4.20
 -15  -1   8   23.59    4.28
  15  -1  -8   22.74    4.25
 -15   1   8   31.07    3.77
 -16   1   9   -0.51    4.75
 -16  -1   9   -2.60    4.58
   3  -2 -10   -3.38    4.05
   3  -2 -10   -0.25    3.96
   3   2 -10   -6.59    4.43
   3   2 -10   -0.55    3.96
   2  -2  -9   14.77    4.04
   2   2  -9   12.37    3.54
   2  -2  -9    6.71    4.19
   2   2  -9    7.96    3.60
   1  -2  -8    2.94    3.40
   1   2  -8    2.00    3.83
   1   2  -8   -1.18    3.34
   1  -2  -8   -7.38    3.46
   0  -2  -7    3.12    3.26
   0  -2  -7    0.56    3.29
   0   2  -7   -2.27    3.25
   0  -2   7    0.98    3.65
  -1  -2  -6    2.25    3.69
  -1   2  -6   -9.66    3.58
   1  -2   6    1.82    3.13
  -2  -2  -5   -0.28    3.83
  -2   2  -5    2.40    3.78
   2   2   5   -4.39    3.28
   2  -2   5    1.60    3.22
   3  -2   4   -1.75    3.71
  -3  -2  -4    4.35    3.31
  -3   2  -4    2.67    3.75
   3   2   4    6.22    3.31
   4   2   3   70.00    3.39
   4  -2   3   68.87    3.30
  -4  -2  -3   71.62    3.92
  -4   2  -3   67.03    3.36
   5   2   2    3.82    3.89
   5  -2   2   -3.21    3.23
  -5  -2  -2    0.80    3.91
  -5   2  -2   -3.39    3.73
   6   2   1  183.68    4.21
   6  -2   1  187.75    3.96
  -6  -2  -1  194.02    4.16
  -6   2  -1  206.81    4.00
   7   2   0    0.54    3.92
   7  -2   0   -2.87    3.23
  -7  -2   0    3.82    3.93
  -7   2   0   -3.47    3.27
  -8  -2   1   63.27    4.04
  -8   2   1   62.66    3.35
   8   2  -1   58.23    4.00
   8  -2  -1   56.00    3.72
  -9   2   2    6.05    3.86
  -9  -2   2   -1.33    4.04
   9   2  -2    2.13    3.89
   9  -2  -2   -0.74    3.71
 -10   2   3    4.14    3.45
 -10  -2   3    6.60    4.45
  10   2  -3    2.43    4.20
  10  -2  -3    3.84    3.29
  11   2  -4   -1.39    4.01
 -11  -2   4   -1.62    4.28
 -11   2   4    3.19    3.38
  11  -2  -4    1.24    3.22
  12  -2  -5    6.35    3.64
 -12   2   5    5.75    3.31
 -12  -2   5    0.90    3.72
  12   2  -5    3.01    3.93
  13   2  -6   -1.97    3.74
 -13  -2   6   -1.04    3.87
  13  -2  -6   -2.38    3.20
 -13   2   6    6.82    3.31
  14   2  -7   34.93    3.90
  14  -2  -7   31.61    3.86
 -14  -2   7   23.91    4.36
 -14   2   7   26.98    3.97
  15   2  -8    3.33    4.31
  15  -2  -8   -6.83    4.20
 -15   2   8    6.91    4.30
 -15  -2   8    0.83    4.33
   3  -3 -10   27.07    4.40
   3   3 -10   11.21    4.66
   3   3 -10   20.11    4.05
   3  -3 -10   10.57    4.07
   2   3  -9    2.67    4.08
   2  -3  -9    1.92    3.64
   2  -3  -9    2.53    3.66
   2   3  -9    0.99    3.67
   1  -3  -8    6.24    3.43
   1   3  -8    1.29    3.77
   1  -3  -8   -0.09    3.86
   0  -3  -7    6.24    3.30
   0   3  -7    4.96    3.72
   0  -3  -7    8.75    3.32
   0  -3   7    4.58    3.26
  -1  -3  -6    3.25    3.73
  -1   3  -6    3.21    3.22
  -1  -3  -6    0.93    3.22
   1  -3   6    4.88    3.19
   2  -3   5   -1.19    3.13
  -2  -3  -5   -4.05    3.84
  -2   3  -5    0.51    3.17
   3  -3   4    5.28    3.71
  -3  -3  -4    9.46    3.97
  -3   3  -4    8.34    3.79
   3   3   4   11.71    3.43
   4  -3   3    0.63    3.25
  -4  -3  -3   -2.86    3.41
  -4   3  -3   -1.26    3.31
   4   3   3   -1.82    3.94
   5   3   2  128.48    4.16
   5  -3   2  128.67    3.38
  -5  -3  -2  127.95    4.15
  -5   3  -2  134.78    3.44
   6   3   1    1.37    4.41
   6  -3   1    2.67    3.73
  -6  -3  -1   -2.80    3.97
  -6   3  -1   -0.54    3.72
   7   3   0  132.68    4.12
   7  -3   0  150.97    3.81
  -7  -3   0  147.98    4.56
  -7   3   0  153.92    3.90
  -8  -3   1    2.26    3.87
  -8   3   1   -0.38    3.31
   8   3  -1    0.44    4.30
   8  -3  -1    0.22    3.65
  -9   3   2    1.01    3.91
  -9  -3   2    7.31    4.45
   9   3  -2    2.26    4.32
   9  -3  -2    0.28    3.25
  10  -3  -3   -1.12    3.22
 -10   3   3    1.91    3.87
  10   3  -3    3.58    3.79
 -10  -3   3    4.72    4.49
 -11  -3   4   -4.17    4.27
  11  -3  -4   -2.37    3.12
  11   3  -4    0.48    3.59
 -11   3   4   -3.68    3.28
 -12   3   5   13.05    3.88
  12  -3  -5    7.66    3.70
 -12  -3   5    1.31    4.14
  12   3  -5   -2.25    4.01
  13  -3  -6    1.23    3.23
 -13  -3   6    3.31    4.32
 -13   3   6    4.97    3.89
  13   3  -6    2.76    4.18
  14   3  -7   -5.37    3.98
  14  -3  -7    0.21    3.77
 -14  -3   7   -0.19    4.50
 -14   3   7   -2.36    3.48
  15   3  -8   21.21    4.80
  15  -3  -8   23.89    3.78
 -15  -3   8   23.41    4.98
 -15   3   8   26.99    4.40
   2  -4  -9    6.07    3.73
   2   4  -9    8.23    3.68
   2   4  -9   11.75    4.19
   2  -4  -9   14.29    3.81
   1  -4  -8    6.37    3.42
   1   4  -8   -2.30    3.39
   1  -4  -8   -2.01    3.85
   0  -4  -7   -1.61    3.73
   0   4  -7    6.30    3.25
   0  -4  -7   -2.82    3.78
   0  -4   7    2.30    3.63
  -1  -4  -6   -1.32    3.17
  -1   4  -6  -11.08    3.26
  -1  -4  -6    1.87    3.21
   1  -4   6   -1.30    3.67
   2  -4   5    1.14    3.74
  -2  -4  -5    3.21    3.64
  -2   4  -5  -10.07    3.29
  -2  -4  -5   -3.88    3.22
   3  -4   4    2.38    3.77
  -3  -4  -4   -0.97    3.80
  -3   4  -4    4.74    3.82
  -4  -4  -3   71.37    4.00
   4  -4   3   71.47    3.37
  -4   4  -3   72.96    3.38
   4   4   3   67.45    4.04
   5  -4   2   -3.35    3.26
  -5  -4  -2   -2.41    3.90
  -5   4  -2   -2.02    3.28
   5   4   2   -0.51    3.95
   6  -4   1  191.68    3.46
  -6  -4  -1  183.16    4.61
   6   4   1  179.80    4.61
  -6   4  -1  197.53    3.51
  -7   4   0   -1.64    3.79
   7   4   0    1.02    4.33
   7  -4   0    1.18    3.25
  -7  -4   0    2.28    4.30
  -8   4   1   14.12    3.40
  -8  -4   1   23.17    4.81
   8   4  -1   18.73    4.76
   8  -4  -1   21.47    3.25
  -9   4   2   -4.69    3.38
   9   4  -2    1.27    4.64
  -9  -4   2   -0.13    4.43
   9  -4  -2   -1.30    3.24
 -10  -4   3    4.85    4.46
  10  -4  -3    5.56    3.17
  10   4  -3    3.98    4.54
 -10   4   3    6.30    3.86
 -11  -4   4    0.06    4.23
  11   4  -4    3.19    4.36
 -11   4   4   -1.31    3.19
  11  -4  -4    0.16    3.52
  12  -4  -5    1.73    3.18
 -12  -4   5    1.57    4.23
 -12   4   5    1.22    3.84
  12   4  -5   -1.51    4.17
  13  -4  -6    2.28    3.22
 -13   4   6   -5.79    3.39
  13   4  -6    3.34    4.22
 -13  -4   6   -0.23    4.31
  14  -4  -7   31.08    4.00
 -14  -4   7   29.36    4.59
 -14   4   7   21.94    3.54
  14   4  -7   22.64    4.50
  15  -4  -8   -2.19    4.22
 -15   4   8    3.09    3.80
  15   4  -8    0.28    4.44
   2  -5  -9    3.03    3.80
   2   5  -9    0.09    4.29
   2   5  -9   -3.98    3.89
   2  -5  -9   -1.56    4.33
   1  -5  -8    1.82    3.50
   1  -5  -8    0.11    3.51
   1   5  -8    3.14    3.50
   0  -5   7   -3.29    3.71
   0  -5  -7    1.85    3.75
   0  -5  -7    4.42    3.28
   0   5  -7   -3.36    3.83
  -1  -5  -6    4.56    3.19
   1  -5   6    0.95    3.64
  -1   5  -6    3.79    3.68
  -1  -5  -6    2.14    3.18
   2  -5   5   -7.14    3.21
  -2  -5  -5    2.90    3.67
  -2   5  -5   -3.29    3.74
  -2  -5  -5   -0.61    3.55
   3  -5   4   -0.20    3.84
  -3  -5  -4    4.59    3.72
  -3   5  -4    9.36    3.35
  -3  -5  -4    8.03    3.65
   4  -5   3    1.91    3.39
  -4  -5  -3    6.65    3.88
  -4   5  -3    9.52    3.89
   5  -5   2   98.29    3.41
  -5  -5  -2   95.34    4.49
   5   5   2   92.39    4.52
  -5   5  -2  102.73    3.45
   6  -5   1   12.74    3.70
  -6  -5  -1    7.48    4.34
  -6   5  -1    4.51    3.75
   6   5   1    9.70    4.77
   7   5   0   87.29    4.90
  -7   5   0   97.62    3.86
   7  -5   0   94.84    3.78
  -7  -5   0   92.06    4.86
   8   5  -1    2.95    4.66
  -8  -5   1    2.41    5.12
  -8   5   1   -1.06    3.34
   8  -5  -1   -2.30    3.22
   9   5  -2    1.80    4.99
  -9   5   2    1.66    3.77
  -9  -5   2    2.51    5.33
   9  -5  -2    3.87    3.70
 -10  -5   3   -1.38    5.12
  10   5  -3   -2.70    4.64
 -10   5   3    2.85    3.69
  10  -5  -3   -3.55    3.13
 -11  -5   4   -2.15    4.73
  11  -5  -4    6.09    3.53
 -11   5   4    3.27    3.25
  11   5  -4    0.43    4.34
 -12   5   5   -1.05    3.33
  12   5  -5    0.57    4.47
 -12  -5   5   -0.81    4.67
  12  -5  -5   -2.75    3.20
  13  -5  -6   10.59    3.41
 -13   5   6   14.51    3.45
 -13  -5   6    7.14    4.69
  13   5  -6   14.05    4.59
  14  -5  -7    6.79    4.08
 -14   5   7   -5.14    3.63
  14   5  -7   -1.67    4.68
  15  -5  -8   15.88    4.34
 -15   5   8    8.48    4.33
  15   5  -8   11.66    5.18
  15   5  -8    9.66    5.17
   2  -6  -9    6.50    4.52
   2   6  -9    5.12    4.60
   2  -6  -9    6.70    3.99
   2   6  -9    6.54    4.46
   1  -6  -8   -1.89    4.14
   1   6  -8    0.14    4.21
   1  -6  -8    2.13    4.22
   0  -6  -7    2.25    3.36
   0  -6   7    7.78    3.26
   0  -6  -7    6.26    3.28
   0   6  -7   -0.24    3.83
  -1  -6  -6    1.48    3.63
  -1  -6  -6    4.86    3.73
  -1   6  -6   -1.01    3.69
   1  -6   6   -2.55    3.68
  -2  -6  -5    2.49    3.60
   2  -6   5    0.38    3.63
  -2   6  -5    3.11    3.17
  -2  -6  -5   -1.52    3.24
   3  -6   4    1.55    3.67
  -3  -6  -4   -3.02    3.50
  -3  -6  -4    2.99    3.58
  -3   6  -4   -1.03    3.74
   4  -6   3   45.92    3.35
  -4  -6  -3   52.22    4.12
  -4   6  -3   56.89    3.35
  -4  -6  -3   56.94    4.19
   5  -6   2   -2.21    3.88
  -5  -6  -2   -3.92    4.20
  -5   6  -2   -0.07    3.89
   6  -6   1  133.48    3.97
  -6  -6  -1  128.62    4.77
   6   6   1  121.99    4.94
  -6   6  -1  144.46    4.03
  -7   6   0   -7.11    3.76
   7  -6   0    3.36    3.76
  -7  -6   0    2.56    5.08
   7   6   0    2.34    5.06
   8   6  -1   25.93    5.51
  -8   6   1   29.07    3.72
  -8  -6   1   31.75    5.69
   8  -6  -1   27.02    3.17
  -9  -6   2    1.33    6.00
   9   6  -2   -1.21    5.59
  -9   6   2   -1.17    3.66
   9  -6  -2   -6.09    3.11
 -10  -6   3   -1.37    5.70
  10   6  -3    1.45    5.58
 -10   6   3   -1.74    3.15
  10  -6  -3   -0.84    3.08
 -11  -6   4    0.32    5.33
  11   6  -4   -2.72    5.33
  11  -6  -4   -3.46    3.57
 -11   6   4   -2.75    3.22
 -12   6   5   -0.97    3.88
 -12  -6   5    4.02    4.98
  12   6  -5    0.35    4.99
  12  -6  -5    1.93    3.21
 -13   6   6   -2.43    4.00
  13   6  -6    1.10    5.12
  13  -6  -6    2.68    3.44
  14  -6  -7   12.31    4.20
 -14   6   7   15.56    3.80
  14   6  -7    9.32    5.22
  14   6  -7   15.75    5.32
  15  -6  -8  -15.44    4.08
   1  -7  -8   -0.68    3.72
   1   7  -8    3.54    4.28
   1  -7  -8   -2.29    4.34
   0  -7  -7    3.62    3.96
   0   7  -7   -1.59    3.51
   0  -7  -7   -2.31    4.05
   0  -7   7    3.04    3.93
  -1  -7  -6    0.18    3.63
  -1   7  -6   -2.15    3.84
   1  -7   6    1.22    3.82
  -1  -7  -6   -0.44    3.86
  -2  -7  -5   -0.30    3.66
  -2  -7  -5    4.83    3.76
  -2   7  -5   -5.56    3.26
   2  -7   5   -9.57    3.63
   3  -7   4    7.01    3.24
  -3  -7  -4    6.08    3.58
  -3  -7  -4    4.21    3.65
  -3   7  -4   13.16    3.76
   4  -7   3   -2.20    3.12
  -4  -7  -3    0.29    3.95
  -4   7  -3   -1.38    3.71
  -4  -7  -3    5.08    4.04
   5  -7   2   71.11    3.78
  -5  -7  -2   83.01    4.28
  -5   7  -2   72.23    3.84
  -5  -7  -2   64.11    4.51
  -6   7  -1   -0.73    3.23
   6  -7   1   -1.29    3.72
  -6  -7  -1   -0.08    4.95
  -6  -7  -1   -2.07    4.82
  -7   7   0   65.83    3.80
   7  -7   0   58.05    3.33
  -7  -7   0   64.35    5.52
  -8   7   1    4.21    3.78
   8  -7  -1   -9.50    3.65
  -8  -7   1    1.18    7.63
  -9   7   2    8.61    3.68
   9  -7  -2    0.92    3.16
 -10   7   3    2.42    3.33
  10  -7  -3    2.13    3.22
  11   7  -4    1.25    8.36
  11   7  -4   -0.43    8.09
  11  -7  -4    5.43    3.17
 -11   7   4   -0.19    3.30
 -12   7   5    3.20    3.99
  12   7  -5    0.05    6.52
  12  -7  -5   -4.21    3.42
  12   7  -5    2.48    6.63
 -13   7   6    0.81    3.67
  13   7  -6    6.07    6.25
  13  -7  -6    3.53    4.11
  13   7  -6    9.68    6.45
  14   7  -7    2.79    6.62
  14   7  -7   -0.67    6.64
 -14   7   7    2.80    3.95
  14  -7  -7    0.32    3.92
   1  -8  -8    3.06    3.92
   1  -8  -8    2.62    4.58
   1   8  -8    1.11    4.60
   0  -8  -7    7.34    4.19
   0   8  -7    0.70    4.08
   0  -8  -7    2.01    4.14
   0  -8   7    6.74    4.04
  -1  -8  -6   -0.15    3.78
  -1   8  -6    0.38    3.98
  -1  -8  -6   -3.12    4.00
   1  -8   6    0.26    3.94
   2  -8   5    0.44    3.73
  -2  -8  -5    2.67    3.68
  -2   8  -5    3.13    3.70
  -2  -8  -5    1.25    3.79
   3  -8   4    1.00    3.74
  -3  -8  -4    1.28    3.65
  -3   8  -4    4.76    3.74
  -3  -8  -4   -3.73    3.76
  -4  -8  -3   34.35    4.27
   4  -8   3   21.61    3.24
  -4  -8  -3   24.05    4.14
  -4   8  -3   28.18    3.75
  -5  -8  -2   -1.30    4.65
   5  -8   2   -0.52    3.21
  -5  -8  -2    0.33    4.47
  -5   8  -2   -1.08    3.65
  -6   8  -1   74.32    3.31
  -6  -8  -1   89.68    5.59
   6  -8   1   83.15    3.73
  -6  -8  -1   69.61    5.24
  -7  -8   0    1.93    7.24
  -7   8   0    2.04    3.20
   7  -8   0   -4.08    3.13
  -7  -8   0   -1.04    7.33
  -8   8   1   14.21    3.24
   8  -8  -1   13.78    3.17
  -9   8   2   -0.07    3.31
   9  -8  -2    0.12    3.63
  10  -8  -3   10.86    3.69
 -10   8   3    7.61    3.75
 -11   8   4   -2.15    3.38
  11  -8  -4    2.60    3.77
 -12   8   5  -10.82    3.97
  12  -8  -5    0.59    3.93
 -13   8   6   -2.40    3.80
  13  -8  -6   -3.55    3.66
 -14   8   7    4.37    4.65
  14  -8  -7    6.25    4.50
   0  -9  -7   -2.45    4.23
   0  -9  -7    0.81    4.42
   0   9  -7   -2.45    4.52
   0  -9   7   -3.48    4.52
  -1  -9  -6    1.91    4.10
  -1  -9  -6    3.83    4.19
  -1   9  -6   -1.12    4.16
   1  -9   6    0.96    4.15
   2  -9   5   -2.52    3.98
  -2  -9  -5   -0.01    4.34
  -2  -9  -5    1.89    4.01
  -2   9  -5   -1.12    3.91
   3  -9   4    9.83    3.84
  -3  -9  -4    6.34    4.27
  -3  -9  -4   12.40    3.95
  -3   9  -4    9.12    3.87
   4  -9   3    1.87    3.75
  -4  -9  -3    0.25    4.17
  -4  -9  -3    6.43    4.63
  -4   9  -3   -9.35    3.72
  -5   9  -2   45.77    3.83
   5  -9   2   45.20    3.66
  -5  -9  -2   40.92    5.00
  -5  -9  -2   50.23    4.86
  -6   9  -1   -3.43    3.28
  -6  -9  -1    2.03    6.28
   6  -9   1   -5.56    3.68
  -6  -9  -1    1.11    5.93
  -7   9   0   55.62    3.80
   7  -9   0   43.47    3.75
  -8   9   1   -4.47    3.29
   8  -9  -1    3.35    3.65
   9  -9  -2    3.98    3.73
  -9   9   2   -1.21    3.80
  10  -9  -3   -0.07    3.74
 -10   9   3   -2.93    3.74
 -11   9   4    2.63    3.98
  11  -9  -4   -0.27    3.91
 -12   9   5    7.42    3.64
  12  -9  -5   -0.53    3.59
 -13   9   6   12.49    4.56
  13  -9  -6    9.62    3.85
   0 -10  -7    4.36    4.73
   0  10  -7   -2.11    4.74
   0 -10  -7   -4.76    4.69
  -1 -10  -6    3.27    4.39
  -1 -10  -6   -2.17    4.90
  -1  10  -6    2.46    4.83
   1 -10   6    3.31    4.46
   2 -10   5   -1.25    4.56
  -2 -10  -5    2.41    4.58
  -2 -10  -5    3.86    4.21
  -2  10  -5   -2.91    4.22
   3 -10   4    3.19    4.03
  -3 -10  -4    3.08    4.74
  -3 -10  -4    2.38    4.52
  -3  10  -4   -1.79    4.09
  -4  10  -3   19.99    3.86
  -4 -10  -3   26.32    4.81
   4 -10   3   15.74    3.87
  -4 -10  -3   11.53    4.72
  -5  10  -2    0.84    3.78
   5 -10   2   -1.54    3.76
  -5 -10  -2    0.71    5.59
  -5 -10  -2    5.91    5.68
  -6  10  -1   49.20    3.38
   6 -10   1   40.67    3.82
  -7  10   0   -1.72    3.84
   7 -10   0   -2.36    3.25
   8 -10  -1   14.19    3.26
  -8  10   1   14.45    3.86
   9 -10  -2    3.76    3.84
  -9  10   2    2.72    3.95
  10 -10  -3    3.44    4.01
 -10  10   3   -6.38    3.53
 -11  10   4    6.00    4.23
  11 -10  -4    1.11    4.14
 -12  10   5   -7.97    3.94
  12 -10  -5    0.60    4.42
  -1 -11  -6    0.01    4.66
  -1  11  -6   -0.39    4.74
   1 -11   6    3.15    4.71
   2 -11   5    0.17    4.51
  -2 -11  -5    0.65    4.36
  -2 -11  -5    3.69    4.90
  -2  11  -5    3.62    5.03
  -3  11  -4    1.33    4.31
   3 -11   4    4.01    4.30
  -3 -11  -4    1.49    5.17
  -3 -11  -4   -1.29    4.85
  -4  11  -3   -0.01    4.25
   4 -11   3   -4.06    4.55
  -4 -11  -3    1.90    5.39
  -4 -11  -3   -4.84    5.51
  -5  11  -2   28.16    4.15
   5 -11   2   20.62    4.11
  -5 -11  -2   23.29    6.77
  -5 -11  -2   30.93    6.82
   6 -11   1   -6.59    4.03
  -6  11  -1   -2.34    4.04
   7 -11   0   16.21    3.86
  -7  11   0   18.50    3.48
   8 -11  -1    1.54    4.06
  -8  11   1   -4.05    4.09
   9 -11  -2    2.30    4.13
  -9  11   2   -1.11    3.69
 -10  11   3    3.11    4.33
  10 -11  -3    1.16    4.22
 -11  11   4    2.16    4.41
  11 -11  -4    4.02    4.42
   3 -12   4   -1.52    4.60
  -3  12  -4    5.34    5.02
  -3 -12  -4    0.54    5.58
  -3 -12  -4    5.27    5.60
   4 -12   3   14.30    5.00
  -4  12  -3   10.04    4.89
  -4 -12  -3   12.95    6.28
  -4 -12  -3   15.61    6.65
   5 -12   2    2.62    4.34
  -5  12  -2   -0.28    4.43
   6 -12   1   19.41    4.38
  -6  12  -1   16.94    4.43
   7 -12   0    0.09    4.27
  -7  12   0    8.72    4.28
   8 -12  -1    9.70    4.28
  -8  12   1    7.37    3.81
  -9  12   2    1.02    4.50
   9 -12  -2   -8.14    4.28
 -10  12   3   -6.16    4.63
  10 -12  -3    0.43    3.93
   5 -13   2   12.07    4.70
  -5  13  -2   11.91    5.12
   6 -13   1   -4.97    5.17
  -6  13  -1    1.78    5.10
   7 -13   0    3.14    4.65
  -7  13   0    5.86    4.55
  -8  13   1    1.83    4.71
   2   0 -10   13.14    4.47
   2   0 -10    3.09    4.11
   0   0  -8   42.54    3.98
   0   0  -8   29.89    4.02
  -2   0  -6   19.11    3.14
   2   0   6   28.48    3.12
   4   0   4    9.74    3.70
  -4   0  -4   17.30    3.28
   6   0   2    4.66    3.17
  -6   0  -2    3.81    3.72
   8   0   0  100.04    3.84
  -8   0   0  115.47    3.90
 -10   0   2  120.86    3.59
  10   0  -2  116.88    3.48
  12   0  -4    5.27    3.51
 -12   0   4   10.52    3.66
 -14   0   6   -2.53    3.75
  14   0  -6   -6.50    3.65
  16   0  -8   -0.76    4.26
 -16   0   8    7.70    4.34
   2  -1 -10   -2.29    4.48
   2   1 -10    1.23    4.45
   2  -1 -10    1.67    4.52
   1  -1  -9   28.80    4.19
   1   1  -9   30.21    3.72
   1   1  -9   21.57    3.72
   1  -1  -9   27.70    3.81
   0  -1  -8    5.37    3.43
   0  -1  -8   -2.84    3.42
   0   1  -8    1.21    3.48
   1  -1   7   35.16    3.29
  -1  -1  -7   32.09    3.72
  -1   1  -7   37.60    3.82
  -2  -1  -6   -4.18    3.15
  -2   1  -6    0.13    3.16
   2   1   6    0.73    3.15
   2  -1   6   -1.99    3.53
  -3  -1  -5   -4.42    3.65
  -3   1  -5   -1.81    3.22
   3   1   5   -3.12    3.64
   3  -1   5   -4.94    3.63
   4  -1   4    4.35    3.71
  -4  -1  -4    1.71    3.25
  -4   1  -4    0.33    3.29
   4   1   4    4.61    3.20
   5   1   3   -0.67    3.29
   5  -1   3   -3.06    3.26
  -5  -1  -3   -5.63    3.76
  -5   1  -3   -2.96    3.32
   6   1   2    3.14    3.27
   6  -1   2    5.40    3.25
  -6  -1  -2    6.36    3.28
  -6   1  -2    1.27    3.32
   7   1   1   24.65    3.87
   7  -1   1   25.04    3.26
  -7  -1  -1   21.41    3.38
  -7   1  -1   26.14    3.30
   8   1   0   -4.11    3.88
   8  -1   0    5.86    3.17
  -8  -1   0   -0.16    3.92
  -8   1   0   -4.24    3.72
  -9  -1   1  184.11    4.14
  -9   1   1  184.38    3.50
   9   1  -1  170.02    4.07
   9  -1  -1  168.78    3.42
 -10   1   2   -1.01    3.97
 -10  -1   2   -3.28    3.92
  10   1  -2   -2.42    3.72
  10  -1  -2    1.45    3.30
 -11   1   3   56.07    3.57
 -11  -1   3   52.52    3.93
  11   1  -3   42.95    3.75
  11  -1  -3   49.95    3.83
  12   1  -4    3.52    3.53
 -12   1   4    1.68    3.31
  12  -1  -4    0.89    3.65
 -12  -1   4   -0.22    3.73
 -13   1   5   -0.59    3.29
 -13  -1   5   -4.93    3.84
  13   1  -5    1.15    3.66
  13  -1  -5   -2.29    3.58
 -14   1   6    4.98    3.86
 -14  -1   6   -7.24    3.87
  14   1  -6    4.17    3.74
  14  -1  -6    0.13    3.24
 -15  -1   7   -5.29    4.03
 -15   1   7   -0.08    3.59
  15   1  -7   -2.97    3.92
  15  -1  -7   -7.60    4.03
  16  -1  -8    2.41    4.43
 -16   1   8   -4.86    3.88
 -16  -1   8   -3.29    4.46
  16   1  -8    9.17    4.38
   1  -2  -9   -1.52    3.75
   1   2  -9   -0.18    4.19
   1   2  -9   -0.77    4.18
   1  -2  -9    4.76    3.80
   0  -2  -8   35.13    4.05
   0   2  -8   29.89    3.86
   0  -2  -8   42.39    3.53
  -1  -2  -7    4.62    3.70
  -1   2  -7   -0.06    3.31
  -1  -2  -7   -2.51    3.31
   1  -2   7    0.33    3.24
  -2  -2  -6   15.45    3.26
  -2   2  -6   11.77    3.17
   2  -2   6   13.08    3.64
   3  -2   5   -2.58    3.14
  -3  -2  -5   -1.70    3.23
  -3   2  -5   -3.59    3.18
   3   2   5   -1.73    3.24
   4  -2   4    3.23    3.24
  -4  -2  -4    4.11    3.38
  -4   2  -4    6.26    3.26
   4   2   4   10.40    3.87
   5   2   3   -4.11    3.91
   5  -2   3    4.92    3.29
  -5  -2  -3   -5.65    3.94
  -5   2  -3   -2.76    3.34
   6   2   2    2.73    3.37
   6  -2   2   -3.80    3.26
  -6  -2  -2    0.84    3.81
  -6   2  -2   -0.22    3.25
   7   2   1   -0.39    3.89
   7  -2   1   -4.20    3.25
  -7  -2  -1    1.46    3.89
  -7   2  -1   -2.65    3.29
   8   2   0   90.83    4.03
   8  -2   0   99.16    3.81
  -8  -2   0  104.15    4.06
  -8   2   0  105.45    3.93
  -9  -2   1   -2.57    3.92
  -9   2   1   -5.99    3.79
   9   2  -1   -0.06    3.86
   9  -2  -1    0.31    3.26
 -10   2   2  126.29    3.50
 -10  -2   2  132.43    4.12
  10   2  -2  118.24    3.96
  10  -2  -2  128.35    3.37
 -11   2   3    2.12    3.35
  11   2  -3    0.72    3.65
 -11  -2   3   -0.83    3.82
  11  -2  -3    4.90    3.20
 -12  -2   4   19.82    3.77
  12   2  -4   20.59    3.91
 -12   2   4   22.05    3.83
  12  -2  -4   17.66    3.22
 -13   2   5    2.29    3.34
 -13  -2   5   -1.43    3.82
  13   2  -5   -0.20    3.67
  13  -2  -5    5.27    3.65
 -14   2   6    3.34    3.87
 -14  -2   6   -0.53    3.88
  14   2  -6    2.23    3.78
  14  -2  -6   -2.50    3.24
 -15  -2   7    5.01    4.20
 -15   2   7   -2.55    3.60
  15   2  -7   -6.35    4.16
  15  -2  -7    1.49    3.49
  16  -2  -8    3.33    4.43
 -16   2   8    0.46    3.93
 -16  -2   8   -4.05    4.57
  16   2  -8   -0.02    4.51
   1  -3  -9   28.25    4.25
   1   3  -9   21.46    4.44
   1  -3  -9   23.09    4.26
   1   3  -9   28.04    3.82
   0  -3  -8   -5.71    3.48
   0   3  -8   -2.44    3.91
   0  -3  -8    0.00    3.46
  -1  -3  -7   14.43    3.28
  -1  -3  -7   22.94    3.27
   1  -3   7   30.60    3.79
  -1   3  -7   23.94    3.81
  -2  -3  -6    0.81    3.20
  -2   3  -6    4.51    3.76
   2  -3   6   -2.80    3.63
   3  -3   5   -2.35    3.13
  -3  -3  -5   -2.18    3.72
  -3   3  -5   -0.06    3.17
   3   3   5   -0.64    3.71
   4  -3   4   -1.31    3.17
  -4  -3  -4    4.12    3.34
  -4   3  -4   -0.41    3.72
   4   3   4   -3.75    3.36
   5  -3   3    5.53    3.26
  -5  -3  -3    9.28    3.88
  -5   3  -3   11.73    3.30
   5   3   3    6.27    3.81
   6   3   2   -1.38    3.88
   6  -3   2   -4.23    3.27
  -6  -3  -2    0.33    3.88
  -6   3  -2    2.87    3.29
   7   3   1   49.63    3.94
   7  -3   1   40.28    3.35
  -7  -3  -1   50.18    3.95
  -7   3  -1   48.51    3.82
  -8   3   0    0.53    3.26
   8   3   0    2.26    3.85
   8  -3   0    3.62    3.25
  -8  -3   0    1.08    4.26
  -9  -3   1  162.24    4.55
  -9   3   1  151.42    3.52
   9   3  -1  133.91    4.51
   9  -3  -1  149.67    3.43
 -10   3   2   -1.24    3.29
 -10  -3   2    3.18    4.34
  10   3  -2    2.92    4.22
  10  -3  -2    2.54    3.16
 -11   3   3   46.58    3.82
  11   3  -3   40.63    4.12
 -11  -3   3   58.60    4.31
  11  -3  -3   50.05    3.66
 -12  -3   4   -4.38    4.22
  12   3  -4    1.46    3.58
 -12   3   4    2.32    3.83
  12  -3  -4    7.27    3.20
 -13   3   5    2.61    3.35
 -13  -3   5    1.70    4.20
  13   3  -5   -0.24    4.11
  13  -3  -5   -3.28    3.67
 -14  -3   6   -2.60    4.00
 -14   3   6    0.66    3.82
  14   3  -6   -5.33    4.24
  14  -3  -6    0.44    3.30
 -15   3   7   -2.99    3.67
 -15  -3   7   -7.91    4.28
  15   3  -7   -2.07    4.16
  15  -3  -7    4.24    4.11
  16  -3  -8    3.03    4.44
 -16   3   8    0.64    3.98
  16   3  -8   -0.64    4.99
 -16  -3   8    2.85    4.60
   1  -4  -9    1.08    3.73
   1  -4  -9   -1.08    3.83
   1   4  -9   -0.84    3.85
   1   4  -9   -1.48    4.39
   0  -4  -8   37.18    3.95
   0   4  -8   33.30    3.62
   0  -4  -8   36.74    3.52
   0  -4   8   34.12    3.60
  -1  -4  -7    7.24    3.65
  -1  -4  -7   -5.70    3.67
  -1   4  -7    0.04    3.27
   1  -4   7    2.83    3.26
  -2  -4  -6   16.69    3.62
  -2   4  -6   18.14    3.28
  -2  -4  -6   18.17    3.18
   2  -4   6   19.03    3.23
  -3  -4  -5   -3.82    3.60
  -3   4  -5    1.00    3.22
   3  -4   5   -2.22    3.68
   4  -4   4   -0.89    3.16
  -4  -4  -4    3.18    3.63
  -4   4  -4   -4.75    3.25
   4   4   4   -2.50    3.17
   5  -4   3    4.35    3.70
  -5  -4  -3    1.81    3.73
  -5   4  -3   -3.16    3.74
   5   4   3    6.86    3.80
   6  -4   2    1.46    3.66
  -6  -4  -2   -0.41    3.84
  -6   4  -2    4.90    3.69
   6   4   2    1.37    3.88
   7   4   1    4.65    3.89
   7  -4   1    1.58    3.27
  -7  -4  -1    2.52    3.88
  -7   4  -1    7.67    3.75
  -8   4   0   80.99    3.42
   8   4   0   71.94    4.48
   8  -4   0   70.62    3.36
  -8  -4   0   77.67    4.01
  -9  -4   1    3.45    4.36
  -9   4   1    4.43    3.30
   9   4  -1    0.10    4.31
   9  -4  -1    2.68    3.66
 -10   4   2   84.09    3.34
  10   4  -2   76.14    4.18
 -10  -4   2   93.25    4.45
  10  -4  -2   85.08    3.23
  11   4  -3   -1.18    4.34
 -11   4   3   -2.30    3.15
  11  -4  -3   -3.30    3.50
 -11  -4   3   -1.10    4.20
 -12  -4   4   13.26    4.74
  12   4  -4   10.73    4.42
 -12   4   4   19.16    3.28
  12  -4  -4   11.75    3.11
 -13   4   5   -4.94    3.40
  13   4  -5   -0.69    4.13
 -13  -4   5    0.57    4.33
  13  -4  -5    3.59    3.22
 -14   4   6   -0.26    4.00
 -14  -4   6    1.69    4.47
  14   4  -6   -1.89    4.36
  14  -4  -6   -2.84    3.87
 -15  -4   7    4.20    4.82
 -15   4   7    4.19    4.16
  15   4  -7   -4.44    4.76
  15  -4  -7   -1.93    3.67
 -16   4   8   -2.63    4.63
  16   4  -8   -2.86    5.24
  16  -4  -8    6.45    4.00
   1  -5  -9   19.64    4.53
   1   5  -9   16.82    3.99
   1   5  -9   17.77    4.46
   1  -5  -9   11.99    3.95
   0  -5  -8    2.16    3.62
   0  -5  -8   -6.69    4.22
   0   5  -8    4.29    4.17
   0  -5   8    1.97    3.59
  -1  -5  -7   23.53    3.81
  -1   5  -7   38.88    3.85
  -1  -5  -7   30.04    3.90
   1  -5   7   31.65    3.89
  -2  -5  -6    3.47    3.71
  -2  -5  -6   -4.36    3.21
  -2   5  -6    1.98    3.26
   2  -5   6   -2.40    3.22
   3  -5   5   -2.12    3.67
  -3  -5  -5    3.79    3.72
  -3   5  -5    4.45    3.24
  -3  -5  -5   -4.21    3.68
   4  -5   4   -0.75    3.19
  -4  -5  -4   -1.38    3.55
  -4   5  -4   -1.85    3.23
   5  -5   3    3.72    3.68
  -5  -5  -3   -0.74    3.68
  -5   5  -3    5.78    3.19
   5   5   3   -1.07    4.15
   6  -5   2   -2.73    3.58
  -6  -5  -2    6.68    4.21
  -6   5  -2    5.62    3.15
   6   5   2    5.29    3.80
   7   5   1   27.87    4.32
   7  -5   1   26.13    3.20
  -7  -5  -1   25.38    4.29
  -7   5  -1   20.78    3.24
  -8   5   0   -1.93    3.22
   8   5   0    0.85    4.29
   8  -5   0    5.99    3.18
  -8  -5   0   -1.25    4.61
   9   5  -1   92.66    4.78
  -9  -5   1  107.99    4.83
  -9   5   1   98.15    3.34
   9  -5  -1   92.71    3.75
  10   5  -2   -2.42    4.40
 -10   5   2    0.39    3.20
 -10  -5   2   -2.06    5.00
  10  -5  -2   -3.23    3.11
 -11  -5   3   33.74    4.78
  11   5  -3   24.33    4.44
 -11   5   3   37.64    3.70
  11  -5  -3   31.09    3.14
  12   5  -4    1.99    4.37
 -12  -5   4    3.25    4.59
  12  -5  -4   -4.22    3.16
 -12   5   4    4.56    3.68
 -13   5   5   -5.78    3.40
 -13  -5   5    0.48    4.74
  13   5  -5   -3.77    4.51
  13  -5  -5   -2.77    3.78
 -14   5   6   10.20    3.95
 -14  -5   6   -1.83    5.06
  14   5  -6    0.29    4.93
  14  -5  -6   -0.78    3.50
 -15  -5   7    2.91    4.94
 -15   5   7    1.24    4.20
  15   5  -7   -1.16    5.19
  15  -5  -7   -3.20    4.16
   0  -6  -8   23.56    3.69
   0   6  -8   16.29    4.36
   0  -6   8   18.77    4.34
   0  -6  -8   21.58    3.76
  -1  -6  -7    1.68    3.36
  -1  -6  -7  -10.84    3.97
  -1   6  -7    2.14    3.89
   1  -6   7    4.05    3.88
  -2  -6  -6    9.41    3.21
  -2   6  -6   10.02    3.31
  -2  -6  -6    7.30    3.70
   2  -6   6   10.84    3.80
  -3  -6  -5    0.10    3.14
  -3  -6  -5   -1.14    3.69
  -3   6  -5    6.82    3.19
   3  -6   5   -2.65    3.62
   4  -6   4   -0.68    3.64
  -4  -6  -4   -2.68    3.57
  -4  -6  -4   -2.84    3.59
  -4   6  -4    1.51    3.18
   5  -6   3    0.38    3.17
  -5  -6  -3   -4.02    3.58
  -5   6  -3   10.76    3.22
   6  -6   2    3.45    3.22
  -6  -6  -2   -2.87    4.01
  -6   6  -2   -8.37    3.22
   6   6   2    1.72    4.14
   7  -6   1    1.68    3.18
  -7  -6  -1   -2.96    4.11
   7   6   1    0.24    4.53
  -7   6  -1   -4.58    3.17
  -8   6   0   61.21    3.74
   8  -6   0   61.90    3.25
  -8  -6   0   64.23    4.94
   8   6   0   51.12    4.59
   9   6  -1    5.02    4.69
  -9   6   1    3.54    3.14
  -9  -6   1    1.08    4.85
   9  -6  -1    0.94    3.08
  10   6  -2   87.84    5.23
 -10  -6   2  105.17    5.61
 -10   6   2   99.47    3.71
  10  -6  -2  103.43    3.60
  11   6  -3   -2.36    5.38
 -11  -6   3    0.21    5.76
 -11   6   3    4.56    3.18
  11  -6  -3   -3.26    3.50
  12   6  -4    3.73    4.88
 -12  -6   4    3.18    5.53
  12  -6  -4    3.32    3.63
 -12   6   4    3.24    3.72
 -13   6   5   11.94    3.50
 -13  -6   5    0.28    5.52
  13   6  -5   -2.18    4.72
  13  -6  -5    0.58    3.89
 -14   6   6   -6.29    3.72
  14   6  -6    0.77    5.30
  14  -6  -6    4.73    3.62
 -15   6   7   -3.08    3.87
  15   6  -7   -3.77    5.95
  15   6  -7   -1.33    5.59
  15  -6  -7    5.38    4.27
   0  -7  -8   -4.36    3.88
   0   7  -8   -1.01    4.54
   0  -7  -8    4.13    4.35
   0  -7   8    1.19    4.55
  -1  -7  -7   22.33    3.97
  -1   7  -7   12.93    4.10
   1  -7   7   15.63    4.21
  -1  -7  -7   25.27    4.22
  -2  -7  -6    1.98    3.88
  -2  -7  -6   -0.05    3.93
   2  -7   6    1.35    3.28
  -2   7  -6   -2.53    3.90
   3  -7   5    5.54    3.24
  -3  -7  -5    1.00    3.73
  -3  -7  -5    1.21    3.83
  -3   7  -5   -8.06    3.78
  -4  -7  -4   -4.40    4.14
   4  -7   4    3.97    3.24
  -4  -7  -4    0.67    3.64
  -4   7  -4   -1.03    3.73
   5  -7   3    0.28    3.62
  -5  -7  -3    1.31    3.96
  -5  -7  -3    0.76    3.67
  -5   7  -3   -4.51    3.23
   6  -7   2   -2.54    3.11
  -6  -7  -2   -1.66    4.39
  -6  -7  -2    0.73    4.06
  -6   7  -2    1.53    3.65
  -7   7  -1   31.33    3.77
   7  -7   1   21.75    3.20
  -7  -7  -1   16.41    4.52
  -8  -7   0   -3.05    5.18
  -8   7   0   -3.26    3.73
   8  -7   0   -3.62    3.68
  -9   7   1   63.12    3.82
  -9  -7   1   73.78    6.09
   9  -7  -1   68.60    3.77
   9   7  -1   58.56    6.13
  10   7  -2   -1.32    7.03
 -10   7   2    1.66    3.29
  10  -7  -2   -3.13    3.67
 -10  -7   2    0.40    7.60
  11   7  -3   27.40    7.55
 -11   7   3   22.27    3.91
  11  -7  -3   29.85    3.63
 -11  -7   3   34.03    7.92
  12   7  -4    0.22    6.76
  12  -7  -4    4.13    3.36
 -12   7   4    6.60    3.45
 -13   7   5   -3.91    3.61
  13   7  -5    1.74    6.56
  13  -7  -5   -3.89    3.94
 -14   7   6   -3.84    3.86
  14   7  -6   -0.59    6.63
  14  -7  -6    3.78    4.32
  14   7  -6   -1.62    6.50
 -15   7   7   -1.25    4.08
  15  -7  -7   -3.68    4.09
   0   8  -8   14.24    4.61
  -1  -8  -7   -1.67    3.66
  -1   8  -7   -0.37    4.32
  -1  -8  -7   -1.85    3.72
   1  -8   7    4.04    4.29
  -2  -8  -6    3.53    3.92
  -2   8  -6    5.81    3.98
  -2  -8  -6   12.82    4.13
   2  -8   6    3.24    3.54
   3  -8   5   -2.63    3.34
  -3  -8  -5   10.11    4.33
  -3  -8  -5    4.19    4.31
  -3   8  -5   -3.90    3.76
   4  -8   4    0.43    3.21
  -4  -8  -4   -1.32    3.83
  -4  -8  -4   -5.95    4.18
  -4   8  -4   -1.37    3.69
   5  -8   3   -5.64    3.58
  -5  -8  -3    3.34    4.10
  -5  -8  -3    1.25    4.24
  -5   8  -3   -0.69    3.71
  -6   8  -2    8.63    3.73
   6  -8   2    5.46    3.68
  -6  -8  -2    4.51    4.45
  -6  -8  -2    0.25    4.57
  -7   8  -1    0.74    3.23
   7  -8   1   -0.72    3.63
  -7  -8  -1   -1.68    5.17
  -7  -8  -1   -0.73    5.10
  -8  -8   0   40.15    6.55
  -8  -8   0   39.05    6.42
  -8   8   0   37.14    3.68
   8  -8   0   40.06    3.24
  -9   8   1    0.87    3.72
   9  -8  -1   -0.39    3.63
 -10   8   2   40.36    3.36
  10  -8  -2   38.85    3.27
  11  -8  -3    1.49    3.26
 -11   8   3    2.64    3.40
  12  -8  -4    5.53    3.40
 -12   8   4    6.42    3.49
 -13   8   5   -2.64    3.70
  13  -8  -5    1.68    3.59
 -14   8   6    0.12    3.93
  14  -8  -6    0.78    3.85
  -1  -9  -7    7.35    4.57
  -1  -9  -7   12.56    4.52
  -1   9  -7   11.80    4.68
   1  -9   7   14.73    4.51
  -2  -9  -6    4.38    4.24
  -2  -9  -6    3.17    4.34
  -2   9  -6    2.15    4.28
   2  -9   6   -0.69    4.29
   3  -9   5    6.88    4.07
  -3  -9  -5    5.04    3.97
  -3  -9  -5   -1.75    4.51
  -3   9  -5   -0.57    4.10
   4  -9   4    1.58    3.90
  -4  -9  -4    1.06    4.33
  -4  -9  -4   -1.10    4.46
  -4   9  -4    0.17    3.95
   5  -9   3    3.08    3.80
  -5  -9  -3   -0.57    4.55
  -5  -9  -3    2.98    4.70
  -5   9  -3   -6.41    3.84
  -6   9  -2    0.46    3.82
   6  -9   2   -0.93    3.70
  -6  -9  -2    0.72    4.93
  -6  -9  -2   -2.94    5.10
  -7   9  -1   13.37    3.72
   7  -9   1    9.64    3.75
  -7  -9  -1   16.38    6.10
  -7  -9  -1   13.28    5.84
  -8   9   0   -6.28    3.30
   8  -9   0    2.71    3.68
  -9   9   1   47.42    3.38
   9  -9  -1   46.25    3.30
  10  -9  -2   -0.16    3.26
 -10   9   2   -5.60    3.87
  11  -9  -3   16.33    3.89
 -11   9   3   17.92    4.01
 -12   9   4    0.75    3.61
  12  -9  -4    2.73    3.54
 -13   9   5   -3.82    4.32
  13  -9  -5    0.90    3.81
  -2 -10  -6    6.60    4.55
  -2 -10  -6    6.87    4.64
  -2  10  -6    5.50    4.58
   2 -10   6    7.31    4.58
   3 -10   5    3.35    4.31
  -3 -10  -5   -0.28    4.74
  -3 -10  -5    2.23    4.35
  -3  10  -5   -1.60    4.35
   4 -10   4   -1.01    4.13
  -4 -10  -4    0.23    4.60
  -4 -10  -4   -5.02    5.06
  -4  10  -4   -4.26    4.16
  -5  10  -3    1.23    4.00
   5 -10   3    1.72    3.97
  -5 -10  -3    0.06    5.03
  -5 -10  -3   -1.85    4.88
  -6  10  -2    4.31    3.91
  -6 -10  -2   -1.36    5.76
   6 -10   2   -1.02    3.91
  -6 -10  -2    1.83    5.78
  -7  10  -1   -1.11    3.92
   7 -10   1   -4.05    3.85
  -8  10   0   23.32    3.96
   8 -10   0   17.06    3.88
   9 -10  -1    9.67    3.89
  -9  10   1    0.66    3.50
  10 -10  -2   25.37    3.52
 -10  10   2   23.05    3.59
  11 -10  -3    0.53    4.14
 -11  10   3   -3.03    4.25
 -12  10   4    1.28    3.89
  12 -10  -4   -1.49    4.38
 -13  10   5    8.65    4.11
  13 -10  -5   -4.57    4.47
   3 -11   5    3.39    4.58
  -3 -11  -5    0.17    5.07
  -3 -11  -5    2.47    5.00
  -3  11  -5   -4.45    4.68
  -4  11  -4    1.11    4.27
  -4 -11  -4    4.67    5.35
   4 -11   4   -0.12    4.44
  -4 -11  -4    1.83    5.38
  -5  11  -3   -0.53    4.25
   5 -11   3    5.35    4.29
  -5 -11  -3    0.65    5.58
  -5 -11  -3   -0.02    5.70
  -6  11  -2    5.38    4.08
   6 -11   2    1.21    4.13
  -6 -11  -2   -2.00    7.02
  -6 -11  -2    0.05    7.24
   7 -11   1   -0.35    4.16
  -7  11  -1   10.36    4.20
   8 -11   0    1.34    4.16
  -8  11   0   -9.51    4.05
   9 -11  -1   23.35    4.21
  -9  11   1   25.13    4.27
  10 -11  -2    1.12    3.71
 -10  11   2   -1.00    4.30
 -11  11   3    3.20    3.95
  11 -11  -3    6.98    4.44
   5 -12   3   -0.14    4.60
  -5  12  -3    7.28    4.63
  -5 -12  -3    1.37    6.77
  -5 -12  -3    0.91    6.81
   6 -12   2    0.92    4.52
  -6  12  -2    4.93    4.55
   7 -12   1    3.81    4.41
  -7  12  -1   -0.54    4.45
   8 -12   0   -1.25    4.53
  -8  12   0    4.69    4.50
   9 -12  -1    2.31    4.55
  -9  12   1   -2.45    4.60
 -10  12   2   12.49    4.51
  10 -12  -2   14.38    3.97
   0   0  -9    4.24    4.31
   0   0  -9   -6.44    3.82
  -2   0  -7   35.25    3.91
   2   0   7   39.90    3.36
  -4   0  -5   61.15    3.25
   4   0   5   58.24    3.67
   6   0   3   20.25    3.73
  -6   0  -3   12.19    3.27
   8   0   1   10.92    3.87
  -8   0  -1   13.34    3.41
 -10   0   1   10.93    3.38
  10   0  -1   15.36    3.83
 -12   0   3   73.03    3.80
  12   0  -3   65.91    3.17
 -14   0   5   38.67    3.89
  14   0  -5   38.06    3.66
 -16   0   7   -0.79    3.78
  16   0  -7    0.96    3.68
   0  -1  -9   -5.08    3.81
   0   1  -9   -1.14    3.78
   0   1  -9    1.92    3.81
   0  -1  -9   -2.63    4.32
  -1  -1  -8    9.37    3.98
  -1   1  -8    7.85    3.58
  -1  -1  -8   13.42    4.11
  -2  -1  -7   -2.87    3.36
  -2   1  -7   -0.43    3.38
   2  -1   7   -0.50    3.37
  -3  -1  -6   72.43    3.35
  -3   1  -6   65.71    3.73
   3   1   6   57.56    3.37
   3  -1   6   62.59    3.24
   4  -1   5    4.06    3.09
  -4  -1  -5    3.36    3.70
  -4   1  -5   -2.50    3.16
   4   1   5   -6.40    3.69
   5  -1   4   42.24    3.67
  -5  -1  -4   42.39    3.25
  -5   1  -4   41.96    3.23
   5   1   4   42.69    3.74
   6   1   3    2.04    3.31
   6  -1   3   -3.57    3.71
  -6  -1  -3    2.48    3.83
  -6   1  -3    2.95    3.23
   7   1   2    2.93    3.84
   7  -1   2    3.23    3.24
  -7  -1  -2   10.13    3.93
  -7   1  -2    2.44    3.72
   8   1   1    2.30    3.29
   8  -1   1   -1.75    3.71
  -8  -1  -1    1.43    3.84
  -8   1  -1   -2.45    3.28
   9   1   0    6.09    3.84
   9  -1   0    2.77    3.33
  -9   1   0    5.57    3.37
  -9  -1   0    3.09    3.77
 -10  -1   1    4.81    3.82
 -10   1   1    3.35    3.37
  10   1  -1    3.97    3.76
  10  -1  -1   -1.60    3.82
 -11   1   2   32.31    3.40
 -11  -1   2   36.74    3.75
  11   1  -2   31.90    3.22
  11  -1  -2   39.07    3.82
 -12   1   3    3.10    3.77
 -12  -1   3    2.13    3.67
  12   1  -3   -3.57    3.57
  12  -1  -3    2.28    3.63
  13   1  -4   69.58    3.71
  13  -1  -4   71.75    3.69
 -13   1   4   76.54    3.81
 -13  -1   4   73.19    3.80
 -14   1   5   -0.56    3.89
 -14  -1   5    0.54    3.92
  14   1  -5   -0.74    3.74
  14  -1  -5   -0.97    3.64
 -15   1   6   19.58    3.53
 -15  -1   6   15.94    4.09
  15   1  -6   16.52    3.94
  15  -1  -6   10.29    3.38
 -16  -1   7   -4.88    4.37
 -16   1   7    2.12    4.33
  16   1  -7    1.03    4.31
  16  -1  -7   -5.58    4.24
  17   1  -8    0.74    4.58
   0  -2  -9    1.17    3.76
   0   2  -9    3.01    3.80
   0   2  -9   -1.23    3.81
   0  -2  -9   -4.18    3.82
  -1  -2  -8   -1.18    3.53
  -1  -2  -8   -1.93    3.51
  -1   2  -8    3.87    4.04
   2  -2   7   25.59    3.36
  -2  -2  -7   21.97    3.88
  -2   2  -7   29.63    3.88
  -3  -2  -6   -1.08    3.28
  -3   2  -6   -4.50    3.25
   3   2   6    3.37    3.28
   3  -2   6   -0.56    3.62
   4  -2   5   61.68    3.63
  -4  -2  -5   61.48    3.80
  -4   2  -5   67.89    3.25
   4   2   5   66.23    3.28
   5  -2   4   -1.56    3.11
  -5  -2  -4   -4.03    3.70
  -5   2  -4   -7.75    3.18
   5   2   4   -4.87    3.69
   6   2   3    7.83    3.32
   6  -2   3    1.59    3.15
  -6  -2  -3    3.79    3.88
  -6   2  -3    5.90    3.20
   7   2   2   -0.91    3.33
   7  -2   2    5.62    3.70
  -7  -2  -2    6.38    3.82
  -7   2  -2   -6.43    3.23
   8   2   1   10.42    3.82
   8  -2   1   10.60    3.22
  -8  -2  -1    9.07    3.85
  -8   2  -1    8.75    3.25
   9   2   0   -0.01    3.77
   9  -2   0    6.58    3.22
  -9  -2   0   -0.59    3.80
  -9   2   0    2.30    3.27
 -10  -2   1    6.82    3.84
 -10   2   1    9.27    3.27
  10   2  -1   10.90    3.77
  10  -2  -1    6.45    3.76
 -11   2   2   -3.74    3.24
 -11  -2   2    4.23    3.69
  11   2  -2   -1.94    3.63
  11  -2  -2   -2.62    3.15
 -12   2   3   85.08    3.86
  12   2  -3   69.26    3.63
 -12  -2   3   84.64    4.19
  12  -2  -3   72.38    3.25
  13   2  -4    3.85    3.63
  13  -2  -4    3.43    3.56
 -13   2   4   -5.72    3.80
 -13  -2   4    0.51    4.23
 -14   2   5   34.62    3.36
 -14  -2   5   31.79    3.88
  14   2  -5   31.28    3.74
  14  -2  -5   32.43    3.26
 -15   2   6   -1.67    3.53
 -15  -2   6    4.58    3.99
  15   2  -6   -0.74    3.97
  15  -2  -6   -3.14    3.84
 -16  -2   7   -0.64    4.30
 -16   2   7    7.74    4.37
  16   2  -7    2.66    4.74
  16  -2  -7    1.72    3.74
   0  -3  -9    1.25    3.81
   0   3  -9    2.63    3.89
   0   3  -9   -3.05    3.92
   0  -3  -9   -3.16    4.49
  -1  -3  -8    6.57    4.08
  -1  -3  -8   -0.71    3.57
  -1   3  -8    1.65    3.58
   1  -3   8   11.60    3.53
  -2  -3  -7    2.15    3.37
  -2   3  -7   -5.14    3.90
  -2  -3  -7   -1.95    3.35
   2  -3   7    1.08    3.81
  -3  -3  -6   62.04    3.82
  -3   3  -6   49.57    3.42
   3  -3   6   52.20    3.31
   4  -3   5    1.99    3.53
  -4  -3  -5    0.20    3.21
  -4   3  -5   -0.49    3.20
   4   3   5   -0.81    3.21
   5  -3   4   43.06    3.08
  -5  -3  -4   34.76    3.72
  -5   3  -4   39.12    3.13
   5   3   4   35.89    3.63
   6   3   3   -5.41    3.64
   6  -3   3    5.82    3.12
  -6  -3  -3   -0.29    3.19
  -6   3  -3   -0.29    3.16
   7   3   2    0.07    3.72
   7  -3   2    0.64    3.16
  -7  -3  -2   -3.37    3.72
  -7   3  -2    5.80    3.18
   8   3   1    0.97    3.82
   8  -3   1    4.39    3.71
  -8  -3  -1    4.12    3.80
  -8   3  -1    4.53    3.65
  -9   3   0    3.12    3.22
   9   3   0   -0.46    4.13
   9  -3   0  -12.21    3.61
  -9  -3   0    4.68    4.16
 -10  -3   1   -1.70    3.68
 -10   3   1    3.68    3.69
  10   3  -1    3.73    4.05
  10  -3  -1    4.75    3.62
 -11   3   2   24.46    3.28
 -11  -3   2   28.65    4.14
  11   3  -2   23.08    3.64
  11  -3  -2   24.58    3.17
  12   3  -3   -1.07    3.58
 -12   3   3   -3.78    3.31
 -12  -3   3    2.02    3.71
  12  -3  -3    0.48    3.60
 -13  -3   4   75.65    4.41
  13   3  -4   61.70    4.20
  13  -3  -4   69.03    3.78
 -13   3   4   72.23    3.95
 -14   3   5    0.14    3.75
 -14  -3   5    3.49    4.39
  14   3  -5    0.81    4.28
  14  -3  -5   -4.70    3.23
 -15   3   6    5.85    4.16
  15   3  -6    7.61    4.49
  15  -3  -6    5.98    3.90
 -15  -3   6   11.02    4.52
 -16  -3   7   -1.46    4.47
 -16   3   7    3.17    3.87
  16   3  -7    3.21    4.39
  16  -3  -7    2.23    3.77
   0  -4  -9    0.99    4.39
   0  -4  -9    1.99    3.99
   0   4  -9   -2.92    4.00
  -1  -4  -8    4.21    4.20
  -1   4  -8    1.59    4.22
  -1  -4  -8   -1.39    3.63
   1  -4   8    0.09    3.69
  -2  -4  -7   30.63    3.50
  -2   4  -7   21.69    3.83
  -2  -4  -7   31.72    3.94
   2  -4   7   22.05    3.92
  -3  -4  -6    1.68    3.31
  -3   4  -6    1.60    3.71
  -3  -4  -6    2.25    3.76
   3  -4   6    1.07    3.77
   4  -4   5   58.09    3.28
  -4  -4  -5   57.10    3.77
  -4   4  -5   58.68    3.85
   5  -4   4    2.39    3.63
  -5  -4  -4    4.42    3.72
  -5   4  -4    0.30    3.68
   5   4   4    1.48    3.73
   6  -4   3   -0.02    3.52
  -6  -4  -3    8.07    3.59
  -6   4  -3    4.39    3.10
   6   4   3    1.02    3.65
   7   4   2    3.55    3.66
   7  -4   2   -7.65    3.14
  -7  -4  -2    0.17    3.68
  -7   4  -2    1.74    3.16
   8   4   1    5.80    4.06
   8  -4   1   -3.25    3.11
  -8  -4  -1   -0.83    4.10
  -8   4  -1    3.20    3.13
  -9   4   0   -1.05    3.16
   9   4   0   -2.72    3.65
   9  -4   0    0.98    3.12
  -9  -4   0    3.02    3.64
 -10  -4   1    0.10    4.08
 -10   4   1    2.62    3.15
  10   4  -1   -1.43    4.00
  10  -4  -1   -0.22    3.11
 -11   4   2    1.55    3.17
  11   4  -2   -0.78    3.98
 -11  -4   2   -1.37    4.12
  11  -4  -2   -2.38    3.43
  12   4  -3   55.50    4.15
 -12   4   3   60.34    3.71
  12  -4  -3   47.89    3.66
 -12  -4   3   61.43    4.37
 -13  -4   4   -8.47    4.30
  13   4  -4   -1.02    4.10
  13  -4  -4   -4.38    3.75
 -13   4   4    2.87    3.35
 -14   4   5   29.41    3.43
  14   4  -5   24.62    4.32
 -14  -4   5   22.19    4.42
  14  -4  -5   25.32    3.32
 -15   4   6    0.93    4.16
 -15  -4   6    0.05    4.69
  15   4  -6   -0.12    4.61
  15  -4  -6    0.84    3.49
 -16  -4   7    5.92    5.09
 -16   4   7   -8.77    4.48
  16   4  -7   -1.36    5.04
  16  -4  -7    3.04    3.87
  -1  -5  -8   10.78    4.34
  -1   5  -8    4.30    4.24
  -1  -5  -8    8.92    3.75
   1  -5   8    6.13    3.82
  -2  -5  -7    3.76    3.45
  -2   5  -7   -1.63    3.57
   2  -5   7    0.47    4.07
  -2  -5  -7   -1.52    3.48
   3  -5   6   39.49    3.84
  -3  -5  -6   45.46    3.75
  -3  -5  -6   38.67    3.82
  -3   5  -6   42.38    3.32
   4  -5   5   -3.81    3.23
  -4  -5  -5   -3.62    3.20
  -4  -5  -5   -2.70    3.71
  -4   5  -5   -2.00    3.29
   5  -5   4   44.12    3.73
  -5  -5  -4   43.13    3.70
  -5   5  -4   38.59    3.30
   5   5   4   37.47    3.77
   6  -5   3    0.85    3.66
  -6  -5  -3    5.88    3.57
  -6   5  -3    0.86    3.63
   6   5   3   -1.66    3.68
   7  -5   2    2.43    3.61
  -7  -5  -2   -0.48    4.03
  -7   5  -2   -0.99    3.13
   7   5   2    4.84    4.08
   8   5   1   -5.80    4.08
   8  -5   1   -7.06    3.46
  -8  -5  -1   -6.35    3.96
  -8   5  -1   -1.46    3.11
  -9   5   0    1.59    3.59
   9   5   0   -2.15    4.38
   9  -5   0   -4.95    3.06
  -9  -5   0    4.15    4.04
  10   5  -1   -4.29    4.43
 -10  -5   1    0.28    4.43
 -10   5   1   -2.76    3.18
  10  -5  -1    1.69    3.53
  11   5  -2   23.95    4.55
 -11   5   2   30.50    3.64
 -11  -5   2   33.46    4.68
  11  -5  -2   33.23    3.12
 -12  -5   3   -1.59    4.61
  12   5  -3    0.84    4.46
 -12   5   3   -0.55    3.26
  12  -5  -3   -0.85    3.17
  13   5  -4   27.94    4.59
 -13  -5   4   50.17    4.87
  13  -5  -4   43.09    3.31
 -13   5   4   29.61    3.83
 -14   5   5   -3.10    3.53
 -14  -5   5   -1.50    4.93
  14   5  -5   -5.28    4.78
  14  -5  -5    1.96    3.87
 -15  -5   6   11.14    5.30
 -15   5   6   16.37    4.34
  15   5  -6   14.54    5.08
  15  -5  -6   10.53    4.21
 -16  -5   7   -2.30    5.65
 -16   5   7   -6.78    4.52
  16   5  -7   -0.23    5.24
  16  -5  -7   -4.37    3.92
  -1  -6  -8    4.39    3.86
  -1  -6  -8    8.46    4.33
  -1   6  -8    2.31    4.50
   1  -6   8    7.42    4.48
  -2  -6  -7   19.26    4.14
  -2  -6  -7   20.44    3.69
  -2   6  -7   20.87    4.06
   2  -6   7   13.85    3.62
  -3  -6  -6   -2.15    3.90
  -3  -6  -6   -5.36    3.83
  -3   6  -6    2.57    3.44
   3  -6   6   -2.71    3.81
   4  -6   5   34.17    3.74
  -4  -6  -5   30.98    3.33
  -4   6  -5   32.08    3.33
  -4  -6  -5   37.96    3.88
   5  -6   4    6.52    3.59
  -5  -6  -4   -2.21    3.70
  -5  -6  -4   -2.62    4.03
  -5   6  -4   -5.83    3.61
   6  -6   3    9.10    3.17
  -6  -6  -3    4.42    3.99
  -6   6  -3   11.23    3.25
   7  -6   2    3.42    3.24
  -7  -6  -2   -1.69    3.98
  -7   6  -2    2.83    3.71
   7   6   2    2.06    4.05
  -8   6  -1    5.14    3.25
   8  -6   1   -8.02    3.72
  -8  -6  -1    0.13    3.98
   8   6   1    1.28    4.48
   9   6   0    4.71    4.54
  -9   6   0   -4.37    3.19
   9  -6   0    3.41    3.18
  -9  -6   0   -0.18    4.13
  10   6  -1    8.01    4.78
 -10   6   1   14.35    3.21
 -10  -6   1    8.32    4.62
  10  -6  -1   12.49    3.16
  11   6  -2    0.27    4.90
 -11   6   2    1.23    3.22
  11  -6  -2   -0.82    3.15
 -11  -6   2    2.12    5.40
  12   6  -3   35.17    4.97
 -12  -6   3   46.39    5.62
 -12   6   3   42.10    3.34
  12  -6  -3   40.45    3.27
 -13  -6   4   -3.47    5.22
  13   6  -4    1.74    4.90
  13  -6  -4    2.43    3.90
 -13   6   4    0.22    3.90
 -14   6   5   24.53    3.70
 -14  -6   5   33.28    5.89
  14   6  -5   12.12    5.19
  14  -6  -5   25.12    4.10
 -15  -6   6    0.44    5.81
 -15   6   6   -8.25    3.84
  15   6  -6   -1.55    5.73
  15  -6  -6   -2.04    3.79
  -1  -7  -8   11.00    4.50
  -1  -7  -8    8.70    4.65
  -2  -7  -7   -0.86    4.34
  -2  -7  -7   -2.23    4.29
  -2   7  -7    0.05    4.38
   2  -7   7    7.11    4.30
   3  -7   6   29.59    4.08
  -3  -7  -6   23.72    4.06
  -3  -7  -6   35.16    4.05
  -3   7  -6   29.73    3.94
   4  -7   5   -3.87    3.34
  -4  -7  -5    2.16    3.70
  -4   7  -5   -2.80    3.80
  -4  -7  -5   -3.59    3.89
   5  -7   4   23.04    3.78
  -5  -7  -4   15.04    4.16
  -5  -7  -4   22.81    4.31
  -5   7  -4   26.07    3.82
   6  -7   3    2.05    3.63
  -6  -7  -3   -1.80    4.12
  -6   7  -3   -0.72    3.22
  -6  -7  -3    3.59    4.07
   7  -7   2   -3.78    3.17
  -7  -7  -2   -0.17    4.16
  -7   7  -2   -4.16    3.22
  -8   7  -1    4.47    3.21
   8  -7   1    9.82    3.66
  -8  -7  -1    3.01    4.43
  -9  -7   0    0.11    4.94
  -9   7   0    0.98    3.27
   9  -7   0    2.65    3.67
   9   7   0    0.75    5.21
 -10   7   1    1.11    3.84
 -10  -7   1   -0.60    5.70
  10  -7  -1    5.38    3.24
  10   7  -1    0.51    5.26
  11   7  -2   19.24    5.86
 -11  -7   2   23.47    6.35
 -11   7   2   16.45    3.35
  11  -7  -2   19.81    3.28
  12   7  -3    1.46    6.27
 -12  -7   3    1.68    6.75
  12  -7  -3    0.34    3.36
 -12   7   3   -0.11    3.86
 -13  -7   4   38.44    7.10
  13   7  -4   29.54    6.70
  13  -7  -4   32.65    4.05
 -13   7   4   38.20    3.60
 -14   7   5   -0.32    3.85
  14   7  -5   -0.63    6.92
  14  -7  -5    0.76    4.26
 -15   7   6    1.65    4.42
  15   7  -6    2.16    6.69
  15  -7  -6    5.28    3.96
  15   7  -6    6.50    6.78
  -2  -8  -7   16.21    4.52
  -2   8  -7   12.26    4.41
  -2  -8  -7   15.13    4.51
   2  -8   7    8.57    4.57
   3  -8   6    5.75    4.19
  -3  -8  -6    5.88    4.20
  -3  -8  -6   -0.20    4.22
  -3   8  -6   -4.16    3.68
   4  -8   5   37.51    3.57
  -4  -8  -5   36.35    4.16
  -4  -8  -5   38.08    4.05
  -4   8  -5   35.96    3.57
   5  -8   4   -3.41    3.85
  -5  -8  -4    0.12    3.92
  -5  -8  -4   -1.04    4.00
  -5   8  -4   -1.29    3.91
   6  -8   3    4.82    3.62
  -6  -8  -3    6.61    4.31
  -6  -8  -3    0.36    4.22
  -6   8  -3    1.09    3.82
  -7   8  -2   -2.19    3.76
   7  -8   2    6.04    3.23
  -7  -8  -2    2.20    4.58
  -7  -8  -2    4.11    4.58
  -8   8  -1    9.76    3.77
   8  -8   1   -2.91    3.19
  -8  -8  -1   -2.37    5.18
  -8  -8  -1    1.44    5.03
  -9  -8   0   -0.97    5.93
  -9   8   0    3.72    3.64
   9  -8   0   -2.19    3.19
  -9  -8   0   -2.40    5.97
 -10  -8   1    0.35    8.40
 -10   8   1    1.33    3.28
  10  -8  -1    2.62    3.22
 -11   8   2    1.16    3.36
  11  -8  -2   -0.25    3.32
  12  -8  -3   21.94    3.44
 -12   8   3   24.64    4.05
  13  -8  -4   -2.08    4.04
 -13   8   4   -4.49    3.69
 -14   8   5    5.16    3.88
  14  -8  -5   14.41    3.82
   3  -9   6   18.63    4.40
  -3  -9  -6   12.49    4.49
  -3  -9  -6   22.22    4.60
  -3   9  -6   21.01    4.52
   4  -9   5    0.46    4.27
  -4  -9  -5    0.04    4.74
  -4  -9  -5    2.56    4.38
  -4   9  -5   -3.95    3.75
   5  -9   4   11.79    4.01
  -5  -9  -4   13.40    4.03
  -5   9  -4   23.41    4.10
  -5  -9  -4   17.03    4.66
  -6  -9  -3    3.70    4.86
   6  -9   3   -2.68    3.93
  -6  -9  -3    2.04    4.77
  -6   9  -3    0.24    3.93
  -7   9  -2   -0.78    3.33
  -7  -9  -2   -1.45    5.12
   7  -9   2   -6.45    3.76
  -7  -9  -2   -3.67    5.01
  -8  -9  -1    0.68    6.04
  -8   9  -1    0.10    3.38
   8  -9   1    1.09    3.76
  -8  -9  -1    0.69    5.81
  -9   9   0   -7.37    3.86
   9  -9   0   -2.08    3.35
 -10   9   1   -5.02    3.89
  10  -9  -1   -4.42    3.42
  11  -9  -2   11.57    3.41
 -11   9   2   12.77    4.01
  12  -9  -3   -0.99    3.98
 -12   9   3   -4.93    4.19
 -13   9   4   19.98    3.88
  13  -9  -4   18.64    3.76
  14  -9  -5   -3.79    4.03
   4 -10   5   15.45    3.86
  -4 -10  -5   10.28    4.91
  -4 -10  -5   13.72    5.16
  -4  10  -5   13.42    4.47
   5 -10   4    5.04    4.23
  -5 -10  -4   -3.17    4.76
  -5 -10  -4   -1.43    5.17
  -5  10  -4   -3.22    3.73
  -6  10  -3    5.31    4.07
   6 -10   3    2.27    3.61
  -6 -10  -3    6.35    5.55
  -6 -10  -3    5.27    5.41
  -7  10  -2   -1.99    3.62
   7 -10   2    5.05    3.98
  -7 -10  -2    5.59    5.81
  -7 -10  -2   -3.02    5.64
  -8 -10  -1   -1.15    9.31
  -8  10  -1    2.63    4.15
  -8 -10  -1   -1.02    9.13
   8 -10   1   -6.72    3.96
  -9  10   0    1.71    3.59
   9 -10   0    2.81    4.07
  10 -10  -1    7.58    3.99
 -10  10   1    3.90    4.19
  11 -10  -2   -0.50    4.10
 -11  10   2    5.76    3.66
  12 -10  -3    9.97    3.85
 -12  10   3   22.16    4.50
 -13  10   4    7.03    4.12
  13 -10  -4   -0.90    4.47
  -5  11  -4   12.19    4.67
   5 -11   4   14.55    4.60
  -5 -11  -4    0.93    5.59
  -5 -11  -4    8.78    5.54
  -6 -11  -3    1.04    6.36
  -6  11  -3   -0.99    3.89
   6 -11   3   -4.95    4.41
  -6 -11  -3   -2.95    5.92
  -7  11  -2   -5.68    4.22
   7 -11   2    2.55    4.32
  -7 -11  -2    3.77    7.68
  -7 -11  -2   -3.01    7.84
  -8  11  -1    0.56    3.81
   8 -11   1    2.11    4.32
   9 -11   0   -6.14    3.83
  -9  11   0    2.70    4.41
  10 -11  -1   -9.51    4.46
 -10  11   1    1.98    4.51
  11 -11  -2    7.19    4.52
 -11  11   2    2.54    4.45
   7 -12   2    8.06    4.56
  -7  12  -2    4.47    4.13
   8 -12   1    3.16    4.09
  -8  12  -1    1.57    4.58
   9 -12   0   -7.41    4.58
  -9  12   0    1.10    4.58
  -2   0  -8    5.04    3.70
  -4   0  -6    5.77    3.81
   4   0   6    4.19    3.68
   6   0   4   65.91    3.28
  -6   0  -4   74.12    3.35
   8   0   2   59.20    3.80
  -8   0  -2   63.55    3.34
  10   0   0    1.61    3.20
 -10   0   0    1.01    3.23
 -12   0   2   -1.23    3.69
  12   0  -2   -4.43    3.16
  14   0  -4    7.13    3.70
 -14   0   4    3.01    3.75
 -16   0   6   30.00    4.33
  16   0  -6   22.59    4.05
  -1  -1  -9    2.46    3.99
  -1   1  -9    3.14    4.39
  -1   1  -9    3.70    4.01
  -1  -1  -9   -6.21    4.03
  -2  -1  -8    8.85    3.67
  -2   1  -8   -1.55    3.72
  -2  -1  -8   -4.68    3.79
   3  -1   7    3.96    3.96
  -3  -1  -7   -3.45    3.42
  -3   1  -7    0.99    3.44
   3   1   7    3.82    3.47
  -4  -1  -6    4.77    3.79
  -4   1  -6    3.75    3.31
   4   1   6    3.64    3.32
   4  -1   6   -2.01    3.27
   5  -1   5   22.38    3.64
  -5  -1  -5   26.40    3.27
  -5   1  -5   21.84    3.77
   5   1   5   21.33    3.26
   6   1   4   -3.10    3.70
   6  -1   4    3.13    3.61
  -6  -1  -4   -0.37    3.21
  -6   1  -4    0.28    3.15
   7   1   3   91.32    3.81
   7  -1   3   99.61    3.27
  -7  -1  -3  102.33    3.33
  -7   1  -3  104.95    3.30
   8   1   2   -7.48    3.60
   8  -1   2   -4.12    3.71
  -8  -1  -2   -2.13    3.73
  -8   1  -2   -3.50    3.23
   9   1   1   22.03    3.20
   9  -1   1   15.98    3.17
  -9  -1  -1   20.92    3.65
  -9   1  -1   24.07    3.63
  10   1   0   -7.21    3.11
  10  -1   0   -5.99    3.72
 -10  -1   0   -2.56    3.13
 -10   1   0    2.99    3.25
 -11  -1   1    1.13    3.59
 -11   1   1   -0.57    3.18
  11   1  -1    2.82    3.59
  11  -1  -1    1.34    3.65
 -12   1   2    3.98    3.68
 -12  -1   2   -0.05    3.65
  12   1  -2    0.97    3.57
  12  -1  -2   -0.74    3.15
 -13   1   3   -4.16    3.25
  13   1  -3   -1.08    3.64
 -13  -1   3   -1.33    3.77
  13  -1  -3    2.18    3.63
  14   1  -4   -3.86    3.76
  14  -1  -4    6.10    3.22
 -14   1   4    6.11    3.33
 -14  -1   4   -2.16    3.87
 -15   1   5   17.97    3.98
 -15  -1   5   22.69    4.08
  15   1  -5   24.65    3.93
  15  -1  -5   18.58    3.87
 -16   1   6    5.71    3.72
 -16  -1   6   -5.91    4.13
  16   1  -6   -2.24    4.15
  16  -1  -6   -1.45    3.62
 -17   1   7   14.03    4.64
  17   1  -7   14.07    4.58
  17  -1  -7   10.15    3.96
 -17  -1   7   11.35    4.06
  -1  -2  -9   -0.22    3.98
  -1  -2  -9   -7.11    4.07
  -1   2  -9   -6.71    4.02
  -2  -2  -8    2.88    3.60
  -2   2  -8   -0.17    3.67
  -2  -2  -8    7.39    3.66
   2  -2   8    1.59    4.16
  -3  -2  -7    1.49    3.43
  -3   2  -7   -7.51    3.99
   3  -2   7    0.61    3.87
  -4  -2  -6    3.83    3.26
  -4   2  -6   -0.51    3.30
   4   2   6    1.72    3.78
   4  -2   6   -1.09    3.30
   5  -2   5   -1.40    3.62
  -5  -2  -5    2.55    3.74
  -5   2  -5   -2.84    3.17
   5   2   5   -0.88    3.70
   6  -2   4   63.58    3.15
  -6  -2  -4   57.75    3.75
  -6   2  -4   60.90    3.20
   6   2   4   62.86    3.25
   7   2   3   -0.93    3.17
   7  -2   3   -7.93    3.11
  -7  -2  -3    1.92    3.68
  -7   2  -3   -0.26    3.56
   8   2   2   68.17    3.72
   8  -2   2   66.27    3.63
  -8  -2  -2   68.68    3.23
  -8   2  -2   65.68    3.21
   9   2   1    1.01    3.14
   9  -2   1    1.27    3.11
  -9  -2  -1    1.05    3.56
  -9   2  -1    0.37    3.55
 -10   2   0    1.33    3.64
  10   2   0    3.37    3.65
  10  -2   0    3.78    3.67
 -10  -2   0    2.99    3.66
 -11  -2   1    1.27    3.59
 -11   2   1    2.55    3.21
  11   2  -1   -1.94    3.54
  11  -2  -1    1.67    3.57
 -12   2   2    3.31    3.25
 -12  -2   2   -1.14    3.55
  12   2  -2    7.92    3.56
  12  -2  -2    4.01    3.65
 -13   2   3   -5.53    3.28
  13   2  -3    2.68    3.68
 -13  -2   3   -0.97    3.78
  13  -2  -3    3.31    3.61
  14   2  -4   10.86    3.70
  14  -2  -4    7.11    3.18
 -14   2   4    4.94    3.31
 -14  -2   4   12.66    3.72
 -15   2   5   -4.50    3.48
 -15  -2   5   -0.48    4.03
  15   2  -5   -0.56    4.37
  15  -2  -5    4.63    3.77
 -16   2   6   25.74    3.74
 -16  -2   6   31.77    4.41
  16   2  -6   22.66    4.28
  16  -2  -6   29.23    3.65
 -17  -2   7   -2.68    4.64
 -17   2   7   -1.36    4.60
  17   2  -7    1.85    4.62
  17  -2  -7    2.04    4.53
  -2  -3  -8   -1.32    3.72
  -2   3  -8    0.00    3.76
  -2  -3  -8   -5.78    3.75
   2  -3   8    1.30    3.77
  -3  -3  -7   -3.65    3.49
  -3   3  -7    5.38    3.46
  -3  -3  -7    1.18    3.39
   3  -3   7    4.06    3.45
  -4  -3  -6    1.75    3.76
  -4   3  -6   -1.57    3.33
   4   3   6   -0.76    3.74
   4  -3   6   -3.23    3.79
   5  -3   5   23.50    3.26
  -5  -3  -5   21.92    3.24
  -5   3  -5   34.36    3.29
   5   3   5   23.80    3.23
   6  -3   4   -2.05    3.55
  -6  -3  -4    1.58    3.19
  -6   3  -4   -7.30    3.52
   6   3   4    0.24    3.18
   7   3   3   76.63    3.80
   7  -3   3   75.90    3.20
  -7  -3  -3   73.81    3.82
  -7   3  -3   76.49    3.25
   8   3   2    0.90    3.59
   8  -3   2   -2.72    3.45
  -8  -3  -2   -4.60    3.12
  -8   3  -2   -5.46    3.52
   9   3   1   25.61    3.63
   9  -3   1   25.19    3.06
  -9  -3  -1   33.48    3.62
  -9   3  -1   30.02    3.08
 -10   3   0   -8.19    3.57
  10   3   0    0.06    3.92
  10  -3   0   -0.17    3.04
 -10  -3   0    2.15    3.54
 -11  -3   1   -0.88    4.01
 -11   3   1   -1.25    3.20
  11   3  -1    6.19    3.86
  11  -3  -1   -5.63    3.62
 -12   3   2   -1.02    3.25
  12   3  -2    5.14    3.57
 -12  -3   2   -5.00    4.07
  12  -3  -2   -4.94    3.63
  13   3  -3   -0.44    3.67
 -13   3   3    4.88    3.72
  13  -3  -3    2.91    3.62
 -13  -3   3    4.32    3.78
 -14  -3   4    0.09    3.95
  14   3  -4   -0.93    4.24
  14  -3  -4    0.14    3.65
 -14   3   4    3.52    3.31
 -15   3   5   14.00    3.53
 -15  -3   5   14.70    4.14
  15   3  -5   18.19    4.36
  15  -3  -5   16.67    3.96
 -16   3   6    0.56    4.39
  16   3  -6   -0.96    4.35
  16  -3  -6    5.14    3.72
 -16  -3   6   -0.45    4.46
 -17  -3   7   14.52    5.32
 -17   3   7   15.60    4.12
  -2  -4  -8    6.45    3.80
   2  -4   8    4.14    3.84
  -2  -4  -8    0.67    3.81
  -2   4  -8   -2.09    3.85
  -3  -4  -7   -2.84    3.96
  -3  -4  -7    1.94    4.08
  -3   4  -7   -1.37    3.52
   3  -4   7    0.41    3.53
   4  -4   6    0.97    3.40
  -4  -4  -6    5.28    3.36
  -4   4  -6    2.45    3.38
   5  -4   5    3.28    3.25
  -5  -4  -5    3.20    3.25
  -5   4  -5    1.02    3.24
   5   4   5   -0.43    3.82
   6  -4   4   56.46    3.30
  -6  -4  -4   60.05    3.71
  -6   4  -4   61.07    3.82
   6   4   4   55.64    3.79
   7  -4   3   -0.73    3.09
  -7  -4  -3   -1.45    3.65
  -7   4  -3   -0.30    3.14
   7   4   3    2.94    3.66
   8   4   2   59.12    4.08
   8  -4   2   57.57    3.18
  -8  -4  -2   57.77    3.68
  -8   4  -2   67.83    3.20
   9   4   1   -0.81    3.58
   9  -4   1    3.76    3.11
  -9  -4  -1   -1.43    3.98
  -9   4  -1   -1.00    3.11
 -10   4   0    2.54    3.09
  10   4   0   -1.16    4.05
  10  -4   0   -5.12    3.10
 -10  -4   0    2.87    3.63
 -11  -4   1    2.49    4.05
 -11   4   1    1.79    3.17
  11   4  -1   -0.68    4.05
  11  -4  -1    4.96    3.07
  12   4  -2    0.78    4.11
 -12   4   2   -1.12    3.30
 -12  -4   2    9.33    4.13
  12  -4  -2   -0.55    3.21
  13   4  -3    0.63    4.13
 -13   4   3   -1.10    3.84
  13  -4  -3    3.43    3.72
 -13  -4   3    1.25    4.30
 -14  -4   4    5.78    4.48
  14   4  -4    6.90    4.59
  14  -4  -4    6.51    3.80
 -14   4   4    1.59    3.93
 -15   4   5   -6.87    3.57
  15   4  -5   -3.72    4.48
 -15  -4   5   -4.63    4.70
  15  -4  -5    0.58    4.01
 -16  -4   6   19.21    4.99
 -16   4   6   16.37    4.46
  16   4  -6   19.82    4.77
  16  -4  -6   19.34    3.82
  -2  -5  -8   -8.79    3.93
  -2   5  -8   -5.97    3.95
  -2  -5  -8    0.28    4.52
   2  -5   8    4.09    4.53
  -3  -5  -7    1.31    3.61
  -3  -5  -7    0.21    3.67
  -3   5  -7   -2.22    3.69
   3  -5   7    3.76    3.64
   4  -5   6   -2.28    3.39
  -4  -5  -6    0.42    3.89
  -4   5  -6   -4.88    3.93
  -4  -5  -6    3.97    3.88
   5  -5   5   18.94    3.35
  -5  -5  -5    9.07    3.81
  -5   5  -5   17.18    3.35
   6  -5   4    1.91    3.20
  -6  -5  -4   -3.06    3.74
  -6   5  -4    2.03    3.31
   6   5   4   -0.45    3.82
   7  -5   3   55.08    3.28
  -7  -5  -3   49.75    3.78
  -7   5  -3   55.32    3.34
   7   5   3   56.47    3.85
   8  -5   2    1.38    3.67
  -8  -5  -2    0.71    3.64
  -8   5  -2    1.43    3.19
   8   5   2    3.61    4.05
   9   5   1   17.11    3.71
   9  -5   1   15.35    3.12
  -9  -5  -1   15.51    3.69
  -9   5  -1   14.81    3.56
  10   5   0   -2.33    4.14
 -10   5   0    2.27    3.56
  10  -5   0   -0.67    3.47
 -10  -5   0   -0.22    4.12
  11   5  -1    3.38    4.21
 -11  -5   1    0.17    4.24
 -11   5   1   -5.76    3.67
  11  -5  -1    4.83    3.60
  12   5  -2    3.10    4.58
 -12   5   2    3.71    3.78
 -12  -5   2    1.53    4.62
  12  -5  -2   -1.98    3.19
  13   5  -3   -0.16    4.56
 -13   5   3   -1.11    3.88
  13  -5  -3   -0.93    3.78
 -13  -5   3   -1.07    4.33
 -14  -5   4   -5.07    4.92
  14   5  -4    1.37    4.62
  14  -5  -4  -10.71    3.87
 -14   5   4   -4.15    3.53
 -15   5   5   24.19    4.29
  15   5  -5   13.49    4.98
  15  -5  -5   28.18    4.09
 -15  -5   5   18.57    4.88
 -16   5   6   -1.24    4.30
  16   5  -6    2.86    5.56
  16  -5  -6    2.33    4.43
 -16  -5   6    0.05    5.64
  -2  -6  -8    0.50    4.12
  -3  -6  -7   -5.80    4.32
  -3   6  -7   -5.60    4.28
  -3  -6  -7   -3.94    3.75
   3  -6   7   -1.64    4.38
  -4  -6  -6    1.09    3.50
  -4  -6  -6   -4.90    3.53
  -4   6  -6   -2.64    3.57
   4  -6   6   -1.47    3.94
   5  -6   5   -1.41    3.83
  -5  -6  -5   -5.11    3.87
  -5   6  -5   -0.22    3.86
  -5  -6  -5   -0.16    3.79
   6  -6   4   40.33    3.81
  -6  -6  -4   40.71    3.70
  -6   6  -4   47.78    3.30
   7  -6   3   -5.53    3.23
  -7  -6  -3    0.61    3.73
  -7   6  -3    1.88    3.26
   7   6   3   -0.15    3.83
   8  -6   2   53.54    3.32
  -8  -6  -2   50.55    4.16
   8   6   2   46.07    4.29
  -8   6  -2   56.20    3.36
  -9   6  -1    2.35    3.28
   9  -6   1   -3.99    3.23
  -9  -6  -1    2.20    4.14
   9   6   1    1.02    4.22
 -10  -6   0    1.66    4.17
  10   6   0    5.06    4.56
 -10   6   0   -1.17    3.27
  10  -6   0    3.74    3.75
  11   6  -1    1.02    4.59
 -11   6   1    1.93    3.79
 -11  -6   1    0.01    4.64
  11  -6  -1    0.17    3.71
  12   6  -2    1.18    4.61
 -12   6   2    4.43    3.34
  12  -6  -2   -0.17    3.28
 -12  -6   2    2.50    5.05
 -13  -6   3    0.04    5.26
  13   6  -3    1.79    4.67
 -13   6   3   -6.82    3.91
  13  -6  -3   -3.06    3.43
  14   6  -4    3.16    5.29
  14  -6  -4    2.38    3.53
 -14  -6   4    4.86    5.15
 -14   6   4    1.91    3.64
 -15   6   5   -3.92    3.78
  15   6  -5    2.54    5.18
  15  -6  -5    3.04    3.76
 -15  -6   5   -1.97    6.16
 -16   6   6   15.47    4.09
  16   6  -6   12.58    6.05
 -16  -6   6   23.39    6.37
  16  -6  -6   11.94    4.05
  -3  -7  -7   -0.07    4.57
  -3  -7  -7   -4.88    4.60
  -3   7  -7   -5.30    4.56
   3  -7   7    7.78    3.96
   4  -7   6    2.66    4.28
  -4  -7  -6   -4.16    4.07
  -4   7  -6   -9.45    4.29
  -4  -7  -6    7.68    4.23
   5  -7   5   15.22    4.08
  -5  -7  -5   12.50    4.12
  -5  -7  -5   17.08    4.05
  -5   7  -5   13.67    3.55
  -6  -7  -4   -0.23    3.92
   6  -7   4    1.99    3.40
  -6  -7  -4    2.70    4.21
  -6   7  -4    1.25    3.90
   7  -7   3   35.53    3.33
  -7  -7  -3   58.23    3.94
  -7  -7  -3   40.16    4.26
  -7   7  -3   46.35    3.82
   8  -7   2    0.35    3.21
  -8  -7  -2    0.17    4.24
  -8   7  -2   -3.37    3.24
  -9   7  -1   14.61    3.31
   9  -7   1   16.75    3.23
  -9  -7  -1   19.65    4.55
   9   7   1   10.97    4.77
 -10  -7   0    0.56    5.00
 -10   7   0   -3.60    3.33
  10  -7   0   -7.38    3.22
  10   7   0    0.18    4.62
 -11   7   1    0.67    3.77
 -11  -7   1   -2.24    5.42
  11  -7  -1   -3.66    3.34
  11   7  -1   -2.55    5.23
 -12  -7   2    1.68    5.67
  12   7  -2   -1.60    5.84
 -12   7   2   -0.18    3.49
  12  -7  -2   -1.12    3.43
  13   7  -3    0.40    6.23
  13  -7  -3    8.86    3.97
 -13   7   3   -3.40    3.59
 -13  -7   3    0.76    6.59
 -14  -7   4    2.01    7.06
  14   7  -4    0.56    6.57
  14  -7  -4   -1.30    3.69
 -14   7   4    6.31    3.77
 -15   7   5   12.07    3.95
  15   7  -5    7.75    7.01
  15  -7  -5   16.32    3.91
   4  -8   6    7.01    4.47
  -4  -8  -6   -2.59    4.53
  -4  -8  -6    4.73    4.45
  -4   8  -6    3.86    4.51
   5  -8   5    2.40    4.20
  -5  -8  -5   -3.86    4.26
  -5  -8  -5   -2.40    4.31
  -5   8  -5   -1.21    3.69
   6  -8   4   23.73    3.54
  -6  -8  -4   26.21    4.55
  -6   8  -4   28.66    3.56
  -6  -8  -4   26.16    4.66
   7  -8   3   -2.17    3.42
  -7  -8  -3    2.58    4.43
  -7  -8  -3   -2.47    4.30
  -7   8  -3    0.44    3.44
  -8   8  -2   24.47    3.93
  -8  -8  -2   34.36    4.79
   8  -8   2   27.76    3.43
  -8  -8  -2   24.54    4.66
  -9   8  -1   -4.02    3.37
   9  -8   1   -3.25    3.78
  -9  -8  -1   -0.67    5.41
  -9  -8  -1   -1.34    4.98
 -10  -8   0    1.15    5.59
 -10   8   0   -1.69    3.40
  10  -8   0   -0.66    3.33
 -11   8   1   -2.02    3.49
  11  -8  -1   -2.24    3.85
 -11  -8   1    2.11    7.06
 -12   8   2    3.95    3.52
  12  -8  -2   -0.91    3.45
  13  -8  -3   -0.05    4.18
 -13   8   3    0.39    3.70
  14  -8  -4    7.90    3.79
 -14   8   4   -2.21    4.33
 -15   8   5   -3.74    4.06
  15  -8  -5   -4.99    4.03
   4  -9   6    8.36    4.67
   5  -9   5   15.16    4.50
  -5  -9  -5    8.52    4.85
  -5   9  -5   13.41    4.39
  -5  -9  -5   14.57    5.07
   6  -9   4    3.28    4.26
  -6  -9  -4   -5.41    4.86
  -6  -9  -4    0.28    4.76
  -6   9  -4    2.31    3.75
  -7   9  -3   32.02    4.08
   7  -9   3   26.11    4.15
  -7  -9  -3   34.14    5.23
  -7  -9  -3   22.04    5.14
  -8   9  -2   -6.06    3.54
   8  -9   2   -2.88    3.92
  -8  -9  -2    0.93    5.11
  -8  -9  -2   -2.10    5.37
  -9  -9  -1   12.45    5.65
  -9   9  -1   10.32    3.56
   9  -9   1   11.87    3.51
  -9  -9  -1   11.98    6.14
 -10  -9   0    0.18    8.56
 -10   9   0   -7.95    3.60
  10  -9   0   -4.31    3.55
 -10  -9   0   -0.21    8.42
 -11   9   1    1.64    4.15
  11  -9  -1    1.16    4.02
  12  -9  -2    0.93    3.65
 -12   9   2   -4.61    3.74
  13  -9  -3   -0.34    3.74
 -13   9   3   -4.89    3.90
  14  -9  -4   -0.31    4.00
 -14   9   4    1.92    4.07
   6 -10   4   10.37    4.57
  -6 -10  -4   12.81    5.15
  -6 -10  -4   16.91    5.25
  -6  10  -4   19.98    4.02
  -7  10  -3    3.23    4.43
   7 -10   3    1.04    4.42
  -7 -10  -3   -0.10    5.78
  -7 -10  -3   -2.15    5.88
  -8  10  -2   21.19    4.34
   8 -10   2   21.77    4.30
  -8 -10  -2   21.95    6.27
  -8 -10  -2   20.52    6.20
  -9  10  -1    3.37    4.30
  -9 -10  -1   -0.24    8.67
   9 -10   1    9.43    4.27
  -9 -10  -1   -0.55    8.94
 -10  10   0   -4.97    3.81
  10 -10   0    4.39    4.32
  11 -10  -1   10.05    3.80
 -11  10   1   -1.32    3.83
  12 -10  -2   -1.37    3.91
 -12  10   2   -4.60    4.53
  13 -10  -3   -2.29    4.06
 -13  10   3    0.92    4.13
  -8 -11  -2    2.08    8.02
  -8  11  -2   -0.32    4.05
   8 -11   2    0.22    4.48
  -8 -11  -2    4.30    8.43
   9 -11   1    3.36    4.58
  -9  11  -1    3.85    4.04
  10 -11   0   -4.32    4.47
 -10  11   0   -3.00    4.06
 -11  11   1    1.09    4.16
  -4   0  -7   -1.62    3.58
   4   0   7    1.16    4.11
   6   0   5    0.15    3.76
  -6   0  -5   11.17    3.78
   8   0   3   20.96    3.19
  -8   0  -3   11.94    3.25
  10   0   1   66.45    3.21
 -10   0  -1   71.89    3.25
 -12   0   1   40.51    3.72
  12   0  -1   33.53    3.67
  14   0  -3    3.91    3.67
 -14   0   3   -1.66    3.78
 -16   0   5   -1.82    4.18
  16   0  -5    4.02    4.06
  -3  -1  -8    5.23    3.80
  -3   1  -8    7.60    3.82
   3  -1   8    4.21    3.90
  -4  -1  -7    4.22    3.52
  -4   1  -7   -2.07    3.61
   4   1   7    4.03    3.49
   4  -1   7   -1.45    3.59
  -5  -1  -6    2.46    3.40
  -5   1  -6    0.73    3.49
   5   1   6   -0.98    3.38
   5  -1   6    2.82    3.43
   6  -1   5   -6.11    3.32
  -6  -1  -5    5.26    3.66
  -6   1  -5   -5.63    3.83
   6   1   5    0.53    3.22
   7   1   4   -1.32    3.21
   7  -1   4   -1.74    3.24
  -7  -1  -4   -1.10    3.68
  -7   1  -4    1.59    3.25
   8   1   3   -4.45    3.20
   8  -1   3   -1.13    3.70
  -8  -1  -3    1.64    3.19
  -8   1  -3    7.14    3.63
   9   1   2   35.06    3.16
   9  -1   2   41.87    3.74
  -9  -1  -2   39.24    3.20
  -9   1  -2   37.44    3.32
  10   1   1   -0.59    3.16
  10  -1   1   10.94    3.67
 -10  -1  -1    0.00    3.18
 -10   1  -1   -1.96    3.71
 -11   1   0   90.00    3.31
  11   1   0   75.34    3.33
  11  -1   0   77.11    3.67
 -11  -1   0   86.79    3.84
 -12   1   1    0.86    3.23
 -12  -1   1    5.74    3.69
  12   1  -1    1.65    3.64
  12  -1  -1    3.14    3.62
 -13   1   2   10.69    3.24
 -13  -1   2   10.33    3.73
  13   1  -2    4.72    3.69
  13  -1  -2    3.49    3.61
  14   1  -3   -4.04    3.78
 -14   1   3    3.31    3.33
  14  -1  -3   -3.27    3.69
 -14  -1   3    2.25    3.88
  15   1  -4    3.95    3.79
  15  -1  -4    1.93    3.86
 -15   1   4    0.68    3.43
 -15  -1   4    3.51    4.01
 -16   1   5    4.68    4.24
 -16  -1   5   -5.03    4.22
  16   1  -5    2.67    4.12
  16  -1  -5    1.34    3.59
 -17   1   6    0.98    4.61
 -17  -1   6   -3.96    4.58
  17   1  -6   -3.80    4.48
  17  -1  -6   -3.70    4.52
  -3  -2  -8   -0.71    4.22
  -3  -2  -8    0.36    3.88
  -3   2  -8   -1.28    3.85
   3  -2   8   -5.41    4.49
  -4  -2  -7    1.40    4.00
  -4   2  -7    1.34    3.62
   4  -2   7    2.14    4.27
  -5  -2  -6    2.21    3.91
  -5   2  -6    4.31    3.47
   5   2   6    4.79    3.38
   5  -2   6   -2.21    3.96
   6  -2   5    1.64    3.34
  -6  -2  -5   -0.49    3.26
  -6   2  -5    2.97    3.37
   6   2   5    0.64    3.74
   7  -2   4    3.48    3.20
  -7  -2  -4   -6.18    3.21
  -7   2  -4    2.11    3.76
   7   2   4    3.41    3.18
   8   2   3   21.78    3.59
   8  -2   3    8.04    3.21
  -8  -2  -3   11.22    3.29
  -8   2  -3   11.28    3.26
   9   2   2   -0.81    3.63
   9  -2   2   -5.62    3.19
  -9  -2  -2    0.68    3.24
  -9   2  -2   -5.40    3.17
  10   2   1   64.96    3.68
  10  -2   1   77.79    3.75
 -10  -2  -1   76.64    3.78
 -10   2  -1   82.44    3.32
 -11   2   0    3.06    3.72
  11   2   0   -0.45    3.62
  11  -2   0    8.70    3.21
 -11  -2   0    1.20    3.70
 -12  -2   1   38.63    3.74
 -12   2   1   38.00    3.25
  12   2  -1   27.68    3.70
  12  -2  -1   18.40    3.64
 -13   2   2    0.74    3.71
 -13  -2   2    5.65    3.77
  13   2  -2   -0.26    3.70
  13  -2  -2   -1.54    3.22
  14   2  -3    2.11    3.75
 -14   2   3   -2.80    3.80
  14  -2  -3    1.33    3.70
 -14  -2   3    4.11    3.84
  15   2  -4   -0.54    3.90
  15  -2  -4    2.37    3.90
 -15   2   4    0.86    3.85
 -15  -2   4   -2.86    3.99
 -16   2   5    3.27    4.16
 -16  -2   5   -3.23    4.30
  16   2  -5   -3.22    4.16
  16  -2  -5   -2.10    3.57
 -17   2   6    2.34    4.59
 -17  -2   6    2.04    4.62
  17   2  -6   -4.57    4.53
  17  -2  -6    0.35    4.50
  -3  -3  -8    6.81    4.52
  -3  -3  -8    0.35    4.55
  -3   3  -8    2.24    4.54
   3  -3   8   -2.15    3.94
  -4  -3  -7   -2.59    4.24
  -4   3  -7    4.64    4.16
   4  -3   7   -3.10    3.65
  -5  -3  -6   -4.53    3.46
  -5   3  -6    1.27    3.93
   5   3   6   -2.54    4.05
   5  -3   6    2.35    3.47
   6  -3   5    6.51    3.36
  -6  -3  -5   -2.40    3.30
  -6   3  -5    3.07    3.84
   6   3   5    0.36    3.27
   7  -3   4    1.63    3.72
  -7  -3  -4   -3.69    3.64
  -7   3  -4    1.97    3.23
   7   3   4    3.37    3.24
   8   3   3    1.28    3.65
   8  -3   3   -2.06    3.64
  -8  -3  -3    1.68    3.67
  -8   3  -3    0.72    3.16
   9   3   2   44.60    3.78
   9  -3   2   49.90    3.60
  -9  -3  -2   41.06    3.80
  -9   3  -2   47.48    3.22
  10   3   1    2.03    3.64
  10  -3   1    0.77    3.21
 -10  -3  -1    4.13    3.63
 -10   3  -1    7.70    3.21
 -11   3   0   73.83    3.35
  11   3   0   63.86    3.79
  11  -3   0   71.06    3.77
 -11  -3   0   73.12    3.84
 -12  -3   1    1.00    3.74
 -12   3   1    7.07    3.28
  12   3  -1   -0.22    3.70
  12  -3  -1    4.80    3.67
  13   3  -2    8.53    3.73
 -13   3   2    8.88    3.82
 -13  -3   2   10.68    3.84
  13  -3  -2   10.55    3.22
  14   3  -3    4.81    3.78
 -14   3   3   -6.93    3.79
  14  -3  -3   -1.12    3.76
 -14  -3   3   -1.40    3.91
 -15  -3   4   -2.31    4.59
  15   3  -4    3.83    4.31
  15  -3  -4    1.55    3.84
 -15   3   4    2.43    3.92
 -16   3   5   -0.39    4.32
 -16  -3   5    0.60    4.42
  16   3  -5   -7.36    4.80
  16  -3  -5    2.55    4.20
 -17   3   6   -2.73    4.03
  17   3  -6   -4.02    4.62
  17  -3  -6   -3.54    3.96
 -17  -3   6    0.68    4.66
  -3  -4  -8   -2.57    4.61
  -3   4  -8   -2.27    4.06
   3  -4   8    4.20    4.10
  -4  -4  -7   -0.34    4.31
  -4   4  -7    3.13    4.27
  -4  -4  -7   -0.25    3.73
   4  -4   7   -0.56    3.77
   5  -4   6   -4.52    4.02
  -5  -4  -6   -0.41    3.51
  -5   4  -6   -6.55    4.05
   6  -4   5    0.33    3.43
  -6  -4  -5    6.38    3.28
  -6   4  -5    0.14    3.44
   6   4   5    2.89    3.71
   7  -4   4   -3.83    3.26
  -7  -4  -4    0.53    3.25
  -7   4  -4   -1.19    3.74
   7   4   4   -4.02    3.81
   8  -4   3    5.43    3.18
  -8  -4  -3   11.98    3.78
  -8   4  -3    5.68    3.22
   8   4   3    7.15    3.79
   9   4   2   -0.22    3.75
   9  -4   2    0.40    3.65
  -9  -4  -2    1.03    3.65
  -9   4  -2    2.74    3.65
  10   4   1   53.60    3.79
  10  -4   1   50.08    3.24
 -10  -4  -1   55.72    4.19
 -10   4  -1   56.19    3.26
 -11  -4   0    0.84    4.07
 -11   4   0   -8.64    3.65
  11   4   0   -2.77    3.69
  11  -4   0   -3.79    3.69
 -12  -4   1   25.51    4.25
  12   4  -1   20.77    3.76
 -12   4   1   23.84    3.82
  12  -4  -1   23.30    3.65
  13   4  -2    3.62    4.25
 -13   4   2    2.80    3.88
 -13  -4   2    5.29    4.32
  13  -4  -2   -5.17    3.78
  14   4  -3   -0.41    4.20
 -14   4   3    4.49    4.01
  14  -4  -3   -3.16    3.40
 -14  -4   3   -2.90    4.38
 -15  -4   4   -1.51    4.60
  15   4  -4   -4.07    4.51
  15  -4  -4   -4.23    4.00
 -15   4   4   -1.89    3.54
 -16   4   5   -2.42    4.23
  16   4  -5    1.09    4.78
 -16  -4   5    3.22    4.80
  16  -4  -5   -5.61    4.32
 -17  -4   6   -2.60    4.78
 -17   4   6   -4.04    4.10
  17   4  -6    0.82    5.07
  17  -4  -6    0.13    4.06
  -4  -5  -7   -1.31    4.28
  -4   5  -7   -5.86    4.42
  -4  -5  -7   -7.13    4.47
   4  -5   7   -8.10    3.88
   5  -5   6    2.58    4.10
  -5  -5  -6    2.42    4.12
  -5  -5  -6   -0.67    3.64
  -5   5  -6    6.55    4.12
   6  -5   5   -2.88    3.44
  -6  -5  -5   -4.73    3.92
  -6   5  -5    6.07    3.45
   7  -5   4    1.37    3.37
  -7  -5  -4   -2.29    3.84
  -7   5  -4    1.67    3.91
   7   5   4    0.73    3.94
   8  -5   3    6.13    3.81
  -8  -5  -3    0.79    4.10
  -8   5  -3   -3.97    3.87
   8   5   3   -0.66    3.78
   9  -5   2   32.50    3.68
  -9  -5  -2   39.31    4.17
  -9   5  -2   41.25    3.29
   9   5   2   38.86    4.20
 -10   5  -1    7.37    3.19
  10   5   1    1.53    4.20
  10  -5   1   -0.64    3.18
 -10  -5  -1    1.11    3.75
 -11  -5   0   47.37    3.87
  11   5   0   36.37    4.32
 -11   5   0   43.45    3.71
  11  -5   0   41.88    3.28
  12   5  -1   -0.30    4.28
 -12   5   1   -2.86    3.34
 -12  -5   1    2.37    4.32
  12  -5  -1    7.85    3.28
  13   5  -2    5.79    4.26
 -13   5   2    0.36    3.48
 -13  -5   2    7.25    4.36
  13  -5  -2   -1.30    3.39
  14   5  -3    1.96    4.72
  14  -5  -3    3.36    3.44
 -14   5   3   -4.61    4.09
 -14  -5   3   -1.01    5.00
 -15  -5   4   -3.17    5.18
  15   5  -4   -0.63    4.85
  15  -5  -4   -0.57    4.20
 -15   5   4   10.47    3.67
 -16   5   5   -1.79    3.80
  16   5  -5    0.63    5.32
  16  -5  -5    3.22    4.26
 -16  -5   5    1.37    5.58
  -4  -6  -7    4.37    4.54
  -4   6  -7    3.71    4.45
   4  -6   7   10.81    4.57
  -4  -6  -7    2.57    4.58
   5  -6   6   -2.41    3.77
  -5  -6  -6   -0.38    4.22
  -5   6  -6   -1.10    4.18
  -5  -6  -6   -1.65    4.24
   6  -6   5    4.19    3.49
  -6  -6  -5    2.07    4.06
  -6  -6  -5    1.44    4.09
  -6   6  -5    7.44    3.52
   7  -6   4   -3.05    3.92
  -7  -6  -4   -0.95    3.95
  -7   6  -4   -2.05    3.94
   8  -6   3    8.12    3.39
  -8  -6  -3    3.46    4.19
  -8   6  -3    5.61    3.90
   8   6   3    4.51    3.86
   9  -6   2    0.16    3.30
  -9  -6  -2    0.74    3.80
   9   6   2   -1.11    3.93
  -9   6  -2    0.56    3.39
 -10   6  -1   47.05    3.83
  10  -6   1   45.48    3.38
 -10  -6  -1   46.53    4.34
  10   6   1   41.74    4.38
  11   6   0    0.36    4.30
 -11  -6   0   -2.95    4.59
 -11   6   0   -2.69    3.44
  11  -6   0    7.73    3.37
  12   6  -1   24.33    4.76
 -12   6   1   34.56    3.46
 -12  -6   1   30.65    4.79
  12  -6  -1   28.36    3.39
  13   6  -2   -3.64    4.91
 -13   6   2    1.10    4.00
  13  -6  -2   -4.27    3.94
 -13  -6   2   -0.07    4.94
 -14  -6   3    2.73    5.43
  14   6  -3   -4.59    5.23
  14  -6  -3    0.52    3.59
 -14   6   3   -1.57    4.11
  15   6  -4    1.30    5.70
  15  -6  -4    1.10    3.76
 -15  -6   4    2.24    5.49
 -15   6   4    2.93    3.79
 -16   6   5    3.02    4.47
  16   6  -5   -2.51    6.00
 -16  -6   5   -2.71    6.20
  16  -6  -5   -1.81    3.99
   5  -7   6   -1.23    4.46
  -5  -7  -6   -2.26    4.48
  -5   7  -6    0.57    3.88
  -5  -7  -6    2.84    3.92
   6  -7   5   -2.81    3.74
  -6  -7  -5   -0.67    4.24
  -6  -7  -5    1.12    4.31
  -6   7  -5    9.39    4.33
   7  -7   4   -2.34    3.59
  -7  -7  -4   -2.77    4.09
  -7   7  -4   -2.38    4.01
  -7  -7  -4    6.84    4.10
   8  -7   3    0.88    3.80
  -8  -7  -3   -0.84    4.39
  -8   7  -3    1.46    3.93
  -9   7  -2   20.92    3.89
   9  -7   2   27.49    3.41
  -9  -7  -2   21.88    4.40
   9   7   2   20.57    4.50
 -10   7  -1   -0.93    3.43
  10  -7   1   -0.36    3.44
 -10  -7  -1    0.81    4.26
  10   7   1   -3.09    4.81
 -11  -7   0   37.67    5.00
 -11   7   0   37.68    3.49
  11  -7   0   31.21    3.47
  11   7   0   36.07    4.97
  12   7  -1   -1.14    5.17
 -12   7   1   -3.95    3.50
  12  -7  -1   -1.43    3.86
 -12  -7   1   -2.45    5.40
  13   7  -2    5.49    5.72
 -13   7   2   11.15    3.65
  13  -7  -2    5.88    3.60
 -13  -7   2    5.90    5.85
  14   7  -3    1.19    6.40
  14  -7  -3   -2.61    3.78
 -14  -7   3    2.14    6.52
 -14   7   3    5.01    3.82
  15   7  -4    1.73    6.98
  15  -7  -4    0.57    4.55
 -15  -7   4    2.96    7.16
 -15   7   4    1.59    3.92
  -5  -8  -6    2.94    4.55
   6  -8   5   -6.36    3.91
  -6  -8  -5   -3.39    4.97
  -6  -8  -5   -7.36    4.92
  -6   8  -5   -2.37    3.91
  -7  -8  -4   -2.03    4.86
   7  -8   4    9.35    4.26
  -7  -8  -4   -2.19    4.29
  -7   8  -4    4.59    3.70
   8  -8   3    3.54    4.01
  -8  -8  -3   10.32    4.61
  -8  -8  -3    7.87    4.72
  -8   8  -3   10.02    4.05
  -9   8  -2    4.85    4.02
   9  -8   2   -8.90    3.56
  -9  -8  -2   -1.21    4.59
  -9  -8  -2    1.92    4.98
 -10   8  -1   22.24    3.55
  10  -8   1   27.93    3.52
 -10  -8  -1   32.44    5.05
 -11   8   0    4.81    3.99
 -11  -8   0   -1.87    5.47
  11  -8   0    9.34    4.03
 -12   8   1   17.62    3.61
  12  -8  -1    7.92    3.51
 -12  -8   1   15.49    6.70
  13  -8  -2    1.73    4.13
 -13   8   2    0.86    3.77
 -13  -8   2    0.44    8.85
  14  -8  -3    1.79    4.27
 -14   8   3    3.77    4.36
   7  -9   4   -5.64    4.40
  -7  -9  -4    3.48    5.18
  -7  -9  -4    2.57    5.05
  -7   9  -4    3.38    4.40
  -8   9  -3    6.11    3.83
   8  -9   3   -2.53    3.80
  -8  -9  -3   -0.64    4.92
  -8  -9  -3    1.66    5.31
  -9   9  -2   12.68    3.85
   9  -9   2   15.44    3.79
  -9  -9  -2   21.94    5.40
  -9  -9  -2   13.39    5.37
 -10  -9  -1    5.79    6.43
 -10   9  -1    1.95    3.79
  10  -9   1    3.79    4.17
 -10  -9  -1   -4.62    6.27
 -11   9   0   19.31    3.82
  11  -9   0   12.87    3.77
 -11  -9   0   22.43    8.03
 -11  -9   0   26.42    8.19
  12  -9  -1   -3.09    3.81
 -12   9   1   -3.52    4.28
  13  -9  -2    1.36    4.33
 -13   9   2    3.12    3.94
  -8  10  -3    8.84    4.68
   8 -10   3    1.47    4.05
  -8 -10  -3    3.00    5.74
  -8 -10  -3    2.84    6.17
  -9  10  -2    3.83    4.00
   9 -10   2   -3.33    4.42
  -9 -10  -2    3.28    6.61
  -9 -10  -2   -1.73    6.45
 -10  10  -1   15.59    4.04
  10 -10   1   14.35    4.45
 -10 -10  -1   18.64    9.01
 -10 -10  -1   21.52    8.82
  11 -10   0   -1.23    3.97
 -11  10   0   -0.26    4.00
  12 -10  -1   10.59    3.99
 -12  10   1    9.87    4.03
  -6   0  -6   10.78    3.55
   6   0   6    2.95    3.54
   8   0   4   -0.41    3.70
  -8   0  -4   -1.95    3.30
  10   0   2   -0.09    3.20
 -10   0  -2   -2.32    3.64
 -12   0   0   23.52    3.78
  12   0   0   25.55    3.70
 -14   0   2   49.47    3.36
  14   0  -2   38.10    3.31
  16   0  -4    7.89    3.60
 -16   0   4    8.20    4.24
  -5  -1  -7   21.42    3.81
  -5   1  -7   27.09    3.80
   5   1   7   16.91    3.84
   5  -1   7   21.14    4.44
  -6  -1  -6   -4.52    3.53
  -6   1  -6   -4.32    4.02
   6   1   6   -2.05    3.56
   6  -1   6    1.91    3.99
   7  -1   5    6.85    3.83
  -7  -1  -5    5.05    3.42
  -7   1  -5    4.01    3.93
   7   1   5    0.91    3.92
   8   1   4    0.53    3.72
   8  -1   4   -6.62    3.86
  -8  -1  -4    1.45    3.76
  -8   1  -4   -0.51    3.28
   9   1   3    6.27    3.70
   9  -1   3   -2.71    3.27
  -9  -1  -3   -2.79    3.25
  -9   1  -3   -0.91    3.27
  10   1   2    0.84    3.19
  10  -1   2    3.76    3.67
 -10  -1  -2   -2.30    3.68
 -10   1  -2   -1.34    3.24
  11   1   1    4.45    3.64
  11  -1   1   -2.80    3.22
 -11  -1  -1    7.62    3.64
 -11   1  -1    1.41    3.24
 -12  -1   0    5.40    3.71
 -12   1   0    0.55    3.23
  12   1   0   -0.31    3.17
  12  -1   0   -2.85    3.19
 -13  -1   1   35.28    3.30
 -13   1   1   36.51    3.85
  13   1  -1   34.85    3.27
  13  -1  -1   33.55    3.30
 -14   1   2   -0.47    3.33
 -14  -1   2    1.37    3.89
  14   1  -2    4.90    3.85
  14  -1  -2    0.66    3.25
  15   1  -3   31.14    3.94
  15  -1  -3   31.76    3.93
 -15   1   3   26.33    3.95
 -15  -1   3   35.52    4.05
  16   1  -4    5.52    4.14
  16  -1  -4   -1.75    4.15
 -16   1   4   -1.05    3.72
 -16  -1   4   -0.09    4.09
 -17   1   5    2.78    3.95
 -17  -1   5    2.24    4.54
  17   1  -5    3.89    4.42
  17  -1  -5   -0.31    4.50
  -5  -2  -7    6.21    3.82
  -5   2  -7    3.56    3.84
   5   2   7    0.51    4.42
   5  -2   7    3.63    3.87
  -6  -2  -6   20.37    3.65
  -6   2  -6   14.97    3.75
   6   2   6   16.91    3.66
   6  -2   6   16.59    3.74
   7  -2   5    4.25    3.85
  -7  -2  -5    2.88    3.99
  -7   2  -5   -6.30    4.03
   7   2   5    0.80    3.98
   8   2   4   -4.70    3.72
   8  -2   4   -1.34    3.37
  -8  -2  -4    3.08    3.83
  -8   2  -4    3.10    3.39
   9   2   3   -8.37    3.75
   9  -2   3    4.90    3.28
  -9  -2  -3    3.09    3.28
  -9   2  -3    2.15    3.34
  10   2   2    0.98    3.69
  10  -2   2   -2.67    3.73
 -10  -2  -2   -2.31    3.71
 -10   2  -2    1.64    3.25
  11   2   1   -0.46    3.64
  11  -2   1    0.78    3.20
 -11  -2  -1    0.13    3.73
 -11   2  -1    4.46    3.26
 -12  -2   0   19.69    3.84
 -12   2   0   21.75    3.26
  12   2   0   25.40    3.80
  12  -2   0   23.86    3.23
 -13   2   1    5.17    3.26
 -13  -2   1   -0.76    3.86
  13   2  -1   -0.70    3.80
  13  -2  -1    0.64    3.71
  14   2  -2   47.68    3.94
 -14   2   2   54.26    3.91
 -14  -2   2   56.53    3.99
  14  -2  -2   47.14    3.87
  15   2  -3   -0.83    4.04
  15  -2  -3   -2.00    3.47
 -15   2   3    0.55    3.95
 -15  -2   3   -2.09    4.47
  16   2  -4    1.19    4.11
  16  -2  -4   13.14    4.20
 -16   2   4    9.46    4.12
 -16  -2   4    5.03    4.37
 -17   2   5    3.94    4.56
 -17  -2   5    2.03    4.60
  17   2  -5    0.40    4.52
  17  -2  -5   -3.39    3.91
  -5  -3  -7   18.54    3.89
  -5   3  -7   24.76    3.87
   5  -3   7   20.07    3.90
   6  -3   6   -7.33    3.70
  -6  -3  -6   -0.23    4.07
  -6   3  -6   -3.16    3.74
   6   3   6    2.02    4.20
   7  -3   5    4.88    3.52
  -7  -3  -5    4.04    4.03
  -7   3  -5    4.08    3.55
   7   3   5    6.38    3.47
   8  -3   4   -5.76    3.78
  -8  -3  -4   -0.11    3.81
  -8   3  -4   -0.43    3.40
   8   3   4    3.84    3.80
   9   3   3    2.90    3.82
   9  -3   3   -2.07    3.34
  -9  -3  -3    0.63    3.81
  -9   3  -3    4.13    3.37
  10   3   2   -2.16    3.80
  10  -3   2    0.53    3.29
 -10  -3  -2    1.21    3.80
 -10   3  -2   -4.46    3.34
  11   3   1    2.17    3.81
  11  -3   1    3.85    3.67
 -11  -3  -1    1.42    3.81
 -11   3  -1    6.02    3.27
 -12  -3   0   -2.60    3.80
 -12   3   0    2.56    3.78
  12   3   0    6.06    3.75
  12  -3   0   -0.72    3.27
 -13   3   1   30.59    3.35
 -13  -3   1   32.87    3.91
  13   3  -1   30.64    3.83
  13  -3  -1   33.63    3.81
  14   3  -2   -4.14    3.89
 -14   3   2   -4.84    3.40
 -14  -3   2    0.58    3.98
  14  -3  -2   -1.01    3.84
  15   3  -3   27.63    4.41
  15  -3  -3   25.21    3.55
 -15   3   3   25.05    3.61
 -15  -3   3   31.20    4.64
  16   3  -4    0.32    4.34
  16  -3  -4    2.34    4.29
 -16   3   4    2.41    3.80
 -16  -3   4    7.14    4.43
 -17   3   5   -5.80    4.57
 -17  -3   5    3.57    5.11
  17   3  -5    2.30    4.63
  17  -3  -5    6.78    4.37
  -5  -4  -7   -3.62    4.01
  -5   4  -7    0.58    3.98
  -5  -4  -7    3.83    4.43
   5  -4   7   -2.23    3.99
   6  -4   6   17.57    3.76
  -6  -4  -6   19.52    3.74
  -6   4  -6   16.56    4.20
   7  -4   5    2.47    3.61
  -7  -4  -5    0.03    3.99
  -7   4  -5    2.40    3.58
   7   4   5    4.86    4.03
   8  -4   4   -0.94    3.98
  -8  -4  -4   -5.82    3.95
  -8   4  -4   -1.06    4.05
   8   4   4   -4.17    3.97
   9  -4   3    2.98    3.41
  -9  -4  -3   -4.16    3.91
  -9   4  -3   -3.32    3.96
   9   4   3   -2.03    3.39
  10   4   2   -3.64    3.84
  10  -4   2    2.17    3.36
 -10  -4  -2   -4.51    4.18
 -10   4  -2   -1.03    3.39
 -11   4  -1   -6.31    3.40
  11   4   1    2.15    4.18
  11  -4   1    3.65    3.78
 -11  -4  -1    3.01    3.78
 -12  -4   0    9.82    3.81
 -12   4   0   11.88    3.41
  12   4   0   19.13    3.79
  12  -4   0   13.66    3.38
  13   4  -1    2.36    3.94
 -13  -4   1    4.06    3.99
 -13   4   1   -6.47    3.88
  13  -4  -1   -3.47    3.92
  14   4  -2   26.72    4.01
 -14   4   2   34.90    3.53
 -14  -4   2   40.89    4.12
  14  -4  -2   34.35    3.46
  15   4  -3   -3.17    4.63
  15  -4  -3   -0.02    3.98
 -15   4   3   -3.27    3.59
 -15  -4   3   -1.54    4.25
 -16  -4   4    4.27    4.98
  16   4  -4    5.87    4.81
  16  -4  -4    2.66    3.80
 -16   4   4   14.19    3.83
 -17   4   5   -4.70    4.62
 -17  -4   5   -0.20    5.31
  17  -4  -5    4.34    3.98
   6  -5   6   -0.11    3.77
  -6  -5  -6   -2.62    4.36
  -6   5  -6    3.43    4.36
   7  -5   5    5.81    3.68
  -7  -5  -5    4.02    4.18
  -7   5  -5   -4.41    3.67
   7   5   5    1.88    3.67
   8  -5   4    3.10    4.04
  -8  -5  -4   -3.09    4.04
  -8   5  -4   -6.83    3.57
   8   5   4    0.32    4.11
   9  -5   3    5.02    3.43
  -9  -5  -3    0.98    3.97
  -9   5  -3   -0.69    3.46
   9   5   3   -2.74    4.42
  10  -5   2    0.82    3.40
 -10  -5  -2   -1.94    3.90
 -10   5  -2   -2.10    3.43
  10   5   2   -2.25    3.94
 -11   5  -1    4.40    3.47
  11   5   1    1.65    4.41
  11  -5   1   -1.24    3.44
 -11  -5  -1    1.53    3.94
 -12  -5   0   -2.07    4.41
  12   5   0   -1.99    4.39
 -12   5   0    6.10    3.45
  12  -5   0    1.00    3.42
  13   5  -1   29.87    4.52
 -13   5   1   33.33    3.53
 -13  -5   1   33.54    4.56
  13  -5  -1   31.39    3.51
  14   5  -2    3.66    4.94
 -14   5   2   -9.15    4.14
  14  -5  -2    5.43    4.08
 -14  -5   2    2.00    5.05
  15   5  -3   10.10    4.75
  15  -5  -3   15.61    4.24
 -15   5   3   24.80    4.20
 -15  -5   3   21.46    4.89
 -16  -5   4   -0.22    5.64
  16   5  -4    1.40    5.27
  16  -5  -4   -3.90    3.84
 -16   5   4    7.19    3.82
   6  -6   6    5.72    4.58
  -6  -6  -6   13.81    4.00
  -6  -6  -6    3.27    4.62
  -6   6  -6   16.26    4.59
   7  -6   5   -5.19    3.73
  -7  -6  -5   -3.97    4.33
  -7   6  -5   -4.90    3.76
   8  -6   4   -2.05    3.62
  -8  -6  -4   -5.84    4.16
  -8   6  -4    3.60    3.63
   9  -6   3   -0.96    3.91
  -9  -6  -3   -1.40    4.41
   9   6   3   -0.23    4.13
  -9   6  -3   -3.10    4.05
  10  -6   2    5.69    4.02
 -10  -6  -2   -1.72    4.37
  10   6   2    3.25    4.09
 -10   6  -2   -0.96    3.94
 -11   6  -1   -7.48    3.55
  11  -6   1    3.35    3.94
 -11  -6  -1    2.01    4.48
  11   6   1    0.70    4.52
  12   6   0   16.92    4.63
 -12  -6   0   14.02    4.96
 -12   6   0   15.96    3.58
  12  -6   0   13.47    3.55
  13   6  -1    5.16    5.11
 -13   6   1    1.43    3.62
 -13  -6   1   -4.81    4.72
  13  -6  -1    0.67    3.58
  14   6  -2   30.25    5.25
 -14   6   2   28.17    3.81
  14  -6  -2   24.30    4.30
 -14  -6   2   28.63    5.69
 -15  -6   3   -4.68    5.65
  15   6  -3   -0.53    5.47
  15  -6  -3    0.53    4.29
 -15   6   3   -6.66    3.85
  16   6  -4    6.86    5.78
  16  -6  -4   10.12    4.02
 -16  -6   4    8.71    5.93
 -16   6   4    6.42    4.05
   7  -7   5    2.31    3.88
  -7  -7  -5   -1.50    4.44
  -7  -7  -5    7.82    4.49
  -7   7  -5    3.16    3.91
   8  -7   4   -1.27    4.22
  -8  -7  -4    0.62    4.81
  -8  -7  -4   -3.16    4.76
  -8   7  -4   -7.51    3.81
   9  -7   3   -6.29    4.16
  -9  -7  -3    1.12    4.69
  -9   7  -3   -0.91    4.14
 -10   7  -2    1.80    3.58
  10  -7   2   -0.44    4.13
 -10  -7  -2   -4.00    4.68
  10   7   2    2.19    4.75
 -11   7  -1   -3.37    4.17
  11  -7   1    3.85    4.07
  11   7   1    0.63    5.20
 -11  -7  -1   -0.77    4.69
 -12  -7   0    1.54    5.47
 -12   7   0    0.19    3.65
  12  -7   0   -5.23    3.60
  12   7   0    0.08    5.17
  13   7  -1   16.13    5.64
 -13   7   1   24.07    3.82
  13  -7  -1   16.83    3.77
 -13  -7   1   25.15    5.74
  14   7  -2   -1.07    6.15
  14  -7  -2   -0.20    3.87
 -14   7   2    2.47    4.42
 -14  -7   2   -1.35    6.26
  15   7  -3   10.21    6.60
  15  -7  -3   15.61    4.03
 -15  -7   3   15.93    7.12
 -15   7   3   13.70    4.03
   8  -8   4    2.74    4.37
  -8  -8  -4    0.07    5.02
  -8  -8  -4    0.37    4.96
  -8   8  -4    1.33    3.95
  -9   8  -3   -3.47    4.45
   9  -8   3    1.58    4.41
  -9  -8  -3    4.99    4.96
  -9  -8  -3   -2.00    4.93
 -10   8  -2   -1.48    3.83
  10  -8   2   -1.10    4.25
 -10  -8  -2    1.09    4.85
 -10  -8  -2   -1.21    4.81
 -11  -8  -1    1.58    5.40
 -11   8  -1   -1.80    3.78
  11  -8   1   -6.44    3.76
 -12   8   0    6.16    4.37
 -12  -8   0    6.89    5.82
  12  -8   0   -0.96    4.25
 -13   8   1    6.06    3.88
  13  -8  -1   -6.71    3.85
 -13  -8   1    0.84    6.84
  13   8  -1    0.12    6.74
  14  -8  -2    7.92    4.56
 -14   8   2   13.60    3.97
 -14  -8   2   19.36    8.92
  14   8  -2   20.11    8.43
  -9  -9  -3   -4.36    5.32
 -10  -9  -2   -4.16    5.73
 -10   9  -2   -7.12    4.02
  10  -9   2    2.71    3.98
 -10  -9  -2   -1.65    5.69
 -11  -9  -1    0.72    6.87
 -11   9  -1   -3.71    4.02
  11  -9   1    1.56    4.57
 -11  -9  -1   -2.81    6.50
 -12   9   0    0.35    4.02
  12  -9   0    1.47    3.98
 -12  -9   0    4.19    8.07
 -12  -9   0   -0.43    8.12
  -6   0  -7    4.79    4.01
   6   0   7    7.84    4.05
   8   0   5   24.83    3.62
  -8   0  -5   31.99    4.16
  10   0   3   12.41    3.43
 -10   0  -3   12.83    3.46
  12   0   1   -0.67    3.36
 -12   0  -1   -2.13    3.89
 -14   0   1   -5.58    3.87
  14   0  -1   -5.64    3.44
  16   0  -3   13.54    4.10
 -16   0   3   17.94    4.19
  -6  -1  -7    0.17    4.08
   6   1   7    3.54    4.12
  -7  -1  -6   18.19    3.88
  -7   1  -6   21.17    4.34
   7   1   6   15.44    3.86
   7  -1   6   23.95    4.43
   8  -1   5   -7.24    4.10
  -8  -1  -5   -5.14    3.64
  -8   1  -5   -2.77    3.65
   8   1   5    4.04    4.18
   9   1   4   35.91    3.97
   9  -1   4   26.95    3.92
  -9  -1  -4   25.57    4.10
  -9   1  -4   38.09    4.04
  10   1   3    0.43    3.79
  10  -1   3    2.64    3.80
 -10  -1  -3    3.61    3.79
 -10   1  -3   -2.92    3.93
  11   1   2    0.82    3.73
  11  -1   2    1.21    3.72
 -11  -1  -2    1.37    3.37
 -11   1  -2    6.56    3.33
  12   1   1    2.76    3.25
  12  -1   1   -3.68    3.36
 -12  -1  -1    2.83    3.70
 -12   1  -1   -0.98    3.86
 -13  -1   0   -0.48    3.37
 -13   1   0    1.01    3.43
  13   1   0    1.10    3.89
  13  -1   0   -1.49    3.38
 -14   1   1   -7.35    3.45
 -14  -1   1   -2.73    3.91
  14   1  -1   -3.03    3.97
  14  -1  -1   -3.33    3.42
  15   1  -2    6.33    4.09
 -15   1   2    4.63    4.10
 -15  -1   2    3.78    4.15
  15  -1  -2    7.74    3.53
  16   1  -3    1.10    3.67
  16  -1  -3   -0.89    3.70
 -16   1   3   -7.02    4.32
 -16  -1   3   -1.09    4.30
  17   1  -4    7.52    4.58
  17  -1  -4   16.01    4.53
 -17   1   4   20.74    4.61
 -17  -1   4   20.51    4.63
  -7  -2  -6    4.58    3.83
  -7   2  -6    2.28    3.82
   7   2   6    3.73    4.40
   7  -2   6    1.94    4.31
   8  -2   5   20.79    4.17
  -8  -2  -5   36.45    3.68
  -8   2  -5   31.87    3.73
   8   2   5   24.67    3.69
   9   2   4    1.38    3.93
   9  -2   4   -4.95    3.53
  -9  -2  -4   -6.06    4.08
  -9   2  -4    1.12    3.52
  10   2   3   11.95    3.45
  10  -2   3   18.32    3.42
 -10  -2  -3   12.15    3.46
 -10   2  -3   12.72    3.44
  11   2   2   -4.61    3.37
  11  -2   2   -2.45    3.43
 -11  -2  -2   -8.64    3.92
 -11   2  -2    2.54    3.91
  12   2   1   -0.09    3.90
  12  -2   1   -3.25    3.34
 -12  -2  -1    1.35    3.92
 -12   2  -1    5.63    3.79
 -13  -2   0   -0.69    3.94
 -13   2   0   -1.49    3.39
  13   2   0   -0.77    3.91
  13  -2   0   -4.21    3.86
 -14   2   1   -3.99    3.98
 -14  -2   1    1.50    4.06
  14   2  -1    5.01    3.88
  14  -2  -1   10.61    4.03
  15   2  -2   -2.57    4.12
 -15   2   2    3.84    4.17
 -15  -2   2   -5.77    4.19
  15  -2  -2   -2.82    3.99
  16   2  -3    9.62    4.67
  16  -2  -3   11.35    4.30
 -16   2   3   13.41    4.35
 -16  -2   3    7.99    4.37
  17   2  -4   -0.21    4.45
  17  -2  -4    1.75    3.92
 -17   2   4    6.68    4.02
 -17  -2   4    1.93    4.63
   7  -3   6   12.09    3.95
  -7  -3  -6   22.63    3.92
  -7   3  -6   21.09    4.53
   7   3   6   17.41    4.51
   8  -3   5   -6.32    3.79
  -8  -3  -5    1.73    3.73
  -8   3  -5   10.35    3.76
   8   3   5    0.75    4.30
   9  -3   4   25.78    3.65
  -9  -3  -4   14.06    4.22
  -9   3  -4   15.34    3.68
   9   3   4   23.14    4.20
  10   3   3    0.06    4.04
  10  -3   3    0.34    3.53
 -10  -3  -3   -5.60    4.03
 -10   3  -3    1.45    3.57
  11   3   2    3.54    3.84
  11  -3   2    2.96    3.38
 -11  -3  -2    7.13    3.82
 -11   3  -2    5.02    3.45
 -12   3  -1    1.78    3.46
  12   3   1   -1.10    4.00
  12  -3   1    3.16    3.77
 -12  -3  -1   -1.34    3.97
 -13  -3   0    5.43    4.07
 -13   3   0   -1.01    3.43
  13   3   0    0.16    4.06
  13  -3   0   -1.83    3.41
  14   3  -1   -5.53    4.16
 -14   3   1    1.44    3.93
 -14  -3   1    1.99    4.53
  14  -3  -1   -0.47    3.46
  15   3  -2    9.05    4.23
 -15   3   2   18.63    3.67
 -15  -3   2    7.63    4.34
  15  -3  -2    0.44    4.08
  16   3  -3    2.61    4.41
  16  -3  -3    2.54    4.22
 -16   3   3   -5.28    3.80
 -16  -3   3    0.03    4.50
 -17  -3   4   15.99    5.29
  17   3  -4   13.06    4.69
  17  -3  -4   12.36    3.99
 -17   3   4   23.52    4.04
   7  -4   6    2.12    4.02
  -7  -4  -6    0.98    4.58
  -7   4  -6   -0.44    3.99
   7   4   6    5.55    4.07
   8  -4   5   25.27    3.90
  -8  -4  -5   24.45    4.43
  -8   4  -5   28.11    3.88
   8   4   5   25.16    4.43
   9  -4   4    5.82    3.68
  -9  -4  -4   -0.97    4.24
  -9   4  -4    4.89    3.69
   9   4   4    2.88    4.26
  10  -4   3    8.06    3.58
 -10  -4  -3   10.91    4.14
 -10   4  -3    9.94    3.59
  10   4   3   16.35    3.99
  11   4   2   10.63    4.08
  11  -4   2    1.89    3.55
 -11  -4  -2   -0.03    4.46
 -11   4  -2   -1.72    3.58
 -12   4  -1   -2.79    3.58
  12   4   1    2.05    4.15
  12  -4   1   -2.81    3.94
 -12  -4  -1   -1.10    4.11
 -13  -4   0    3.68    4.09
  13   4   0   -0.80    4.46
 -13   4   0   -2.92    3.53
  13  -4   0    3.78    3.48
  14   4  -1    4.46    4.15
 -14   4   1   -7.08    3.56
 -14  -4   1    0.84    4.23
  14  -4  -1   -7.41    3.55
  15   4  -2    1.29    4.64
 -15   4   2   -0.20    3.70
  15  -4  -2   -6.02    3.68
 -15  -4   2    1.15    4.85
  16   4  -3    7.26    4.83
  16  -4  -3   10.93    3.84
 -16   4   3   11.08    4.43
 -16  -4   3   13.30    5.14
   8  -5   5   -4.42    3.87
  -8  -5  -5   -3.06    3.88
  -8   5  -5    0.85    3.88
   8   5   5    6.19    4.54
   9  -5   4   17.51    3.79
  -9  -5  -4   12.94    4.35
  -9   5  -4   10.02    3.82
   9   5   4    6.90    4.41
  10  -5   3   -5.34    3.73
 -10  -5  -3    3.62    4.24
 -10   5  -3    1.89    3.70
  10   5   3    1.93    4.29
  11  -5   2   -3.05    4.22
 -11  -5  -2    2.76    4.19
 -11   5  -2   -0.93    3.62
  11   5   2    2.35    4.25
  12   5   1   -2.94    4.60
 -12   5  -1   -4.77    4.15
  12  -5   1    1.32    3.70
 -12  -5  -1    1.52    4.19
  13   5   0    1.47    4.70
 -13  -5   0   -0.01    4.74
 -13   5   0    9.60    3.67
  13  -5   0    4.92    4.07
  14   5  -1    1.26    4.69
 -14   5   1   -3.75    3.70
 -14  -5   1   -0.75    4.82
  14  -5  -1    0.50    3.71
  15   5  -2    4.89    4.95
 -15   5   2    6.72    3.77
  15  -5  -2    2.48    4.23
 -15  -5   2    3.75    5.04
  16   5  -3    1.52    5.17
  16  -5  -3    2.03    3.94
 -16   5   3   -4.68    3.94
 -16  -5   3   -1.17    5.62
   8  -6   5   19.77    4.62
  -8  -6  -5   21.61    4.67
   9  -6   4    6.68    4.40
  -9  -6  -4    2.31    4.47
  -9   6  -4    2.00    3.83
   9   6   4    2.44    4.56
  10  -6   3    3.05    4.23
 -10  -6  -3    9.41    4.41
  10   6   3   13.83    4.85
 -10   6  -3   10.03    4.23
 -11   6  -2   -8.47    4.35
  11  -6   2    1.62    3.74
 -11  -6  -2    3.92    4.36
  11   6   2    0.16    4.40
 -12   6  -1    0.70    3.84
  12  -6   1   -3.78    4.37
  12   6   1   -2.99    4.33
 -12  -6  -1    2.51    4.69
  13   6   0   -4.87    5.26
 -13  -6   0   -0.11    4.90
 -13   6   0   -2.37    3.81
  13  -6   0    0.84    4.38
  14   6  -1   -2.55    5.47
 -14   6   1    3.80    3.86
  14  -6  -1    4.54    3.86
 -14  -6   1   -1.99    5.03
  15   6  -2    4.01    5.62
  15  -6  -2   -4.27    4.49
 -15   6   2   -0.54    4.37
 -15  -6   2   -4.11    5.55
   9  -7   4   15.87    4.12
  -9  -7  -4   12.06    5.09
  -9   7  -4   12.91    4.13
  10  -7   3    4.22    4.47
 -10  -7  -3   -0.62    5.09
 -10   7  -3   -6.13    3.89
 -11   7  -2    0.99    3.87
  11  -7   2   -1.27    3.84
 -11  -7  -2    6.62    4.97
  11   7   2   -0.37    5.14
 -12  -7  -1   -2.13    5.06
 -12   7  -1   -4.18    3.81
  12  -7   1   -0.21    4.43
  12   7   1   -1.16    5.10
 -13   7   0    0.10    3.83
 -13  -7   0   -0.96    5.45
  13  -7   0   -1.00    4.47
  13   7   0    0.61    5.58
  14   7  -1   -3.08    6.06
 -14   7   1    4.97    4.42
  14  -7  -1   -3.57    4.05
 -14  -7   1    1.42    5.82
  11  -8   2   -1.87    4.09
 -12   8  -1   -3.05    3.99
  10   0   4   19.70    4.31
 -10   0  -4   18.73    4.37
  12   0   2   29.00    4.16
 -12   0  -2   28.35    3.64
 -14   0   0    7.04    4.10
  14   0   0    6.49    4.03
  16   0  -2   -0.87    4.38
 -16   0   2   -0.35    4.44
   9  -1   5    7.30    3.88
  -9  -1  -5   -0.36    3.88
  -9   1  -5    3.39    4.24
   9   1   5    3.92    4.45
  10   1   4   -1.79    3.79
  10  -1   4    4.07    3.71
 -10  -1  -4    2.03    3.70
 -10   1  -4   -2.08    4.12
  11   1   3   25.58    4.23
  11  -1   3   28.01    4.15
 -11  -1  -3   25.99    4.25
 -11   1  -3   18.07    4.26
  12   1   2    1.60    3.60
  12  -1   2   -2.10    3.62
 -12  -1  -2   -0.58    3.65
 -12   1  -2    4.82    3.62
 -13   1  -1   22.08    3.61
  13   1   1   21.38    4.17
  13  -1   1   23.20    4.01
 -13  -1  -1   13.50    4.20
 -14   1   0   -1.48    3.68
 -14  -1   0   -2.23    4.24
  14   1   0    2.15    4.21
  14  -1   0   -0.95    4.15
 -15   1   1    0.43    4.19
 -15  -1   1   -4.52    4.27
  15   1  -1   -3.49    4.21
  15  -1  -1   -2.84    4.17
  16   1  -2    3.18    4.38
  16  -1  -2   -2.08    4.46
 -16   1   2    0.13    4.49
 -16  -1   2    2.24    3.88
  17   1  -3   -5.27    4.66
  17  -1  -3   -1.73    4.60
 -17   1   3    5.43    4.65
 -17  -1   3    2.44    4.72
   9  -2   5   -0.36    3.92
  -9  -2  -5   -5.73    3.95
  -9   2  -5   -0.03    3.87
   9   2   5    1.76    3.96
  10  -2   4   19.45    4.33
 -10  -2  -4   19.00    4.43
 -10   2  -4   17.81    3.71
  10   2   4   18.68    3.89
  11   2   3   -1.43    4.23
  11  -2   3    3.07    3.69
 -11  -2  -3    5.78    4.22
 -11   2  -3   -0.03    3.68
  12   2   2   35.31    4.22
  12  -2   2   33.11    3.65
 -12  -2  -2   33.28    4.28
 -12   2  -2   28.11    3.63
 -13   2  -1    4.92    3.61
  13   2   1    0.72    4.07
  13  -2   1    0.59    3.61
 -13  -2  -1    1.63    4.22
 -14  -2   0    0.97    4.24
 -14   2   0    9.14    3.70
  14   2   0    8.09    4.19
  14  -2   0   -0.22    3.70
  15   2  -1   -0.53    4.31
 -15   2   1    0.76    4.35
 -15  -2   1   -1.70    4.40
  15  -2  -1   -2.01    3.80
  16   2  -2   -0.72    4.47
  16  -2  -2   -1.89    3.91
 -16   2   2    0.44    3.93
 -16  -2   2    2.43    4.39
  17   2  -3    3.33    4.69
 -17  -2   3    6.73    4.73
   9  -3   5   -0.15    4.45
  -9  -3  -5    3.29    4.05
  -9   3  -5    3.63    3.98
   9   3   5    5.12    4.60
  10  -3   4    0.36    3.85
 -10  -3  -4   -5.40    4.32
 -10   3  -4    4.98    3.79
  10   3   4   -3.19    4.50
  11   3   3   23.48    4.36
  11  -3   3   23.97    3.81
 -11  -3  -3   24.11    4.36
 -11   3  -3   27.90    4.18
  12   3   2    3.74    4.09
  12  -3   2   -2.45    3.68
 -12  -3  -2   -2.36    4.26
 -12   3  -2   -6.19    3.69
 -13   3  -1   14.39    3.61
  13   3   1   12.98    4.30
  13  -3   1   13.89    4.10
 -13  -3  -1   23.05    4.30
 -14  -3   0   -0.27    4.32
 -14   3   0   -1.41    3.73
  14   3   0    3.09    4.29
  14  -3   0   -2.04    4.24
  15   3  -1    5.46    4.42
 -15   3   1    3.27    3.83
 -15  -3   1    1.56    4.87
  15  -3  -1    0.44    3.81
  16   3  -2    2.20    4.56
  16  -3  -2   -3.92    4.34
 -16   3   2  -10.24    4.56
 -16  -3   2    0.30    4.63
  10  -4   4   -0.14    3.97
 -10  -4  -4   10.05    4.56
 -10   4  -4   17.54    3.91
  10   4   4    8.57    4.00
  11  -4   3   -2.52    3.84
 -11  -4  -3    7.44    4.41
 -11   4  -3   -0.39    4.25
  11   4   3    1.70    4.44
  12   4   2   18.53    4.83
  12  -4   2   16.03    3.84
 -12  -4  -2   17.44    4.39
 -12   4  -2   20.40    4.32
 -13  -4  -1   -1.20    4.81
  13   4   1    1.81    4.44
 -13   4  -1    1.01    3.74
  13  -4   1    2.18    4.18
  14   4   0    0.36    4.47
 -14  -4   0   -0.52    4.89
 -14   4   0    2.56    4.31
  14  -4   0   -0.57    4.24
  15   4  -1    3.80    4.52
 -15   4   1   -3.90    3.85
 -15  -4   1    1.54    4.59
  15  -4  -1   -8.27    3.86
  16   4  -2   -1.74    5.16
  16  -4  -2   -6.87    4.07
 -16   4   2   -1.06    4.04
 -16  -4   2   -5.89    5.14
  10  -5   4    5.67    4.04
 -10  -5  -4   -0.20    4.68
 -10   5  -4    5.29    4.00
  11  -5   3   13.21    4.59
 -11  -5  -3   23.54    4.60
 -11   5  -3   27.07    4.38
  11   5   3   17.41    4.63
 -12   5  -2   -1.74    4.49
  12  -5   2   -4.68    3.92
 -12  -5  -2   -3.75    4.55
  12   5   2    0.34    4.94
 -13  -5  -1    4.96    4.94
  13   5   1   12.40    5.10
 -13   5  -1   12.32    4.49
  13  -5   1   12.47    3.87
  14   5   0    2.55    5.10
 -14  -5   0   -6.56    5.13
 -14   5   0   -0.66    3.87
  14  -5   0    5.84    3.88
  15   5  -1   -1.67    5.16
  15  -5  -1   -3.46    4.44
 -15  -5   1    2.37    5.20
 -12   6  -2   33.21    4.61
  12  -6   2   15.57    4.55
 -12  -6  -2   16.99    4.69
  12   6   2   17.92    4.76
 -13  -6  -1   -2.75    5.20
  13  -6   1    2.58    4.64
  13   6   1    1.36    5.25
 -14  -6   0    4.30    5.36
  14  -6   0    1.74    4.47
  12   0   3    1.68    3.94
 -12   0  -3   -6.58    4.53
 -14   0  -1   11.96    4.43
  14   0   1   18.51    4.36
  16   0  -1   16.08    4.64
 -16   0   1   10.11    4.71
  12   1   3    7.79    4.55
  12  -1   3   -3.53    3.95
 -12  -1  -3   -5.30    4.44
 -12   1  -3   -4.69    4.38
  13   1   2   10.89    4.55
  13  -1   2    3.95    4.34
 -13  -1  -2    2.22    4.57
 -13   1  -2   16.85    3.92
 -14  -1  -1   -0.66    4.55
 -14   1  -1    2.33    4.51
  14   1   1    0.85    4.53
  14  -1   1   -0.12    4.37
 -15  -1   0   13.41    4.49
 -15   1   0   20.41    4.62
  15   1   0   13.74    4.60
  15  -1   0   19.89    4.00
 -16   1   1    4.32    4.57
 -16  -1   1   -2.11    4.73
  12   2   3    1.34    4.60
  12  -2   3   -3.16    4.06
 -12  -2  -3   -1.65    4.60
 -12   2  -3   -3.30    4.07
  13   2   2    1.27    4.60
  13  -2   2   -2.14    3.94
 -13  -2  -2    2.59    4.02
 -13   2  -2   -4.84    3.92
 -14  -2  -1   15.62    4.66
 -14   2  -1   17.58    4.56
  14   2   1   18.08    4.60
  14  -2   1   11.28    3.93
 -15  -2   0    0.56    4.07
 -15   2   0   -1.68    3.99
  15   2   0    0.35    4.62
  15  -2   0    0.47    3.93
  13   3   2    2.87    4.53
  13  -3   2   -4.62    4.57
 -13  -3  -2    3.61    4.11
 -13   3  -2   10.16    3.95
 -14  -3  -1   -8.48    4.68
 -14   3  -1   -3.07    4.62
  14   3   1   -2.14    4.51
   0   0   0    0.00    0.00
;
_shelx_hkl_checksum              34489
_olex2_submission_special_instructions 'No special instructions were received'
loop_
_space_group_symop_operation_xyz
'x, y, z'
'-x, y, -z'
'x+1/2, y+1/2, z'
'-x+1/2, y+1/2, -z'
'-x, -y, -z'
'x, -y, z'
'-x+1/2, -y+1/2, -z'
'x+1/2, -y+1/2, z'
loop_
_atom_site_label
_atom_site_type_symbol
_atom_site_fract_x
_atom_site_fract_y
_atom_site_fract_z
_atom_site_U_iso_or_equiv
_atom_site_adp_type
_atom_site_occupancy
_atom_site_site_symmetry_order
_atom_site_calc_flag
_atom_site_refinement_flags_posn
_atom_site_refinement_flags_adp
_atom_site_refinement_flags_occupancy
_atom_site_disorder_assembly
_atom_site_disorder_group
Eu1 Eu 0.000000 0.000000 0.000000 0.0231(3) Uani 1 4 d S T P . .
O1 O 0.0975(9) 0.0790(11) -0.2126(17) 0.029(2) Uani 0.5 1 d . . P . .
O2 O 0.4226(10) -0.3310(11) 0.1618(16) 0.029(2) Uani 0.5 1 d . . P . .
O3 O -0.0439(10) 0.2429(12) 0.0114(17) 0.033(3) Uani 0.5 1 d . . P . .
C1 C 0.382(2) -0.370(2) 0.293(3) 0.044(5) Uani 0.5 1 d . . P . .
C2 C 0.3584(17) -0.298(2) 0.187(3) 0.040(4) Uani 0.5 1 d . . P . .
C3 C 0.1806(12) 0.000000 -0.215(2) 0.040(3) Uani 1 2 d S T P . .
C4 C -0.0018(18) 0.3312(18) 0.062(3) 0.041(4) Uani 0.5 1 d . . P . .
C5 C -0.0251(13) 0.2795(10) 0.206(2) 0.066(4) Uani 1 1 d . . . . .
I1 I 0.26725(6) 0.000000 0.37035(11) 0.0340(3) Uani 1 2 d S T P . .
loop_
_atom_site_aniso_label
_atom_site_aniso_U_11
_atom_site_aniso_U_22
_atom_site_aniso_U_33
_atom_site_aniso_U_23
_atom_site_aniso_U_13
_atom_site_aniso_U_12
Eu1 0.0234(5) 0.0206(6) 0.0265(5) 0.000 0.0136(4) 0.000
O1 0.026(5) 0.024(6) 0.036(6) -0.003(5) 0.014(5) -0.010(4)
O2 0.028(5) 0.025(6) 0.034(6) 0.006(5) 0.017(5) 0.004(5)
O3 0.038(6) 0.026(7) 0.036(6) -0.007(5) 0.020(5) 0.001(5)
C1 0.074(14) 0.034(10) 0.037(10) -0.012(9) 0.037(10) -0.019(10)
C2 0.034(9) 0.037(11) 0.045(10) -0.001(9) 0.016(8) 0.001(8)
C3 0.048(7) 0.045(8) 0.050(7) 0.000 0.043(6) 0.000
C4 0.048(10) 0.026(10) 0.068(13) 0.010(9) 0.042(10) 0.008(8)
C5 0.114(11) 0.028(6) 0.094(9) -0.015(6) 0.080(9) -0.015(6)
I1 0.0297(5) 0.0399(7) 0.0304(5) 0.000 0.0138(5) 0.000
loop_
_atom_type_symbol
_atom_type_description
_atom_type_scat_dispersion_real
_atom_type_scat_dispersion_imag
_atom_type_scat_source
C C 0.0033 0.0016 'International Tables Vol C Tables 4.2.6.8 and 6.1.1.4'
Eu Eu -0.1578 3.6682 'International Tables Vol C Tables 4.2.6.8 and 6.1.1.4'
I I -0.4742 1.8119 'International Tables Vol C Tables 4.2.6.8 and 6.1.1.4'
O O 0.0106 0.0060 'International Tables Vol C Tables 4.2.6.8 and 6.1.1.4'
loop_
_geom_angle_atom_site_label_1
_geom_angle_atom_site_label_2
_geom_angle_atom_site_label_3
_geom_angle
_geom_angle_site_symmetry_1
_geom_angle_site_symmetry_3
_geom_angle_publ_flag
O1 Eu1 O1 36.8(5) 6 . ?
O1 Eu1 O1 180.0(5) 5 . ?
O1 Eu1 O1 143.2(5) 2 . ?
O1 Eu1 O1 180.0 2 6 ?
O1 Eu1 O1 143.2(5) 5 6 ?
O1 Eu1 O1 36.8(5) 2 5 ?
O2 Eu1 O1 155.8(3) 7_545 2 ?
O2 Eu1 O1 119.0(4) 3_455 . ?
O2 Eu1 O1 155.8(3) 3_455 6 ?
O2 Eu1 O1 61.0(4) 8_445 2 ?
O2 Eu1 O1 119.0(4) 8_445 6 ?
O2 Eu1 O1 119.0(4) 4 2 ?
O2 Eu1 O1 155.8(3) 8_445 . ?
O2 Eu1 O1 24.2(3) 3_455 2 ?
O2 Eu1 O1 24.2(3) 7_545 6 ?
O2 Eu1 O1 119.0(4) 7_545 5 ?
O2 Eu1 O1 24.2(3) 4 . ?
O2 Eu1 O1 24.2(3) 8_445 5 ?
O2 Eu1 O1 61.0(4) 7_545 . ?
O2 Eu1 O1 155.8(3) 4 5 ?
O2 Eu1 O1 61.0(4) 3_455 5 ?
O2 Eu1 O1 61.0(4) 4 6 ?
O2 Eu1 O2 180.0(6) 8_445 4 ?
O2 Eu1 O2 94.9(5) 7_545 8_445 ?
O2 Eu1 O2 85.1(5) 7_545 4 ?
O2 Eu1 O2 180.0 7_545 3_455 ?
O2 Eu1 O2 94.9(5) 4 3_455 ?
O2 Eu1 O2 85.1(5) 8_445 3_455 ?
O3 Eu1 O1 96.6(4) 6 2 ?
O3 Eu1 O1 96.6(4) . 5 ?
O3 Eu1 O1 60.0(4) . 2 ?
O3 Eu1 O1 120.0(4) 5 2 ?
O3 Eu1 O1 60.0(4) 5 6 ?
O3 Eu1 O1 120.0(4) 2 5 ?
O3 Eu1 O1 96.6(4) 5 . ?
O3 Eu1 O1 96.6(4) 2 6 ?
O3 Eu1 O1 83.4(4) 5 5 ?
O3 Eu1 O1 60.0(4) 2 . ?
O3 Eu1 O1 83.4(4) 2 2 ?
O3 Eu1 O1 83.4(4) . . ?
O3 Eu1 O1 120.0(4) 6 . ?
O3 Eu1 O1 120.0(4) . 6 ?
O3 Eu1 O1 83.4(4) 6 6 ?
O3 Eu1 O1 60.0(4) 6 5 ?
O3 Eu1 O2 59.5(3) 2 3_455 ?
O3 Eu1 O2 144.0(3) 2 8_445 ?
O3 Eu1 O2 59.5(3) . 4 ?
O3 Eu1 O2 36.0(3) . 3_455 ?
O3 Eu1 O2 36.0(3) 6 8_445 ?
O3 Eu1 O2 120.5(3) 6 3_455 ?
O3 Eu1 O2 120.5(3) 5 4 ?
O3 Eu1 O2 144.0(3) 5 3_455 ?
O3 Eu1 O2 120.5(3) . 8_445 ?
O3 Eu1 O2 120.5(3) 2 7_545 ?
O3 Eu1 O2 59.5(3) 5 8_445 ?
O3 Eu1 O2 144.0(3) . 7_545 ?
O3 Eu1 O2 144.0(3) 6 4 ?
O3 Eu1 O2 59.5(3) 6 7_545 ?
O3 Eu1 O2 36.0(3) 5 7_545 ?
O3 Eu1 O2 36.0(3) 2 4 ?
O3 Eu1 O3 153.6(5) . 6 ?
O3 Eu1 O3 26.4(5) 2 . ?
O3 Eu1 O3 180.0 2 6 ?
O3 Eu1 O3 26.4(5) 6 5 ?
O3 Eu1 O3 153.6(5) 2 5 ?
O3 Eu1 O3 180.0 . 5 ?
O2 O1 Eu1 77.6(9) 4 . ?
O2 O1 C2 44.9(10) 4 4 ?
O2 O1 C3 148.9(12) 4 . ?
C2 O1 Eu1 119.1(12) 4 . ?
C3 O1 Eu1 114.9(8) . . ?
C3 O1 C2 109.0(12) . 4 ?
O3 O2 Eu1 71.9(6) 3_545 3_545 ?
C1 O2 Eu1 120.3(11) . 3_545 ?
C1 O2 O3 167.6(14) . 3_545 ?
C5 O2 Eu1 118.4(8) 3_545 3_545 ?
C5 O2 O3 58.8(8) 3_545 3_545 ?
C5 O2 C1 112.6(13) 3_545 . ?
C4 O3 Eu1 120.7(9) 2 . ?
C4 O3 C5 111.9(12) 2 . ?
C5 O3 Eu1 111.4(8) . . ?
O1 C1 O2 51.5(11) 4_545 . ?
O1 C1 C3 59.2(13) 4_545 7_545 ?
O2 C1 C3 105.5(13) . 7_545 ?
O1 C2 C5 100.4(13) 4_545 3_545 ?
O1 C3 O1 76.7(11) 6 . ?
O1 C3 C1 37.7(8) . 4 ?
O1 C3 C1 108.1(13) 6 4 ?
O1 C3 C1 37.7(8) 6 7_545 ?
O1 C3 C1 108.1(13) . 7_545 ?
C1 C3 C1 125(2) 7_545 4 ?
O3 C4 C5 111.8(14) 2 . ?
O2 C5 O3 72.0(9) 3_455 . ?
O2 C5 C2 37.7(9) 3_455 3_455 ?
O2 C5 C4 114.7(13) 3_455 . ?
O3 C5 C2 96.2(11) . 3_455 ?
C4 C5 O3 42.7(10) . . ?
C4 C5 C2 132.0(15) . 3_455 ?
loop_
_geom_bond_atom_site_label_1
_geom_bond_atom_site_label_2
_geom_bond_distance
_geom_bond_site_symmetry_2
_geom_bond_publ_flag
Eu1 O1 2.725(12) . ?
Eu1 O1 2.725(12) 6 ?
Eu1 O1 2.725(12) 5 ?
Eu1 O1 2.725(12) 2 ?
Eu1 O2 2.719(12) 8_445 ?
Eu1 O2 2.719(12) 7_545 ?
Eu1 O2 2.719(12) 4 ?
Eu1 O2 2.720(12) 3_455 ?
Eu1 O3 2.715(12) 5 ?
Eu1 O3 2.715(12) . ?
Eu1 O3 2.715(12) 2 ?
Eu1 O3 2.715(12) 6 ?
O1 O2 1.141(16) 4 ?
O1 C2 1.43(2) 4 ?
O1 C3 1.385(15) . ?
O2 O3 1.679(17) 3_545 ?
O2 C1 1.46(2) . ?
O2 C5 1.337(16) 3_545 ?
O3 C4 1.41(2) 2 ?
O3 C5 1.510(17) . ?
C1 C3 1.60(2) 7_545 ?
C2 C5 1.67(2) 3_545 ?
C4 C5 1.45(2) . ?
loop_
_geom_torsion_atom_site_label_1
_geom_torsion_atom_site_label_2
_geom_torsion_atom_site_label_3
_geom_torsion_atom_site_label_4
_geom_torsion
_geom_torsion_site_symmetry_1
_geom_torsion_site_symmetry_2
_geom_torsion_site_symmetry_3
_geom_torsion_site_symmetry_4
_geom_torsion_publ_flag
Eu1 O1 C3 O1 35.8(11) . . . 6 ?
Eu1 O1 C3 C1 57.0(13) . . . 7_545 ?
Eu1 O1 C3 C1 -178.5(18) . . . 4 ?
Eu1 O2 C1 O1 -8.7(17) 3_545 . . 4_545 ?
Eu1 O2 C1 C3 -34.4(19) 3_545 . . 7_545 ?
Eu1 O3 C5 O2 -39.3(9) . . . 3_455 ?
Eu1 O3 C5 C2 -68.6(11) . . . 3_455 ?
Eu1 O3 C5 C4 140.5(14) . . . . ?
O2 O1 C3 O1 144(2) 4 . . 6 ?
O2 O1 C3 C1 -70(3) 4 . . 4 ?
O2 O1 C3 C1 165(2) 4 . . 7_545 ?
O3 O2 C1 O1 160(5) 3_545 . . 4_545 ?
O3 O2 C1 C3 134(5) 3_545 . . 7_545 ?
O3 C4 C5 O2 -43(2) 2 . . 3_455 ?
O3 C4 C5 O3 -43.0(16) 2 . . . ?
O3 C4 C5 C2 -84(2) 2 . . 3_455 ?
C2 O1 C3 O1 172.4(10) 4 . . 6 ?
C2 O1 C3 C1 -166.4(14) 4 . . 7_545 ?
C2 O1 C3 C1 -41.9(16) 4 . . 4 ?
C4 O3 C5 O2 -177.9(14) 2 . . 3_455 ?
C4 O3 C5 C2 152.9(14) 2 . . 3_455 ?
C4 O3 C5 C4 2.0(19) 2 . . . ?
C5 O2 C1 O1 -155.9(16) 3_545 . . 4_545 ?
C5 O2 C1 C3 178.3(13) 3_545 . . 7_545 ?
