#------------------------------------------------------------------------------
#$Date: 2020-10-04 06:25:54 +0300 (Sun, 04 Oct 2020) $
#$Revision: 257112 $
#$URL: file:///home/coder/svn-repositories/cod/cif/4/13/50/4135014.cif $
#------------------------------------------------------------------------------
#
# This file is available in the Crystallography Open Database (COD),
# http://www.crystallography.net/
#
# All data on this site have been placed in the public domain by the
# contributors.
#
data_4135014
loop_
_publ_author_name
'Qiu, Hui'
'Shuai, Bin'
'Wang, Yun-Zhao'
'Liu, Dong'
'Chen, Yue-Gang'
'Gao, Pei-Sen'
'Ma, Hong-Xing'
'Chen, Song'
'Mei, Tian-Sheng'
_publ_section_title
;
 Enantioselective Ni-Catalyzed Electrochemical Synthesis of Biaryl
 Atropisomers.
;
_journal_issue                   22
_journal_name_full               'Journal of the American Chemical Society'
_journal_page_first              9872
_journal_page_last               9878
_journal_paper_doi               10.1021/jacs.9b13117
_journal_volume                  142
_journal_year                    2020
_chemical_absolute_configuration ad
_chemical_formula_sum            'C17 H16 N2 O'
_chemical_formula_weight         264.32
_space_group_crystal_system      monoclinic
_space_group_IT_number           4
_space_group_name_Hall           'P 2yb'
_space_group_name_H-M_alt        'P 1 21 1'
_atom_sites_solution_hydrogens   geom
_audit_creation_method           SHELXL-2013
_cell_angle_alpha                90
_cell_angle_beta                 103.8900(10)
_cell_angle_gamma                90
_cell_formula_units_Z            2
_cell_length_a                   6.3490(3)
_cell_length_b                   8.6180(4)
_cell_length_c                   13.1236(6)
_cell_measurement_reflns_used    8884
_cell_measurement_temperature    293(2)
_cell_measurement_theta_max      140.174
_cell_measurement_theta_min      10.263
_cell_volume                     697.07(6)
_computing_cell_refinement       'Bruker SAINT'
_computing_data_collection       'Bruker APEX2'
_computing_data_reduction        'Bruker SAINT'
_computing_molecular_graphics    'Bruker SHELXTL'
_computing_publication_material  'Bruker SHELXTL'
_computing_structure_refinement  'SHELXL-2013 (Sheldrick, 2013)'
_computing_structure_solution    'SHELXS-97 (Sheldrick 2008)'
_diffrn_ambient_temperature      293(2)
_diffrn_measured_fraction_theta_full 0.961
_diffrn_measured_fraction_theta_max 0.964
_diffrn_measurement_device_type  'Bruker APEX-II CCD'
_diffrn_measurement_method       '\f and \w scans'
_diffrn_radiation_type           CuK\a
_diffrn_radiation_wavelength     1.54178
_diffrn_reflns_av_R_equivalents  0.0345
_diffrn_reflns_av_unetI/netI     0.0289
_diffrn_reflns_Laue_measured_fraction_full 0.961
_diffrn_reflns_Laue_measured_fraction_max 0.964
_diffrn_reflns_limit_h_max       7
_diffrn_reflns_limit_h_min       -7
_diffrn_reflns_limit_k_max       10
_diffrn_reflns_limit_k_min       -10
_diffrn_reflns_limit_l_max       15
_diffrn_reflns_limit_l_min       -15
_diffrn_reflns_number            9842
_diffrn_reflns_point_group_measured_fraction_full 0.955
_diffrn_reflns_point_group_measured_fraction_max 0.957
_diffrn_reflns_theta_full        67.679
_diffrn_reflns_theta_max         67.474
_diffrn_reflns_theta_min         8.711
_exptl_absorpt_coefficient_mu    0.628
_exptl_absorpt_correction_T_max  0.7533
_exptl_absorpt_correction_T_min  0.5997
_exptl_absorpt_correction_type   multi-scan
_exptl_absorpt_process_details   sadabs
_exptl_crystal_colour            colorless
_exptl_crystal_density_diffrn    1.259
_exptl_crystal_description       prismatic
_exptl_crystal_F_000             280
_exptl_crystal_size_max          0.180
_exptl_crystal_size_mid          0.160
_exptl_crystal_size_min          0.140
_refine_diff_density_max         0.093
_refine_diff_density_min         -0.082
_refine_diff_density_rms         0.019
_refine_ls_abs_structure_details
; 
 Flack x determined using 1075 quotients [(I+)-(I-)]/[(I+)+(I-)] 
 (Parsons and Flack (2004), Acta Cryst. A60, s61). 
;
_refine_ls_abs_structure_Flack   0.08(8)
_refine_ls_extinction_coef       0.098(15)
_refine_ls_extinction_expression Fc^*^=kFc[1+0.001xFc^2^\l^3^/sin(2\q)]^-1/4^
_refine_ls_extinction_method     SHELXL
_refine_ls_goodness_of_fit_ref   1.036
_refine_ls_hydrogen_treatment    constr
_refine_ls_matrix_type           full
_refine_ls_number_parameters     183
_refine_ls_number_reflns         2399
_refine_ls_number_restraints     1
_refine_ls_restrained_S_all      1.036
_refine_ls_R_factor_all          0.0290
_refine_ls_R_factor_gt           0.0287
_refine_ls_shift/su_max          0.000
_refine_ls_shift/su_mean         0.000
_refine_ls_structure_factor_coef Fsqd
_refine_ls_weighting_details
'w=1/[\s^2^(Fo^2^)+(0.0363P)^2^+0.0600P] where P=(Fo^2^+2Fc^2^)/3'
_refine_ls_weighting_scheme      calc
_refine_ls_wR_factor_gt          0.0733
_refine_ls_wR_factor_ref         0.0738
_reflns_Friedel_coverage         0.851
_reflns_Friedel_fraction_full    0.947
_reflns_Friedel_fraction_max     0.949
_reflns_number_gt                2379
_reflns_number_total             2399
_reflns_threshold_expression     'I > 2\s(I)'
_cod_data_source_file            ja9b13117_si_006.cif
_cod_data_source_block           cu_d8v19673_0m
_cod_depositor_comments
;Adding full bibliography for 4135012--4135016.cif.

 Adding full bibliography for 4135012--4135016.cif.
;
_cod_original_sg_symbol_H-M      'P 21'
_cod_database_code               4135014
_shelx_space_group_comment
; 
The symmetry employed for this shelxl refinement is uniquely defined 
by the following loop, which should always be used as a source of 
symmetry information in preference to the above space-group names. 
They are only intended as comments. 
;
_shelx_estimated_absorpt_t_min   0.895
_shelx_estimated_absorpt_t_max   0.917
_shelxl_version_number           2013-4
_shelx_res_file
; 
TITL cu_d8v19673_0m_a.res in P2(1) 
CELL 1.54178 6.349 8.618 13.1236 90 103.89 90 
ZERR 2 0.0003 0.0004 0.0006 0 0.001 0 
LATT -1 
SYMM -X,0.5+Y,-Z 
SFAC C  H  N  O 
UNIT 34 32 4 2 
OMIT  -3.00 135.00 
L.S. 10 
ACTA 
BOND $H 
FMAP 2 
PLAN 20 
LIST 4 
size 0.18 0.16 0.14 
wpdb -1 
mpla c1 > c6 
mpla n2 c11 > c15 
htab 
conf 
TEMP 19.87 
WGHT    0.036300    0.060000 
EXTI    0.097611 
FVAR       1.29055 
O1    4    0.493225    0.398641    0.134165    11.00000    0.05229    0.06430 = 
         0.04280    0.01132    0.02254    0.00963 
N1    3    0.208418    0.363907    0.207243    11.00000    0.03756    0.04086 = 
         0.04716    0.00505    0.00961   -0.00239 
N2    3    0.481033    0.194634    0.372160    11.00000    0.03906    0.03668 = 
         0.04381    0.00188    0.01411    0.00047 
C1    1    0.100255    0.628941    0.144412    11.00000    0.03981    0.04330 = 
         0.03875    0.00290    0.00150   -0.00099 
C2    1   -0.033124    0.685887    0.204947    11.00000    0.04917    0.05115 = 
         0.05771    0.00238    0.01443    0.00000 
AFIX  43 
H2    2   -0.126674    0.619992    0.228998    11.00000   -1.20000 
AFIX   0 
C3    1   -0.025359    0.842198    0.229185    11.00000    0.06890    0.05642 = 
         0.06624   -0.00652    0.01640    0.00760 
AFIX  43 
H3    2   -0.114804    0.882131    0.269488    11.00000   -1.20000 
AFIX   0 
C4    1    0.115347    0.939583    0.193594    11.00000    0.07340    0.04411 = 
         0.06862   -0.00418    0.00235   -0.00059 
AFIX  43 
H4    2    0.120602    1.044425    0.210810    11.00000   -1.20000 
AFIX   0 
C5    1    0.247142    0.882826    0.133142    11.00000    0.06229    0.04749 = 
         0.06001    0.01133    0.00229   -0.01128 
AFIX  43 
H5    2    0.341048    0.948900    0.109491    11.00000   -1.20000 
AFIX   0 
C6    1    0.239333    0.726163    0.107545    11.00000    0.04714    0.05131 = 
         0.04078    0.01085    0.00399   -0.00146 
C7    1    0.362086    0.638864    0.040854    11.00000    0.06457    0.06598 = 
         0.05257    0.01845    0.02160    0.00365 
AFIX  23 
H7A   2    0.516418    0.659826    0.063268    11.00000   -1.20000 
H7B   2    0.311408    0.667120   -0.032503    11.00000   -1.20000 
AFIX   0 
C8    1    0.314293    0.468824    0.057901    11.00000    0.06042    0.05868 = 
         0.03452    0.00159    0.01223    0.00629 
AFIX  13 
H8    2    0.279683    0.410874   -0.008279    11.00000   -1.20000 
AFIX   0 
C9    1    0.126950    0.462267    0.114085    11.00000    0.04180    0.04539 = 
         0.04025   -0.00100    0.00223   -0.00260 
AFIX  13 
H9    2   -0.006419    0.420554    0.068549    11.00000   -1.20000 
AFIX   0 
C10   1    0.406312    0.340148    0.212054    11.00000    0.04147    0.03721 = 
         0.03748   -0.00264    0.01465   -0.00345 
C11   1    0.563669    0.260254    0.297329    11.00000    0.03650    0.03461 = 
         0.04097   -0.00294    0.01359   -0.00052 
C12   1    0.782966    0.261497    0.300244    11.00000    0.04118    0.05062 = 
         0.05221    0.00019    0.01918   -0.00057 
AFIX  43 
H12   2    0.833766    0.306874    0.246439    11.00000   -1.20000 
AFIX   0 
C13   1    0.924269    0.193824    0.384859    11.00000    0.03415    0.06685 = 
         0.06326    0.00000    0.01251    0.00447 
AFIX  43 
H13   2    1.072702    0.192958    0.389368    11.00000   -1.20000 
AFIX   0 
C14   1    0.842190    0.127662    0.462436    11.00000    0.04544    0.06135 = 
         0.05300    0.00637    0.00606    0.00951 
AFIX  43 
H14   2    0.934886    0.082261    0.520507    11.00000   -1.20000 
AFIX   0 
C15   1    0.618689    0.129110    0.453424    11.00000    0.04672    0.03855 = 
         0.04580    0.00311    0.01232    0.00394 
C16   1    0.521900    0.061397    0.537444    11.00000    0.06028    0.05546 = 
         0.05409    0.01727    0.01565    0.00355 
AFIX  23 
H16A  2    0.626970   -0.007363    0.581100    11.00000   -1.20000 
H16B  2    0.395789   -0.000035    0.504690    11.00000   -1.20000 
AFIX   0 
C17   1    0.455580    0.183562    0.605762    11.00000    0.06492    0.08237 = 
         0.04802    0.00706    0.02155    0.00169 
AFIX 137 
H17A  2    0.347310    0.249589    0.563429    11.00000   -1.50000 
H17B  2    0.579863    0.244503    0.638709    11.00000   -1.50000 
H17C  2    0.397318    0.134421    0.658669    11.00000   -1.50000 
AFIX   0 
HKLF 4 
  
REM  cu_d8v19673_0m_a.res in P2(1) 
REM R1 =  0.0287 for    2379 Fo > 4sig(Fo)  and  0.0290 for all    2399 data 
REM    183 parameters refined using      1 restraints 
  
END 
  
WGHT      0.0345      0.0632 
  
REM Instructions for potential hydrogen bonds 
EQIV $1 x+1, y, z 
HTAB C12 N1_$1 
  
REM Highest difference peak  0.093,  deepest hole -0.082,  1-sigma level  0.019 
Q1    1   0.2307  0.4630  0.0918  11.00000  0.05    0.09 
Q2    1   0.7192  0.1730  0.4653  11.00000  0.05    0.08 
Q3    1   0.4938  0.3089  0.2617  11.00000  0.05    0.08 
Q4    1   0.7769  0.2767  0.1969  11.00000  0.05    0.08 
Q5    1   0.3426  0.1859  0.3609  11.00000  0.05    0.07 
Q6    1   0.1626  0.8127  0.0887  11.00000  0.05    0.07 
Q7    1   0.4358  0.3212  0.1333  11.00000  0.05    0.07 
Q8    1   0.0127  0.8858  0.1789  11.00000  0.05    0.07 
Q9    1   0.6633  0.3130  0.3210  11.00000  0.05    0.07 
Q10   1   0.6594  0.2224  0.2779  11.00000  0.05    0.07 
Q11   1   0.8317  0.1719  0.3257  11.00000  0.05    0.07 
Q12   1  -0.0031  0.6590  0.1404  11.00000  0.05    0.07 
Q13   1   0.5672  0.0962  0.4880  11.00000  0.05    0.06 
Q14   1   0.1110  0.5510  0.1335  11.00000  0.05    0.06 
Q15   1   0.3604  0.5553  0.0706  11.00000  0.05    0.06 
Q16   1   0.5466  0.1398  0.4031  11.00000  0.05    0.06 
Q17   1  -0.0055  0.4267  0.1965  11.00000  0.05    0.06 
Q18   1   0.1339  0.4244  0.1650  11.00000  0.05    0.06 
Q19   1   0.6802  0.4531  0.2766  11.00000  0.05    0.06 
Q20   1   1.0781  0.2726  0.3977  11.00000  0.05    0.06 
;
_shelx_res_checksum              19296
_shelx_hkl_file
; 
   3   0   0  614.87   25.45 
  -3   0   0  734.11   25.45 
  -4   0   0   41.91    2.07 
   4   0   0   43.13    2.54 
   4   0   0   40.34    1.94 
  -5   0   0    5.65    0.78 
  -5   0   0    6.39    0.95 
  -5   0   0    6.34    0.67 
  -5   0   0    6.33    0.90 
  -6   0   0    3.81    0.66 
  -6   0   0    3.21    0.62 
  -6   0   0    2.32    0.79 
  -7   0   0   21.78    1.23 
  -7   0   0   17.65    1.29 
  -7   0   0   21.00    1.28 
   0  -1   0    0.23    0.04 
   2  -1   0  100.06    3.82 
  -2  -1   0   94.14    3.73 
   2  -1   0   96.10    3.79 
   2   1   0   90.86    4.02 
  -2   1   0   97.23    4.08 
  -2   1   0   97.51    3.81 
   2   1   0   91.11    3.67 
  -2   1   0   99.67    3.83 
  -3  -1   0  148.24    5.69 
   3  -1   0  133.13    5.77 
   3  -1   0  157.85    5.88 
   3   1   0  143.36    5.67 
  -3   1   0  151.20    6.34 
   3   1   0  149.16    6.25 
   4  -1   0    1.25    0.26 
  -4  -1   0    1.86    0.37 
   4  -1   0    2.44    0.48 
  -4   1   0    1.48    0.42 
  -5  -1   0   35.96    2.44 
  -5  -1   0   37.61    2.29 
  -5  -1   0   38.54    2.27 
  -5  -1   0   44.03    3.87 
  -5  -1   0   37.23    2.09 
  -5   1   0   37.32    2.33 
  -5   1   0   37.34    2.17 
  -5   1   0   36.80    2.13 
  -5   1   0   36.41    2.17 
  -6  -1   0    1.65    0.42 
  -6  -1   0    0.33    0.38 
  -6  -1   0    1.19    0.40 
  -6  -1   0    0.83    0.37 
  -6   1   0    1.34    0.35 
  -6   1   0    0.91    0.29 
  -6   1   0    0.17    0.30 
   6   1   0    0.89    0.34 
  -6   1   0    0.77    0.37 
  -7  -1   0   36.94    1.89 
  -7  -1   0   37.10    2.02 
   7   1   0   35.38    1.64 
  -7   1   0   36.56    1.77 
  -1  -2   0  104.75    3.84 
   1  -2   0   98.54    4.10 
  -1  -2   0  108.47    4.04 
  -1  -2   0  101.58    3.84 
   1   2   0  102.56    4.14 
  -1   2   0  103.86    4.18 
  -1   2   0   96.75    4.09 
   2  -2   0  481.65   18.06 
  -2  -2   0  468.95   17.94 
   3  -2   0   25.63    1.30 
  -3  -2   0   23.08    1.07 
  -3   2   0   23.25    1.27 
   3   2   0   22.95    1.50 
  -3   2   0   25.32    1.63 
   4  -2   0  314.10   12.13 
  -4  -2   0  299.41   12.17 
   4  -2   0  307.47   11.96 
  -4   2   0  303.60   12.79 
   4   2   0  306.75   12.58 
  -5  -2   0  110.99    5.33 
  -5  -2   0  122.89    5.13 
  -5  -2   0  113.27    5.55 
  -5   2   0  113.60    5.07 
  -5   2   0  106.99    5.54 
  -5   2   0  106.44    5.13 
  -6  -2   0   34.01    3.50 
  -6  -2   0   36.38    2.21 
  -6  -2   0   34.06    2.00 
  -6  -2   0   37.91    2.43 
  -6  -2   0   34.60    1.96 
  -6  -2   0   36.25    2.09 
  -6   2   0   35.80    1.97 
  -6   2   0   37.31    1.98 
   6   2   0   35.83    1.80 
  -6   2   0   36.24    1.98 
   6   2   0   35.80    2.01 
  -7  -2   0    9.44    0.76 
  -7  -2   0    9.49    0.88 
  -7   2   0    8.62    0.69 
  -7   2   0    8.52    0.62 
   7   2   0    8.44    0.58 
   0   3   0    0.11    0.07 
  -1  -3   0  390.21   14.97 
  -1  -3   0  408.05   15.25 
   2  -3   0   38.28    1.77 
  -2  -3   0   37.67    1.69 
  -2   3   0   37.40    2.05 
   2   3   0   36.42    1.91 
  -2   3   0   37.52    1.77 
   3  -3   0  213.94    8.54 
   3  -3   0  221.92    8.61 
  -3  -3   0  208.39    8.67 
  -3   3   0  210.71    9.11 
   3   3   0  218.09    8.90 
  -3   3   0  219.10    8.60 
   4  -3   0   31.13    1.73 
  -4  -3   0   30.49    1.82 
   4  -3   0   32.14    1.83 
   4   3   0   31.48    2.05 
  -4   3   0   30.21    2.23 
   4   3   0   28.35    1.84 
  -5  -3   0   41.68    4.09 
  -5  -3   0   40.36    2.66 
  -5  -3   0   39.52    2.42 
  -5  -3   0   37.84    2.23 
  -5  -3   0   38.40    2.26 
  -5  -3   0   39.50    2.48 
  -5   3   0   38.99    2.18 
  -5   3   0   37.46    2.35 
  -5   3   0   38.89    2.17 
   5   3   0   37.81    1.96 
  -5   3   0   37.87    2.12 
  -6  -3   0   55.29    2.78 
  -6  -3   0   51.02    4.47 
  -6  -3   0   55.95    2.83 
  -6  -3   0   52.75    2.71 
  -6  -3   0   56.70    3.20 
  -6   3   0   57.07    2.81 
  -6   3   0   53.81    2.58 
   6   3   0   52.40    2.73 
   6   3   0   48.41    2.49 
  -6   3   0   62.46    3.19 
  -6   3   0   53.62    2.82 
  -7  -3   0   23.27    1.40 
  -7  -3   0   17.36    1.88 
  -7  -3   0   23.13    1.26 
   7   3   0   21.35    1.05 
  -7   3   0   17.43    1.20 
  -1  -4   0   14.04    0.88 
   1  -4   0   13.26    0.86 
  -1  -4   0   12.64    0.63 
  -1   4   0   12.02    0.84 
   1   4   0   13.85    0.91 
  -1   4   0   14.32    1.01 
  -2  -4   0  117.70    4.79 
   2  -4   0  115.57    4.86 
  -2  -4   0  113.22    4.89 
   2  -4   0  118.36    4.83 
   2   4   0  115.18    5.00 
  -2   4   0  114.73    4.80 
  -2   4   0  115.84    5.25 
   3  -4   0   23.13    1.38 
  -3  -4   0   18.71    1.46 
  -3   4   0   22.38    1.74 
   3   4   0   21.43    1.23 
   3   4   0   23.28    1.54 
   4  -4   0   17.65    1.29 
  -4  -4   0   15.63    1.27 
  -4  -4   0   14.31    1.42 
  -4  -4   0   16.41    1.26 
  -4  -4   0   19.16    2.58 
  -4  -4   0   16.59    1.43 
   4   4   0   15.91    1.07 
  -4   4   0   15.64    1.36 
  -4   4   0   16.95    1.21 
  -4   4   0   16.99    1.24 
  -4   4   0   18.49    1.69 
  -5  -4   0  117.48    5.74 
  -5  -4   0  113.49    5.25 
  -5  -4   0  112.34    5.77 
  -5  -4   0  122.07    7.86 
  -5   4   0  104.35    5.70 
   5   4   0  114.26    5.23 
  -5   4   0  128.51    5.56 
  -5   4   0  114.90    5.47 
  -6  -4   0    6.73    0.69 
  -6  -4   0    4.16    0.76 
  -6  -4   0    5.39    0.76 
  -6  -4   0    5.83    0.67 
  -6  -4   0    5.00    1.23 
  -6  -4   0    7.24    0.84 
  -6   4   0    5.99    0.75 
   6   4   0    5.95    0.66 
   6   4   0    5.79    0.56 
  -6   4   0    5.17    0.59 
  -6   4   0    6.24    0.63 
   0  -5   0   -0.20    0.11 
   0  -5   0    0.14    0.11 
   0   5   0    0.56    0.22 
  -1  -5   0   10.81    0.79 
   1  -5   0   11.50    0.78 
   1  -5   0   11.26    0.91 
  -1  -5   0   11.16    0.89 
   1   5   0   11.70    0.92 
  -1   5   0   11.78    1.01 
   1   5   0   11.96    0.79 
  -1   5   0   11.97    0.79 
  -2  -5   0   15.19    1.09 
   2  -5   0   15.85    1.06 
  -2  -5   0   16.58    1.10 
   2  -5   0   15.56    1.15 
  -2   5   0   16.08    1.38 
   2   5   0   15.53    1.04 
   2   5   0   16.11    1.20 
   2   5   0   14.77    0.96 
   3  -5   0   57.65    2.87 
   3  -5   0   54.95    2.55 
  -3  -5   0   59.74    2.92 
   3   5   0   56.98    2.67 
   3   5   0   56.82    2.83 
  -3   5   0   55.60    3.43 
   3   5   0   60.06    3.10 
   4  -5   0  186.63    7.79 
  -4  -5   0  199.23    8.70 
  -4  -5   0  187.01    8.69 
  -4  -5   0  187.30    8.74 
  -4  -5   0  191.63    8.34 
  -4  -5   0  201.72    8.32 
  -4  -5   0  209.34   11.15 
  -4   5   0  199.79    8.15 
  -4   5   0  191.64    8.18 
  -4   5   0  196.46    8.54 
   4   5   0  197.31    8.23 
  -4   5   0  198.08    8.06 
   4   5   0  199.21    8.00 
  -4   5   0  209.53   12.39 
   5  -5   0  145.61    5.90 
  -5  -5   0  142.94    6.34 
  -5  -5   0  144.37    6.74 
  -5  -5   0  143.80    6.52 
  -5  -5   0  153.08    6.38 
  -5  -5   0  137.63    8.67 
  -5  -5   0  148.34    6.76 
   5   5   0  153.35    6.33 
   5   5   0  146.20    6.05 
  -5   5   0  150.96    6.15 
  -5   5   0  146.78    6.20 
  -5   5   0  142.29    6.01 
  -5   5   0  148.58    6.53 
  -5   5   0  125.93    8.86 
  -6  -5   0    9.24    0.96 
  -6  -5   0    9.55    1.62 
  -6  -5   0   10.91    1.21 
   6  -5   0    8.56    0.65 
  -6  -5   0   12.58    1.27 
  -6   5   0   13.23    1.32 
  -6   5   0    9.74    0.73 
   6   5   0   10.42    0.71 
   6   5   0   11.05    1.23 
   0  -6   0   23.87    1.53 
   0  -6   0   19.40    1.20 
   0   6   0   22.97    1.55 
   1  -6   0   58.80    2.78 
  -1  -6   0   59.17    2.99 
   1  -6   0   57.91    3.07 
   1  -6   0   58.49    2.80 
   1   6   0   62.58    3.09 
  -1   6   0   60.65    3.24 
   1   6   0   60.57    2.72 
   2  -6   0   76.65    3.90 
   2  -6   0   79.12    3.69 
  -2  -6   0   82.48    3.72 
   2  -6   0   82.49    3.57 
  -2   6   0   76.09    4.25 
   2   6   0   78.25    3.58 
   2   6   0   83.67    3.97 
   2   6   0   77.87    3.43 
   3  -6   0  104.03    4.50 
  -3  -6   0  114.97    7.15 
  -3  -6   0  102.28    5.18 
  -3  -6   0  100.08    4.84 
  -3  -6   0   96.32    5.17 
  -3  -6   0  103.77    4.76 
   3   6   0  102.66    4.48 
  -3   6   0  105.35    4.89 
  -3   6   0  104.84    5.01 
   3   6   0  104.40    4.66 
  -3   6   0  119.60    8.56 
  -3   6   0  102.62    4.70 
  -3   6   0  104.54    4.71 
  -4  -6   0  349.26   14.40 
  -4  -6   0  336.46   14.50 
  -4  -6   0  350.88   14.08 
   4  -6   0  362.66   13.66 
  -4  -6   0  347.95   16.78 
  -4   6   0  346.11   13.84 
  -4   6   0  343.77   13.70 
  -4   6   0  358.57   13.91 
  -4   6   0  356.82   14.25 
  -4   6   0  335.71   18.21 
   4   6   0  348.45   13.65 
  -5  -6   0    2.73    0.55 
  -5  -6   0    1.90    0.50 
  -5  -6   0    1.98    0.77 
   5  -6   0    2.98    0.40 
  -5  -6   0    2.87    0.61 
  -5  -6   0    2.58    0.55 
   5   6   0    3.21    0.50 
  -5   6   0    1.28    0.98 
  -5   6   0    1.88    0.45 
   5   6   0    3.62    0.44 
  -5   6   0    2.77    0.46 
  -5   6   0    2.48    0.62 
  -5   6   0    2.65    0.48 
  -6  -6   0    0.11    0.20 
   6  -6   0    0.26    0.18 
  -6  -6   0    0.56    0.21 
  -6  -6   0    0.37    0.19 
  -6  -6   0    0.64    0.30 
   6   6   0   -0.07    0.24 
  -6   6   0    0.21    0.15 
   6   6   0    0.17    0.14 
  -6   6   0    0.24    0.15 
  -6   6   0    0.16    0.18 
   0  -7   0    0.17    0.27 
   0  -7   0    0.73    0.39 
   0   7   0   -0.13    0.22 
  -1  -7   0  255.68   11.40 
   1  -7   0  282.68   11.21 
   1  -7   0  299.02   11.85 
   1   7   0  275.90   11.29 
   1   7   0  311.76   14.90 
  -1   7   0  259.06   11.31 
  -1   7   0  252.93   11.37 
  -1   7   0  315.51   20.55 
   2  -7   0   10.40    0.88 
   2  -7   0    8.66    1.03 
  -2  -7   0    9.28    0.95 
  -2  -7   0   11.30    1.19 
  -2  -7   0    9.59    1.17 
  -2   7   0   11.06    2.31 
   2   7   0    8.32    0.80 
  -2   7   0    8.65    0.98 
  -2   7   0   10.06    0.98 
  -2   7   0    8.45    0.93 
  -2   7   0   11.85    0.99 
   2   7   0    9.07    0.88 
  -3  -7   0   73.67    5.41 
  -3  -7   0   83.83    4.24 
   3  -7   0   83.43    3.67 
   3  -7   0   81.44    3.90 
  -3  -7   0   79.40    4.28 
  -3  -7   0   78.92    3.92 
   3   7   0   76.00    3.39 
  -3   7   0   80.29    3.99 
  -3   7   0   79.99    3.75 
  -3   7   0   78.19    6.87 
  -3   7   0   75.20    3.64 
  -3   7   0   81.47    3.80 
   4  -7   0   28.23    1.55 
  -4  -7   0   24.21    1.79 
   4  -7   0   26.92    1.62 
  -4  -7   0   23.37    2.30 
   4   7   0   26.25    1.58 
   4   7   0   29.34    1.75 
  -4   7   0   23.98    4.74 
  -4   7   0   23.20    1.44 
  -4   7   0   24.19    2.00 
  -5  -7   0   11.44    1.56 
  -5  -7   0   16.97    1.31 
   5  -7   0   13.80    0.98 
  -5  -7   0   14.31    1.22 
  -5   7   0   14.64    0.94 
   5   7   0   14.88    0.79 
   0  -8   0   25.79    2.74 
   0   8   0   18.49    5.21 
   1  -8   0   17.71    1.50 
   1  -8   0   17.29    1.34 
   1  -8   0   15.90    1.43 
  -1  -8   0   18.25    1.56 
  -1  -8   0   16.04    1.50 
  -1   8   0   16.84    1.23 
  -1   8   0   16.01    1.34 
  -1   8   0   20.49    3.04 
   1   8   0   14.76    1.20 
   1   8   0   16.24    2.46 
   2  -8   0  107.98    5.01 
  -2  -8   0  101.94    5.25 
  -2  -8   0  109.97    5.00 
  -2  -8   0  113.99    5.28 
   2  -8   0  112.92    4.79 
  -2   8   0  105.63    4.78 
  -2   8   0  110.58    4.95 
  -2   8   0  110.73    4.93 
  -2   8   0   96.78    7.75 
   2   8   0  108.45    4.82 
   3  -8   0    3.90    0.52 
   3  -8   0    4.04    0.72 
  -3  -8   0    3.98    0.58 
  -3  -8   0    4.40    0.70 
  -3  -8   0    2.03    0.65 
  -3   8   0    3.30    0.55 
   3   8   0    4.57    0.56 
  -3   8   0    4.19    2.06 
  -3   8   0    3.20    0.53 
  -4  -8   0    5.73    0.78 
  -4  -8   0    6.03    0.73 
  -4  -8   0    6.72    0.73 
   4  -8   0    6.73    0.60 
  -4   8   0    5.14    1.46 
  -4   8   0    6.03    0.64 
  -4   8   0    5.47    0.76 
  -4   8   0    6.11    0.61 
   4   8   0    6.78    0.64 
   0  -9   0    0.10    0.28 
   0   9   0    0.15    0.45 
  -1  -9   0    1.15    0.35 
   1  -9   0    1.30    0.40 
   1  -9   0    1.68    0.45 
  -1  -9   0    0.93    0.40 
  -1   9   0    1.65    0.33 
  -1   9   0    1.03    0.38 
  -1   9   0    0.62    0.64 
   2  -9   0   18.91    1.41 
  -2  -9   0   18.64    1.40 
  -2  -9   0   19.26    1.46 
   2  -9   0   19.78    1.13 
   2  -9   0   15.53    1.51 
  -2   9   0   18.77    1.29 
   2   9   0   18.24    1.41 
  -2   9   0   16.32    1.13 
  -2   9   0   16.59    2.54 
   3  -9   0    7.40    0.60 
  -3  -9   0    6.49    0.76 
   3  -9   0    7.94    1.03 
  -3  -9   0    7.20    0.77 
  -3   9   0    8.04    0.65 
   3   9   0    7.14    0.64 
  -3   9   0    8.99    0.90 
  -3   9   0    6.73    0.63 
   0 -10   0   26.51    1.63 
   0 -10   0   27.89    1.83 
  -1 -10   0    1.78    0.37 
   1 -10   0    1.79    0.55 
   1 -10   0    1.81    0.40 
  -1 -10   0    1.89    0.39 
  -2 -10   0    2.86    0.44 
   2 -10   0    3.39    0.45 
  -2 -10   0    2.57    0.38 
  -7   0   1   22.76    1.43 
  -7   0   1   22.88    1.31 
  -6   0   1   32.68    1.89 
  -6   0   1   29.44    1.75 
  -6   0   1   32.18    1.91 
  -6   0   1   30.54    3.06 
  -6   0   1   28.81    2.03 
   5   0  -1   62.93    3.55 
  -5   0   1   64.38    3.06 
   4   0  -1    3.55    0.38 
  -4   0   1    4.18    0.49 
   4   0  -1    5.03    0.69 
  -3   0   1   49.04    2.08 
  -3   0   1   49.78    2.44 
  -3   0   1   47.80    2.03 
   3   0  -1   42.42    1.99 
   3   0  -1   47.22    2.36 
   1   0   1   48.62    1.91 
   1   0   1   47.87    1.89 
   1   0   1   50.78    1.96 
  -1   0  -1   49.82    2.13 
  -3   0  -1  359.02   13.66 
   3   0   1  336.67   13.53 
   3   0   1  357.96   12.85 
   3   0   1  304.87   12.98 
  -4   0  -1   35.80    1.86 
   4   0   1   35.54    2.33 
   4   0   1   39.03    1.82 
  -4   0  -1   38.33    2.46 
  -5   0  -1    2.24    0.80 
  -5   0  -1    3.62    0.51 
   5   0   1    2.83    0.44 
  -6   0  -1    9.16    0.93 
  -6   0  -1    8.95    0.90 
  -6   0  -1   10.11    1.05 
  -6   0  -1    9.20    1.59 
  -6   0  -1    9.55    0.94 
   7   0   1   26.08    1.32 
  -7   0  -1   34.25    1.81 
  -7   0  -1   28.19    1.52 
  -7   0  -1   28.81    1.63 
  -7  -1   1   15.27    1.02 
  -7  -1   1   13.47    1.66 
  -7   1   1   15.48    0.93 
  -6  -1   1   22.00    1.51 
  -6  -1   1   21.07    1.54 
  -6  -1   1   22.37    1.76 
  -6  -1   1   21.56    1.42 
  -6  -1   1   18.46    2.48 
  -6  -1   1   23.79    1.48 
  -6   1   1   21.17    1.45 
  -6   1   1   22.95    1.61 
  -6   1   1   23.22    1.47 
  -5  -1   1   37.77    3.54 
  -5  -1   1   30.72    2.19 
   5  -1  -1   30.11    2.19 
  -5  -1   1   30.74    2.03 
  -5  -1   1   30.27    1.83 
  -5   1   1   29.23    1.71 
   4  -1  -1   10.06    0.69 
   4  -1  -1    9.04    0.94 
   4  -1  -1    9.97    0.74 
  -4  -1   1    8.46    0.78 
  -4   1   1    9.57    1.00 
   4   1  -1    9.13    0.92 
  -4   1   1    9.21    0.75 
  -2  -1   1  297.54   11.75 
  -2  -1   1  318.69   11.62 
  -2   1   1  317.64   11.77 
   2   1  -1  307.86   11.94 
   2   1  -1  308.17   11.61 
  -2   1   1  303.20   11.79 
   2  -1   1   68.93    2.67 
   2  -1   1   68.12    2.74 
  -2  -1  -1   66.30    3.05 
   2   1   1   64.45    2.61 
   2   1   1   61.79    2.96 
   2   1   1   68.77    2.51 
  -2   1  -1   65.07    3.02 
   3  -1   1  230.22    8.78 
  -3  -1  -1  229.03    9.09 
   3   1   1  223.48    9.34 
  -3   1  -1  228.16    9.45 
   4  -1   1   26.92    1.92 
  -4  -1  -1   25.25    1.50 
   4  -1   1   25.74    1.49 
   4   1   1   24.72    1.84 
  -4   1  -1   30.72    2.10 
  -5  -1  -1    2.92    0.59 
  -5  -1  -1    3.79    0.64 
  -5  -1  -1    2.28    0.90 
  -5  -1  -1    2.89    0.46 
  -5  -1  -1    2.05    0.59 
  -5   1  -1    3.56    0.62 
  -5   1  -1    2.86    0.60 
  -6  -1  -1    5.62    0.70 
  -6  -1  -1    6.08    1.33 
  -6  -1  -1    6.28    0.79 
  -6  -1  -1    5.78    0.75 
  -6  -1  -1    7.44    0.92 
  -6   1  -1    5.96    0.69 
   6   1   1    5.86    0.59 
  -6   1  -1    5.28    0.74 
  -6   1  -1    6.25    0.70 
   6   1   1    6.07    0.75 
  -6   1  -1    5.67    0.68 
  -7  -1  -1    2.11    0.40 
  -7  -1  -1    1.57    0.34 
  -7  -1  -1    2.26    0.42 
   7   1   1    1.75    0.36 
  -7   1  -1    1.57    0.35 
  -7   1  -1    2.04    0.32 
  -7  -2   1    4.10    0.54 
  -7  -2   1    3.93    0.93 
  -7  -2   1    3.27    0.65 
   7   2  -1    3.13    0.36 
  -6  -2   1   32.17    1.90 
  -6  -2   1   30.44    1.83 
  -6  -2   1   31.34    2.22 
  -6  -2   1   30.54    2.00 
  -6  -2   1   32.40    1.94 
  -6  -2   1   31.90    3.41 
  -6   2   1   32.05    1.75 
  -6   2   1   29.23    1.74 
  -6   2   1   32.79    1.79 
   6   2  -1   29.30    1.63 
  -5  -2   1   15.38    3.14 
  -5  -2   1   14.59    1.17 
  -5  -2   1   15.16    1.37 
  -5  -2   1   12.16    1.54 
  -5  -2   1   14.48    1.14 
  -5   2   1   13.17    1.11 
  -5   2   1   14.29    1.27 
  -5   2   1   13.62    1.12 
  -5   2   1   14.65    1.12 
   4  -2  -1    9.80    0.74 
  -4  -2   1    7.80    0.87 
   4  -2  -1    8.73    0.75 
   4   2  -1    9.69    0.97 
  -4   2   1    9.52    1.03 
  -3  -2   1  362.22   14.17 
  -3  -2   1  355.08   14.40 
   3  -2  -1  386.93   14.28 
   3  -2  -1  384.37   14.31 
   3   2  -1  362.12   14.55 
  -3   2   1  373.08   14.30 
  -3   2   1  371.75   14.68 
  -2  -2   1  519.91   19.69 
   2  -2   1  204.16    7.50 
   2  -2   1  195.48    7.53 
  -2  -2  -1  191.43    7.28 
   2   2   1  184.06    7.24 
   2   2   1  197.54    7.24 
  -2   2  -1  190.49    7.87 
   2   2   1  185.55    7.76 
   3  -2   1  536.09   19.24 
  -3  -2  -1  470.74   19.35 
   3  -2   1  519.32   19.34 
   3   2   1  501.77   19.72 
  -3   2  -1  491.96   19.87 
   4  -2   1  161.76    6.71 
  -4  -2  -1  163.58    6.75 
   4   2   1  161.60    7.20 
  -4   2  -1  155.75    7.41 
  -5  -2  -1   74.97    3.93 
  -5  -2  -1   73.60    3.61 
  -5  -2  -1   76.97    3.88 
  -5  -2  -1   84.56    5.94 
  -5  -2  -1   75.57    4.11 
  -5  -2  -1   77.76    3.66 
  -5   2  -1   73.55    3.81 
  -5   2  -1   75.88    3.67 
  -5   2  -1   76.63    3.70 
  -5   2  -1   74.54    3.67 
   5   2   1   80.52    3.69 
   5   2   1   72.94    3.34 
  -6  -2  -1    2.63    0.58 
  -6  -2  -1    2.90    0.90 
  -6  -2  -1    2.49    0.58 
  -6  -2  -1    3.64    0.52 
  -6   2  -1    2.46    0.47 
   6   2   1    3.14    0.40 
  -6   2  -1    2.56    0.54 
  -6   2  -1    2.63    0.51 
   6   2   1    3.34    0.53 
  -7  -2  -1    0.98    0.46 
  -7  -2  -1    1.41    0.35 
  -7  -2  -1    1.47    0.33 
  -7  -2  -1    1.23    0.31 
  -7   2  -1    1.33    0.25 
  -7   2  -1    1.90    0.32 
  -7  -3   1    5.01    0.55 
  -7  -3   1    4.55    0.53 
  -7  -3   1    5.12    0.66 
  -7  -3   1    3.94    0.95 
   7   3  -1    4.34    0.39 
  -6  -3   1   48.24    2.49 
  -6  -3   1   46.88    2.88 
  -6  -3   1   50.46    2.74 
  -6  -3   1   50.47    2.56 
  -6  -3   1   41.50    4.03 
   6   3  -1   39.55    2.16 
  -6   3   1   50.57    3.10 
  -6   3   1   45.82    2.24 
   6   3  -1   45.08    2.46 
  -5  -3   1    8.23    0.99 
  -5  -3   1    8.21    1.10 
  -5  -3   1    8.14    0.85 
  -5  -3   1    6.84    0.88 
  -5  -3   1    6.69    1.06 
  -5  -3   1    7.99    1.69 
  -5   3   1    8.08    0.83 
  -5   3   1    6.04    0.80 
   5   3  -1    6.91    0.66 
  -5   3   1    8.61    0.95 
  -5   3   1    7.83    0.81 
   4  -3  -1  107.94    4.46 
  -4  -3   1  101.58    4.59 
   4  -3  -1  101.62    4.47 
  -4   3   1   97.64    4.99 
   4   3  -1   92.44    4.29 
   4   3  -1  106.93    4.84 
  -3  -3   1   54.98    2.71 
   3  -3  -1   58.01    2.65 
   3  -3  -1   58.99    2.62 
  -3  -3   1   60.22    2.54 
   3   3  -1   54.86    2.81 
  -3   3   1   56.53    2.64 
  -3   3   1   55.83    2.98 
  -2  -3   1   55.43    2.45 
  -2   3   1   57.58    2.46 
  -2   3   1   53.67    2.66 
  -1  -3   1  282.89   10.69 
   1  -3  -1  277.01   10.62 
  -1  -3   1  252.57   10.40 
  -1   3   1  264.64   10.58 
   1   3  -1  286.20   10.73 
  -1   3   1  293.45   10.79 
   0  -3   1  392.67   15.02 
   1  -3   1   97.22    3.88 
   1  -3   1   96.52    3.81 
  -1  -3  -1   95.57    3.82 
   1   3   1   95.92    3.95 
   1   3   1   87.05    3.62 
  -1   3  -1   95.71    4.07 
  -1   3  -1   90.99    3.80 
   2  -3   1  166.34    6.48 
   2  -3   1  152.53    6.64 
  -2  -3  -1  159.29    6.26 
   2   3   1  168.28    6.72 
  -2   3  -1  165.02    6.91 
   3  -3   1   12.31    0.84 
  -3  -3  -1   11.38    0.89 
   3  -3   1   12.04    0.86 
   3   3   1   10.72    1.00 
  -3   3  -1   10.60    1.11 
  -4  -3  -1   60.07    2.93 
   4  -3   1   58.35    2.88 
   4   3   1   54.22    2.62 
   4   3   1   58.13    3.24 
  -5  -3  -1  121.50    5.32 
  -5  -3  -1  113.66    5.25 
  -5  -3  -1  113.89    5.58 
  -5  -3  -1  114.38    5.51 
  -5  -3  -1  115.79    5.77 
  -5  -3  -1  117.45    7.75 
  -5   3  -1  122.09    5.23 
  -5   3  -1  120.78    5.28 
   5   3   1  113.93    4.98 
   5   3   1  125.52    5.32 
  -5   3  -1  114.49    5.47 
  -5   3  -1  120.66    5.26 
  -6  -3  -1   17.52    1.32 
  -6  -3  -1   17.77    1.21 
  -6  -3  -1   19.66    1.45 
  -6  -3  -1   17.52    1.46 
  -6  -3  -1   17.24    2.35 
  -6   3  -1   17.24    1.19 
  -6   3  -1   16.62    1.29 
  -6   3  -1   16.61    1.11 
  -6   3  -1   16.72    1.14 
   6   3   1   16.96    1.08 
  -7  -3  -1    2.11    0.38 
  -7  -3  -1    1.02    0.37 
  -7   3  -1    1.75    0.33 
   7   3   1    1.82    0.23 
  -7  -4   1   10.96    1.57 
  -7  -4   1   11.69    0.92 
  -7  -4   1   10.87    0.76 
   7   4  -1   10.62    0.66 
  -6  -4   1    1.69    0.45 
  -6  -4   1    2.33    0.51 
  -6  -4   1    3.52    0.61 
  -6  -4   1    1.59    0.70 
   6   4  -1    2.85    0.41 
  -6   4   1    2.96    0.48 
   6   4  -1    2.96    0.63 
  -6   4   1    3.27    0.56 
  -6   4   1    2.00    0.39 
  -5  -4   1   27.27    2.05 
  -5  -4   1   26.19    1.83 
  -5  -4   1   27.85    2.19 
  -5  -4   1   28.34    1.85 
  -5  -4   1   34.21    3.64 
  -5   4   1   27.32    1.73 
  -5   4   1   26.52    1.76 
  -5   4   1   28.55    1.93 
   5   4  -1   27.83    1.58 
  -5   4   1   28.31    3.56 
  -4  -4   1    7.13    0.75 
   4  -4  -1    6.56    0.73 
  -4  -4   1    4.30    1.83 
   4  -4  -1    7.29    0.75 
  -4   4   1    5.69    0.93 
   4   4  -1    6.92    0.84 
   3  -4  -1   18.00    1.15 
  -3  -4   1   18.30    1.29 
   3  -4  -1   17.74    1.16 
   3   4  -1   18.58    1.30 
  -3   4   1   17.80    1.13 
   3   4  -1   16.05    1.05 
  -3   4   1   16.28    1.42 
   2  -4  -1   54.85    2.46 
  -2  -4   1   48.69    2.43 
   2  -4  -1   50.12    2.41 
  -2   4   1   54.30    2.76 
  -2   4   1   54.40    2.44 
   2   4  -1   53.57    2.58 
   1  -4  -1   98.57    4.12 
  -1  -4   1   98.40    4.20 
  -1  -4   1   99.32    3.86 
   1   4  -1  101.28    4.24 
  -1   4   1  106.19    4.34 
  -1   4   1   89.89    4.11 
   0  -4  -1  255.51    9.95 
   0  -4   1  241.20    9.78 
   0   4  -1  278.98   10.14 
   0   4   1  221.24    9.76 
   0   4   1  278.03   10.06 
  -1  -4  -1  446.21   17.95 
  -1  -4  -1  444.28   18.25 
   1  -4   1  470.32   18.36 
   1  -4   1  478.28   18.20 
   1   4   1  506.59   18.41 
   1   4   1  472.16   17.97 
  -1   4  -1  523.37   18.65 
   2  -4   1  231.96    9.16 
  -2  -4  -1  224.52    8.98 
  -2  -4  -1  224.89    9.22 
   2  -4   1  234.69    9.25 
   2   4   1  241.46    9.40 
  -2   4  -1  229.23    9.68 
   3  -4   1   15.15    1.10 
   3  -4   1   15.44    1.13 
  -3  -4  -1   15.19    1.12 
   3   4   1   15.16    1.24 
  -3   4  -1   15.21    1.44 
  -4  -4  -1  195.85   10.40 
  -4  -4  -1  177.62    7.76 
  -4  -4  -1  176.91    7.85 
  -4  -4  -1  170.78    7.51 
  -4  -4  -1  174.47    7.92 
   4  -4   1  169.22    7.74 
  -4  -4  -1  172.99    7.94 
   4   4   1  161.92    7.55 
  -4   4  -1  181.60    7.44 
  -4   4  -1  182.89    7.48 
  -4   4  -1  180.52    7.79 
   4   4   1  164.95    7.27 
  -4   4  -1  183.54    7.38 
  -5  -4  -1   44.48    2.80 
  -5  -4  -1   48.38    2.79 
  -5  -4  -1   47.46    2.96 
  -5  -4  -1   45.72    2.53 
  -5  -4  -1   48.23    4.45 
   5   4   1   47.34    2.32 
  -5   4  -1   46.02    2.39 
  -5   4  -1   44.83    2.42 
  -5   4  -1   45.37    2.47 
  -5   4  -1   46.40    2.71 
  -6  -4  -1   35.70    1.98 
  -6  -4  -1   32.42    2.09 
  -6  -4  -1   30.66    3.15 
   6  -4   1   30.49    1.51 
  -6  -4  -1   33.28    2.02 
  -6  -4  -1   30.93    1.77 
  -6   4  -1   32.04    1.73 
   6   4   1   35.59    1.69 
  -6   4  -1   33.15    1.85 
   6   4   1   25.95    1.69 
  -6   4  -1   31.95    1.69 
  -6   4  -1   33.04    1.92 
  -6  -5   1   16.99    1.35 
  -6  -5   1   15.81    1.25 
  -6  -5   1   15.32    1.08 
   6  -5  -1   14.15    0.89 
  -6  -5   1   15.52    1.12 
  -6  -5   1   12.33    1.86 
  -6   5   1   14.05    1.03 
  -6   5   1   16.22    1.19 
   6   5  -1   15.56    1.08 
  -6   5   1   16.03    0.98 
   6   5  -1   16.54    0.97 
  -5  -5   1   37.73    2.19 
  -5  -5   1   35.96    2.28 
  -5  -5   1   37.48    2.49 
  -5  -5   1   36.09    2.46 
  -5  -5   1   35.47    2.18 
  -5  -5   1   36.39    3.74 
  -5   5   1   40.31    4.33 
  -5   5   1   38.25    2.34 
  -5   5   1   36.57    2.05 
   5   5  -1   37.82    2.15 
  -5   5   1   37.03    2.01 
   5   5  -1   37.06    1.95 
  -4  -5   1   21.65    2.82 
  -4  -5   1   20.36    1.74 
  -4  -5   1   19.72    1.68 
  -4  -5   1   21.23    1.50 
  -4  -5   1   20.74    1.52 
  -4  -5   1   21.04    1.77 
  -4   5   1   20.62    1.62 
   4   5  -1   20.93    1.29 
  -4   5   1   21.80    1.43 
  -4   5   1   21.30    3.18 
  -4   5   1   21.49    1.40 
   3  -5  -1   69.96    3.55 
  -3  -5   1   68.80    3.29 
   3  -5  -1   64.32    2.97 
   3   5  -1   68.32    3.06 
   3   5  -1   67.65    4.58 
  -3   5   1   67.10    3.77 
   2  -5  -1  100.98    4.55 
  -2  -5   1  105.22    4.52 
   2  -5  -1  109.17    4.50 
  -2  -5   1   99.32    4.55 
  -2   5   1  105.08    5.24 
  -2   5   1  107.04    4.49 
   2   5  -1  109.07    4.71 
   2   5  -1   95.85    4.30 
  -1  -5   1   49.97    2.44 
   1  -5  -1   48.48    2.40 
   1  -5  -1   44.52    2.21 
   1   5  -1   52.15    2.50 
  -1   5   1   48.40    2.53 
  -1   5   1   46.51    2.24 
   0  -5   1   41.50    2.21 
   0  -5   1   40.86    2.02 
   0   5  -1   45.03    2.30 
   0   5   1   42.91    1.95 
   0   5   1   44.29    2.23 
  -1  -5  -1  249.14   11.25 
  -1  -5  -1  286.40   11.36 
   1  -5   1  286.19   11.23 
   1  -5   1  289.59   11.50 
   1   5   1  292.10   11.23 
  -1   5  -1  305.77   11.76 
   1   5   1  301.75   11.48 
   2  -5   1  196.89    7.84 
   2  -5   1  185.27    7.59 
   2  -5   1  197.56    8.04 
  -2  -5  -1  179.04    7.95 
   2   5   1  207.84    8.10 
  -2   5  -1  198.49    8.49 
   2   5   1  179.74    7.87 
   2   5   1  191.19    7.65 
   3  -5   1   42.62    2.41 
  -3  -5  -1   43.80    2.35 
   3  -5   1   41.25    2.01 
   3  -5   1   43.31    2.34 
   3   5   1   42.77    2.12 
  -3   5  -1   40.26    2.87 
   3   5   1   42.06    2.26 
   3   5   1   45.77    2.56 
  -4  -5  -1   73.49    5.65 
  -4  -5  -1   70.59    3.87 
  -4  -5  -1   66.32    3.84 
  -4  -5  -1   69.83    3.57 
   4  -5   1   68.75    3.11 
  -4  -5  -1   69.34    3.85 
  -4  -5  -1   73.22    3.58 
   4   5   1   73.88    3.29 
  -4   5  -1   72.89    3.37 
  -4   5  -1   71.02    3.41 
  -4   5  -1   71.73    3.75 
  -4   5  -1   68.06    3.43 
  -4   5  -1   74.01    6.42 
   4   5   1   73.76    3.52 
  -5  -5  -1   35.08    2.40 
  -5  -5  -1   37.65    2.45 
   5  -5   1   38.51    1.86 
  -5  -5  -1   38.21    2.19 
  -5  -5  -1   38.52    2.39 
  -5  -5  -1   40.57    3.92 
  -5  -5  -1   37.20    2.21 
  -5   5  -1   38.75    2.15 
  -5   5  -1   38.07    2.07 
   5   5   1   38.25    1.98 
  -5   5  -1   38.81    2.11 
   5   5   1   40.88    2.19 
  -5   5  -1   40.00    2.39 
  -6  -5  -1   27.51    1.84 
  -6  -5  -1   23.19    1.39 
  -6  -5  -1   18.62    2.82 
  -6  -5  -1   24.47    1.57 
  -6  -5  -1   24.74    1.40 
   6  -5   1   22.28    1.16 
  -6   5  -1   21.93    1.27 
   6   5   1   22.65    1.42 
  -6   5  -1   24.31    1.45 
   6   5   1   22.39    1.33 
  -6   5  -1   23.77    1.26 
  -6  -6   1    2.06    0.41 
   6  -6  -1    2.62    0.32 
  -6  -6   1    2.10    0.37 
  -6  -6   1    2.03    0.38 
  -6  -6   1    1.47    0.54 
   6   6  -1    1.07    0.26 
   6   6  -1    1.83    0.26 
  -6   6   1    1.43    0.27 
  -6   6   1    1.77    0.36 
  -6   6   1    1.90    0.30 
  -5  -6   1  126.61    5.34 
  -5  -6   1  108.78    7.06 
  -5  -6   1  118.30    5.65 
   5  -6  -1  110.45    4.94 
  -5  -6   1  123.50    5.32 
  -5  -6   1  121.06    5.55 
  -5   6   1  110.88    7.83 
  -5   6   1  123.06    5.10 
  -5   6   1  127.45    5.20 
  -5   6   1  121.80    5.43 
  -4  -6   1  132.11    6.34 
  -4  -6   1  138.52    6.13 
  -4  -6   1  137.97    6.59 
  -4  -6   1  128.88    6.25 
   4  -6  -1  136.90    5.78 
  -4  -6   1  145.61    6.08 
  -4  -6   1  144.73    8.47 
  -4   6   1  138.25    6.27 
  -4   6   1  139.89    5.92 
  -4   6   1  120.23    9.23 
   4   6  -1  142.87    5.99 
  -4   6   1  139.77    5.98 
  -3  -6   1   77.21    5.52 
  -3  -6   1   83.70    4.07 
  -3  -6   1   83.13    3.96 
  -3  -6   1   82.04    4.45 
   3  -6  -1   86.80    3.77 
  -3   6   1   82.71    3.91 
  -3   6   1   87.34    3.97 
   3   6  -1   84.95    3.89 
  -3   6   1   85.36    4.20 
  -3   6   1   89.47    7.26 
   3   6  -1   86.33    3.74 
  -2  -6   1  283.99   11.62 
   2  -6  -1  298.45   11.55 
   2  -6  -1  292.90   11.91 
  -2  -6   1  289.11   11.82 
   2  -6  -1  270.16   11.84 
   2   6  -1  309.14   12.00 
   2   6  -1  297.59   11.54 
  -2   6   1  293.95   12.31 
   2   6  -1  291.75   11.39 
  -1  -6   1   46.92    2.53 
   1  -6  -1   44.38    2.27 
   1  -6  -1   50.38    2.36 
   1  -6  -1   44.26    2.50 
   1   6  -1   47.25    2.57 
  -1   6   1   46.44    2.29 
  -1   6   1   48.45    2.69 
   0  -6   1   13.61    0.97 
   0  -6  -1   13.68    0.99 
   0  -6  -1   11.42    0.83 
   0  -6  -1   13.47    1.11 
   0  -6   1   12.70    0.87 
   0   6  -1   14.52    1.19 
   0   6   1   13.59    1.11 
   1  -6   1   35.95    2.17 
  -1  -6  -1   36.14    2.05 
   1  -6   1   34.94    1.87 
   1  -6   1   36.18    1.92 
   1   6   1   37.68    2.14 
  -1   6  -1   37.01    2.33 
   1   6   1   37.39    1.87 
   2  -6   1   35.26    2.22 
   2  -6   1   36.52    2.05 
   2  -6   1   35.56    1.90 
   2   6   1   43.77    2.34 
   2   6   1   35.18    1.82 
  -2   6  -1   36.72    2.53 
   2   6   1   37.01    1.98 
   3  -6   1   88.28    3.85 
  -3  -6  -1   88.33    6.26 
  -3  -6  -1   90.97    4.64 
  -3  -6  -1   88.88    4.15 
  -3  -6  -1   87.88    4.27 
  -3  -6  -1   80.78    4.52 
  -3   6  -1   89.18    4.01 
  -3   6  -1   90.11    4.08 
  -3   6  -1   88.30    4.35 
  -3   6  -1   87.90    7.29 
   3   6   1   85.80    3.83 
   3   6   1   88.13    4.03 
  -3   6  -1   87.29    4.06 
  -4  -6  -1  156.03    6.57 
  -4  -6  -1  146.96    6.97 
  -4  -6  -1  147.31    8.94 
  -4  -6  -1  149.04    6.63 
   4  -6   1  157.13    6.21 
  -4  -6  -1  144.79    6.75 
  -4  -6  -1  150.08    6.92 
  -4   6  -1  149.39    6.75 
  -4   6  -1  149.76    6.40 
   4   6   1  153.59    6.22 
   4   6   1  150.90    6.45 
  -4   6  -1  153.46    6.44 
  -4   6  -1  148.32    9.99 
  -4   6  -1  147.03    6.30 
   5  -6   1   21.38    1.21 
  -5  -6  -1   18.95    2.38 
  -5  -6  -1   17.55    1.43 
  -5  -6  -1   21.20    1.54 
  -5  -6  -1   22.86    1.50 
  -5  -6  -1   19.77    1.60 
  -5   6  -1   21.84    1.33 
  -5   6  -1   20.78    1.26 
  -5   6  -1   23.25    1.37 
   5   6   1   21.85    1.38 
  -5   6  -1   21.50    1.51 
   5   6   1   22.60    1.44 
   5   6   1   23.04    1.23 
  -6  -6  -1    9.42    0.84 
  -6  -6  -1    8.54    0.65 
  -6  -6  -1    8.99    0.66 
   6   6   1    9.09    0.62 
  -6   6  -1    8.15    0.56 
  -6   6  -1    8.02    0.74 
  -6   6  -1    8.43    0.70 
  -5  -7   1   11.05    1.55 
  -5  -7   1   13.49    1.16 
  -5  -7   1   12.81    0.98 
   5  -7  -1   12.87    1.17 
  -5  -7   1   11.90    0.93 
   5   7  -1   12.99    0.75 
   5   7  -1   11.77    0.89 
  -5   7   1   11.37    1.85 
  -5   7   1   13.39    1.05 
   5   7  -1   13.26    0.99 
  -5   7   1   13.33    0.92 
  -5   7   1   12.76    0.88 
  -4  -7   1  125.97    5.98 
  -4  -7   1  127.60    5.69 
  -4  -7   1  128.45    5.60 
   4  -7  -1  128.77    5.35 
  -4   7   1  106.34    5.42 
  -4   7   1  130.04    5.44 
   4   7  -1  128.71    5.37 
  -4   7   1  127.02    5.68 
   4   7  -1  127.39    5.35 
  -4   7   1  117.81    8.61 
  -3  -7   1   44.72    2.78 
  -3  -7   1   44.80    2.56 
  -3  -7   1   43.41    2.86 
  -3   7   1   45.73    2.46 
  -3   7   1   46.39    2.43 
  -3   7   1   43.43    2.58 
   3   7  -1   44.04    2.31 
   3   7  -1   46.35    3.00 
  -3   7   1   44.47    5.00 
  -2  -7   1   59.80    3.53 
  -2  -7   1   66.00    3.53 
  -2  -7   1   61.15    3.22 
   2  -7  -1   62.29    3.27 
   2  -7  -1   62.77    3.06 
  -2   7   1   62.55    3.19 
  -2   7   1   63.89    3.14 
  -2   7   1   64.45    3.32 
  -2   7   1   72.37    6.26 
  -2   7   1   59.26    3.07 
   1  -7  -1    7.34    0.77 
   1  -7  -1    5.35    0.94 
  -1   7   1    9.60    1.04 
  -1   7   1    9.40    1.13 
   1   7  -1    6.65    0.84 
   1   7  -1    9.25    1.79 
   0  -7   1   16.89    1.18 
   0  -7   1   16.36    1.48 
   0  -7  -1   17.93    1.53 
   0  -7  -1   19.28    1.64 
   0  -7  -1   17.19    1.21 
   0   7   1   17.90    2.70 
   0   7   1   17.76    1.48 
   0   7  -1   18.43    2.77 
   0   7  -1   16.68    1.36 
   0   7   1   16.68    1.22 
  -1  -7  -1   12.60    1.32 
  -1  -7  -1   12.89    1.28 
   1  -7   1   13.29    1.00 
  -1   7  -1   12.51    1.13 
  -2  -7  -1    1.28    0.48 
  -2  -7  -1    1.27    0.50 
   2  -7   1    0.72    0.28 
   2  -7   1    1.71    0.51 
  -2  -7  -1    1.87    0.51 
  -2   7  -1    1.48    0.38 
   2   7   1    1.42    0.36 
  -2   7  -1    0.88    0.39 
  -2   7  -1    2.13    0.46 
   2   7   1    1.63    0.40 
  -2   7  -1    2.19    1.28 
  -2   7  -1    0.90    0.39 
  -3  -7  -1    0.93    0.41 
  -3  -7  -1    1.06    0.52 
  -3  -7  -1    1.41    0.72 
   3  -7   1    1.28    0.33 
  -3   7  -1    1.15    0.36 
  -3   7  -1    1.88    0.46 
   3   7   1    1.48    0.42 
  -3   7  -1    1.29    0.41 
  -3   7  -1    1.85    0.40 
  -3   7  -1    2.45    1.21 
   3   7   1    0.77    0.29 
  -4  -7  -1    8.61    0.92 
  -4  -7  -1    6.01    0.85 
   4  -7   1    7.04    0.77 
  -4  -7  -1    4.71    1.21 
  -4  -7  -1    6.71    0.77 
   4   7   1    6.26    0.55 
   4   7   1    6.50    0.72 
  -4   7  -1    5.34    0.62 
  -4   7  -1    6.76    1.65 
  -4   7  -1    6.88    0.72 
  -4   7  -1    7.46    0.71 
  -4   7  -1    6.42    0.80 
  -5  -7  -1   11.05    0.98 
  -5  -7  -1   11.69    0.89 
  -5  -7  -1   10.30    0.87 
  -5   7  -1   12.94    0.84 
  -5   7  -1   11.77    0.93 
   5   7   1   10.17    0.83 
  -5   7  -1   10.96    0.79 
  -4  -8   1  102.04    4.34 
  -4  -8   1   96.52    4.60 
  -4  -8   1   92.91    4.26 
   4  -8  -1  100.59    4.22 
  -4   8   1   86.86    6.43 
  -4   8   1   95.63    4.22 
   4   8  -1  101.67    4.28 
  -4   8   1   95.75    4.34 
  -4   8   1   99.01    4.23 
  -3  -8   1   26.94    1.68 
   3  -8  -1   26.14    1.57 
  -3  -8   1   25.03    1.76 
  -3   8   1   19.91    4.23 
  -3   8   1   25.80    1.67 
   3   8  -1   25.92    1.59 
  -2  -8   1   64.90    3.27 
   2  -8  -1   65.99    3.15 
  -2  -8   1   66.17    3.65 
   2  -8  -1   60.47    3.26 
  -2  -8   1   66.97    3.54 
  -2   8   1   68.14    3.22 
  -2   8   1   61.97    5.85 
  -2   8   1   67.68    3.33 
   2   8  -1   63.67    3.13 
  -2   8   1   65.60    3.28 
   1  -8  -1   60.23    3.26 
  -1  -8   1   57.15    3.22 
   1  -8  -1   57.02    3.04 
  -1  -8   1   56.21    3.27 
   1  -8  -1   55.49    3.09 
  -1   8   1   57.94    2.90 
  -1   8   1   57.66    3.04 
   1   8  -1   50.54    4.92 
  -1   8   1   62.40    5.66 
   0   8   1   15.91    2.57 
  -1  -8  -1   32.15    2.17 
  -1  -8  -1   30.82    2.12 
   1  -8   1   28.97    1.67 
   1  -8   1   28.51    2.01 
  -1   8  -1   29.04    3.79 
  -1   8  -1   29.89    1.91 
  -1   8  -1   29.92    1.74 
  -2  -8  -1    3.32    0.62 
   2  -8   1    3.99    0.68 
  -2  -8  -1    2.54    0.60 
  -2  -8  -1    4.69    0.78 
   2  -8   1    4.64    0.57 
  -2   8  -1    2.65    1.37 
  -2   8  -1    3.58    0.62 
  -2   8  -1    3.51    0.63 
  -2   8  -1    2.41    0.46 
   2   8   1    3.12    0.53 
  -2   8  -1    3.80    0.53 
  -3  -8  -1    0.30    0.32 
  -3  -8  -1    0.27    0.30 
  -3  -8  -1    0.22    0.25 
   3  -8   1    0.52    0.28 
  -3   8  -1    0.40    0.23 
   3   8   1    0.14    0.17 
  -3   8  -1    0.27    0.60 
   3   8   1   -0.56    0.27 
  -3   8  -1    0.21    0.26 
  -3   8  -1   -0.05    0.17 
  -3   8  -1    0.25    0.18 
   4  -8   1    6.66    0.67 
  -4  -8  -1    5.81    0.71 
  -4  -8  -1    5.73    0.87 
   4  -8   1    8.15    0.99 
  -4   8  -1    6.48    0.67 
  -4   8  -1    4.15    1.11 
  -4   8  -1    4.88    0.75 
  -4   8  -1    6.98    0.84 
   4   8   1    5.25    0.75 
   3  -9  -1    4.67    0.50 
  -3  -9   1    6.53    0.89 
  -3  -9   1    3.36    0.60 
   3  -9  -1    5.88    0.98 
  -3   9   1    2.92    1.20 
  -3   9   1    5.13    0.86 
  -3   9   1    4.21    0.51 
  -3   9   1    4.95    0.55 
   3   9  -1    4.56    0.51 
  -2  -9   1    2.40    0.55 
   2  -9  -1    1.95    0.45 
   2  -9  -1    3.14    0.47 
  -2  -9   1    1.91    0.46 
  -2   9   1    3.05    0.51 
  -2   9   1    2.80    0.47 
  -2   9   1    3.11    1.14 
   2   9  -1    3.32    0.66 
  -2   9   1    3.68    0.55 
  -1  -9   1   14.62    1.27 
  -1  -9   1   16.80    1.35 
   1  -9  -1   14.29    1.24 
   1  -9  -1   15.50    1.29 
  -1   9   1   15.02    1.18 
  -1   9   1   12.83    2.25 
  -1   9   1   14.15    1.05 
   1   9  -1   13.50    2.05 
   0  -9   1   17.43    1.39 
   0  -9  -1   17.37    1.34 
   0  -9  -1   16.20    1.18 
   0  -9   1   16.89    1.60 
   0   9  -1   17.13    2.55 
   0   9   1   16.62    1.13 
   1  -9   1    8.34    0.89 
  -1  -9  -1    7.57    0.86 
  -1  -9  -1    8.14    0.94 
   1  -9   1    8.22    0.88 
  -1   9  -1    9.69    0.78 
  -1   9  -1    9.90    0.88 
  -1   9  -1    7.94    1.77 
   1   9   1    7.10    0.77 
  -2  -9  -1   17.00    1.38 
   2  -9   1   19.14    1.36 
  -2  -9  -1   15.31    1.27 
   2  -9   1   15.26    1.70 
  -2   9  -1   17.69    1.22 
  -2   9  -1   16.83    1.18 
  -2   9  -1   16.50    2.51 
   2   9   1   17.17    1.17 
   3  -9   1    5.59    0.56 
   3  -9   1    4.57    0.46 
  -3  -9  -1    4.38    0.60 
  -3  -9  -1    4.19    0.57 
   3  -9   1    4.80    0.61 
  -3   9  -1    4.63    0.53 
  -3   9  -1    4.18    0.48 
  -3   9  -1    3.84    1.00 
  -3   9  -1    3.92    0.64 
   3   9   1    4.33    0.49 
  -2 -10   1    7.94    0.63 
  -2 -10   1    8.86    1.03 
   2 -10  -1    7.61    0.67 
   2 -10  -1    7.56    0.56 
  -2  10   1    5.76    1.13 
  -2  10   1    7.42    0.52 
  -1 -10   1    6.68    0.70 
  -1 -10   1    7.19    0.69 
   1 -10  -1    6.86    0.62 
   1 -10  -1    7.53    0.76 
  -1  10   1    8.08    0.55 
   0 -10  -1    3.24    0.52 
   0 -10   1    3.21    0.55 
   0 -10   1    2.92    0.48 
  -1 -10  -1    1.39    0.37 
   1 -10   1    1.03    0.32 
  -1 -10  -1    1.15    0.29 
   1 -10   1    0.98    0.28 
  -1  10  -1    1.51    0.68 
  -2 -10  -1    6.64    0.74 
  -2 -10  -1    5.16    0.66 
   2 -10   1    6.08    0.62 
  -2  10  -1    5.06    1.05 
  -7   0   2   39.67    2.19 
  -7   0   2   45.61    2.45 
  -6   0   2   23.98    1.80 
  -6   0   2   23.43    1.59 
  -6   0   2   26.14    2.84 
  -5   0   2   61.55    3.01 
  -4   0   2  208.68    8.50 
   4   0  -2  214.89    8.34 
   4   0  -2  200.96    8.71 
  -4   0   2  216.11    8.36 
  -3   0   2  334.81   12.99 
  -3   0   2  345.89   12.88 
   3   0  -2  330.96   13.17 
  -2   0   2   15.94    0.89 
  -2   0   2   15.62    0.84 
   2   0  -2   14.78    0.84 
  -2   0   2   17.08    0.77 
   2   0   2  448.31   17.00 
  -2   0  -2  448.00   17.41 
  -4   0  -2   15.37    1.05 
   4   0   2   16.28    1.07 
  -4   0  -2   18.99    1.62 
   4   0   2   16.49    1.47 
  -5   0  -2   85.84    4.25 
  -5   0  -2   84.84    4.24 
  -5   0  -2   89.12    4.19 
  -5   0  -2   91.59    5.91 
  -5   0  -2   88.95    4.43 
  -6   0  -2   35.14    2.10 
  -6   0  -2   36.74    2.14 
  -6   0  -2   33.68    2.34 
  -6   0  -2   40.68    2.15 
   6   0   2   36.77    1.91 
  -7   0  -2   37.87    1.88 
  -7   0  -2   29.90    1.58 
  -7   0  -2   30.64    1.59 
  -7  -1   2   22.04    1.25 
  -7  -1   2   20.58    1.77 
  -7  -1   2   16.63    2.18 
  -6  -1   2  146.05    6.61 
  -6  -1   2  157.70    6.68 
  -6  -1   2  161.22    7.14 
  -6  -1   2  157.10    9.07 
  -6  -1   2  157.57    6.75 
  -6   1   2  149.99    6.76 
  -6   1   2  156.41    6.54 
  -5  -1   2    1.38    0.50 
  -5  -1   2    0.41    0.58 
  -5  -1   2    1.85    0.49 
   5  -1  -2    1.14    0.51 
  -5   1   2    1.39    0.37 
   5   1  -2    0.89    0.46 
   4  -1  -2   83.81    3.56 
  -4  -1   2   80.10    3.70 
   4  -1  -2   84.66    3.54 
   4  -1  -2   76.47    3.86 
  -4  -1   2   81.79    3.50 
  -4   1   2   80.19    3.95 
   4   1  -2   83.38    3.90 
  -4   1   2   81.14    3.53 
  -4   1   2   81.91    3.55 
  -4   1   2   79.52    3.61 
  -3  -1   2  278.68   11.02 
  -3  -1   2  290.82   10.81 
   3  -1  -2  266.81   11.20 
   3   1  -2  279.44   11.22 
   3   1  -2  296.17   10.80 
  -3   1   2  280.00   11.27 
  -3   1   2  295.50   11.07 
  -3   1   2  290.10   11.00 
  -2  -1   2  211.07    8.04 
  -2  -1   2  214.89    8.22 
  -2   1   2  216.41    8.18 
  -2   1   2  206.46    8.27 
  -2   1   2  216.72    8.24 
   2   1  -2  207.84    8.29 
   2  -1   2   86.64    3.51 
  -2  -1  -2   88.72    3.88 
   2  -1   2   83.82    3.41 
   2   1   2   88.44    3.40 
   2   1   2   82.16    3.76 
  -2   1  -2   82.96    3.83 
   3  -1   2   83.23    3.50 
  -3  -1  -2   86.39    3.68 
   3  -1   2   88.58    3.67 
   3   1   2   85.77    3.48 
   3   1   2   83.18    4.06 
  -3   1  -2   87.71    4.20 
   4  -1   2   11.65    0.92 
   4  -1   2   14.26    1.31 
  -4  -1  -2   12.09    0.92 
   4   1   2   11.99    1.21 
  -5  -1  -2   74.89    3.86 
  -5  -1  -2   78.37    4.09 
  -5  -1  -2   75.72    3.54 
  -5  -1  -2   78.53    3.90 
  -5  -1  -2   74.18    3.75 
  -5  -1  -2   82.18    5.68 
  -5   1  -2   73.46    3.75 
  -5   1  -2   72.39    3.81 
  -5   1  -2   77.00    3.77 
  -5   1  -2   81.65    3.79 
   5   1   2   75.66    3.55 
  -5   1  -2   77.78    3.91 
  -6  -1  -2    1.26    0.60 
  -6  -1  -2    1.57    0.40 
  -6  -1  -2    0.83    0.59 
  -6  -1  -2    0.87    0.39 
  -6  -1  -2    0.70    0.33 
  -6   1  -2    0.62    0.36 
  -6   1  -2    0.45    0.27 
  -6   1  -2    0.64    0.26 
  -6   1  -2    1.71    0.45 
  -7  -1  -2    6.42    0.55 
  -7  -1  -2    6.74    0.58 
  -7  -1  -2    6.45    0.78 
   7   1   2    5.90    0.43 
  -7   1  -2    6.72    0.64 
  -7   1  -2    5.93    0.59 
  -7  -2   2   17.50    1.05 
  -7  -2   2   17.65    1.12 
  -7  -2   2   14.94    1.77 
   7   2  -2   15.89    0.92 
  -6  -2   2   17.40    2.49 
  -6  -2   2   20.76    1.43 
  -6  -2   2   18.75    1.44 
  -6  -2   2   18.03    1.37 
  -6  -2   2   18.85    1.63 
  -5  -2   2   18.71    1.66 
  -5  -2   2   25.32    1.77 
  -5  -2   2   22.41    1.64 
  -5  -2   2   23.98    4.03 
  -5   2   2   25.60    1.56 
  -5   2   2   26.25    1.68 
   4  -2  -2  159.53    7.57 
   4  -2  -2  185.99    7.32 
  -4  -2   2  179.20    7.69 
   4  -2  -2  176.70    7.42 
   4   2  -2  181.27    7.62 
  -4   2   2  186.03    7.31 
  -4   2   2  185.88    7.38 
  -4   2   2  178.54    7.74 
  -3  -2   2   44.93    2.20 
   3  -2  -2   45.87    2.11 
  -3  -2   2   41.20    2.05 
  -3   2   2   48.09    2.11 
  -3   2   2   45.63    2.11 
  -3   2   2   41.56    2.26 
   3   2  -2   46.13    2.26 
   2  -2  -2  228.71    8.84 
  -2  -2   2  225.90    8.85 
   2   2  -2  228.28    8.92 
  -2   2   2  219.26    8.84 
  -2   2   2  229.30    8.93 
  -2   2   2  233.50    8.83 
   1  -2   2   47.02    2.10 
   1  -2   2   50.62    2.10 
  -1  -2  -2   50.61    1.96 
  -1   2  -2   50.06    2.30 
   1   2   2   45.96    1.96 
   1   2   2   48.97    2.20 
   2  -2   2    3.28    0.32 
   2  -2   2    2.31    0.30 
   2   2   2    2.82    0.21 
  -2   2  -2    2.48    0.40 
   2   2   2    1.97    0.33 
   3  -2   2  308.98   11.85 
  -3  -2  -2  295.13   11.83 
   3  -2   2  298.89   11.73 
  -3   2  -2  304.93   12.47 
   3   2   2  302.07   12.25 
   4  -2   2   95.71    4.16 
  -4  -2  -2   89.92    4.08 
   4   2   2   90.78    4.60 
   4   2   2   88.69    4.07 
  -4   2  -2   88.43    4.82 
  -5  -2  -2  216.57    9.05 
  -5  -2  -2  233.96   11.65 
  -5  -2  -2  207.32    9.03 
  -5  -2  -2  209.17    8.67 
  -5  -2  -2  210.03    8.81 
  -5  -2  -2  202.46    8.60 
  -5  -2  -2  213.52    9.27 
   5   2   2  180.37    8.56 
  -5   2  -2  217.10    8.81 
  -5   2  -2  201.04    8.94 
  -5   2  -2  215.51    8.80 
  -5   2  -2  216.32    8.82 
   5   2   2  211.12    8.41 
  -6  -2  -2   14.35    2.02 
  -6  -2  -2   13.23    1.69 
  -6  -2  -2   13.20    1.59 
  -6  -2  -2   12.28    1.12 
   6   2   2   11.97    0.98 
  -6   2  -2   12.73    1.04 
  -6   2  -2   14.14    1.04 
   6   2   2   14.05    0.90 
  -6   2  -2   14.04    1.18 
  -6   2  -2   14.08    1.03 
  -7  -2  -2    0.80    0.31 
  -7  -2  -2    0.79    0.27 
  -7  -2  -2    1.31    0.42 
  -7   2  -2    0.97    0.19 
   7   2   2    1.18    0.22 
  -7   2  -2    1.13    0.20 
  -7  -3   2   29.08    1.77 
  -7  -3   2   31.07    1.72 
  -7  -3   2   27.21    1.50 
   7   3  -2   24.44    1.32 
  -6  -3   2   28.34    1.72 
  -6  -3   2   26.45    1.66 
  -6  -3   2   27.47    2.02 
  -6  -3   2   23.42    2.93 
  -6  -3   2   26.67    1.83 
  -6   3   2   21.71    1.92 
   6   3  -2   22.35    1.37 
  -5  -3   2    7.11    0.84 
  -5  -3   2    9.49    1.88 
  -5  -3   2    6.45    0.77 
  -5  -3   2    6.33    0.85 
  -5  -3   2    6.47    0.98 
  -5   3   2    9.64    1.89 
   5   3  -2    6.55    0.68 
  -5   3   2    6.37    0.83 
  -5   3   2    7.40    0.77 
  -5   3   2    6.88    0.77 
  -4  -3   2    8.86    0.85 
   4  -3  -2    9.22    0.80 
   4  -3  -2    9.94    0.82 
  -4   3   2    9.80    0.81 
   4   3  -2   10.59    0.96 
   4   3  -2    8.73    0.77 
  -4   3   2    8.42    0.97 
  -3  -3   2  135.07    5.78 
  -3  -3   2  132.67    5.66 
   3  -3  -2  142.61    5.69 
  -3   3   2  133.31    5.94 
  -3   3   2  140.72    5.69 
   3   3  -2  141.70    5.87 
   2  -3  -2  334.25   12.78 
  -2  -3   2  328.50   12.83 
   2   3  -2  339.14   12.93 
  -2   3   2  313.80   12.92 
  -2   3   2  339.40   12.78 
  -1  -3   2    3.84    0.39 
   1  -3  -2    3.84    0.35 
  -1   3   2    4.25    0.36 
  -1   3   2    4.15    0.40 
   1   3  -2    4.47    0.41 
   2  -3   2  419.94   15.65 
  -2  -3  -2  397.46   15.67 
   2  -3   2  409.35   15.66 
  -2   3  -2  399.22   16.11 
   2   3   2  393.82   15.63 
   2   3   2  414.42   15.88 
   3  -3   2  206.16    8.57 
   3  -3   2  221.29    8.64 
  -3  -3  -2  215.86    8.65 
  -3   3  -2  207.71    9.27 
   3   3   2  217.44    8.62 
   3   3   2  210.81    8.96 
   4  -3   2  479.39   18.44 
  -4  -3  -2  469.02   18.37 
  -4  -3  -2  487.72   21.52 
   4   3   2  460.42   18.07 
   4   3   2  465.83   18.91 
  -4   3  -2  453.61   19.36 
   4   3   2  467.59   18.33 
  -5  -3  -2   25.29    1.60 
   5   3   2   22.62    1.54 
   5   3   2   23.52    1.73 
  -6  -3  -2    0.63    0.33 
  -6  -3  -2    0.24    0.25 
  -6  -3  -2    0.51    0.28 
   6  -3   2    0.76    0.23 
  -6  -3  -2    1.01    0.56 
  -6   3  -2    0.93    0.35 
   6   3   2    1.24    0.31 
  -6   3  -2    0.77    0.24 
   6   3   2    0.31    0.26 
  -6   3  -2    0.78    0.29 
  -7  -4   2    2.21    0.32 
  -7  -4   2    2.30    0.38 
  -7  -4   2    2.09    0.41 
  -7  -4   2    1.81    0.61 
   7   4  -2    1.64    0.31 
  -6  -4   2   20.51    1.68 
  -6  -4   2   19.41    1.35 
  -6  -4   2   18.41    1.48 
  -6  -4   2   20.08    2.61 
  -6  -4   2   22.87    1.79 
   6   4  -2   25.16    1.88 
  -6   4   2   19.54    1.23 
  -6   4   2   17.84    1.18 
   6   4  -2   21.00    1.44 
  -6   4   2   17.54    1.33 
  -5  -4   2   11.21    1.23 
  -5  -4   2    9.63    1.99 
  -5  -4   2   12.52    1.08 
  -5  -4   2   11.81    1.06 
  -5  -4   2   11.50    1.30 
  -5   4   2   10.43    0.93 
  -5   4   2   10.91    0.95 
  -5   4   2   10.76    2.23 
  -5   4   2   10.02    1.02 
   5   4  -2   10.63    0.86 
  -4  -4   2   44.81    2.51 
   4  -4  -2   47.95    2.50 
   4  -4  -2   52.06    2.51 
   4   4  -2   44.72    2.30 
   4   4  -2   49.60    2.71 
  -4   4   2   49.48    2.49 
  -4   4   2   39.77    2.78 
  -3  -4   2   92.05    4.05 
  -3  -4   2   91.31    4.10 
   3  -4  -2   93.56    4.04 
   3  -4  -2   96.16    4.05 
   3   4  -2   94.19    4.22 
  -3   4   2   92.81    4.04 
   3   4  -2   85.57    3.92 
  -3   4   2   83.87    4.32 
  -2  -4   2    3.08    0.38 
   2  -4  -2    2.61    0.34 
  -2  -4   2    3.21    0.42 
   2   4  -2    2.70    0.39 
  -2   4   2    2.12    0.39 
  -2   4   2    2.64    0.34 
  -1  -4   2   85.48    3.65 
   1  -4  -2   93.74    3.87 
  -1  -4   2   93.15    4.00 
  -1   4   2   90.82    3.83 
  -1   4   2   94.48    4.02 
   1   4  -2   96.70    4.02 
   0  -4   2   80.81    3.66 
   0  -4  -2   89.04    3.55 
   0  -4   2   78.61    3.43 
   0   4   2   88.78    3.63 
   0   4   2   77.33    3.42 
   0   4  -2   89.70    3.77 
  -1  -4  -2  426.51   18.16 
   1  -4   2  492.76   18.13 
   1  -4   2  466.33   18.28 
  -1  -4  -2  452.45   18.08 
  -1   4  -2  503.64   18.57 
   1   4   2  462.89   18.12 
   1   4   2  481.39   17.90 
   1   4   2  500.52   18.28 
   2  -4   2  233.12    9.00 
   2  -4   2  217.90    9.07 
  -2  -4  -2  221.71    9.03 
   2   4   2  229.08    9.19 
   2   4   2  219.75    8.96 
  -2   4  -2  226.95    9.57 
   3  -4   2   37.13    2.14 
   3  -4   2   38.08    1.97 
   3  -4   2   39.25    2.11 
  -3  -4  -2   40.01    2.14 
   3   4   2   38.10    1.92 
   3   4   2   40.09    2.10 
   3   4   2   40.36    2.35 
  -3   4  -2   36.68    2.60 
  -4  -4  -2   42.95    2.74 
  -4  -4  -2   45.34    2.52 
  -4  -4  -2   42.76    2.48 
  -4  -4  -2   45.29    2.83 
  -4  -4  -2   44.69    2.78 
  -4  -4  -2   53.84    4.61 
   4   4   2   47.68    2.51 
  -4   4  -2   47.87    2.49 
  -4   4  -2   46.48    2.43 
   4   4   2   45.29    2.28 
  -4   4  -2   44.29    2.70 
  -4   4  -2   46.38    2.50 
  -5  -4  -2   29.57    1.86 
  -5  -4  -2   28.65    2.04 
   5  -4   2   28.22    1.48 
  -5  -4  -2   31.24    1.90 
  -5  -4  -2   29.97    2.15 
  -5  -4  -2   34.04    3.63 
  -5  -4  -2   30.80    2.12 
   5   4   2   32.97    1.89 
  -5   4  -2   28.66    1.76 
  -5   4  -2   28.30    1.72 
  -5   4  -2   29.72    1.83 
   5   4   2   31.86    1.69 
  -5   4  -2   30.02    2.01 
  -6  -4  -2    0.48    0.43 
   6  -4   2    0.17    0.15 
  -6  -4  -2   -0.11    0.24 
  -6  -4  -2    0.21    0.24 
  -6  -4  -2    0.50    0.29 
  -6  -4  -2    0.20    0.45 
  -6   4  -2    0.24    0.25 
   6   4   2    0.30    0.21 
  -6   4  -2    0.21    0.37 
  -6   4  -2    0.21    0.22 
   6   4   2    0.29    0.17 
  -6   4  -2    0.65    0.22 
  -6  -5   2    9.36    0.95 
  -6  -5   2   10.64    0.86 
  -6  -5   2   10.17    1.06 
  -6  -5   2    8.87    1.61 
  -6  -5   2   10.39    0.87 
   6   5  -2    9.59    0.81 
  -6   5   2    8.07    0.85 
  -6   5   2    8.62    0.73 
  -6   5   2   11.04    0.83 
   6   5  -2   10.31    0.74 
  -5  -5   2   57.56    3.40 
  -5  -5   2   60.42    3.03 
  -5  -5   2   55.70    3.32 
  -5  -5   2   59.28    3.06 
  -5   5   2   55.14    3.09 
  -5   5   2   59.78    5.55 
   5   5  -2   58.92    2.75 
  -5   5   2   57.45    2.79 
  -5   5   2   57.82    2.88 
  -4  -5   2    3.03    0.71 
  -4  -5   2    1.57    0.90 
  -4  -5   2    3.22    0.52 
  -4  -5   2    2.44    0.68 
  -4  -5   2    4.04    1.25 
  -4  -5   2    2.37    0.54 
   4   5  -2    2.91    0.47 
  -4   5   2    3.68    0.65 
  -4   5   2    2.98    0.53 
  -4   5   2    4.64    0.60 
  -4   5   2    4.00    1.62 
   3  -5  -2   58.84    2.70 
  -3  -5   2   62.14    3.00 
  -3   5   2   58.15    3.35 
   3   5  -2   61.90    2.80 
  -2  -5   2  118.61    5.13 
   2  -5  -2  117.76    4.95 
  -2  -5   2  113.05    4.96 
   2  -5  -2  116.83    5.02 
  -2   5   2  114.53    5.32 
   2   5  -2  109.75    4.80 
   2   5  -2  123.93    5.19 
  -2   5   2  117.13    4.96 
   1  -5  -2  350.31   13.83 
  -1  -5   2  353.36   13.96 
  -1   5   2  333.17   13.68 
  -1   5   2  371.25   14.06 
   1   5  -2  360.72   14.00 
   0  -5   2   72.64    3.32 
   0  -5   2   66.97    2.99 
   0  -5  -2   66.25    3.16 
   0   5   2   71.14    3.06 
   0   5  -2   69.51    3.37 
   0   5   2   72.67    3.25 
   0   5   2   69.88    2.99 
   1  -5   2  773.04   29.33 
  -1  -5  -2  741.11   29.35 
   1  -5   2  753.78   29.59 
  -1   5  -2  808.26   29.91 
   1   5   2  759.44   29.31 
   1   5   2  788.46   29.53 
   2  -5   2    1.46    0.41 
   2  -5   2    1.76    0.37 
  -2  -5  -2    2.02    0.44 
   2   5   2    2.51    0.38 
  -2   5  -2    1.82    0.51 
   2   5   2    1.62    0.42 
  -3  -5  -2   77.34    4.13 
   3  -5   2   78.55    3.91 
  -3  -5  -2   82.59    3.81 
  -3  -5  -2   78.76    3.85 
   3  -5   2   79.56    3.41 
  -3  -5  -2   73.62    4.07 
  -3   5  -2   82.17    4.02 
  -3   5  -2   77.76    3.71 
  -3   5  -2   80.43    3.70 
  -3   5  -2   79.09    3.92 
   3   5   2   77.07    3.69 
   3   5   2   79.29    3.52 
  -4  -5  -2   93.07    6.71 
  -4  -5  -2   92.64    4.74 
  -4  -5  -2   90.51    4.77 
  -4  -5  -2   93.83    4.49 
  -4  -5  -2   96.16    4.82 
  -4  -5  -2   94.60    4.44 
   4  -5   2   94.71    4.01 
  -4   5  -2   88.86    7.19 
   4   5   2   93.34    4.14 
   4   5   2   97.23    4.39 
  -4   5  -2   93.09    4.62 
  -4   5  -2  100.02    4.35 
  -4   5  -2   93.11    4.35 
  -4   5  -2   97.89    4.28 
  -5  -5  -2   30.08    2.44 
  -5  -5  -2   38.52    2.84 
  -5  -5  -2   40.22    4.24 
   5  -5   2   36.66    2.03 
  -5   5  -2   34.72    2.14 
   5   5   2   39.42    1.93 
  -5   5  -2   39.37    2.01 
   5   5   2   42.87    2.16 
  -5   5  -2   31.11    2.74 
  -6  -5  -2   28.59    1.69 
  -6  -5  -2   32.69    1.73 
   6  -5   2   26.70    1.39 
  -6  -5  -2   27.86    1.77 
  -6   5  -2   25.47    1.47 
  -6   5  -2   29.70    1.44 
  -6   5  -2   30.04    1.60 
   6   5   2   22.67    1.73 
  -6   5  -2   27.90    1.45 
   6   5   2   29.70    1.38 
  -6  -6   2    1.96    0.38 
  -6  -6   2    2.72    0.48 
   6  -6  -2    1.86    0.32 
  -6  -6   2    2.07    0.42 
  -6   6   2    2.32    0.39 
  -6   6   2    1.98    0.32 
   6   6  -2    2.19    0.28 
  -6   6   2    1.05    0.65 
  -5  -6   2   23.05    1.79 
  -5  -6   2   21.77    1.65 
  -5  -6   2   25.07    2.02 
   5  -6  -2   20.39    1.25 
  -5  -6   2   21.94    1.70 
  -5  -6   2   21.82    2.56 
  -5   6   2   16.34    2.70 
  -5   6   2   21.51    1.37 
   5   6  -2   23.21    1.75 
   5   6  -2   22.51    1.33 
  -5   6   2   19.47    1.54 
  -5   6   2   19.79    1.30 
  -4  -6   2    3.92    1.19 
   4  -6  -2    3.06    0.59 
  -4  -6   2    3.48    0.69 
  -4  -6   2    3.48    0.58 
  -4  -6   2    4.26    0.65 
  -4  -6   2    3.13    0.76 
  -4  -6   2    2.43    0.63 
  -4   6   2    3.30    0.59 
  -4   6   2    2.85    0.53 
  -4   6   2    3.34    1.56 
   4   6  -2    3.68    0.57 
  -4   6   2    2.85    0.62 
  -3  -6   2  197.09   14.17 
   3  -6  -2  216.15    8.73 
  -3  -6   2  205.13    9.48 
  -3  -6   2  220.19    8.93 
  -3  -6   2  218.14    9.07 
   3   6  -2  216.46    8.84 
  -3   6   2  222.16    9.24 
  -3   6   2  220.13    8.94 
   3   6  -2  222.19    8.69 
  -3   6   2  221.78    8.92 
   2  -6  -2   66.27    3.06 
  -2  -6   2   61.87    3.04 
  -2  -6   2   65.00    3.29 
   2  -6  -2   63.57    3.09 
   2  -6  -2   65.11    3.28 
   2   6  -2   64.37    2.88 
  -2   6   2   62.23    3.27 
   2   6  -2   72.77    3.45 
  -2   6   2   63.77    3.53 
   2   6  -2   62.26    2.96 
   1  -6  -2   55.10    2.66 
   1  -6  -2   55.67    2.91 
  -1  -6   2   55.65    2.93 
   1  -6  -2   56.99    2.76 
  -1   6   2   57.30    2.69 
   1   6  -2   59.11    3.04 
  -1   6   2   58.83    3.07 
   0  -6   2   98.44    4.21 
   0  -6   2   98.66    4.59 
   0  -6  -2   94.60    4.47 
   0  -6  -2   94.51    4.31 
   0  -6   2   99.22    4.26 
   0   6  -2  103.99    4.76 
   0   6   2   98.68    4.20 
   0   6   2  103.66    4.58 
   1  -6   2    9.50    0.83 
  -1  -6  -2    6.75    1.24 
   1  -6   2    9.64    0.97 
   1  -6   2    9.75    0.77 
   1   6   2    8.76    0.76 
  -1   6  -2    9.67    1.07 
   1   6   2    9.13    0.90 
  -2  -6  -2   36.20    2.49 
  -2  -6  -2   40.98    2.77 
   2  -6   2   39.32    2.05 
  -2  -6  -2   38.87    2.33 
   2   6   2   40.16    2.11 
  -2   6  -2   39.25    2.17 
  -2   6  -2   38.46    2.13 
  -2   6  -2   42.79    4.59 
  -2   6  -2   39.31    2.14 
  -2   6  -2   41.30    2.60 
   2   6   2   39.01    1.90 
  -3  -6  -2   60.85    3.62 
  -3  -6  -2   62.28    3.38 
   3  -6   2   66.07    3.01 
  -3  -6  -2   62.42    3.67 
  -3  -6  -2   67.92    5.32 
  -3   6  -2   67.09    3.21 
  -3   6  -2   67.53    3.24 
  -3   6  -2   65.84    3.21 
  -3   6  -2   75.23    6.45 
   3   6   2   62.59    2.96 
   3   6   2   65.64    3.21 
  -3   6  -2   65.82    3.48 
  -4  -6  -2   27.31    3.15 
  -4  -6  -2   29.08    1.95 
  -4  -6  -2   25.56    1.98 
  -4  -6  -2   27.51    2.03 
  -4  -6  -2   30.33    1.91 
   4  -6   2   29.02    1.56 
  -4   6  -2   22.31    3.21 
  -4   6  -2   29.08    1.94 
   4   6   2   28.40    1.54 
   4   6   2   28.23    1.75 
   4   6   2   28.87    1.82 
  -4   6  -2   29.38    1.73 
  -4   6  -2   29.92    1.69 
  -4   6  -2   28.14    1.72 
  -5  -6  -2   72.00    5.17 
  -5  -6  -2   81.12    3.89 
  -5  -6  -2   81.82    3.70 
  -5  -6  -2   79.74    3.81 
   5  -6   2   76.86    3.36 
  -5   6  -2   81.88    3.51 
  -5   6  -2   78.47    3.73 
   5   6   2   71.54    3.57 
  -5   6  -2   78.38    3.51 
   5   6   2   78.71    3.33 
  -5   6  -2   78.91    3.80 
   5   6   2   79.07    3.56 
  -5  -7   2  106.21    4.85 
  -5  -7   2  110.09    4.59 
  -5  -7   2  104.48    4.56 
   5  -7  -2   98.04    4.41 
   5   7  -2  105.88    4.44 
  -5   7   2  106.22    4.66 
  -5   7   2  105.53    4.39 
  -5   7   2  107.53    4.48 
  -5   7   2   88.80    8.42 
   5   7  -2  104.34    4.23 
  -4  -7   2  103.80    5.10 
  -4  -7   2  115.82    5.12 
  -4  -7   2  116.16    6.77 
  -4  -7   2  110.18    4.96 
  -4  -7   2  113.77    5.14 
   4  -7  -2  117.82    4.94 
  -4  -7   2  112.79    5.52 
  -4   7   2  116.04    5.26 
   4   7  -2  118.96    4.73 
  -4   7   2   94.51    5.16 
  -4   7   2  114.51    5.01 
  -4   7   2  128.04    8.59 
   4   7  -2  114.37    4.91 
  -3  -7   2   12.71    1.24 
  -3  -7   2    9.99    1.22 
  -3  -7   2   10.94    0.99 
  -3   7   2   11.68    2.41 
   3   7  -2    9.28    0.90 
  -3   7   2   11.18    0.98 
  -3   7   2    9.84    1.07 
  -3   7   2    9.76    0.95 
  -2  -7   2  113.04    5.54 
  -2  -7   2  109.82    5.23 
   2  -7  -2  119.25    5.17 
  -2  -7   2  112.83    5.68 
  -2   7   2  117.65    5.24 
   2   7  -2  127.71    7.80 
  -2   7   2  113.32    5.26 
  -2   7   2  126.84    8.86 
  -2   7   2  116.76    5.39 
  -1  -7   2   18.05    1.51 
   1  -7  -2   18.49    1.27 
   1  -7  -2   18.82    1.51 
   1   7  -2   20.04    3.99 
  -1   7   2   17.43    1.38 
  -1   7   2   15.36    1.35 
  -1   7   2   18.78    2.90 
  -1   7   2   15.80    1.39 
   0  -7  -2   44.73    2.28 
   0  -7   2   44.19    2.21 
   0  -7  -2   40.04    2.53 
   0   7   2   44.76    2.41 
   0   7   2   45.23    4.44 
   0   7   2   43.57    2.55 
  -1  -7  -2   15.61    1.29 
  -1  -7  -2   17.63    1.50 
   1  -7   2   16.39    1.11 
  -1  -7  -2   15.41    1.42 
   1  -7   2   15.68    1.38 
  -1  -7  -2   12.13    1.33 
  -1   7  -2   15.66    1.21 
   1   7   2   15.55    1.22 
  -1   7  -2   16.70    2.74 
  -1   7  -2   16.29    1.15 
   1   7   2   12.27    1.08 
  -1   7  -2   15.59    1.22 
   1   7   2   13.12    1.17 
  -2  -7  -2   75.00    3.88 
  -2  -7  -2   73.77    4.06 
   2  -7   2   78.86    3.54 
  -2  -7  -2   77.40    4.15 
   2  -7   2   82.04    3.94 
  -2   7  -2   75.89    3.58 
   2   7   2   74.90    3.73 
  -2   7  -2   74.72    6.66 
  -2   7  -2   76.92    3.69 
   2   7   2   78.78    3.55 
  -2   7  -2   80.02    3.72 
  -2   7  -2   71.68    3.78 
  -3  -7  -2    7.96    1.58 
  -3  -7  -2    8.19    0.95 
  -3  -7  -2    8.91    1.09 
   3  -7   2    8.18    0.75 
  -3  -7  -2    6.88    1.02 
  -3   7  -2    8.36    0.94 
  -3   7  -2    9.13    0.84 
  -3   7  -2    8.44    1.95 
   3   7   2    9.41    0.93 
  -3   7  -2    7.54    0.84 
   3   7   2    7.98    0.80 
  -3   7  -2    8.30    0.81 
  -4  -7  -2   16.38    1.43 
   4  -7   2   17.33    1.10 
  -4  -7  -2   16.92    1.40 
  -4  -7  -2   16.42    1.29 
   4   7   2   18.10    1.19 
  -4   7  -2   17.02    1.18 
   4   7   2   18.08    1.27 
  -4   7  -2   17.40    1.30 
  -4   7  -2   17.52    1.16 
  -4   7  -2   16.04    1.10 
   4   7   2   18.86    1.27 
  -4   7  -2   12.69    2.20 
  -5  -7  -2   11.94    1.15 
  -5  -7  -2   10.84    0.85 
   5  -7   2   10.97    0.75 
  -5  -7  -2   12.28    0.95 
   5  -7   2   11.30    0.72 
  -5  -7  -2   10.55    1.34 
  -5   7  -2    9.43    0.64 
  -5   7  -2   11.54    0.75 
  -5   7  -2   11.30    0.76 
   5   7   2   11.97    0.82 
  -5  -8   2   14.14    1.18 
   5  -8  -2   15.42    0.91 
  -5  -8   2   16.59    1.01 
  -5   8   2   15.10    1.06 
   5   8  -2   18.62    1.05 
   4  -8  -2   59.47    2.73 
  -4  -8   2   60.33    2.84 
  -4  -8   2   56.55    3.07 
  -4   8   2   57.94    2.73 
   4   8  -2   55.23    2.71 
  -4   8   2   53.42    2.87 
  -4   8   2   57.80    2.86 
   3  -8  -2   19.49    1.30 
  -3  -8   2   18.65    1.45 
  -3  -8   2   17.74    1.30 
  -3  -8   2   15.59    1.97 
   3   8  -2   18.58    1.24 
  -3   8   2   18.98    1.44 
  -2  -8   2    1.37    0.37 
  -2  -8   2    0.39    0.37 
   2  -8  -2    0.88    0.29 
  -2  -8   2    1.77    0.58 
   2  -8  -2    1.08    0.38 
   2   8  -2    0.95    0.31 
  -2   8   2    1.46    0.42 
  -2   8   2    0.92    0.33 
  -2   8   2    0.95    0.36 
  -2   8   2    0.44    0.75 
   2   8  -2    0.55    0.72 
  -1  -8   2   79.69    4.06 
  -1  -8   2   77.85    4.17 
   1  -8  -2   83.06    4.16 
   1  -8  -2   79.50    3.66 
  -1   8   2   76.54    6.44 
  -1   8   2   83.41    3.83 
   1   8  -2   80.56    6.25 
  -1   8   2   80.17    3.95 
   0  -8  -2    3.32    0.61 
   0  -8  -2    4.59    0.82 
   0  -8  -2    4.12    0.82 
   0  -8   2    4.58    0.81 
   0  -8   2    5.13    0.73 
   0   8  -2    4.52    0.69 
   0   8   2    4.13    0.63 
   0   8   2    4.28    1.49 
   0   8  -2    5.60    1.46 
   0   8   2    3.94    0.69 
   1  -8   2   19.15    1.23 
  -1  -8  -2   20.65    1.67 
  -1  -8  -2   17.69    1.40 
   1  -8   2   18.03    1.48 
  -1  -8  -2   15.36    1.49 
   1   8   2   17.81    1.28 
   1   8   2   18.98    1.36 
  -1   8  -2   21.84    3.22 
  -1   8  -2   19.99    1.26 
  -1   8  -2   18.86    1.40 
   2  -8   2   23.61    1.40 
   2  -8   2   21.49    1.58 
  -2  -8  -2   22.74    1.73 
  -2  -8  -2   21.78    1.77 
  -2   8  -2   24.83    1.91 
  -2   8  -2   24.27    3.37 
  -2   8  -2   20.04    1.35 
  -2   8  -2   23.10    1.52 
  -2   8  -2   19.85    1.42 
   2   8   2   23.09    1.53 
   2   8   2   21.74    1.33 
  -3  -8  -2   21.53    1.56 
   3  -8   2   16.52    1.29 
  -3  -8  -2   18.73    1.48 
  -3  -8  -2   20.19    1.44 
   3  -8   2   19.91    1.22 
  -3   8  -2   16.56    1.27 
   3   8   2   20.21    1.20 
  -3   8  -2   20.19    1.25 
  -3   8  -2   19.30    2.74 
  -3   8  -2   18.43    1.22 
  -3   8  -2   19.56    1.31 
   3   8   2   18.61    1.31 
  -4  -8  -2    1.71    0.38 
   4  -8   2    1.66    0.46 
   4  -8   2    2.47    0.34 
  -4   8  -2    2.01    0.34 
  -4   8  -2    1.34    0.68 
  -4   8  -2    2.36    0.38 
   4   8   2    2.52    0.44 
  -4   8  -2    1.93    0.36 
  -4   8  -2    1.76    0.36 
  -4   9   2    4.75    1.79 
  -4   9   2    6.50    0.57 
  -4   9   2    4.23    0.64 
  -3  -9   2   10.09    1.21 
   3  -9  -2    7.86    0.63 
  -3  -9   2    5.07    0.92 
   3  -9  -2    8.09    0.78 
  -3   9   2    7.50    0.66 
   3   9  -2    6.61    0.63 
  -3   9   2   10.00    0.98 
  -3   9   2    6.64    0.71 
  -2  -9   2   23.04    1.53 
   2  -9  -2   24.50    1.63 
   2  -9  -2   22.56    1.28 
  -2  -9   2   20.99    1.60 
  -2   9   2   24.74    1.41 
  -2   9   2   23.00    1.48 
  -2   9   2   19.03    2.67 
  -2   9   2   19.99    1.39 
  -1  -9   2   16.26    1.31 
  -1  -9   2   14.70    1.22 
   1  -9  -2   16.20    1.30 
   1   9  -2   11.51    1.98 
  -1   9   2   14.32    1.03 
  -1   9   2   11.98    2.02 
   0  -9   2    2.96    0.64 
   0  -9  -2    3.04    0.67 
   0  -9  -2    3.23    0.68 
   0  -9  -2    2.58    0.49 
   0  -9   2    2.73    0.58 
   0   9   2    3.38    1.10 
   0   9  -2    4.12    0.54 
   0   9   2    2.51    0.47 
   0   9  -2    2.55    1.15 
  -1  -9  -2    1.24    0.42 
   1  -9   2    1.92    0.46 
  -1  -9  -2    1.54    0.44 
   1  -9   2    2.77    0.57 
  -1   9  -2    1.99    0.91 
   1   9   2    1.75    0.40 
  -1   9  -2    2.51    0.49 
  -2  -9  -2    1.58    0.46 
   2  -9   2    0.86    0.52 
   2  -9   2    1.05    0.31 
  -2  -9  -2    1.38    0.49 
   2   9   2    1.20    0.45 
  -2   9  -2    1.72    0.34 
  -2   9  -2    1.57    0.34 
   3  -9   2    0.45    0.22 
   3  -9   2    0.75    0.25 
  -3  -9  -2    0.77    0.33 
   3  -9   2    1.10    0.29 
  -3  -9  -2    0.92    0.32 
  -3   9  -2    1.08    0.24 
  -3   9  -2    0.81    0.24 
   3   9   2    0.85    0.22 
  -3   9  -2    0.92    0.57 
  -3   9  -2    0.16    0.32 
   2 -10  -2    1.40    0.26 
   2 -10  -2    1.51    0.31 
  -2 -10   2    1.08    0.29 
  -2  10   2    1.80    0.27 
   1 -10  -2    5.01    0.61 
   1 -10  -2    3.92    0.48 
  -1 -10   2    4.15    0.54 
  -1 -10   2    3.26    0.51 
  -1  10   2    4.26    0.41 
   0 -10   2   11.98    0.92 
   0 -10  -2   12.87    0.99 
   0 -10   2   10.52    0.88 
  -1 -10  -2   12.60    0.95 
   1 -10   2    8.40    1.03 
   1 -10   2   12.06    0.88 
  -7   0   3    2.21    0.68 
  -7   0   3    2.97    0.58 
  -6   0   3   14.23    1.20 
  -6   0   3   14.20    1.31 
  -6   0   3   14.72    2.17 
  -5   0   3   35.91    2.07 
  -4   0   3   69.22    3.13 
   4   0  -3   63.89    2.80 
  -4   0   3   61.71    2.95 
  -4   0   3   65.46    2.83 
   4   0  -3   65.03    3.13 
   3   0  -3   51.53    2.62 
  -3   0   3   64.55    2.70 
  -3   0   3   63.60    2.55 
   2   0  -3   13.97    0.75 
  -2   0   3   14.80    0.85 
  -2   0   3   16.08    0.82 
   1   0  -3   65.07    2.79 
  -1   0   3   75.01    2.97 
  -1   0   3   75.35    2.89 
   1   0  -3   75.74    2.77 
   2   0   3    6.13    0.47 
  -2   0  -3    6.71    0.68 
   2   0   3    6.42    0.27 
   3   0   3  273.86   10.88 
   3   0   3  265.15   11.37 
  -3   0  -3  276.66   11.52 
   3   0   3  295.08   10.84 
   4   0   3   11.89    1.24 
  -4   0  -3   10.46    1.25 
  -4   0  -3   10.91    0.82 
  -5   0  -3   23.77    1.82 
   5   0   3   23.80    1.35 
  -5   0  -3   26.27    1.73 
  -5   0  -3   26.83    1.79 
  -5   0  -3   24.50    1.74 
  -6   0  -3   11.85    0.95 
   6   0   3   10.69    0.75 
  -6   0  -3   11.07    0.99 
  -6   0  -3   12.12    1.07 
  -6   0  -3   11.59    1.01 
  -7   0  -3    3.73    0.56 
  -7   0  -3    3.46    0.35 
  -7  -1   3    1.98    0.50 
  -7  -1   3    2.01    0.77 
  -7  -1   3    1.95    0.41 
  -6  -1   3  175.60    7.61 
  -6  -1   3  172.58    7.63 
  -6  -1   3  193.80   10.38 
  -6  -1   3  179.87    8.08 
  -5  -1   3  109.35    4.99 
  -5  -1   3  105.53    5.39 
  -5  -1   3  116.86    7.47 
  -5   1   3  108.99    4.85 
  -4  -1   3  131.41    5.66 
   4  -1  -3  138.53    5.44 
   4  -1  -3  125.42    5.66 
   4  -1  -3  130.34    5.50 
  -4  -1   3  129.47    5.50 
  -4   1   3  133.81    5.45 
  -4   1   3  132.66    5.60 
   4   1  -3  131.98    5.69 
  -4   1   3  133.46    5.52 
  -3  -1   3  190.88    7.68 
  -3  -1   3  188.20    7.56 
  -3  -1   3  190.76    7.31 
  -3   1   3  192.25    7.58 
   3   1  -3  185.47    7.58 
  -3   1   3  185.62    7.61 
  -3   1   3  195.89    7.49 
   3  -1   3   89.68    3.77 
  -3  -1  -3   86.78    3.73 
   3   1   3   89.80    3.74 
   3   1   3   84.35    3.57 
  -3   1  -3   86.26    4.33 
   3   1   3   83.26    4.16 
  -4  -1  -3   70.43    3.27 
   4  -1   3   78.79    4.50 
   4  -1   3   70.80    3.33 
  -4   1  -3   67.63    4.41 
   4   1   3   71.73    3.28 
  -5  -1  -3  153.34    6.98 
  -5  -1  -3  150.18    6.79 
  -5  -1  -3  156.47    6.83 
  -5  -1  -3  154.74    8.80 
  -5  -1  -3  154.55    6.72 
   5   1   3  146.50    6.35 
  -5   1  -3  158.34    6.70 
  -5   1  -3  153.39    6.67 
  -5   1  -3  141.02    6.71 
  -5   1  -3  154.27    6.68 
   5   1   3  149.11    6.21 
  -5   1  -3  158.40    6.81 
  -6  -1  -3   13.16    1.08 
  -6  -1  -3   12.83    1.15 
  -6  -1  -3   12.47    0.99 
   6  -1   3   12.19    0.78 
  -6  -1  -3   12.53    1.08 
  -6   1  -3   12.93    1.05 
   6   1   3   11.80    0.81 
  -6   1  -3   13.36    1.03 
  -6   1  -3   11.92    1.00 
  -6   1  -3   14.44    1.07 
  -7  -2   3   16.79    1.11 
  -7  -2   3   14.86    0.97 
  -7  -2   3   10.50    1.98 
  -7  -2   3   14.81    1.31 
  -7  -2   3   12.09    0.99 
   7   2  -3   12.51    0.80 
  -6  -2   3   20.44    1.69 
  -6  -2   3   20.03    1.48 
  -6  -2   3   15.96    2.43 
  -6  -2   3   17.78    1.42 
  -6  -2   3   20.55    1.45 
  -5  -2   3    1.51    1.06 
  -5  -2   3    0.61    0.52 
  -5  -2   3    1.13    0.40 
  -5  -2   3    0.97    0.34 
  -5   2   3    1.18    1.00 
  -5   2   3    0.88    0.69 
   4  -2  -3   55.75    3.10 
  -4  -2   3   66.24    3.03 
   4  -2  -3   67.16    3.06 
   4  -2  -3   70.35    3.04 
  -4  -2   3   66.65    3.19 
   4   2  -3   67.46    3.25 
  -4   2   3   63.79    3.01 
  -4   2   3   66.15    3.06 
  -4   2   3   60.64    3.20 
  -4   2   3   68.16    3.04 
  -3   2   3  901.23   32.86 
  -3   2   3  829.81   32.89 
  -2  -2   3  455.20   17.91 
  -2  -2   3  462.00   17.61 
  -2   2   3  478.80   17.91 
   2   2  -3  491.93   17.90 
  -2   2   3  468.82   17.84 
  -2   2   3  454.19   17.83 
   1  -2   3  444.68   16.52 
  -1  -2  -3  420.97   16.24 
  -2  -2  -3  111.25    4.59 
   2  -2   3  114.72    4.50 
   2  -2   3   92.97    4.38 
   2   2   3  106.15    4.72 
   2   2   3  108.27    4.46 
   2   2   3  113.07    4.26 
  -2   2  -3  108.92    4.90 
   3  -2   3  127.87    5.46 
  -3  -2  -3  134.97    5.58 
   3  -2   3  134.33    5.61 
   3   2   3  134.77    6.02 
   3   2   3  135.50    5.57 
  -3   2  -3  134.50    6.25 
  -4  -2  -3   98.35    4.32 
   4  -2   3  101.80    4.68 
   4   2   3   97.98    4.31 
  -4   2  -3   92.27    5.16 
   4   2   3   94.23    4.10 
   4   2   3   94.25    4.87 
  -5  -2  -3   77.11    7.46 
   5   2   3   67.40    3.36 
   5   2   3   72.38    3.28 
  -6  -2  -3   11.77    1.10 
  -6  -2  -3   11.72    1.03 
  -6  -2  -3   11.06    1.01 
  -6  -2  -3    8.92    1.55 
   6  -2   3   11.68    0.72 
  -6   2  -3   12.05    0.93 
  -6   2  -3   11.95    0.92 
   6   2   3   12.01    0.80 
  -6   2  -3   11.28    0.89 
  -7  -3   3    9.22    0.73 
  -7  -3   3   11.26    1.00 
  -7  -3   3    9.34    1.46 
  -7  -3   3    9.49    0.96 
   7   3  -3    8.70    0.62 
  -6  -3   3    0.24    0.30 
  -6  -3   3    0.74    0.57 
  -6  -3   3    1.10    0.44 
  -6  -3   3    0.71    0.36 
  -6  -3   3    1.51    0.54 
   6   3  -3    0.52    0.24 
  -5  -3   3    1.85    0.89 
  -5  -3   3    2.47    0.56 
  -5  -3   3    2.83    0.68 
  -5  -3   3    2.52    0.55 
  -5  -3   3    2.51    0.62 
  -5   3   3    3.14    1.29 
  -5   3   3    2.72    0.47 
   5   3  -3    2.45    0.47 
  -5   3   3    2.04    0.55 
  -4  -3   3   22.70    1.53 
   4  -3  -3   24.06    1.45 
   4  -3  -3   24.16    1.46 
   4   3  -3   21.52    1.38 
   4   3  -3   24.58    1.60 
  -4   3   3   24.88    1.48 
  -3  -3   3  260.52   10.67 
  -3  -3   3  264.91   10.71 
   3  -3  -3  278.76   10.65 
  -3   3   3  255.22   10.74 
  -3   3   3  274.10   10.62 
   3   3  -3  278.02   10.74 
  -3   3   3  272.38   10.67 
   2  -3  -3   98.01    4.09 
  -2  -3   3   96.92    4.19 
  -2   3   3   96.35    4.11 
  -2   3   3  100.45    4.08 
  -2   3   3   96.14    4.13 
   2   3  -3   98.70    4.18 
  -1  -3   3  554.15   21.43 
  -1  -3   3  582.51   21.71 
  -1  -3  -3  397.33   15.59 
   1  -3   3  417.90   15.88 
   1   3   3  419.14   15.89 
  -1   3  -3  419.27   16.15 
   1   3   3  404.79   15.60 
   2  -3   3   51.38    2.41 
  -2  -3  -3   49.26    2.38 
   2  -3   3   51.85    2.38 
   2   3   3   50.06    2.56 
   2   3   3   49.09    2.34 
  -2   3  -3   49.88    2.79 
   3  -3   3    7.05    0.69 
  -3  -3  -3    5.35    0.61 
   3  -3   3    5.26    0.60 
   3   3   3    5.54    0.54 
   3   3   3    6.07    0.61 
   3   3   3    5.71    0.74 
  -3   3  -3    5.54    0.90 
  -4  -3  -3  134.53    6.40 
  -4  -3  -3  153.22    6.75 
  -4  -3  -3  152.20    6.67 
  -4  -3  -3  130.16    6.12 
  -4  -3  -3  127.09    5.88 
  -4  -3  -3  153.74   10.12 
  -4   3  -3  141.84    6.03 
  -4   3  -3  135.15    6.25 
  -4   3  -3  113.48    6.76 
   4   3   3  130.38    5.72 
  -5  -3  -3   10.88    1.19 
  -5  -3  -3   13.68    1.33 
  -5  -3  -3   10.38    1.12 
  -5  -3  -3   11.66    1.02 
  -5  -3  -3   11.85    1.20 
   5  -3   3   11.47    0.77 
  -5  -3  -3   13.19    2.14 
  -5   3  -3   10.83    0.98 
   5   3   3   12.30    0.89 
  -5   3  -3   12.29    1.04 
  -5   3  -3   12.38    1.23 
  -5   3  -3   11.52    1.04 
   5   3   3   11.94    1.03 
  -6  -3  -3    1.76    0.72 
  -6  -3  -3    1.52    0.41 
  -6  -3  -3    2.21    0.47 
  -6  -3  -3    2.03    0.43 
  -6   3  -3    4.26    0.89 
   6   3   3    2.27    0.34 
  -6   3  -3    2.54    0.43 
  -6   3  -3    2.00    0.40 
   6   3   3    2.37    0.53 
  -6   3  -3    2.51    0.41 
  -7  -4   3    4.53    0.93 
  -7  -4   3    5.18    0.61 
  -7  -4   3    7.25    0.70 
  -7  -4   3    5.47    0.58 
  -6  -4   3    0.55    0.33 
  -6  -4   3    0.17    0.27 
  -6  -4   3    0.30    0.36 
  -6  -4   3   -0.05    0.31 
  -6  -4   3    0.30    0.30 
  -6   4   3    0.76    0.26 
  -6   4   3    0.05    0.60 
  -6   4   3    0.41    0.28 
  -5  -4   3   16.05    1.32 
  -5  -4   3   13.85    1.51 
  -5  -4   3   17.05    2.50 
  -5  -4   3   15.76    1.50 
  -5  -4   3   16.40    1.32 
  -5   4   3   16.72    1.37 
  -5   4   3   14.10    2.60 
  -5   4   3   15.41    1.16 
  -5   4   3   14.24    1.12 
   5   4  -3   16.68    1.11 
  -4  -4   3   40.91    6.23 
   4  -4  -3   42.28    2.23 
  -4  -4   3   38.04    2.32 
  -4  -4   3   39.37    2.25 
   4  -4  -3   41.10    2.25 
   4   4  -3   37.59    2.06 
  -4   4   3   37.54    2.29 
   4   4  -3   42.69    2.39 
   3  -4  -3  174.43    7.12 
  -3  -4   3  174.50    7.32 
  -3  -4   3  169.59    7.22 
   3   4  -3  182.15    7.28 
  -3   4   3  163.34    7.30 
   3   4  -3  168.94    7.02 
  -3   4   3  175.86    7.13 
  -2  -4   3    6.70    0.64 
  -2  -4   3    6.68    0.67 
  -2   4   3    6.55    0.67 
  -2   4   3    7.54    0.63 
   2   4  -3    7.03    0.66 
  -1  -4   3  256.26   10.47 
   1  -4  -3  277.20   10.66 
  -1  -4   3  271.42   10.83 
  -1   4   3  273.90   10.63 
  -1   4   3  277.69   10.77 
   1   4  -3  283.72   10.84 
   1  -4   3  751.37   28.63 
   1  -4   3  774.79   28.47 
  -1  -4  -3  681.61   28.31 
   1   4   3  759.91   28.22 
   1   4   3  737.11   28.44 
   1   4   3  787.62   28.60 
   2  -4   3   96.15    4.39 
  -2  -4  -3   98.68    4.35 
   2  -4   3  102.07    4.33 
   2   4   3   97.30    4.26 
   2   4   3  100.81    4.55 
  -2   4  -3   96.99    4.87 
   3  -4   3   64.67    3.36 
  -3  -4  -3   72.04    3.37 
   3  -4   3   69.05    2.98 
   3   4   3   70.12    3.12 
   3   4   3   70.91    3.31 
  -4  -4  -3  107.38    5.18 
  -4  -4  -3  111.80    5.44 
  -4  -4  -3  110.80    7.48 
  -4  -4  -3  111.80    5.06 
  -4  -4  -3  106.17    5.33 
  -4  -4  -3  109.23    5.43 
  -4  -4  -3  107.21    5.05 
   4  -4   3  109.19    4.60 
  -4   4  -3  113.90    5.03 
  -4   4  -3  114.69    5.01 
  -4   4  -3  114.50    5.07 
   4   4   3  113.07    4.80 
  -4   4  -3  114.76    5.36 
   4   4   3  118.18    5.05 
  -5  -4  -3    6.45    0.77 
  -5  -4  -3    7.26    1.62 
  -5  -4  -3    6.50    0.90 
   5  -4   3    7.56    0.60 
  -5  -4  -3    8.64    0.97 
  -5  -4  -3    8.75    1.04 
   5   4   3    7.47    0.81 
  -5   4  -3    8.31    0.81 
  -5   4  -3    7.81    0.92 
  -5   4  -3    8.82    0.82 
   5   4   3    8.56    0.73 
  -5   4  -3    8.18    0.77 
   5   4   3    9.15    0.84 
  -6  -4  -3    5.83    0.88 
  -6  -4  -3    4.96    1.08 
  -6  -4  -3    6.17    0.75 
  -6  -4  -3    5.07    0.63 
   6  -4   3    5.54    0.43 
  -6   4  -3    5.67    0.52 
  -6   4  -3    6.25    0.65 
   6   4   3    5.73    0.65 
  -6   4  -3    5.21    0.53 
  -6   4  -3    5.57    0.54 
  -6  -5   3   16.02    2.11 
  -6  -5   3   16.07    1.18 
  -6  -5   3   16.52    1.30 
  -6  -5   3   16.32    1.37 
  -6  -5   3   16.84    1.18 
   6   5  -3   16.73    1.14 
  -6   5   3   16.97    1.22 
   6   5  -3   18.07    1.04 
  -5  -5   3   51.49    2.69 
  -5  -5   3   48.42    2.99 
  -5  -5   3   46.97    3.01 
  -5  -5   3   50.24    2.71 
  -5  -5   3   47.57    4.33 
  -5   5   3   49.62    2.54 
  -5   5   3   49.21    2.81 
  -5   5   3   49.04    2.44 
   5   5  -3   53.29    2.46 
  -4  -5   3  123.77    6.11 
   4  -5  -3  116.85    5.90 
  -4  -5   3  143.91    8.31 
  -4  -5   3  126.58    6.22 
  -4  -5   3  125.07    5.73 
  -4  -5   3  126.70    5.64 
  -4   5   3  123.76    5.54 
  -4   5   3  124.49    5.83 
  -4   5   3  120.60    5.43 
  -4   5   3  145.44    9.48 
   4   5  -3  126.77    5.39 
   3  -5  -3    3.04    0.52 
   3  -5  -3    4.88    0.48 
   3  -5  -3    4.33    0.56 
  -3  -5   3    4.96    0.58 
   3   5  -3    3.43    0.48 
  -3   5   3    3.53    0.50 
   2  -5  -3  413.77   17.03 
  -2  -5   3  445.65   17.41 
   2  -5  -3  445.37   17.21 
  -2  -5   3  439.74   17.15 
  -2   5   3  449.57   17.17 
   2   5  -3  474.26   17.43 
   2   5  -3  443.61   17.01 
  -2   5   3  426.18   17.45 
   1  -5  -3    5.86    0.57 
  -1  -5   3    6.18    0.77 
  -1   5   3    5.73    0.52 
   1   5  -3    5.79    0.66 
  -1   5   3    5.46    0.52 
   0  -5   3    9.48    0.71 
   0  -5  -3   11.18    0.81 
   0   5   3    9.49    0.68 
   0   5   3    9.42    0.72 
   0   5   3    9.44    0.79 
   1  -5   3    0.17    0.14 
   1  -5   3    0.47    0.24 
   1  -5   3    0.09    0.18 
  -1  -5  -3    0.14    0.22 
   1   5   3   -0.03    0.15 
  -1   5  -3   -0.04    0.18 
   1   5   3    0.41    0.21 
   2  -5   3  177.94    7.40 
   2  -5   3  174.02    7.09 
   2  -5   3  180.89    7.60 
   2   5   3  182.10    7.34 
  -2   5  -3  177.21    8.11 
   2   5   3  182.72    7.58 
   2   5   3  167.78    7.09 
   3  -5   3   39.80    1.97 
  -3  -5  -3   40.30    2.46 
  -3  -5  -3   41.32    6.54 
  -3  -5  -3   36.45    2.43 
   3   5   3   39.52    2.03 
   3   5   3   42.53    2.25 
  -3   5  -3   46.02    4.75 
   4  -5   3   15.22    1.00 
  -4  -5  -3   15.82    2.43 
  -4  -5  -3   18.19    1.54 
  -4  -5  -3   15.58    1.30 
  -4  -5  -3   15.18    1.41 
  -4  -5  -3   13.04    1.40 
  -4   5  -3   14.81    1.14 
   4   5   3   14.03    1.38 
  -4   5  -3   16.28    1.17 
   4   5   3   14.86    1.20 
  -4   5  -3   12.78    2.48 
  -4   5  -3   14.55    1.30 
  -4   5  -3   14.82    1.19 
  -5  -5  -3    4.06    0.74 
  -5  -5  -3    4.44    0.68 
  -5  -5  -3    4.64    0.71 
   5  -5   3    5.12    0.49 
  -5  -5  -3    3.67    0.63 
  -5  -5  -3    4.03    1.21 
  -5   5  -3    4.03    0.55 
  -5   5  -3    3.86    0.53 
  -5   5  -3    4.61    0.55 
   5   5   3    5.13    0.63 
   5   5   3    4.79    0.72 
  -5   5  -3    4.90    0.67 
   5   5   3    4.79    0.51 
  -6  -5  -3    4.12    0.51 
  -6  -5  -3    3.55    0.81 
  -6  -5  -3    3.53    0.46 
  -6  -5  -3    4.00    0.69 
   6  -5   3    3.74    0.34 
  -6   5  -3    3.85    0.35 
  -6   5  -3    3.87    0.38 
   6   5   3    4.13    0.44 
  -6   5  -3    4.22    0.53 
  -6   5  -3    3.88    0.40 
  -6  -6   3    9.20    0.80 
  -6  -6   3    8.91    0.73 
  -6  -6   3    8.53    0.79 
   6  -6  -3    7.07    0.63 
  -6   6   3    6.24    1.42 
   6   6  -3    9.38    0.61 
  -6   6   3    8.85    0.63 
  -6   6   3    9.42    0.75 
  -5  -6   3  112.80    6.88 
  -5  -6   3  125.10    5.33 
   5  -6  -3  108.62    4.77 
  -5  -6   3  108.43    5.30 
  -5  -6   3  109.74    5.38 
  -5   6   3  110.88    4.80 
  -5   6   3  120.93    5.28 
  -5   6   3   96.88    7.53 
   5   6  -3  119.67    4.83 
  -5   6   3  113.43    4.91 
  -4  -6   3  193.10    8.64 
  -4  -6   3  210.10   11.02 
  -4  -6   3  198.78    8.98 
  -4  -6   3  206.11    8.64 
  -4  -6   3  207.18    9.21 
   4  -6  -3  201.12    8.39 
  -4   6   3  203.59    8.44 
  -4   6   3  209.54    8.52 
   4   6  -3  218.58    8.77 
  -4   6   3  197.71   12.41 
  -4   6   3  211.45    8.86 
  -3  -6   3   48.48    2.50 
  -3  -6   3   48.05    2.60 
   3  -6  -3   46.84    2.40 
  -3  -6   3   47.03    2.96 
  -3   6   3   53.13    5.25 
   3   6  -3   47.20    2.31 
  -3   6   3   47.79    2.52 
  -3   6   3   46.01    2.70 
  -3   6   3   45.78    2.51 
   2  -6  -3   46.62    2.44 
   2  -6  -3   41.88    2.24 
  -2  -6   3   44.28    2.31 
  -2  -6   3   43.71    2.52 
   2  -6  -3   43.04    2.28 
   2   6  -3   43.18    2.17 
  -2   6   3   43.10    2.28 
   2   6  -3   42.31    2.08 
   2   6  -3   45.70    2.56 
   1  -6  -3   97.74    4.31 
  -1  -6   3  101.76    4.68 
   1  -6  -3   97.44    4.42 
   1  -6  -3  101.52    4.57 
  -1   6   3   99.11    4.67 
  -1   6   3   96.25    4.31 
   1   6  -3  105.07    4.77 
   0  -6  -3    1.48    0.40 
   0  -6   3    2.72    0.53 
   0  -6  -3    2.85    0.52 
   0  -6   3    2.51    0.44 
   0  -6   3    1.63    0.39 
   0   6   3    2.23    0.51 
   0   6  -3    2.43    0.58 
   1  -6   3   76.23    3.79 
   1  -6   3   73.59    3.47 
  -1   6  -3   74.50    4.03 
   1   6   3   74.54    3.40 
   2  -6   3   50.85    2.45 
  -2  -6  -3   62.85    4.48 
  -2  -6  -3   47.81    2.79 
  -2  -6  -3   52.31    4.49 
  -2  -6  -3   48.12    3.03 
  -2   6  -3   45.65    2.66 
  -2   6  -3   47.13    7.05 
   2   6   3   55.82    2.84 
   2   6   3   49.17    2.30 
  -2   6  -3   52.31    2.84 
   3  -6   3   17.07    1.10 
  -3  -6  -3   15.47    1.33 
  -3  -6  -3   18.55    2.60 
  -3  -6  -3   16.65    1.51 
  -3  -6  -3   15.62    1.43 
  -3  -6  -3   16.66    1.55 
  -3   6  -3   16.37    1.24 
   3   6   3   15.75    1.02 
   3   6   3   16.31    1.22 
  -3   6  -3   17.55    2.87 
  -3   6  -3   16.75    1.41 
  -3   6  -3   16.11    1.23 
   3   6   3   15.33    1.24 
  -3   6  -3   17.82    1.25 
  -4  -6  -3   55.63    4.74 
   4  -6   3   60.37    2.77 
  -4  -6  -3   61.66    3.39 
  -4  -6  -3   62.15    3.17 
  -4  -6  -3   57.80    3.28 
   4   6   3   59.11    3.07 
  -4   6  -3   61.24    3.20 
   4   6   3   57.94    2.71 
  -4   6  -3   67.54    7.42 
  -4   6  -3   61.54    2.95 
  -4   6  -3   59.68    2.93 
  -4   6  -3   60.79    2.91 
   4   6   3   58.18    2.95 
  -5  -6  -3   30.89    2.38 
   5  -6   3   36.31    1.76 
  -5  -6  -3   33.70    3.37 
  -5  -6  -3   36.09    1.99 
   5   6   3   35.68    1.71 
  -5   6  -3   38.73    1.88 
   5   6   3   40.16    2.55 
  -5   6  -3   37.54    1.82 
  -5   6  -3   36.42    2.03 
  -5   6  -3   38.63    1.88 
  -5  -7   3   22.38    1.37 
  -5  -7   3   19.59    1.52 
  -5  -7   3   21.14    1.35 
   5  -7  -3   20.18    1.25 
  -5   7   3   22.59    1.38 
  -5   7   3   23.72    3.58 
   5   7  -3   21.38    1.10 
  -5   7   3   20.82    1.39 
  -5   7   3   19.67    1.18 
   4  -7  -3   37.07    2.01 
  -4  -7   3   37.06    2.55 
  -4  -7   3   34.60    3.10 
  -4  -7   3   32.89    2.35 
  -4  -7   3   35.78    2.18 
  -4   7   3   37.72    4.23 
   4   7  -3   39.24    1.97 
  -4   7   3   37.22    2.06 
  -4   7   3   38.64    2.26 
  -3  -7   3   60.03    3.59 
  -3  -7   3   57.07    3.21 
  -3  -7   3   63.30    3.17 
  -3  -7   3   57.99    3.33 
   3  -7  -3   64.11    3.11 
  -3   7   3   70.17    6.24 
  -3   7   3   64.36    3.16 
   3   7  -3   61.54    2.80 
  -3   7   3   64.37    3.36 
  -3   7   3   67.81    3.21 
   2  -7  -3  134.97    5.81 
  -2  -7   3  124.61    5.77 
  -2  -7   3  130.48    6.08 
  -2  -7   3  131.22    6.32 
  -2   7   3  134.76    5.92 
  -2   7   3  132.06    5.86 
  -2   7   3  137.86    6.07 
  -2   7   3  130.12    9.19 
   2   7  -3  141.93    8.46 
   1  -7  -3  122.64    5.68 
  -1  -7   3  113.31    5.66 
   1  -7  -3  114.07    5.22 
  -1  -7   3  112.79    5.49 
  -1   7   3  132.39    8.67 
  -1   7   3  120.23    5.46 
   1   7  -3  131.38    8.19 
  -1   7   3  118.96    5.36 
  -1   7   3  121.54    5.71 
   1   7  -3  112.03    5.33 
   0  -7  -3   91.20    4.59 
   0  -7   3   89.31    4.47 
   0   7   3   88.72    4.23 
   0   7   3   89.03    4.38 
   0   7   3  102.09    4.57 
   0   7  -3   96.27    7.00 
   0   7  -3   84.38    4.24 
   0   7  -3   88.21    4.23 
  -1  -7  -3   28.65    2.10 
   1  -7   3   31.09    1.72 
  -1  -7  -3   29.50    1.98 
   1  -7   3   34.18    2.13 
  -1  -7  -3   31.59    2.19 
   1   7   3   30.48    1.87 
   1   7   3   31.02    1.92 
  -1   7  -3   29.50    1.72 
   1   7   3   31.75    1.71 
  -1   7  -3   29.01    1.88 
  -1   7  -3   31.21    1.87 
  -1   7  -3   32.45    3.91 
  -2  -7  -3   54.65    4.20 
   2  -7   3   42.24    2.27 
   2   7   3   41.96    2.31 
  -2   7  -3   46.81    2.65 
  -2   7  -3   45.63    4.95 
   2   7   3   47.12    2.78 
   3  -7   3    0.46    0.22 
  -3  -7  -3    0.78    0.32 
  -3  -7  -3    0.37    0.56 
  -3  -7  -3    0.65    0.39 
  -3  -7  -3   -0.21    0.28 
  -3   7  -3    0.76    0.65 
  -3   7  -3    0.96    0.33 
  -3   7  -3    0.43    0.24 
   3   7   3    0.01    0.27 
  -3   7  -3    0.76    0.24 
   3   7   3    0.94    0.31 
  -3   7  -3    0.90    0.28 
  -4  -7  -3    1.93    0.48 
  -4  -7  -3    1.19    0.61 
   4  -7   3    2.30    0.37 
  -4  -7  -3    1.10    0.44 
  -4  -7  -3    1.82    0.47 
  -4   7  -3    1.86    0.37 
  -4   7  -3    1.72    0.36 
  -4   7  -3    2.34    0.41 
   4   7   3    1.76    0.38 
   4   7   3    1.95    0.42 
  -4   7  -3    2.12    0.44 
  -4   7  -3    1.59    0.88 
  -5  -7  -3    0.28    0.26 
   5  -7   3    0.11    0.20 
   5  -7   3    0.86    0.24 
  -5  -7  -3    0.05    0.20 
  -5  -7  -3    0.21    0.19 
  -5   7  -3    0.54    0.20 
   5   7   3    0.28    0.24 
   5   7   3    0.41    0.20 
  -5   7  -3    0.30    0.18 
  -5   7  -3    0.13    0.16 
  -5   7  -3    0.65    0.18 
  -5  -8   3   33.22    1.92 
  -5  -8   3   27.51    1.43 
   5  -8  -3   29.77    1.46 
   5   8  -3   29.31    1.43 
  -5   8   3   31.20    1.70 
  -5   8   3   23.71    2.31 
  -5   8   3   30.67    1.58 
  -4  -8   3   22.31    1.62 
   4  -8  -3   23.52    1.38 
   4  -8  -3   21.62    1.45 
  -4   8   3   24.13    1.46 
  -4   8   3   21.38    1.44 
  -4   8   3   23.58    1.39 
   3  -8  -3    9.75    0.98 
   3  -8  -3    9.98    0.86 
  -3  -8   3    7.11    0.99 
  -3  -8   3    7.60    0.78 
   3   8  -3    8.65    0.79 
  -3   8   3    6.94    1.89 
  -3   8   3    8.59    0.84 
  -3   8   3    9.68    0.90 
  -2  -8   3   21.21    1.72 
  -2  -8   3   22.56    1.62 
   2  -8  -3   23.53    1.71 
   2  -8  -3   22.99    1.47 
  -2   8   3   17.83    2.91 
  -2   8   3   22.32    1.52 
  -2   8   3   23.76    1.56 
  -2   8   3   22.81    1.55 
   2   8  -3   20.01    2.64 
  -1  -8   3    0.76    0.37 
   1  -8  -3    0.92    0.31 
  -1  -8   3    1.25    0.43 
   1  -8  -3    1.34    0.46 
   1   8  -3    1.33    0.95 
  -1   8   3    0.82    0.70 
  -1   8   3    1.54    0.47 
  -1   8   3    0.78    0.33 
   0  -8  -3   11.77    1.29 
   0  -8   3   10.17    1.17 
   0  -8   3   13.25    1.21 
   0  -8  -3   12.47    1.15 
   0   8  -3   12.46    1.09 
   0   8  -3   13.62    2.44 
   0   8   3   12.30    1.06 
   0   8   3   11.00    1.01 
   1  -8   3    5.75    0.68 
  -1  -8  -3    5.67    0.84 
   1  -8   3    6.64    0.82 
  -1  -8  -3    6.43    0.82 
  -1  -8  -3    5.70    1.00 
   1   8   3    6.89    0.73 
  -1   8  -3    5.98    0.73 
  -1   8  -3    6.36    0.74 
  -1   8  -3    7.42    1.81 
  -2  -8  -3    2.95    0.70 
  -2  -8  -3    2.48    0.58 
   2  -8   3    3.25    0.47 
   2  -8   3    3.15    0.64 
  -2   8  -3    3.41    0.47 
  -2   8  -3    2.83    0.51 
   2   8   3    3.95    0.58 
  -2   8  -3    3.04    1.23 
  -2   8  -3    3.46    0.57 
  -2   8  -3    4.22    0.55 
  -3  -8  -3    2.48    0.54 
  -3  -8  -3    2.13    0.48 
   3  -8   3    3.21    0.56 
   3  -8   3    2.45    0.39 
  -3   8  -3    2.26    0.43 
   3   8   3    1.97    0.44 
  -3   8  -3    1.76    0.37 
  -3   8  -3    2.50    0.42 
   3   8   3    2.48    0.45 
  -3   8  -3    2.08    1.06 
  -3   8  -3    1.71    0.37 
   4  -8   3    1.52    0.38 
  -4  -8  -3    0.49    0.50 
  -4  -8  -3    1.27    0.33 
   4  -8   3    1.85    0.28 
  -4  -8  -3    1.97    0.48 
  -4   8  -3    0.96    0.26 
  -4   8  -3    0.77    0.24 
  -4   8  -3    1.15    0.27 
  -4   8  -3    1.40    0.26 
   4   8   3    1.28    0.56 
   4   8   3    1.19    0.29 
  -3  -9   3    6.85    0.95 
   3  -9  -3    6.62    0.57 
   3  -9  -3    5.49    0.66 
  -3   9   3    6.80    0.66 
  -3   9   3    4.95    0.57 
  -3   9   3    4.00    1.12 
  -3   9   3    5.65    0.59 
  -2  -9   3   12.48    1.16 
  -2  -9   3   12.19    1.13 
   2  -9  -3    9.92    1.20 
   2  -9  -3   13.11    1.12 
  -2   9   3   12.44    0.95 
  -2   9   3   11.42    1.98 
  -2   9   3   13.07    1.03 
  -2   9   3   13.51    0.92 
  -1  -9   3    4.39    0.67 
   1  -9  -3    4.97    0.64 
  -1  -9   3    4.70    0.68 
   1  -9  -3    3.74    0.64 
  -1   9   3    2.60    1.03 
  -1   9   3    4.98    0.59 
   1   9  -3    3.66    1.08 
   0  -9  -3   24.25    1.49 
   0  -9   3   23.23    1.57 
   0  -9   3   23.19    1.67 
   0  -9  -3   23.40    1.71 
   0   9   3   24.18    1.41 
   0   9  -3   23.30    2.99 
   0   9   3   21.77    1.40 
   0   9  -3   21.62    1.46 
   1  -9   3    6.99    0.75 
   1  -9   3    6.47    0.81 
  -1  -9  -3    7.80    0.97 
  -1  -9  -3    6.45    0.82 
  -1   9  -3    6.99    0.72 
  -1   9  -3    5.46    1.37 
   1   9   3    6.56    0.69 
   2  -9   3    5.84    0.93 
  -2  -9  -3    7.96    0.84 
  -2  -9  -3    6.37    0.73 
  -2   9  -3    6.28    0.91 
  -2   9  -3    7.09    0.93 
   3  -9   3    4.12    0.49 
  -3  -9  -3    3.44    0.52 
   3  -9   3    3.96    0.42 
  -3  -9  -3    4.50    0.53 
   3   9   3    4.29    0.46 
  -3   9  -3    3.86    0.45 
  -3   9  -3    4.05    0.46 
  -2 -10   3    1.03    0.38 
   2 -10  -3    1.11    0.24 
   2 -10  -3    1.69    0.38 
  -2  10   3    0.77    0.44 
  -2  10   3    1.62    0.26 
  -1 -10   3    1.26    0.34 
   1 -10  -3    0.58    0.27 
  -1 -10   3    0.91    0.26 
   1  10  -3    0.64    0.39 
   0 -10  -3   16.98    1.18 
   0 -10   3   18.24    1.38 
   0 -10   3   14.80    1.07 
   1 -10   3    8.65    0.78 
  -1 -10  -3    8.36    0.73 
   1 -10   3    8.28    0.80 
  -1  10  -3    6.73    1.22 
  -7   0   4   39.41    2.11 
  -7   0   4   38.53    2.99 
  -6   0   4   19.73    1.59 
  -6   0   4   15.42    2.31 
  -6   0   4   19.42    1.45 
  -5   0   4  124.31    5.52 
  -4   0   4   46.15    2.29 
   4   0  -4   42.56    2.21 
  -4   0   4   46.62    2.38 
  -4   0   4   44.78    2.09 
  -3   0   4  630.52   24.32 
   3   0  -4  659.10   24.35 
  -3   0   4  637.19   24.59 
  -1   0   4  132.79    5.29 
  -1   0   4  138.36    5.39 
  -1   0  -4  182.59    7.32 
   1   0   4  181.29    7.06 
   1   0   4  179.01    6.93 
   2   0   4    0.11    0.10 
  -2   0  -4    0.38    0.17 
  -3   0  -4  245.26   10.26 
   3   0   4  228.38   10.05 
   3   0   4  245.44    9.48 
   4   0   4  316.68   13.77 
   4   0   4  325.31   12.54 
  -4   0  -4  326.71   13.94 
  -5   0  -4  329.17   14.04 
   5   0   4  336.34   13.86 
  -5   0  -4  331.71   14.08 
  -5   0  -4  339.73   14.04 
  -5   0  -4  363.71   14.26 
  -5   0  -4  387.56   16.19 
  -6   0  -4    3.87    0.57 
   6   0   4    2.54    0.34 
  -6   0  -4    3.29    0.55 
  -6   0  -4    3.08    0.52 
  -6   0  -4    2.24    0.45 
  -7  -1   4   41.51    3.70 
  -7  -1   4   37.67    2.41 
  -7  -1   4   39.07    2.02 
  -7  -1   4   40.67    2.57 
  -6  -1   4   49.01    2.73 
  -6  -1   4   51.16    3.04 
  -6  -1   4   49.96    2.96 
  -6  -1   4   55.36    4.67 
  -6   1   4   50.00    2.61 
  -6   1   4   49.69    4.04 
  -6   1   4   49.84    2.67 
  -5  -1   4   83.40    3.97 
  -5  -1   4   91.10    6.38 
  -5  -1   4   81.43    4.04 
   5  -1  -4   76.91    3.78 
  -5  -1   4   81.97    4.35 
  -5   1   4   82.13    3.82 
  -5   1   4   77.95    3.82 
  -4  -1   4   31.06    1.86 
  -4  -1   4   30.31    1.77 
   4   1  -4   30.84    1.75 
  -4   1   4   31.72    1.83 
  -4   1   4   35.84    1.85 
  -4   1   4   34.69    1.72 
   3  -1  -4  351.69   14.33 
  -3  -1   4  380.20   14.65 
  -3  -1   4  375.59   14.28 
  -3  -1   4  381.10   14.58 
  -3   1   4  389.33   14.44 
  -3   1   4  377.15   14.56 
   3   1  -4  379.45   14.43 
  -3   1   4  366.26   14.60 
  -2  -1   4   62.99    2.88 
   2  -1  -4   67.57    2.53 
  -2  -1   4   67.79    2.72 
   2   1  -4   66.37    2.71 
  -2   1   4   68.31    2.81 
  -2   1   4   64.60    2.88 
  -1  -1   4    1.17    0.19 
  -1  -1   4    1.05    0.15 
   1   1  -4    0.88    0.13 
  -1   1   4    0.67    0.14 
   0  -1   4  200.86    7.51 
   0  -1   4  205.89    7.54 
   0   1   4  193.01    7.46 
   0   1   4  177.44    7.43 
   0   1  -4  183.61    7.57 
   0   1   4  200.05    7.46 
  -1  -1  -4  589.01   22.06 
  -3  -1  -4   32.54    1.68 
   3  -1   4   37.75    1.80 
   3   1   4   29.97    1.55 
   3   1   4   31.42    1.65 
   3   1   4   30.18    2.03 
  -3   1  -4   30.30    2.17 
  -4  -1  -4  364.77   15.22 
  -4  -1  -4  375.99   15.23 
  -4  -1  -4  370.66   15.37 
   4  -1   4  384.38   14.96 
   4  -1   4  380.80   14.58 
  -4   1  -4  394.63   15.17 
   4   1   4  376.10   14.64 
  -4   1  -4  374.69   15.13 
   4   1   4  383.41   14.79 
  -4   1  -4  376.95   15.14 
  -5  -1  -4    1.82    0.52 
  -5  -1  -4    2.84    0.61 
   5  -1   4    1.57    0.33 
  -5  -1  -4    2.74    0.60 
  -5  -1  -4    2.19    0.60 
  -5  -1  -4    1.58    0.81 
  -5   1  -4    2.36    0.55 
  -5   1  -4    2.47    0.55 
  -5   1  -4    2.08    0.51 
   5   1   4    2.10    0.38 
  -5   1  -4    1.76    0.51 
  -5   1  -4    2.82    0.65 
  -6  -1  -4   26.67    2.43 
  -6  -1  -4   29.51    1.76 
   6  -1   4   27.80    1.43 
  -6  -1  -4   29.77    1.86 
  -6  -1  -4   31.35    1.81 
  -6   1  -4   31.10    1.72 
  -6   1  -4   28.09    2.14 
   6   1   4   29.76    1.50 
  -6   1  -4   32.19    1.75 
  -6   1  -4   30.85    1.70 
  -7  -2   4    8.87    0.84 
  -7  -2   4   10.66    1.97 
  -7  -2   4    8.75    1.08 
  -7  -2   4   10.41    0.82 
   7   2  -4    9.10    0.65 
  -6  -2   4  145.84    8.79 
  -6  -2   4  136.12    6.15 
  -6  -2   4  138.28    6.61 
  -6  -2   4  138.83    6.16 
  -6  -2   4  137.88    6.09 
  -5  -2   4   31.34    2.23 
  -5  -2   4   43.08    4.21 
  -5  -2   4   41.07    2.59 
  -5  -2   4   37.02    2.19 
  -5   2   4   35.62    2.27 
  -5   2   4   33.90    1.99 
  -5   2   4   39.24    4.08 
  -5   2   4   36.45    2.16 
   4  -2  -4   56.02    2.82 
  -4  -2   4   58.68    2.94 
  -4   2   4   61.11    2.81 
  -4   2   4   58.42    2.86 
   4   2  -4   57.90    2.85 
  -4   2   4   59.34    2.85 
  -3  -2   4  126.64    5.41 
  -3  -2   4  130.58    5.40 
  -3   2   4  120.73    5.18 
   3   2  -4  131.68    5.31 
  -3   2   4  121.64    5.35 
  -3   2   4  131.77    5.28 
  -3   2   4  132.28    5.37 
  -2  -2   4  145.10    5.50 
  -2  -2   4  141.44    5.79 
   2   2  -4  131.02    5.61 
  -2   2   4  141.57    5.75 
  -2   2   4  150.08    5.71 
  -2   2   4  139.75    5.48 
  -1  -2   4  226.84    8.87 
  -1  -2   4  221.61    8.68 
  -1   2   4  220.40    8.56 
   1   2  -4  232.82    8.78 
  -1   2   4  227.14    8.75 
  -1   2   4  224.73    8.78 
   0  -2   4   80.21    3.28 
   0  -2   4   81.79    3.37 
   0  -2  -4   80.56    3.20 
   0   2   4   79.88    3.25 
   0   2   4   78.61    3.23 
   0   2   4   77.82    3.21 
   0   2  -4   78.67    3.43 
  -2  -2  -4  145.34    5.96 
   2  -2   4  134.02    5.74 
   2  -2   4  149.40    5.88 
   2   2   4  145.36    6.13 
   2   2   4  144.58    5.64 
  -2   2  -4  145.02    6.35 
   2   2   4  135.46    5.87 
   3  -2   4   42.72    2.21 
  -3  -2  -4   47.66    2.31 
  -3   2  -4   40.91    2.69 
   3   2   4   42.15    2.52 
   3   2   4   39.51    1.98 
  -4  -2  -4  165.12    7.84 
  -4  -2  -4  171.70    8.62 
   4  -2   4  158.79    6.64 
  -4  -2  -4  158.49    7.24 
  -4  -2  -4  187.53    7.79 
  -4  -2  -4  180.15    9.69 
   4   2   4  163.29    7.72 
   4   2   4  158.60    7.30 
  -4   2  -4  161.50    7.20 
  -4   2  -4  160.98    7.34 
  -5  -2  -4   10.60    1.88 
  -5  -2  -4    9.17    1.04 
   5  -2   4    9.11    0.70 
  -5  -2  -4   10.26    1.07 
  -5  -2  -4   10.00    1.02 
   5   2   4   10.66    0.81 
  -5   2  -4   10.34    0.96 
   5   2   4    8.92    0.83 
  -5   2  -4    9.53    1.08 
  -5   2  -4    9.14    0.93 
  -5   2  -4    9.82    0.98 
  -5   2  -4   10.15    0.98 
  -6  -2  -4    0.33    0.26 
  -6  -2  -4    0.42    0.46 
  -6  -2  -4    0.21    0.31 
  -6  -2  -4    0.53    0.27 
   6  -2   4    0.42    0.16 
  -6  -2  -4    0.73    0.28 
  -6   2  -4    0.74    0.36 
   6   2   4    0.69    0.21 
  -6   2  -4    1.05    0.27 
  -6   2  -4    0.53    0.23 
  -6   2  -4    0.83    0.25 
  -7  -3   4    2.86    0.85 
  -7  -3   4    2.99    0.59 
  -7  -3   4    3.01    0.42 
   7   3  -4    3.14    0.35 
  -6  -3   4    3.56    0.73 
  -6  -3   4    2.71    1.08 
  -6  -3   4    4.10    0.63 
  -6  -3   4    3.85    0.65 
  -6   3   4    4.63    2.07 
   6   3  -4    3.16    0.46 
  -5  -3   4  166.31    7.74 
  -5  -3   4  161.10    7.14 
  -5  -3   4  155.64    7.23 
  -5  -3   4  169.68    7.13 
  -5  -3   4  183.83   10.19 
  -5   3   4  160.85   10.15 
  -5   3   4  154.40    7.03 
   5   3  -4  156.05    6.76 
  -4  -3   4   45.14    2.51 
  -4  -3   4   47.81    2.57 
   4  -3  -4   47.99    2.49 
  -4   3   4   50.93    2.51 
   4   3  -4   52.58    2.60 
  -4   3   4   48.58    2.44 
   4   3  -4   45.68    2.74 
  -3  -3   4   39.78    2.08 
   3  -3  -4   39.11    2.03 
  -3  -3   4   38.92    2.12 
  -3   3   4   40.06    2.01 
  -3   3   4   36.25    1.99 
   3   3  -4   40.13    2.03 
  -3   3   4   41.00    2.06 
  -2  -3   4  131.11    5.52 
   2  -3  -4  130.99    5.39 
  -2  -3   4  129.77    5.08 
  -2   3   4  137.81    5.43 
  -2   3   4  133.84    5.36 
  -2   3   4  123.10    5.25 
  -1  -3   4  529.06   20.40 
  -1  -3   4  498.18   20.12 
   1  -3  -4  527.79   20.24 
  -1   3   4  533.46   20.17 
  -1   3   4  547.80   20.25 
  -1   3   4  553.54   20.28 
   0  -3   4  171.81    6.95 
   0  -3  -4  173.25    6.86 
   0   3   4  175.99    6.92 
   0   3  -4  180.47    7.22 
   0   3   4  179.84    6.95 
  -1  -3  -4  160.51    6.13 
   1  -3   4  161.47    6.47 
   1  -3   4  169.67    6.43 
   1   3   4  162.41    6.39 
   1   3   4  158.32    6.69 
   1   3   4  135.48    6.19 
  -1   3  -4  163.43    6.81 
   2  -3   4   49.69    2.42 
   2  -3   4   50.71    2.44 
  -2   3  -4   49.59    2.88 
   2   3   4   50.80    2.62 
   2   3   4   49.58    2.38 
   3  -3   4   11.34    0.93 
  -3  -3  -4   11.33    0.92 
   3   3   4   10.88    0.81 
   3   3   4   10.87    1.11 
   3   3   4   11.69    0.91 
  -3   3  -4   10.50    1.23 
   4  -3   4   66.79    3.02 
  -4  -3  -4   67.48    3.36 
  -4  -3  -4   78.95    5.75 
  -4  -3  -4   67.22    3.75 
  -4  -3  -4   68.87    3.69 
  -4  -3  -4   68.66    3.59 
  -4  -3  -4   65.84    3.64 
  -4   3  -4   68.85    3.41 
  -4   3  -4   72.27    3.48 
   4   3   4   72.43    3.39 
  -4   3  -4   67.57    3.64 
  -4   3  -4   69.46    3.45 
   4   3   4   71.35    3.19 
  -5  -3  -4   31.54    2.09 
  -5  -3  -4   29.42    2.00 
  -5  -3  -4   31.24    1.92 
   5  -3   4   24.99    1.46 
  -5  -3  -4   30.64    2.01 
  -5  -3  -4   33.44    3.44 
  -5   3  -4   32.91    1.84 
  -5   3  -4   28.68    1.78 
  -5   3  -4   30.24    1.82 
   5   3   4   31.61    1.66 
  -5   3  -4   31.91    2.05 
   5   3   4   28.02    1.74 
   6  -3   4    0.37    0.14 
  -6  -3  -4    0.24    0.27 
  -6  -3  -4    0.39    0.29 
  -6  -3  -4    0.12    0.26 
  -6  -3  -4    0.13    0.24 
  -6   3  -4   -0.06    0.17 
  -6   3  -4    0.15    0.23 
   6   3   4    0.51    0.18 
  -6   3  -4    0.49    0.24 
  -6   3  -4    0.27    0.19 
  -7  -4   4   14.66    1.73 
  -7  -4   4   18.38    1.25 
  -7  -4   4   18.78    1.09 
   7   4  -4   18.64    0.97 
  -6  -4   4    7.37    0.76 
  -6  -4   4    5.86    0.80 
  -6  -4   4    6.54    0.84 
  -6  -4   4    7.11    0.94 
  -6  -4   4    6.51    1.48 
  -6   4   4    4.88    1.29 
  -6   4   4    6.68    0.67 
  -6   4   4    5.30    0.71 
   6   4  -4    7.19    0.79 
  -5  -4   4  106.01    5.22 
  -5  -4   4  105.98    5.67 
  -5  -4   4  112.14    5.17 
  -5  -4   4  120.60    7.74 
  -5  -4   4  113.06    5.79 
   5   4  -4  115.08    4.92 
  -5   4   4  122.00    8.40 
  -5   4   4  109.64    5.25 
  -5   4   4  115.75    5.47 
  -4  -4   4  174.79    8.25 
  -4  -4   4  170.47    7.68 
  -4  -4   4  182.37    7.64 
  -4  -4   4  180.73   10.24 
  -4   4   4  204.18   11.53 
   4   4  -4  171.18    7.40 
  -4   4   4  172.63    7.73 
   4   4  -4  187.66    7.73 
  -3  -4   4  428.15   17.08 
  -3  -4   4  416.40   17.22 
   3  -4  -4  446.12   17.07 
   3   4  -4  450.39   17.15 
  -3   4   4  445.16   17.04 
  -2  -4   4  780.41   29.23 
   2  -4  -4  771.45   29.21 
  -2  -4   4  765.37   29.42 
   2   4  -4  800.99   29.33 
  -2   4   4  731.34   29.17 
  -2   4   4  724.66   29.19 
  -2   4   4  792.30   29.21 
  -1  -4   4  516.17   19.65 
   1  -4  -4  505.33   19.41 
  -1  -4   4  489.60   19.27 
   1   4  -4  531.57   19.65 
  -1   4   4  495.73   19.43 
  -1   4   4  516.36   19.47 
  -1   4   4  496.31   19.39 
   1  -4   4   41.68    2.05 
   1  -4   4   39.56    2.13 
   1   4   4   39.41    1.84 
   1   4   4   41.68    2.11 
   1   4   4   41.40    2.03 
  -1   4  -4   41.99    2.43 
   2  -4   4   29.76    1.79 
   2  -4   4   30.86    1.76 
   2  -4   4   30.19    1.51 
   2   4   4   30.73    1.57 
   2   4   4   31.18    1.71 
  -2   4  -4   31.37    2.22 
   2   4   4   31.36    1.89 
  -3  -4  -4   72.78    3.96 
  -3  -4  -4   78.55    5.80 
   3  -4   4   72.84    3.26 
   3  -4   4   87.45    4.12 
   3   4   4   75.18    3.57 
   3   4   4   76.66    4.01 
   3   4   4   75.37    3.39 
  -3   4  -4   73.02    3.82 
  -3   4  -4   73.81    3.62 
  -3   4  -4   75.36    3.85 
  -3   4  -4   78.90    3.66 
  -4  -4  -4    9.57    0.93 
  -4  -4  -4   10.55    1.20 
   4  -4   4    8.35    0.67 
  -4  -4  -4    8.34    1.04 
  -4  -4  -4   11.04    2.02 
  -4  -4  -4    9.03    1.08 
  -4  -4  -4    9.31    1.14 
   4   4   4    8.84    0.89 
  -4   4  -4   11.90    1.00 
   4   4   4    8.65    0.76 
  -4   4  -4    9.51    1.06 
  -4   4  -4    8.41    0.89 
  -4   4  -4    8.81    0.86 
   4   4   4    9.23    0.90 
  -5  -4  -4   38.61    3.04 
  -5  -4  -4   31.18    1.91 
  -5  -4  -4   24.78    2.52 
  -5  -4  -4   26.91    2.16 
  -5  -4  -4   32.04    3.84 
  -5  -4  -4   32.43    1.84 
   5   4   4   33.17    1.80 
   5   4   4   34.68    1.71 
  -5   4  -4   33.91    2.28 
   5   4   4   31.60    1.85 
  -6  -4  -4    0.30    0.28 
  -6  -4  -4    0.13    0.21 
  -6  -4  -4    0.84    0.24 
  -6  -4  -4    0.30    0.22 
   6  -4   4    0.24    0.14 
  -6   4  -4    0.82    0.20 
  -6   4  -4    0.82    0.21 
  -6   4  -4    0.38    0.13 
   6   4   4    0.52    0.16 
  -6   4  -4    0.61    0.29 
  -6  -5   4   11.33    1.35 
  -6  -5   4   14.23    1.27 
  -6  -5   4   14.64    1.03 
  -6  -5   4   13.55    1.05 
  -6   5   4   14.01    0.93 
  -6   5   4   14.55    1.08 
   6   5  -4   14.52    0.91 
   6   5  -4   13.82    1.02 
  -5  -5   4   54.33    2.89 
  -5  -5   4   58.58    2.91 
  -5  -5   4   56.83    3.33 
  -5  -5   4   55.31    4.70 
  -5  -5   4   57.76    3.23 
   5  -5  -4   46.55    3.06 
  -5   5   4   55.30    2.73 
   5   5  -4   59.16    2.66 
  -5   5   4   56.82    3.00 
  -5   5   4   44.20    4.84 
  -4  -5   4   54.31    3.33 
  -4  -5   4   53.59    3.37 
  -4  -5   4   64.05    4.93 
  -4  -5   4   54.69    2.97 
  -4  -5   4   57.88    2.94 
   4  -5  -4   53.80    2.61 
  -4   5   4   56.33    2.83 
  -4   5   4   50.21    5.28 
  -4   5   4   59.77    3.14 
  -4   5   4   51.93    2.74 
   4   5  -4   59.66    2.76 
  -3  -5   4   84.67    3.86 
   3  -5  -4   83.07    3.87 
  -3  -5   4   84.17    4.12 
   3  -5  -4   77.54    3.64 
  -3   5   4   85.61    3.88 
   3   5  -4   85.34    4.01 
   3   5  -4   81.56    3.70 
  -2  -5   4   10.53    1.01 
   2  -5  -4   10.20    0.86 
  -2  -5   4   10.84    0.87 
   2   5  -4   12.74    1.02 
  -2   5   4   10.40    0.85 
  -1  -5   4  105.74    4.82 
   1  -5  -4  102.64    4.61 
   1  -5  -4  113.77    4.81 
  -1   5   4  107.77    4.56 
   1   5  -4  109.05    4.87 
  -1   5   4  105.36    4.70 
   0  -5  -4  628.40   24.99 
   0  -5   4  622.68   24.94 
   0  -5   4  676.09   25.31 
   0   5  -4  682.57   25.52 
   0   5   4  653.88   24.90 
   0   5   4  661.25   25.11 
   0   5   4  653.90   25.01 
   1  -5   4  314.95   12.30 
   1  -5   4  319.15   12.73 
   1  -5   4  298.98   12.46 
   1   5   4  322.54   12.47 
  -1   5  -4  317.99   13.13 
   1   5   4  324.36   12.60 
   2  -5   4  184.55    7.19 
   2  -5   4  187.17    7.55 
   2   5   4  189.49    7.45 
  -2   5  -4  174.08    8.25 
   2   5   4  159.29    7.83 
   2   5   4  176.63    7.15 
  -3  -5  -4   69.69    3.91 
  -3  -5  -4   77.01    3.91 
  -3  -5  -4   76.75    4.12 
  -3  -5  -4   73.27    3.92 
   3  -5   4   78.27    3.39 
  -3  -5  -4   74.37    3.80 
  -3   5  -4   80.72    3.69 
  -3   5  -4   77.92    3.64 
   3   5   4   76.00    3.66 
   3   5   4   73.85    3.73 
  -3   5  -4   78.93    3.68 
  -3   5  -4   75.44    3.92 
   3   5   4   75.60    3.40 
  -3   5  -4   89.31    6.85 
  -4  -5  -4   24.73    1.81 
  -4  -5  -4   26.79    3.23 
  -4  -5  -4   24.43    1.72 
  -4  -5  -4   26.80    1.98 
  -4  -5  -4   23.63    1.74 
   4  -5   4   25.94    1.42 
  -4  -5  -4   27.03    1.90 
   4   5   4   26.79    1.72 
  -4   5  -4   28.14    1.65 
  -4   5  -4   25.93    1.87 
  -4   5  -4   25.87    1.61 
   4   5   4   25.29    1.45 
  -4   5  -4   25.21    1.64 
   4   5   4   27.50    1.69 
  -5  -5  -4    9.21    0.96 
  -5  -5  -4    9.61    0.85 
  -5  -5  -4    9.46    0.96 
  -5  -5  -4    9.34    0.97 
   5  -5   4    9.21    0.67 
  -5  -5  -4    9.99    1.71 
   5   5   4    9.34    0.82 
  -5   5  -4    9.37    0.77 
   5   5   4    8.74    0.80 
  -5   5  -4    9.80    0.80 
  -5   5  -4    9.00    0.89 
   5   5   4    9.73    0.70 
  -5   5  -4    9.35    0.78 
  -6  -6   4    3.83    0.59 
  -6  -6   4    2.59    0.47 
  -6  -6   4    2.98    0.42 
   6  -6  -4    2.30    0.37 
  -6   6   4    2.26    0.37 
  -6   6   4    1.48    0.80 
   6   6  -4    3.09    0.33 
  -6   6   4    2.72    0.42 
  -5  -6   4   64.50    3.41 
   5  -6  -4   56.87    2.86 
  -5  -6   4   61.89    3.07 
  -5  -6   4   60.49    4.55 
  -5  -6   4   62.45    3.38 
  -5   6   4   65.81    3.24 
  -5   6   4   64.16    2.98 
  -4  -6   4   14.98    1.45 
  -4  -6   4   12.49    1.28 
  -4  -6   4   16.76    1.28 
  -4  -6   4   15.70    1.49 
   4  -6  -4   15.16    1.09 
  -4  -6   4   14.81    2.21 
   4   6  -4   15.27    1.04 
  -4   6   4   15.32    1.35 
  -4   6   4   15.43    1.17 
  -4   6   4   18.31    3.01 
  -4   6   4   14.99    1.21 
  -3  -6   4   59.62    3.11 
  -3  -6   4   61.94    3.03 
   3  -6  -4   64.21    3.02 
  -3  -6   4   61.09    3.57 
  -3  -6   4   60.51    3.46 
  -3   6   4   60.80    3.07 
   3   6  -4   58.75    4.75 
  -3   6   4   70.28    6.16 
  -3   6   4   60.84    3.30 
   3   6  -4   61.96    2.86 
  -3   6   4   62.48    3.14 
   2  -6  -4   29.46    1.77 
  -2  -6   4   29.93    2.19 
  -2  -6   4   26.55    2.01 
  -2   6   4   30.48    3.74 
  -2   6   4   25.48    1.71 
   2   6  -4   25.92    1.43 
   2   6  -4   29.37    3.17 
  -2   6   4   26.33    1.86 
   1  -6  -4   56.60    3.07 
   1  -6  -4   61.88    2.85 
  -1  -6   4   54.78    2.99 
  -1   6   4   49.73    2.59 
  -1   6   4   56.73    2.70 
   1   6  -4   55.85    3.08 
   0  -6  -4   77.85    3.88 
   0  -6  -4   84.37    3.83 
   0  -6   4   85.54    4.13 
   0   6   4   87.61    3.79 
   0   6   4   85.88    4.01 
   0   6  -4   86.39    4.34 
  -1  -6  -4  256.77   11.17 
   1  -6   4  254.16   10.68 
  -1  -6  -4  243.94   10.98 
   1  -6   4  281.61   10.54 
   1   6   4  272.51   10.64 
  -1   6  -4  270.06   10.79 
  -1   6  -4  294.67   14.48 
   1   6   4  236.53   10.99 
   1   6   4  268.88   10.89 
   1   6   4  273.06   10.88 
  -2  -6  -4   35.61    2.49 
  -2  -6  -4   39.26    3.85 
  -2  -6  -4   37.76    2.35 
  -2  -6  -4   36.68    2.36 
   2  -6   4   39.51    1.98 
  -2  -6  -4   34.10    2.36 
   2   6   4   36.92    2.07 
   2   6   4   38.95    2.23 
  -2   6  -4   36.83    2.06 
  -2   6  -4   43.07    4.50 
  -2   6  -4   35.96    2.27 
  -2   6  -4   38.55    2.10 
  -2   6  -4   39.47    2.17 
  -3  -6  -4    0.64    0.39 
  -3  -6  -4    1.27    0.43 
  -3  -6  -4    0.44    0.42 
   3  -6   4    0.35    0.20 
  -3  -6  -4   -0.10    0.44 
  -3   6  -4    0.35    0.30 
  -3   6  -4    0.14    0.30 
  -3   6  -4    0.43    0.26 
   3   6   4    0.68    0.31 
  -3   6  -4    1.07    0.96 
  -3   6  -4    0.59    0.26 
   3   6   4    0.14    0.23 
   3   6   4    0.29    0.22 
  -4  -6  -4   56.06    2.89 
  -4  -6  -4   56.45    4.50 
   4  -6   4   53.95    2.47 
  -4  -6  -4   41.29    3.26 
  -4  -6  -4   52.55    2.92 
  -4  -6  -4   47.71    2.69 
  -4   6  -4   48.17    2.99 
  -4   6  -4   53.22    2.66 
   4   6   4   51.75    2.36 
  -4   6  -4   47.29    3.39 
  -4   6  -4   58.36    2.76 
   4   6   4   53.46    2.65 
   4   6   4   54.51    2.74 
  -5  -6  -4   11.15    0.89 
  -5  -6  -4   11.34    1.23 
  -5  -6  -4   11.04    0.94 
   5  -6   4   11.61    0.73 
  -5   6  -4   11.30    0.76 
  -5   6  -4   11.47    0.80 
  -5   6  -4   10.97    0.78 
   5   6   4   10.76    0.76 
  -5   6  -4   10.97    0.88 
   5   6   4   10.98    0.80 
  -5  -7   4    7.81    0.76 
   5  -7  -4    7.51    0.90 
  -5  -7   4    8.53    1.41 
   5   7  -4    7.14    0.54 
  -5   7   4    7.46    0.77 
  -4  -7   4    3.03    0.50 
  -4  -7   4    3.03    0.91 
   4  -7  -4    3.50    0.52 
  -4  -7   4    2.48    0.54 
  -4  -7   4    3.48    0.76 
  -4   7   4    2.53    0.69 
  -4   7   4    2.86    1.22 
   4   7  -4    3.34    0.53 
   4   7  -4    3.11    0.52 
  -4   7   4    3.47    0.52 
  -3  -7   4   35.37    2.41 
   3  -7  -4   37.35    2.05 
  -3  -7   4   34.21    2.00 
  -3   7   4   32.39    4.07 
   3   7  -4   30.27    3.19 
  -3   7   4   37.06    2.08 
   3   7  -4   34.75    1.73 
  -3   7   4   36.57    2.21 
  -3   7   4   35.47    2.03 
  -2  -7   4   36.10    2.43 
   2  -7  -4   38.48    2.13 
   2  -7  -4   32.60    2.25 
  -2  -7   4   37.67    2.51 
  -2   7   4   38.61    2.20 
   2   7  -4   37.83    3.84 
  -2   7   4   40.87    4.54 
  -2   7   4   35.28    2.23 
  -2   7   4   33.95    2.13 
   1  -7  -4  147.19    6.34 
   1  -7  -4  146.36    6.72 
  -1  -7   4  142.74    6.55 
  -1  -7   4  143.93    6.76 
  -1   7   4  149.88    6.53 
  -1   7   4  150.63    6.49 
  -1   7   4  147.44    6.55 
   1   7  -4  164.55    9.50 
  -1   7   4  143.21    6.47 
  -1   7   4  166.18    9.88 
   1   7  -4  132.81    6.36 
   0  -7  -4   25.04    1.76 
   0  -7   4   25.81    1.82 
   0  -7  -4   24.30    1.83 
   0   7  -4   22.35    1.58 
   0   7  -4   23.28    1.65 
   0   7   4   23.85    1.63 
   0   7   4   23.09    1.43 
   0   7   4   25.12    1.69 
   0   7  -4   28.16    3.44 
  -1  -7  -4    5.24    0.78 
  -1  -7  -4    7.03    1.01 
   1  -7   4    5.03    0.61 
   1  -7   4    4.55    0.78 
  -1   7  -4    4.83    0.69 
  -1   7  -4    6.56    1.68 
   1   7   4    4.86    0.70 
   1   7   4    4.83    0.63 
   1   7   4    4.45    0.72 
  -1   7  -4    5.81    0.74 
  -2  -7  -4   19.89    2.52 
  -2  -7  -4   19.43    1.64 
  -2  -7  -4   20.70    1.75 
  -2  -7  -4   18.08    1.51 
   2  -7   4   20.05    1.27 
  -2   7  -4   21.00    1.34 
   2   7   4   18.91    1.51 
  -2   7  -4   20.22    1.50 
  -2   7  -4   20.51    3.11 
   2   7   4   19.83    1.49 
  -2   7  -4   21.25    1.45 
  -2   7  -4   21.06    1.42 
  -3  -7  -4   13.10    1.14 
  -3  -7  -4   13.40    2.05 
   3  -7   4   13.59    0.96 
  -3  -7  -4   13.33    1.32 
  -3  -7  -4   13.98    1.19 
  -3  -7  -4   11.75    1.19 
   3   7   4   14.54    1.16 
   3   7   4   13.12    1.01 
  -3   7  -4   12.88    1.05 
  -3   7  -4   10.29    2.61 
  -3   7  -4   14.51    1.17 
  -4  -7  -4    1.17    0.65 
  -4  -7  -4    2.48    0.52 
  -4  -7  -4    2.52    0.53 
  -4   7  -4    1.39    0.73 
  -4   7  -4    2.44    0.40 
  -4   7  -4    1.62    0.40 
  -4   7  -4    2.66    0.48 
   4   7   4    1.35    0.54 
   4   7   4    1.42    0.39 
  -4   7  -4    1.91    0.41 
  -4  -8   4    8.19    0.92 
  -4  -8   4    8.98    0.77 
   4  -8  -4    9.02    0.75 
   4  -8  -4   10.24    0.84 
  -4   8   4    7.91    0.72 
   4   8  -4    9.20    0.72 
  -4   8   4    9.64    0.86 
  -4   8   4    9.18    0.78 
  -3  -8   4    1.27    0.37 
  -3  -8   4    1.50    0.42 
   3  -8  -4    0.93    0.41 
   3  -8  -4    1.17    0.36 
  -3   8   4    1.00    0.34 
  -3   8   4    1.17    0.38 
  -3   8   4    1.13    0.67 
  -3   8   4    1.32    0.35 
   3   8  -4    1.19    0.32 
   2  -8  -4   18.96    1.46 
  -2  -8   4   18.46    1.56 
   2   8  -4   16.71    2.36 
  -2   8   4   18.77    1.35 
  -2   8   4   19.03    2.82 
  -2   8   4   17.13    1.32 
  -2   8   4   18.02    1.34 
   1  -8  -4   16.11    1.39 
   1  -8  -4   14.69    1.13 
  -1  -8   4   17.34    1.46 
  -1  -8   4   15.16    1.30 
  -1   8   4   15.33    1.20 
   1   8  -4   16.43    2.53 
  -1   8   4   16.12    1.24 
  -1   8   4   11.61    2.18 
  -1   8   4   15.28    1.15 
   0  -8  -4    8.41    0.91 
   0  -8   4    6.65    0.90 
   0  -8   4    6.77    0.85 
   0  -8  -4    9.55    1.07 
   0   8  -4    9.02    1.97 
   0   8   4    7.92    0.84 
   0   8   4    6.82    0.77 
   0   8  -4    7.06    0.83 
  -1  -8  -4    9.31    0.95 
   1  -8   4    9.98    1.04 
  -1  -8  -4    9.32    1.08 
  -1   8  -4    8.50    1.92 
  -1   8  -4    9.67    0.95 
  -1   8  -4   11.08    0.98 
   1   8   4   10.76    0.96 
  -2  -8  -4   10.68    1.08 
  -2  -8  -4   10.64    0.98 
   2  -8   4   10.81    1.01 
  -2  -8  -4   11.07    1.03 
   2  -8   4   10.28    0.79 
   2   8   4   10.39    0.84 
  -2   8  -4    9.66    0.89 
  -2   8  -4    9.79    1.93 
  -2   8  -4    9.01    0.87 
  -2   8  -4    9.16    0.78 
   2   8   4   10.12    0.94 
  -2   8  -4   10.61    0.91 
   3  -8   4   20.31    1.19 
  -3  -8  -4   20.13    1.50 
  -3  -8  -4   20.24    1.32 
   3  -8   4   23.27    1.47 
  -3   8  -4   22.02    1.30 
  -3   8  -4   20.61    1.28 
   3   8   4   19.50    1.22 
   3   8   4   20.70    1.32 
  -3   8  -4   19.25    1.28 
  -3   8  -4   19.20    1.15 
  -3   8  -4   14.88    3.16 
   4  -8   4    3.18    0.39 
  -4  -8  -4    2.47    0.54 
  -4   8  -4    2.95    0.37 
   4   8   4    3.86    0.55 
  -4   8  -4    2.98    0.32 
  -4   8  -4    2.57    0.31 
  -3  -9   4    1.98    0.43 
   3  -9  -4    3.13    0.39 
  -3   9   4    1.85    0.86 
  -3   9   4    2.35    0.41 
  -3   9   4    2.97    0.42 
   2  -9  -4    1.60    0.43 
  -2  -9   4    1.22    0.39 
  -2   9   4    1.28    0.31 
   2   9  -4    1.16    0.72 
  -2   9   4    1.89    0.39 
  -2   9   4    1.08    0.74 
   1  -9  -4   15.95    1.23 
  -1  -9   4   20.24    1.88 
  -1  -9   4   16.07    1.34 
   1  -9  -4   16.02    1.32 
  -1   9   4   16.86    1.15 
   1   9  -4   14.78    2.25 
   0  -9  -4   18.50    1.30 
   0  -9   4   18.75    1.32 
   0  -9   4   18.45    1.39 
   0  -9  -4   18.38    1.44 
   0   9   4   18.43    1.22 
   0   9  -4   15.42    2.35 
  -1  -9  -4   16.47    1.37 
   1  -9   4   17.84    1.34 
  -1  -9  -4   17.85    1.20 
   1  -9   4   19.03    1.25 
   1   9   4   18.75    1.25 
  -1   9  -4   16.94    2.44 
  -1   9  -4   17.48    1.18 
   2  -9   4    4.45    0.57 
  -2  -9  -4    3.82    0.59 
   2  -9   4    3.07    0.49 
  -2   9  -4    4.44    0.50 
   2   9   4    4.44    0.50 
  -2   9  -4    3.34    0.98 
   1 -10  -4   31.96    1.91 
   1 -10  -4   31.42    1.55 
  -1 -10   4   33.41    1.74 
   1  10  -4   27.32    2.37 
   0 -10  -4   36.90    1.93 
   0 -10   4   36.51    1.93 
   0 -10   4   35.12    1.89 
  -7   0   5    0.03    0.33 
  -7   0   5    0.29    0.32 
  -7   0   5   -0.19    0.27 
  -6   0   5    5.89    0.75 
  -6   0   5    4.89    0.79 
  -6   0   5    5.53    1.35 
  -6   0   5    5.39    0.75 
  -5   0   5    0.61    0.58 
  -5   0   5    0.83    0.51 
  -5   0   5    0.72    0.38 
  -5   0   5    0.48    0.38 
  -5   0   5    0.32    0.42 
  -4   0   5    2.69    0.39 
  -4   0   5    2.93    0.42 
  -3   0   5   24.51    1.48 
  -3   0   5   25.75    1.48 
   3   0  -5   27.52    1.41 
  -1   0   5    3.11    0.30 
  -1   0   5    2.87    0.31 
   0   0   5   99.14    4.04 
   0   0  -5   97.33    4.09 
   0   0   5  102.77    4.06 
   1   0   5  526.47   19.90 
  -1   0  -5  519.54   20.20 
   1   0   5  522.32   19.75 
   2   0   5 1000.00   37.81 
   3   0   5  132.95    5.44 
   3   0   5  124.39    6.15 
  -3   0  -5  134.22    6.36 
   3   0   5  138.51    5.50 
   3   0   5  140.02    5.62 
   4   0   5   24.96    1.36 
  -4   0  -5   23.46    1.71 
  -4   0  -5   24.34    1.74 
  -4   0  -5   27.58    2.88 
  -4   0  -5   23.61    1.67 
  -4   0  -5   21.94    1.75 
  -4   0  -5   25.22    1.84 
  -5   0  -5    4.25    0.66 
   5   0   5    3.68    0.46 
  -5   0  -5    3.36    0.64 
  -5   0  -5    3.86    0.67 
  -6   0  -5    0.96    0.29 
  -6   0  -5    0.98    0.31 
   6   0   5    1.11    0.22 
  -6   0  -5    0.99    0.33 
  -6   0  -5    1.01    0.30 
  -7  -1   5    1.13    0.58 
  -7  -1   5    0.68    0.58 
  -7  -1   5    1.43    0.53 
  -6  -1   5  126.17    5.92 
  -6  -1   5  114.40    7.72 
  -6  -1   5  131.06    5.58 
  -6  -1   5  127.21    5.61 
  -6   1   5  116.18    7.30 
  -6   1   5  116.32    7.21 
  -6   1   5  127.13    5.42 
  -6   1   5  121.44    5.50 
  -5  -1   5   46.56    3.05 
  -5  -1   5   48.75    3.03 
  -5  -1   5   44.62    2.85 
  -5  -1   5   57.27    4.91 
  -5   1   5   47.19    2.80 
  -5   1   5   55.65    4.68 
  -5   1   5   53.10    4.51 
  -5   1   5   49.06    2.70 
  -4  -1   5   94.13    4.27 
  -4  -1   5   91.30    4.19 
  -4   1   5   92.91    4.18 
  -4   1   5   90.30    4.38 
  -3  -1   5  356.17   14.06 
  -3  -1   5  354.13   14.09 
  -3  -1   5  356.04   13.76 
  -3   1   5  357.57   14.10 
  -3   1   5  360.11   14.05 
  -3   1   5  367.28   13.90 
   3   1  -5  362.02   13.74 
  -2  -1   5  313.43   12.27 
  -2   1   5  319.69   12.63 
  -2   1   5  322.68   12.35 
   2   1  -5  324.77   12.18 
   0  -1   5    7.66    0.52 
   0   1   5    7.01    0.49 
   0   1  -5    6.39    0.55 
   0   1   5    6.72    0.46 
   0   1   5    7.02    0.49 
   2  -1   5  845.42   32.22 
  -2  -1  -5  886.28   32.79 
   2  -1   5  855.59   32.00 
   2   1   5  862.66   32.11 
  -2   1  -5  853.93   32.79 
   2   1   5  786.70   32.52 
   3  -1   5    3.03    0.39 
   3  -1   5    3.17    0.45 
   3  -1   5    1.91    0.52 
  -3   1  -5    2.07    0.62 
   3   1   5    2.94    0.42 
   3   1   5    1.93    0.52 
   3   1   5    2.55    0.42 
  -4  -1  -5  330.47   13.47 
  -4  -1  -5  332.93   13.66 
   4  -1   5  328.73   12.89 
  -4  -1  -5  323.34   13.51 
  -4  -1  -5  326.20   13.49 
  -4   1  -5  343.28   13.43 
  -4   1  -5  339.30   13.95 
  -4   1  -5  328.49   13.43 
   4   1   5  330.22   12.94 
  -4   1  -5  333.56   13.53 
  -4   1  -5  330.91   13.42 
  -5  -1  -5  149.99    6.37 
  -5  -1  -5  145.56    6.49 
  -5  -1  -5  148.13    6.35 
   5  -1   5  127.91    5.76 
  -5  -1  -5  137.84    6.32 
  -5   1  -5  141.13    6.35 
  -5   1  -5  142.49    6.24 
  -5   1  -5  143.71    6.25 
  -5   1  -5  143.68    6.23 
  -5   1  -5  137.62    6.26 
   5   1   5  147.90    5.88 
  -6  -1  -5   22.83    1.60 
  -6  -1  -5   22.64    1.33 
  -6  -1  -5   23.29    1.50 
  -6   1  -5   22.35    1.33 
  -6   1  -5   22.10    1.46 
  -6   1  -5   23.33    1.35 
   6   1   5   22.85    1.22 
  -6   1  -5   22.57    1.39 
  -7  -2   5   11.41    0.94 
  -7  -2   5   13.36    2.16 
  -7  -2   5   11.49    0.90 
   7   2  -5   11.97    0.74 
  -6  -2   5   36.18    2.14 
  -6  -2   5   35.23    2.42 
  -6  -2   5   34.34    3.73 
  -6  -2   5   34.57    2.09 
   6   2  -5   30.82    1.84 
  -6   2   5   32.90    1.98 
  -6   2   5   37.17    3.56 
  -5  -2   5   85.99    4.22 
  -5  -2   5  102.31    6.94 
  -5  -2   5   86.68    4.68 
  -5  -2   5   90.08    4.20 
  -5   2   5   74.75    4.11 
  -5   2   5   77.43    4.16 
  -4  -2   5   74.46    3.56 
   4  -2  -5   73.01    3.46 
  -4  -2   5   75.85    3.56 
  -4   2   5   76.13    3.49 
  -4   2   5   73.69    3.37 
  -4   2   5   65.29    3.61 
  -3  -2   5   52.52    2.51 
  -3  -2   5   46.24    2.06 
  -3  -2   5   47.52    2.41 
  -3   2   5   50.71    2.32 
   3   2  -5   49.12    2.23 
  -3   2   5   46.04    2.37 
  -3   2   5   45.93    2.40 
  -1  -2   5  215.13    8.34 
  -1  -2   5  211.86    8.15 
   1   2  -5  186.62    8.18 
  -1   2   5  218.13    8.24 
  -1   2   5  213.85    8.19 
   0  -2   5  123.98    4.81 
   0  -2   5  118.81    4.71 
   0   2   5  121.23    4.67 
   0   2   5  117.78    4.61 
   0   2   5   97.93    4.56 
   0   2  -5  114.18    4.88 
   1  -2   5   38.82    1.84 
   1  -2   5   38.97    1.86 
   1   2   5   35.80    1.90 
  -1   2  -5   36.55    2.11 
   1   2   5   40.78    1.77 
   1   2   5   37.21    1.80 
   2  -2   5  305.87   11.59 
   2  -2   5  298.68   11.72 
   2   2   5  294.23   11.99 
  -2   2  -5  288.44   12.27 
   2   2   5  300.57   11.64 
   2   2   5  294.94   11.49 
   3  -2   5   21.89    1.44 
   3  -2   5   23.53    1.21 
   3   2   5   21.95    1.68 
   3   2   5   22.16    1.25 
  -3   2  -5   20.08    1.83 
   3   2   5   21.30    1.33 
   4  -2   5    5.32    0.53 
  -4  -2  -5    6.31    1.39 
  -4  -2  -5    6.29    0.86 
  -4  -2  -5    6.51    0.81 
  -4  -2  -5    5.50    0.84 
  -4  -2  -5    6.10    0.82 
  -4   2  -5    5.96    0.74 
  -4   2  -5    5.20    0.73 
  -4   2  -5    5.78    0.79 
  -4   2  -5    5.77    0.73 
   4   2   5    4.18    0.58 
  -4   2  -5    5.90    0.71 
   4   2   5    5.55    0.58 
  -5  -2  -5   93.45    4.26 
  -5  -2  -5   84.10    4.23 
  -5  -2  -5   87.06    5.87 
  -5  -2  -5   87.95    4.37 
   5  -2   5   73.82    3.64 
  -5  -2  -5   87.31    4.21 
  -5   2  -5   86.49    4.28 
  -5   2  -5   89.73    4.10 
  -5   2  -5   82.51    4.79 
   5   2   5   87.03    3.80 
  -5   2  -5   92.95    4.13 
   5   2   5   86.47    3.87 
  -5   2  -5   95.03    4.13 
   6  -2   5    3.78    0.33 
  -6  -2  -5    3.46    0.50 
  -6  -2  -5    3.96    0.57 
  -6  -2  -5    3.35    0.53 
  -6  -2  -5    2.70    0.71 
  -6  -2  -5    3.42    0.48 
   6   2   5    4.08    0.39 
  -6   2  -5    3.20    0.53 
  -6   2  -5    3.95    0.45 
  -6   2  -5    3.01    0.45 
  -6   2  -5    3.91    0.47 
  -7  -3   5    2.90    0.84 
  -7  -3   5    4.91    0.66 
  -7  -3   5    4.17    0.51 
   7   3  -5    4.25    0.39 
  -6  -3   5   49.83    2.61 
  -6  -3   5   47.10    4.36 
  -6  -3   5   51.17    2.66 
  -6  -3   5   52.16    3.07 
   6   3  -5   43.04    2.29 
  -6   3   5   45.93    2.43 
  -6   3   5   39.48    5.30 
  -5  -3   5   51.34    3.31 
  -5  -3   5   51.42    2.79 
  -5  -3   5   54.86    4.87 
  -5  -3   5   47.92    2.79 
  -5  -3   5   44.92    2.82 
  -5   3   5   54.32    5.10 
   5   3  -5   50.01    2.55 
  -5   3   5   50.16    2.75 
  -5   3   5   51.96    2.82 
   4  -3  -5  141.11    6.21 
  -4  -3   5  146.43    6.33 
  -4  -3   5  143.66    6.23 
  -4   3   5  140.65    6.13 
   4   3  -5  147.08    6.13 
   4   3  -5  141.66    6.07 
  -3  -3   5  129.58    5.75 
   3  -3  -5  134.64    5.75 
   3   3  -5  142.49    5.69 
  -3   3   5  134.91    5.78 
  -3   3   5  134.85    5.76 
  -3   3   5  137.95    5.70 
  -2  -3   5  226.92    9.28 
   2  -3  -5  229.51    9.11 
  -2  -3   5  230.98    9.14 
  -2  -3   5  223.09    8.85 
  -2   3   5  229.90    9.08 
  -2   3   5  221.86    9.14 
  -2   3   5  237.25    9.16 
   2   3  -5  233.01    9.09 
  -1  -3   5  815.46   29.65 
  -1  -3   5  740.77   29.32 
  -1   3   5  760.98   29.46 
  -1   3   5  786.72   29.23 
   0  -3   5   70.15    3.02 
   0  -3   5   68.29    3.14 
   0  -3  -5   65.87    2.88 
   0   3   5   68.73    3.03 
   0   3   5   72.30    2.97 
   0   3  -5   70.32    3.28 
   0   3   5   69.22    2.98 
   1  -3   5   52.00    2.43 
   1  -3   5   50.07    2.38 
   1   3   5   48.28    2.39 
   1   3   5   47.92    2.35 
  -1   3  -5   50.01    2.74 
   1   3   5   51.20    2.34 
   2  -3   5  101.62    4.19 
   2  -3   5  107.44    4.51 
   2  -3   5  104.06    4.45 
   2   3   5  101.13    4.24 
   2   3   5   98.05    4.66 
  -2   3  -5   98.73    5.04 
   3  -3   5    3.20    0.58 
   3  -3   5    3.24    0.40 
   3   3   5    3.07    0.71 
  -3   3  -5    2.92    0.76 
   3   3   5    3.30    0.43 
  -4  -3  -5    5.93    0.89 
  -4  -3  -5    6.35    0.82 
   4  -3   5    5.20    0.52 
  -4  -3  -5    4.77    0.79 
  -4  -3  -5    5.32    1.39 
  -4  -3  -5    6.89    0.80 
  -4  -3  -5    4.86    0.81 
   4   3   5    5.72    0.65 
  -4   3  -5    5.41    0.66 
   4   3   5    6.39    0.70 
  -4   3  -5    6.08    0.72 
   4   3   5    5.86    0.60 
  -4   3  -5    6.72    0.73 
  -4   3  -5    5.79    0.90 
   5  -3   5    1.52    0.35 
  -5  -3  -5    1.08    0.40 
  -5  -3  -5    1.89    1.04 
  -5   3  -5    1.56    0.57 
  -5   3  -5    1.33    0.52 
  -5   3  -5    1.03    0.53 
   6  -3   5    0.18    0.11 
  -6  -3  -5    0.12    0.15 
  -6  -3  -5    0.34    0.18 
  -6  -3  -5    0.38    0.20 
  -6  -3  -5    0.05    0.24 
   6   3   5   -0.02    0.28 
  -6   3  -5    0.26    0.15 
  -6   3  -5    0.17    0.15 
  -6   3  -5    0.36    0.20 
   6   3   5    0.29    0.14 
  -6   3  -5   -0.07    0.15 
  -7  -4   5    3.08    0.52 
  -7  -4   5    2.81    0.77 
  -7  -4   5    3.73    0.42 
  -6  -4   5   13.35    1.10 
  -6  -4   5   10.20    1.83 
  -6  -4   5   14.22    1.17 
  -6  -4   5   13.32    1.32 
   6   4  -5   12.84    0.89 
  -6   4   5   12.40    1.01 
  -6   4   5   10.68    1.81 
  -5  -4   5  115.57    4.98 
  -5  -4   5  112.27    4.83 
  -5  -4   5  107.24    5.39 
  -5  -4   5  103.78    7.14 
  -5  -4   5   89.61    5.49 
  -5   4   5   86.65    4.93 
  -5   4   5   98.68    4.70 
  -4  -4   5   81.55    4.47 
  -4  -4   5   92.97    6.54 
  -4  -4   5   91.52    4.91 
  -4  -4   5   88.54    4.59 
  -4   4   5   89.23    4.09 
   4   4  -5   92.57    7.40 
  -4   4   5   88.63    4.37 
  -4   4   5  106.06    7.60 
   4   4  -5   90.23    4.35 
   4   4  -5   90.17    4.11 
  -3  -4   5   47.81    2.64 
   3  -4  -5   48.01    2.44 
   3  -4  -5   47.74    2.74 
  -3  -4   5   46.10    2.43 
   3   4  -5   48.08    2.46 
  -3   4   5   46.73    2.42 
   3   4  -5   46.44    2.37 
  -3   4   5   47.00    2.41 
   2  -4  -5  336.06   13.19 
  -2  -4   5  325.40   13.15 
  -2  -4   5  330.04   13.43 
  -2   4   5  330.38   13.21 
  -2   4   5  346.12   13.19 
   2   4  -5  349.40   13.30 
   1  -4  -5  107.16    4.55 
  -1  -4   5  111.34    4.49 
  -1  -4   5  109.37    4.81 
  -1   4   5  105.46    4.57 
  -1   4   5  109.69    4.63 
  -1   4   5  107.57    4.52 
   1   4  -5  112.29    4.82 
   0  -4   5  410.32   15.77 
   0  -4  -5  404.26   15.41 
   0  -4   5  381.57   15.50 
   0   4   5  397.68   15.57 
   0   4  -5  414.87   15.98 
   0   4   5  408.42   15.54 
   0   4   5  397.22   15.48 
   1  -4   5   65.02    2.82 
   1  -4   5   62.52    3.00 
   1  -4   5   67.20    3.16 
   1   4   5   63.50    2.97 
   1   4   5   65.02    2.82 
  -1   4  -5   62.77    3.45 
   1   4   5   66.13    3.05 
   2  -4   5  149.72    6.27 
   2  -4   5  141.12    6.25 
   2  -4   5  149.75    5.92 
  -2   4  -5  140.94    6.93 
   2   4   5  151.53    6.18 
   2   4   5  148.62    6.40 
   2   4   5  141.08    5.92 
  -3  -4  -5    0.54    0.40 
  -3  -4  -5    0.76    0.54 
   3  -4   5    0.37    0.22 
   3   4   5    0.71    0.25 
  -3   4  -5    0.34    0.24 
  -3   4  -5    0.24    0.31 
  -3   4  -5    1.17    0.32 
  -3   4  -5    1.37    0.37 
   3   4   5    0.86    0.31 
  -4  -4  -5   11.64    1.18 
  -4  -4  -5   13.11    2.14 
  -4  -4  -5   11.98    1.22 
  -4  -4  -5   12.22    1.21 
   4  -4   5   11.68    0.80 
  -4  -4  -5   10.26    1.06 
  -4  -4  -5    9.95    1.01 
  -4   4  -5   10.83    1.12 
  -4   4  -5   11.68    1.01 
   4   4   5    8.82    1.02 
  -4   4  -5   12.19    1.03 
   4   4   5   12.18    0.87 
  -4   4  -5   13.68    1.06 
   4   4   5   10.48    0.99 
  -5  -4  -5   28.21    2.98 
  -5  -4  -5   30.07    1.83 
  -5  -4  -5   29.19    1.87 
  -5  -4  -5   31.01    1.94 
   5  -4   5   29.50    1.46 
  -5   4  -5   29.43    1.83 
  -5   4  -5   29.47    1.67 
  -5   4  -5   29.68    1.64 
   5   4   5   29.20    1.52 
   5   4   5   26.11    1.61 
  -5   4  -5   28.01    1.63 
  -6  -5   5    7.52    0.84 
  -6  -5   5    8.20    0.76 
   6  -5  -5    6.49    0.63 
  -6  -5   5    7.92    1.43 
  -6  -5   5    9.08    0.78 
  -6  -5   5    8.39    0.95 
   6   5  -5    8.13    0.62 
  -6   5   5    6.45    0.92 
  -6   5   5    7.53    0.64 
  -5  -5   5   15.84    1.29 
  -5  -5   5   15.57    1.48 
   5  -5  -5   15.28    1.07 
  -5  -5   5   16.21    1.22 
  -5  -5   5   15.67    1.42 
  -5   5   5   15.10    1.11 
  -5   5   5   15.22    1.28 
   5   5  -5   15.60    1.08 
  -5   5   5   17.24    2.65 
   4  -5  -5   26.50    1.57 
  -4  -5   5   26.16    2.94 
  -4  -5   5   26.71    2.10 
  -4  -5   5   30.03    3.27 
  -4  -5   5   28.50    1.76 
  -4  -5   5   27.96    1.84 
  -4  -5   5   27.71    2.21 
  -4   5   5   27.88    1.90 
   4   5  -5   27.82    1.63 
  -4   5   5   26.21    1.68 
  -4   5   5   35.25    4.14 
  -3  -5   5  250.95   10.28 
   3  -5  -5  240.59   10.13 
  -3  -5   5  251.70   10.69 
  -3   5   5  264.86   14.29 
  -3   5   5  255.78   10.37 
  -3   5   5  253.49   10.60 
   3   5  -5  262.07   10.52 
   3   5  -5  256.19   10.18 
  -2  -5   5   93.90    4.62 
   2  -5  -5  101.73    4.43 
  -2  -5   5   99.15    4.31 
   2  -5  -5   98.92    4.37 
   2   5  -5   96.30    4.21 
   2   5  -5  104.19    4.63 
  -2   5   5   99.31    4.36 
  -2   5   5   99.73    4.40 
  -1  -5   5   54.49    2.86 
   1  -5  -5   53.25    2.59 
   1  -5  -5   54.39    2.67 
   1   5  -5   54.31    2.89 
  -1   5   5   58.22    2.67 
  -1   5   5   52.04    2.58 
   0  -5   5  149.26    6.46 
   0  -5  -5  153.32    6.46 
   0  -5  -5  157.98    6.57 
   0  -5   5  161.89    6.82 
   0  -5   5  160.81    6.40 
   0   5   5  149.73    6.53 
   0   5   5  162.39    6.58 
   0   5  -5  161.93    7.04 
   0   5   5  163.97    6.57 
   1  -5   5   99.07    4.46 
   1  -5   5   98.55    4.23 
   1  -5   5   99.95    4.64 
   1   5   5  103.14    4.44 
   1   5   5  100.89    4.50 
  -1   5  -5   98.67    5.04 
  -2  -5  -5  115.68    7.35 
  -2  -5  -5  105.31    5.07 
   2  -5   5   95.98    4.63 
  -2  -5  -5  105.68    5.00 
  -2  -5  -5  107.44    5.21 
  -2   5  -5  107.25    4.74 
  -2   5  -5  103.78    4.99 
  -2   5  -5  111.31    4.81 
   2   5   5  100.24    4.82 
   2   5   5  100.61    4.42 
  -2   5  -5  107.80    4.73 
  -2   5  -5  124.58    8.07 
  -3  -5  -5    2.77    0.59 
  -3  -5  -5    3.41    0.73 
  -3  -5  -5    3.20    0.70 
  -3  -5  -5    3.17    0.77 
  -3  -5  -5    3.66    0.70 
   3  -5   5    3.60    0.44 
  -3  -5  -5    3.14    1.18 
  -3   5  -5    5.07    0.63 
  -3   5  -5    5.03    1.69 
  -3   5  -5    3.75    0.61 
  -3   5  -5    4.36    0.74 
  -3   5  -5    2.95    0.51 
   3   5   5    3.44    0.53 
   3   5   5    4.65    0.64 
   3   5   5    3.98    0.46 
  -4  -5  -5    3.09    0.65 
   4  -5   5    4.39    0.48 
  -4  -5  -5    4.46    0.68 
  -4  -5  -5    5.33    0.79 
  -4  -5  -5    4.72    1.30 
  -4  -5  -5    4.01    0.71 
  -4   5  -5    4.15    0.57 
   4   5   5    4.41    0.59 
  -4   5  -5    5.11    0.59 
   4   5   5    4.42    0.63 
  -4   5  -5    4.58    0.59 
   4   5   5    4.60    0.50 
  -4   5  -5    4.06    0.69 
   5  -5   5   28.72    1.43 
  -5  -5  -5   27.66    1.70 
  -5  -5  -5   27.14    1.66 
  -5  -5  -5   27.33    1.95 
   5   5   5   27.65    1.48 
  -5   5  -5   29.08    1.62 
   5   5   5   28.76    1.37 
  -5   5  -5   26.56    1.94 
   5   5   5   27.24    1.54 
  -6  -6   5    3.21    0.50 
  -6  -6   5    3.61    0.50 
   6  -6  -5    2.87    0.37 
  -6  -6   5    3.91    0.46 
   6   6  -5    3.11    0.33 
  -6   6   5    3.91    0.46 
  -6   6   5    3.27    0.38 
  -6   6   5    2.75    0.76 
  -5  -6   5   12.14    1.00 
  -5  -6   5   13.17    1.04 
  -5  -6   5   13.16    1.23 
   5  -6  -5   11.71    0.92 
  -5  -6   5   13.03    1.23 
  -5   6   5   14.37    1.17 
  -5   6   5   12.45    2.22 
   5   6  -5   14.21    0.91 
  -5   6   5   12.69    0.97 
  -4  -6   5   39.74    2.27 
  -4  -6   5   43.07    3.75 
  -4  -6   5   38.82    2.18 
   4  -6  -5   39.25    2.15 
  -4  -6   5   36.73    2.52 
  -4  -6   5   40.30    2.63 
  -4   6   5   39.81    2.22 
  -4   6   5   42.78    4.72 
   4   6  -5   42.17    2.07 
  -4   6   5   42.07    2.45 
   3  -6  -5   40.28    2.20 
  -3  -6   5   36.87    2.56 
  -3  -6   5   39.36    2.15 
  -3  -6   5   39.90    2.28 
  -3  -6   5   41.70    2.68 
  -3   6   5   38.72    2.22 
  -3   6   5   39.67    2.45 
   3   6  -5   44.63    3.96 
  -3   6   5   41.55    2.29 
   3   6  -5   39.46    2.03 
  -3   6   5   44.97    4.80 
  -3   6   5   41.60    2.47 
   2  -6  -5  130.87    5.52 
   2  -6  -5  125.03    5.72 
  -2   6   5  130.17    9.48 
  -2   6   5  121.12    5.54 
   2   6  -5  118.28    5.12 
  -2   6   5  125.87    5.76 
   2   6  -5  130.91   10.81 
  -1  -6   5   29.78    2.10 
   1  -6  -5   31.39    1.88 
   1  -6  -5   33.25    1.91 
   1   6  -5   27.67    1.92 
  -1   6   5   33.68    1.98 
  -1   6   5   31.95    1.82 
  -1   6   5   31.90    1.78 
   1   6  -5   38.43    3.68 
   0  -6  -5  364.82   15.44 
   0  -6  -5  368.35   14.94 
   0  -6  -5  379.73   15.41 
   0  -6   5  383.17   14.81 
   0  -6   5  415.28   15.51 
   0   6   5  382.76   15.27 
   0   6   5  380.27   14.96 
   0   6  -5  389.18   18.40 
   0   6  -5  376.76   15.19 
   0   6   5  378.09   15.22 
  -1  -6  -5   52.89    4.71 
   1  -6   5   61.34    2.83 
  -1  -6  -5   50.78    3.41 
  -1   6  -5   60.37    3.17 
   1   6   5   53.75    3.25 
  -1   6  -5   68.92    5.57 
   1   6   5   61.73    3.17 
  -1   6  -5   64.32    3.10 
   1   6   5   63.27    2.98 
   1   6   5   66.26    4.63 
  -2  -6  -5   51.31    2.98 
  -2  -6  -5   50.81    2.98 
  -2  -6  -5   56.39    4.77 
   2  -6   5   51.42    2.54 
  -2  -6  -5   50.49    3.12 
  -2   6  -5   55.02    2.78 
   2   6   5   53.01    2.72 
   2   6   5   49.11    2.82 
  -2   6  -5   60.70    5.41 
  -2   6  -5   54.78    2.73 
  -2   6  -5   52.22    2.66 
  -2   6  -5   52.36    2.91 
   3  -6   5   60.90    2.88 
  -3  -6  -5   63.05    3.53 
  -3  -6  -5   57.27    3.24 
  -3  -6  -5   61.58    5.08 
  -3  -6  -5   60.65    3.28 
  -3  -6  -5   59.83    3.23 
  -3   6  -5   64.36    3.10 
  -3   6  -5   63.00    3.04 
   3   6   5   64.63    3.24 
  -3   6  -5   64.30    3.07 
  -3   6  -5   64.79    3.35 
  -3   6  -5   66.43    5.57 
   3   6   5   63.24    3.11 
   4  -6   5   24.81    1.32 
  -4  -6  -5   21.25    2.57 
  -4  -6  -5   23.48    1.69 
  -4  -6  -5   23.81    2.18 
  -4   6  -5   25.01    1.44 
  -4   6  -5   23.06    1.38 
  -4   6  -5   22.61    1.39 
   4   6   5   23.55    1.46 
  -4   6  -5   23.90    1.60 
   4   6   5   25.34    1.54 
  -5  -6  -5   26.49    1.45 
  -5  -6  -5   31.48    1.64 
   5  -6   5   27.30    1.35 
  -5   6  -5   28.32    1.55 
  -5   6  -5   27.58    1.51 
  -5   6  -5   29.45    1.41 
  -5   6  -5   30.13    1.43 
   5   6   5   28.03    1.40 
   5  -7  -5    3.03    0.40 
  -5  -7   5    2.51    0.47 
  -5  -7   5    2.18    0.62 
  -5  -7   5    2.78    0.47 
  -5  -7   5    2.34    0.46 
  -5   7   5    2.39    0.71 
  -5   7   5    1.96    0.36 
  -5   7   5    2.30    1.34 
   4  -7  -5    6.96    0.82 
  -4  -7   5    6.79    0.94 
  -4  -7   5    6.76    0.71 
  -4  -7   5    5.70    0.81 
  -4   7   5    6.37    0.71 
  -4   7   5    6.70    1.59 
   4   7  -5    7.67    0.61 
  -4   7   5    7.99    0.83 
  -4   7   5    7.58    0.78 
  -3  -7   5   10.39    0.92 
   3  -7  -5   10.78    1.02 
  -3  -7   5   10.59    1.15 
   3  -7  -5   10.66    0.96 
  -3   7   5   11.19    2.26 
  -3   7   5    8.95    0.97 
  -3   7   5   10.03    1.07 
  -3   7   5   10.82    0.99 
   3   7  -5   10.72    1.81 
   2  -7  -5   57.19    2.70 
  -2  -7   5   41.64    3.83 
  -2   7   5   41.59    3.37 
  -1  -7   5   68.82    3.58 
   1  -7  -5   70.82    3.40 
  -1  -7   5   68.41    3.76 
   1  -7  -5   68.26    3.70 
  -1   7   5   69.32    3.54 
  -1   7   5   69.86    3.58 
  -1   7   5   74.19    5.94 
  -1   7   5   72.83    3.57 
   1   7  -5   74.04    5.85 
   0  -7  -5   67.88    3.55 
   0  -7   5   69.66    3.57 
   0  -7  -5   66.60    3.62 
   0   7  -5   67.63    5.63 
   0   7   5   64.00    3.34 
   0   7   5   67.68    3.44 
   0   7  -5   62.14    3.32 
   0   7   5   64.28    3.10 
   0   7  -5   64.91    3.25 
   1   7   5  106.30    5.01 
  -1   7  -5  117.60   11.12 
  -1   7  -5  127.31    5.98 
   2  -7   5   44.32    2.19 
  -2  -7  -5   41.88    3.82 
  -2  -7  -5   44.39    2.73 
  -2  -7  -5   38.83    2.42 
  -2  -7  -5   41.98    2.49 
   2   7   5   43.78    2.47 
   2   7   5   42.63    2.28 
   2   7   5   45.75    3.61 
  -2   7  -5   45.11    2.23 
  -2   7  -5   43.50    2.44 
  -2   7  -5   44.49    2.33 
  -2   7  -5   48.90    4.70 
  -2   7  -5   43.04    2.38 
  -3  -7  -5   16.83    1.26 
  -3  -7  -5   13.14    1.94 
   3  -7   5   16.36    1.04 
  -3  -7  -5   16.85    1.43 
  -3  -7  -5   14.53    1.20 
  -3   7  -5   17.58    2.40 
  -3   7  -5   16.49    1.23 
   3   7   5   17.53    1.25 
  -3   7  -5   15.99    1.15 
   3   7   5   17.30    1.17 
  -3   7  -5   12.95    0.98 
  -3   7  -5   18.08    1.16 
   3   7   5   12.67    1.77 
   4  -7   5    2.43    0.33 
  -4  -7  -5    3.12    0.53 
  -4   7  -5    2.78    0.36 
   4   7   5    2.30    0.40 
  -4   7  -5    1.88    0.33 
  -4   7  -5    1.49    0.34 
  -4   7  -5    2.19    0.33 
   4  -8  -5    3.61    0.53 
  -4  -8   5    5.17    0.68 
  -4  -8   5    4.17    0.49 
  -4   8   5    5.75    0.94 
   4   8  -5    4.04    0.46 
  -4   8   5    2.96    0.59 
  -4   8   5    5.21    2.23 
   3  -8  -5    4.32    0.57 
  -3  -8   5    2.35    0.53 
   3  -8  -5    3.52    0.59 
   3   8  -5    2.21    0.87 
  -3   8   5    4.35    0.55 
  -3   8   5    2.94    1.23 
  -3   8   5    3.59    0.59 
  -2  -8   5   30.78    2.09 
   2  -8  -5   32.58    1.82 
  -2   8   5   30.81    2.35 
  -2   8   5   32.65    1.89 
  -2   8   5   28.15    1.78 
  -1  -8   5   12.84    1.73 
  -1  -8   5   14.43    1.33 
   1  -8  -5   14.15    1.29 
   1  -8  -5   16.04    1.28 
  -1   8   5   13.30    1.16 
  -1   8   5   14.90    1.16 
   1   8  -5   13.42    2.27 
   0  -8   5  107.39    5.11 
   0  -8  -5  107.40    5.16 
   0  -8   5  103.21    4.85 
   0  -8  -5  104.74    4.97 
   0   8  -5  116.59    7.75 
   0   8  -5  108.28    4.87 
   0   8   5   99.92    4.77 
   0   8   5  107.22    4.89 
  -1  -8  -5   33.95    2.92 
   1  -8   5   40.42    2.39 
  -1  -8  -5   34.01    2.76 
  -1   8  -5   38.73    2.10 
   1   8   5   35.69    2.31 
  -1   8  -5   39.92    4.13 
  -1   8  -5   37.93    2.17 
   1   8   5   34.01    2.26 
   2  -8   5   32.06    1.91 
   2  -8   5   30.33    1.54 
  -2  -8  -5   27.85    1.71 
  -2  -8  -5   30.62    2.03 
   2   8   5   30.06    1.63 
   2   8   5   28.96    1.77 
  -2   8  -5   28.80    1.75 
  -2   8  -5   31.60    1.71 
  -2   8  -5   29.68    2.24 
  -3  -8  -5    9.66    0.93 
   3  -8   5    8.58    0.64 
   3  -8   5   10.65    0.87 
  -3   8  -5    8.74    0.73 
  -3   8  -5    9.43    0.75 
  -3   8  -5    9.75    0.88 
   3   8   5   10.56    0.82 
  -3   8  -5    8.72    0.73 
   3  -9  -5    1.12    0.34 
   3  -9  -5    0.76    0.30 
   3  -9  -5    1.37    0.30 
  -3  -9   5    1.20    0.34 
  -3   9   5    1.31    0.31 
  -3   9   5    0.73    0.46 
   2  -9  -5   17.79    1.24 
   2  -9  -5   17.70    1.26 
  -2  -9   5   18.05    1.35 
  -2   9   5   17.92    1.17 
  -2   9   5   17.47    1.07 
  -1  -9   5   32.25    1.99 
   1  -9  -5   31.79    1.93 
   1  -9  -5   32.49    1.87 
  -1   9   5   32.95    1.77 
  -1   9   5   31.20    1.68 
   1   9  -5   30.57    3.22 
   0  -9  -5   54.19    2.74 
   0  -9  -5   55.79    2.92 
   0  -9   5   49.51    2.81 
   0  -9   5   53.99    2.64 
   0   9   5   62.03    3.35 
   1  -9   5   18.27    1.85 
  -1  -9  -5   15.73    1.06 
   1  -9   5   15.49    1.07 
   1   9   5   15.84    1.09 
  -1   9  -5   14.51    0.99 
   2  -9   5    1.29    0.37 
   2  -9   5    1.06    0.26 
  -2  -9  -5    1.47    0.33 
   2   9   5    1.20    0.27 
  -2   9  -5    1.23    0.40 
  -7   0   6    0.07    0.27 
  -7   0   6   -0.03    0.39 
  -7   0   6    0.49    0.44 
  -6   0   6   29.84    1.95 
  -6   0   6   27.74    2.94 
  -6   0   6   28.44    1.98 
  -6   0   6   29.99    1.88 
  -6   0   6   29.70    3.30 
  -5   0   6  157.99    7.09 
  -5   0   6  158.52    7.25 
  -5   0   6  168.07    9.54 
  -5   0   6  147.58    7.34 
  -5   0   6  185.96   10.80 
  -4   0   6  252.62   10.54 
  -4   0   6  259.73   10.28 
  -4   0   6  267.02   10.66 
  -3   0   6   81.90    3.52 
  -3   0   6   81.07    3.73 
  -3   0   6   81.33    3.72 
  -2   0   6  527.36   20.48 
  -2   0   6  550.01   20.32 
  -2   0   6  520.14   20.45 
  -1   0   6  251.04    9.93 
  -1   0   6  260.37   10.05 
   0   0  -6   25.51    1.40 
   0   0   6   21.23    1.19 
   0   0   6   24.10    1.24 
   1   0   6  290.68   11.00 
  -1   0  -6  272.66   11.29 
   2   0   6  322.86   13.56 
   2   0   6  348.73   13.16 
  -2   0  -6  338.54   13.76 
   3   0   6   36.27    1.81 
  -3   0  -6   36.57    2.58 
   3   0   6   36.52    1.96 
  -4   0  -6  103.96    5.00 
  -4   0  -6  107.41    5.12 
  -4   0  -6  107.45    4.95 
   4   0   6  109.07    4.55 
  -4   0  -6  105.86    5.01 
  -4   0  -6  107.03    5.12 
  -5   0  -6   21.71    1.51 
   5   0   6   20.76    1.21 
  -5   0  -6   19.67    1.46 
  -5   0  -6   19.20    1.47 
  -5   0  -6   20.95    1.44 
  -5   0  -6   22.17    1.54 
  -6   0  -6    7.49    0.65 
  -6   0  -6    5.62    0.57 
  -6   0  -6    7.98    0.65 
   6   0   6    7.74    0.51 
  -6   0  -6    6.92    0.64 
  -7  -1   6    8.67    0.85 
  -7  -1   6    8.53    0.76 
  -7  -1   6    5.53    1.40 
  -7   1   6    7.88    0.69 
  -6  -1   6   49.44    2.65 
  -6  -1   6   45.28    2.61 
  -6  -1   6   48.84    4.47 
  -6  -1   6   45.75    2.85 
  -6   1   6   44.39    3.98 
  -6   1   6   44.68    2.50 
  -6   1   6   47.44    4.04 
  -6   1   6   45.81    2.61 
  -5  -1   6  205.81    8.92 
  -5  -1   6  225.22   12.06 
  -5  -1   6  199.96    9.27 
  -5  -1   6  211.50    8.85 
  -5   1   6  224.12   11.77 
  -5   1   6  209.38    8.95 
  -5   1   6  203.15    8.77 
  -5   1   6  187.14   11.96 
  -4  -1   6   15.80    1.22 
  -4  -1   6   15.32    1.20 
  -4   1   6   15.06    1.21 
  -4   1   6   14.82    1.06 
  -4   1   6   16.28    1.17 
  -3  -1   6  339.45   13.54 
  -3  -1   6  357.99   13.28 
  -3  -1   6  339.75   13.57 
  -3   1   6  330.99   13.56 
  -3   1   6  354.88   13.39 
  -3   1   6  335.08   13.52 
  -2  -1   6  867.02   32.21 
  -2   1   6  821.38   32.20 
   2   1  -6  851.77   31.83 
  -1  -1   6   76.96    3.30 
  -1  -1   6   81.72    3.56 
  -1   1   6   77.66    3.31 
   1   1  -6   74.66    3.23 
  -1   1   6   79.59    3.38 
   0  -1   6   37.22    1.70 
   0  -1   6   36.95    1.67 
   0   1   6   35.37    1.56 
   0   1  -6   27.83    1.67 
   0   1   6   34.62    1.62 
   0   1   6   29.76    1.55 
   1  -1   6  119.28    4.75 
   1  -1   6  116.07    4.64 
   1   1   6  116.23    4.68 
   1   1   6  114.98    4.66 
  -1   1  -6  110.49    5.03 
   1   1   6  102.05    4.79 
   2  -1   6  444.97   16.32 
   2   1   6  425.60   16.14 
   2   1   6  414.84   16.15 
   2   1   6  390.29   16.56 
  -2   1  -6  415.88   16.87 
   3  -1   6  198.71    7.74 
   3  -1   6  196.04    8.05 
   3  -1   6  171.41    8.55 
   3   1   6  193.84    7.76 
   3   1   6  194.78    7.85 
  -3   1  -6  181.22    8.77 
   3   1   6  224.47    9.30 
  -4  -1  -6   28.24    1.98 
  -4  -1  -6   27.89    2.00 
   4  -1   6   28.60    1.53 
  -4  -1  -6   30.44    3.11 
  -4  -1  -6   26.82    1.90 
  -4  -1  -6   26.32    1.92 
  -4  -1  -6   28.32    1.88 
  -4   1  -6   30.25    2.01 
  -4   1  -6   30.23    1.96 
   4   1   6   28.85    1.57 
   4   1   6   30.82    1.66 
  -4   1  -6   27.42    1.88 
  -4   1  -6   27.97    1.81 
  -4   1  -6   26.70    1.83 
  -5  -1  -6   87.92    4.69 
  -5  -1  -6   92.42    4.53 
  -5  -1  -6   87.35    5.67 
   5  -1   6  100.51    3.99 
  -5   1  -6  100.63    4.49 
  -5   1  -6   99.81    4.47 
  -5   1  -6   84.58    4.46 
  -5   1  -6   82.06    4.35 
   5   1   6  101.51    4.04 
  -5   1  -6  100.74    4.76 
   5   1   6   88.81    5.60 
  -6  -1  -6    3.97    0.50 
  -6  -1  -6    4.27    0.60 
  -6  -1  -6    3.47    0.45 
   6  -1   6    3.63    0.40 
  -6  -1  -6    4.35    0.50 
   6  -1   6    3.63    0.35 
  -6   1  -6    4.24    0.46 
  -6   1  -6    4.11    0.45 
   6   1   6    3.54    0.35 
  -6   1  -6    3.53    0.41 
  -6   1  -6    4.07    0.43 
  -7  -2   6    2.15    0.46 
  -7  -2   6    3.45    0.55 
  -7  -2   6    1.71    0.78 
   7   2  -6    2.34    0.33 
  -6  -2   6    1.97    0.49 
  -6  -2   6    1.37    0.43 
  -6  -2   6    1.04    0.45 
  -6  -2   6    0.60    0.57 
  -6   2   6    2.41    0.53 
  -6   2   6    0.68    0.46 
  -6   2   6    1.42    0.72 
  -5  -2   6   56.50    5.01 
  -5  -2   6   45.59    4.15 
  -5  -2   6   50.06    2.80 
  -5  -2   6   50.26    2.87 
  -5  -2   6   51.77    3.29 
  -5   2   6   51.39    2.75 
   5   2  -6   49.40    2.57 
  -5   2   6   55.22    4.48 
  -5   2   6   50.33    2.91 
  -5   2   6   56.03    4.96 
  -5   2   6   49.48    2.69 
  -4  -2   6  307.06   12.64 
   4  -2  -6  307.28   12.58 
  -4  -2   6  315.77   12.75 
  -4   2   6  315.22   12.65 
  -4   2   6  317.84   12.49 
  -4   2   6  320.46   12.62 
  -3  -2   6   51.37    2.62 
  -3  -2   6   52.29    2.33 
  -3   2   6   53.27    2.68 
  -3   2   6   52.71    2.63 
  -2  -2   6  221.46    8.86 
  -2  -2   6  215.84    8.71 
  -2  -2   6  212.66    8.52 
  -2   2   6  213.53    8.74 
   2   2  -6  217.94    8.53 
  -2   2   6  220.13    8.64 
  -2   2   6  221.39    8.74 
  -1  -2   6   85.43    3.70 
  -1  -2   6   84.55    3.54 
  -1   2   6   82.97    3.58 
  -1   2   6   80.96    3.53 
  -1   2   6   85.28    3.71 
   1   2  -6   79.47    3.57 
   0  -2   6   23.81    1.29 
   0  -2   6   24.14    1.36 
   0   2   6   25.37    1.25 
   0   2   6   24.16    1.29 
   0   2   6   23.77    1.26 
   0   2   6   23.65    1.20 
   0   2  -6   21.70    1.41 
   1  -2   6  107.55    4.58 
   1  -2   6  109.31    4.56 
   1   2   6  110.83    4.48 
   1   2   6  109.37    4.53 
  -1   2  -6  105.69    4.95 
   1   2   6  105.04    4.63 
   2  -2   6   84.51    3.76 
   2   2   6   82.47    4.00 
  -2   2  -6   81.54    4.28 
   2   2   6   81.24    3.49 
   2   2   6   81.33    3.62 
   2   2   6   81.83    3.54 
  -3  -2  -6   33.29    2.34 
  -3  -2  -6   38.25    2.35 
   3  -2   6   37.94    1.81 
   3  -2   6   38.03    2.12 
  -3   2  -6   33.42    2.60 
  -3   2  -6   34.67    2.23 
   3   2   6   37.63    2.42 
   3   2   6   37.57    1.86 
   3   2   6   36.14    1.96 
  -3   2  -6   37.34    2.52 
  -3   2  -6   37.41    2.91 
   4  -2   6   59.53    2.70 
  -4  -2  -6   62.68    4.88 
  -4  -2  -6   56.75    3.16 
  -4  -2  -6   59.70    3.25 
  -4  -2  -6   58.53    3.28 
  -4  -2  -6   61.76    3.25 
  -4   2  -6   61.34    3.05 
  -4   2  -6   56.59    3.24 
  -4   2  -6   58.72    3.08 
   4   2   6   57.34    2.75 
  -4   2  -6   59.52    3.12 
  -4   2  -6   56.67    3.06 
   4   2   6   58.86    2.86 
   5  -2   6   19.10    1.31 
  -5  -2  -6   17.78    1.44 
  -5  -2  -6   15.86    2.15 
  -5  -2  -6   20.95    1.52 
  -5  -2  -6   19.47    1.39 
  -5  -2  -6   20.20    1.41 
  -5   2  -6   19.29    1.45 
  -5   2  -6   18.70    1.31 
  -5   2  -6   20.32    1.33 
  -5   2  -6   17.39    1.28 
   5   2   6   21.08    1.57 
  -5   2  -6   19.46    1.31 
  -6  -2  -6    9.02    0.77 
   6  -2   6    9.19    0.63 
  -6  -2  -6    8.92    0.67 
  -6  -2  -6    9.97    0.74 
  -6  -2  -6   10.32    0.78 
  -6   2  -6   10.23    0.67 
  -6   2  -6    8.93    0.66 
  -6   2  -6    9.65    0.67 
   6   2   6    8.44    1.01 
   6   2   6   10.21    0.59 
  -7  -3   6    6.34    0.60 
  -7  -3   6    6.31    0.73 
   7   3  -6    5.59    0.47 
  -6  -3   6   35.14    2.06 
  -6  -3   6   38.62    2.51 
  -6  -3   6   36.83    2.13 
  -6  -3   6   32.78    3.52 
  -6   3   6   32.91    1.87 
  -6   3   6   33.87    2.33 
   6   3  -6   32.45    1.83 
  -6   3   6   33.35    3.98 
  -5  -3   6  218.78    9.31 
  -5  -3   6  226.86    9.29 
  -5  -3   6  230.66   12.40 
  -5  -3   6  232.34   11.36 
  -5  -3   6  221.59    9.98 
  -5   3   6  214.25    9.31 
   5   3  -6  217.02    9.02 
  -5   3   6  220.39   12.52 
  -5   3   6  202.40    9.10 
  -4  -3   6  158.08    6.64 
  -4  -3   6  158.05    6.83 
  -4  -3   6  172.32   13.26 
   4  -3  -6  142.10    6.77 
  -4  -3   6  135.65    7.57 
   4   3  -6  155.15    6.49 
  -4   3   6  145.41    6.80 
  -4   3   6  157.77    6.55 
  -4   3   6  153.49    6.58 
  -3  -3   6   19.94    1.46 
   3  -3  -6   20.27    1.34 
   3   3  -6   19.44    1.22 
  -3   3   6   21.91    1.32 
   3   3  -6   18.69    1.29 
  -3   3   6   21.10    1.36 
  -3   3   6   19.08    1.35 
  -2  -3   6   80.79    3.77 
   2  -3  -6   79.15    3.56 
  -2  -3   6   86.26    3.40 
  -2  -3   6   78.50    3.55 
  -2   3   6   79.68    3.54 
  -2   3   6   78.78    3.61 
   2   3  -6   76.41    3.50 
  -2   3   6   76.76    3.56 
  -1  -3   6   77.68    3.61 
   1  -3  -6   78.37    3.40 
  -1  -3   6   76.96    3.37 
  -1   3   6   80.64    3.44 
  -1   3   6   81.57    3.49 
  -1   3   6   78.01    3.42 
   1   3  -6   76.05    3.54 
   0  -3   6  191.86    7.78 
   0  -3  -6  188.99    7.44 
   0  -3   6  188.28    7.63 
   0   3   6  189.79    7.59 
   0   3   6  186.70    7.63 
   0   3   6  195.75    7.50 
   0   3  -6  189.87    7.96 
   1  -3   6   48.85    2.35 
   1  -3   6   45.20    2.28 
   1   3   6   45.87    2.29 
   1   3   6   44.55    2.22 
  -1   3  -6   44.20    2.65 
   1   3   6   45.32    2.14 
   2  -3   6  130.03    5.56 
   2  -3   6  127.99    5.22 
   2   3   6  127.06    5.71 
  -2   3  -6  125.10    6.20 
   2   3   6  129.75    5.44 
   2   3   6  127.53    5.24 
  -3  -3  -6    3.73    0.79 
  -3  -3  -6    3.12    1.12 
   3  -3   6    4.06    0.46 
  -3  -3  -6    5.24    0.78 
   3  -3   6    3.19    0.56 
  -3  -3  -6    4.79    0.68 
  -3   3  -6    4.01    0.63 
  -3   3  -6    4.25    0.63 
  -3   3  -6    4.56    0.75 
   3   3   6    3.11    0.49 
  -3   3  -6    4.27    0.72 
   3   3   6    3.65    0.46 
   3   3   6    3.39    0.57 
  -4  -3  -6   39.74    2.53 
   4  -3   6   40.97    2.02 
  -4  -3  -6   41.96    2.59 
  -4  -3  -6   41.50    2.46 
   4  -3   6   42.07    2.32 
  -4  -3  -6   42.33    4.02 
  -4  -3  -6   42.20    2.50 
  -4   3  -6   45.33    2.35 
   4   3   6   46.01    2.48 
   4   3   6   43.19    2.11 
  -4   3  -6   40.88    2.53 
  -4   3  -6   41.07    2.35 
  -4   3  -6   41.09    2.32 
  -4   3  -6   37.75    2.27 
  -5  -3  -6   32.16    1.91 
  -5  -3  -6   32.56    2.00 
   5  -3   6   33.37    1.61 
  -5  -3  -6   33.29    2.04 
  -5  -3  -6   32.33    1.90 
  -5   3  -6   31.34    1.82 
  -5   3  -6   33.92    1.82 
   5   3   6   33.10    1.87 
   5   3   6   34.33    1.67 
  -5   3  -6   32.23    1.99 
  -5   3  -6   32.39    1.80 
  -7  -4   6   11.51    0.97 
   7   4  -6   14.80    0.78 
  -6  -4   6   30.89    3.18 
  -6  -4   6   32.13    1.84 
  -6  -4   6   32.36    2.22 
  -6   4   6   29.88    1.74 
   6   4  -6   31.87    1.66 
  -5  -4   6  140.73    6.49 
  -5  -4   6  157.25    9.09 
  -5  -4   6  145.50    6.44 
  -5  -4   6  150.87    7.12 
  -5   4   6  132.99    9.23 
   5   4  -6  154.86    6.23 
  -5   4   6  139.81    6.08 
  -5   4   6  143.84    6.40 
  -5   4   6  147.21    6.41 
  -4  -4   6   15.75    1.30 
  -4  -4   6   18.16    2.57 
  -4  -4   6   15.80    1.24 
  -4  -4   6   16.87    1.61 
  -4   4   6   20.58    3.00 
   4   4  -6   16.99    1.22 
  -4   4   6   14.87    1.30 
   3  -4  -6    8.84    0.96 
  -3  -4   6    9.55    0.97 
  -3  -4   6    8.40    0.81 
   3  -4  -6    7.61    0.71 
   3   4  -6    9.28    0.83 
   3   4  -6    8.51    0.81 
  -3   4   6    7.27    0.87 
  -3   4   6    9.24    0.85 
   2  -4  -6   21.95    1.33 
   2  -4  -6   22.52    1.39 
  -2  -4   6   21.61    1.55 
  -2  -4   6   22.36    1.34 
   2   4  -6   22.17    1.34 
   2   4  -6   22.10    1.46 
  -2   4   6   22.89    1.43 
  -2   4   6   24.26    1.46 
  -1  -4   6   55.17    2.59 
   1  -4  -6   65.82    2.70 
  -1  -4   6   56.27    2.90 
   1  -4  -6   53.02    2.69 
  -1   4   6   55.89    2.68 
   1   4  -6   55.53    2.88 
  -1   4   6   57.29    2.73 
   0  -4  -6   32.57    1.61 
   0  -4   6   30.36    1.89 
   0   4   6   33.74    1.80 
   0   4  -6   33.86    2.28 
   0   4   6   33.07    1.71 
   0   4   6   35.75    1.72 
   1  -4   6   63.59    3.08 
   1  -4   6   64.65    2.76 
   1  -4   6   68.15    3.03 
  -1   4  -6   57.42    3.40 
   1   4   6   56.26    3.16 
   1   4   6   59.82    2.78 
   1   4   6   61.99    2.93 
   2  -4   6   46.98    2.20 
   2  -4   6   47.34    2.54 
   2  -4   6   45.59    2.50 
  -2   4  -6   44.94    3.07 
   2   4   6   45.54    2.39 
   2   4   6   45.78    2.19 
   2   4   6   49.43    2.66 
  -3  -4  -6    5.63    0.74 
  -3  -4  -6    4.85    0.65 
  -3  -4  -6    4.35    0.74 
   3  -4   6    3.81    0.47 
  -3  -4  -6    4.17    0.77 
  -3  -4  -6    4.03    1.25 
  -3  -4  -6    6.39    0.89 
   3   4   6    4.09    0.50 
  -3   4  -6    5.07    0.61 
  -3   4  -6    4.99    0.62 
   3   4   6    4.43    0.63 
  -3   4  -6    4.06    0.64 
   3   4   6    5.21    0.64 
  -3   4  -6    4.77    0.72 
  -4  -4  -6    5.77    1.45 
  -4  -4  -6    5.18    0.73 
   4  -4   6    5.17    0.51 
  -4  -4  -6    5.68    0.82 
  -4  -4  -6    6.07    0.78 
  -4  -4  -6    5.06    0.73 
   4   4   6    5.47    0.66 
  -4   4  -6    5.48    0.65 
  -4   4  -6    5.10    0.67 
   4   4   6    4.43    0.63 
   4   4   6    4.87    0.54 
  -4   4  -6    5.16    0.65 
  -4   4  -6    4.83    0.74 
  -5  -4  -6   12.69    0.99 
  -5  -4  -6   14.15    1.13 
  -5  -4  -6   11.13    1.74 
   5  -4   6   13.97    0.82 
  -5  -4  -6   13.36    1.21 
  -5  -4  -6   16.23    1.61 
  -5   4  -6   13.60    1.11 
   5   4   6   11.08    1.63 
  -5   4  -6   13.42    0.93 
   5   4   6   13.64    0.82 
  -5   4  -6   13.19    0.94 
  -5   4  -6   14.18    0.95 
  -6  -5   6   25.54    3.12 
  -6  -5   6   35.28    2.13 
  -6  -5   6   35.41    1.85 
   6   5  -6   36.03    1.66 
  -6   5   6   33.56    1.80 
  -6   5   6   30.22    3.96 
  -5  -5   6   18.85    1.66 
  -5  -5   6   18.75    1.36 
  -5  -5   6   18.77    1.32 
  -5  -5   6   18.33    2.41 
   5  -5  -6   19.15    1.21 
  -5   5   6   16.33    2.68 
   5   5  -6   19.49    1.22 
  -5   5   6   18.62    1.40 
  -4  -5   6   15.54    2.32 
  -4  -5   6   16.14    1.22 
  -4  -5   6   12.73    1.42 
  -4  -5   6   17.75    2.29 
  -4  -5   6   15.67    1.23 
  -4  -5   6   15.08    1.56 
   4  -5  -6   14.63    1.08 
   4   5  -6   15.71    1.11 
  -4   5   6   17.88    1.41 
   4   5  -6   13.12    2.05 
  -4   5   6   13.86    1.09 
  -4   5   6   13.74    2.58 
  -4   5   6   15.89    1.31 
  -3  -5   6  109.16    5.09 
  -3  -5   6  105.83    5.45 
   3  -5  -6  104.91    4.89 
  -3  -5   6  121.09    7.31 
  -3  -5   6  102.97    5.03 
  -3  -5   6  123.92    7.60 
   3   5  -6  118.32    7.38 
  -3   5   6  107.71    5.30 
   3   5  -6  113.34    4.89 
  -3   5   6  132.77    5.80 
  -3   5   6  114.47    8.28 
  -3   5   6  106.15    4.96 
  -2  -5   6  122.43    5.57 
   2  -5  -6  122.91    5.24 
   2  -5  -6  116.14    5.18 
   2   5  -6  113.79    4.98 
   2   5  -6  118.70    5.43 
  -2   5   6  121.41    5.24 
  -2   5   6  123.59    5.26 
   1  -5  -6    7.77    0.72 
  -1  -5   6    8.33    0.84 
   1  -5  -6    8.32    0.79 
  -1   5   6    7.35    0.73 
   1   5  -6    8.22    0.90 
  -1   5   6    8.53    0.75 
   0  -5   6   53.28    2.73 
   0  -5  -6   60.33    2.96 
   0  -5   6   58.08    3.32 
   0   5  -6   57.57    3.24 
   0   5   6   58.20    2.80 
   1  -5   6   53.02    2.48 
   1  -5   6   50.35    2.70 
   1  -5   6   51.54    2.83 
   1   5   6   54.65    2.70 
  -1   5  -6   53.34    2.95 
  -1   5  -6   56.96    3.36 
   1   5   6   52.77    2.84 
  -2  -5  -6   47.43    2.87 
  -2  -5  -6   56.09    4.75 
   2  -5   6   50.53    2.41 
  -2  -5  -6   49.07    2.98 
  -2   5  -6   50.77    2.57 
   2   5   6   45.84    2.27 
   2   5   6   48.83    2.70 
   2   5   6   49.71    2.60 
  -2   5  -6   49.80    2.57 
  -2   5  -6   49.33    2.80 
  -2   5  -6   56.14    4.97 
  -2   5  -6   52.77    2.66 
  -3  -5  -6   50.09    2.82 
  -3  -5  -6   48.10    2.93 
  -3  -5  -6   50.52    4.56 
  -3  -5  -6   40.81    2.59 
   3  -5   6   50.43    2.34 
  -3  -5  -6   48.49    2.74 
  -3   5  -6   48.57    2.53 
  -3   5  -6   49.80    2.52 
  -3   5  -6   52.06    2.59 
   3   5   6   48.64    2.64 
  -3   5  -6   45.86    2.77 
   3   5   6   47.63    2.25 
  -4  -5  -6    8.17    0.85 
  -4  -5  -6   10.26    1.03 
  -4  -5  -6   10.46    1.85 
  -4  -5  -6    9.52    0.95 
  -4  -5  -6    8.75    0.89 
  -4   5  -6    9.68    0.84 
  -4   5  -6    9.46    0.82 
   4   5   6    8.08    0.80 
   4   5   6    9.48    0.68 
  -4   5  -6   10.43    0.83 
  -4   5  -6   10.18    0.97 
  -5  -5  -6    5.47    0.61 
  -5  -5  -6    4.72    0.62 
  -5  -5  -6    4.76    0.78 
  -5  -5  -6    5.02    1.05 
   5  -5   6    5.42    0.44 
  -5   5  -6    5.99    0.50 
   5   5   6    5.39    1.02 
  -5   5  -6    5.41    0.49 
  -5   5  -6    5.17    0.49 
  -5   5  -6    4.97    0.54 
  -6  -6   6   -0.15    0.15 
  -6  -6   6    0.15    0.22 
  -6  -6   6    0.05    0.14 
  -6   6   6    0.02    0.29 
  -6   6   6    0.13    0.21 
  -5  -6   6   10.89    0.91 
   5  -6  -6   10.49    0.84 
  -5  -6   6   10.80    1.08 
  -5  -6   6   10.54    0.87 
  -5  -6   6   10.21    1.08 
  -5  -6   6    8.65    1.43 
  -5   6   6   10.27    0.95 
  -5   6   6   10.08    0.84 
   5   6  -6   10.82    0.76 
  -5   6   6   10.32    1.94 
  -4  -6   6    7.36    1.45 
  -4  -6   6    7.87    1.06 
   4  -6  -6    8.00    0.79 
  -4  -6   6    8.50    0.82 
  -4  -6   6    7.13    0.80 
  -4  -6   6    8.60    1.03 
   4   6  -6    7.80    1.50 
  -4   6   6    8.99    1.95 
  -4   6   6    8.09    0.82 
   4   6  -6    7.53    0.68 
  -4   6   6    8.05    0.89 
  -3  -6   6    6.16    0.72 
   3  -6  -6    5.44    0.65 
  -3  -6   6    4.71    0.92 
  -3  -6   6    4.72    0.85 
  -3   6   6    5.19    0.89 
  -3   6   6    5.48    0.81 
   3   6  -6    6.08    1.42 
  -3   6   6    4.27    1.62 
  -3   6   6    4.39    0.68 
   3   6  -6    5.26    0.56 
   2  -6  -6   96.85    5.04 
  -2  -6   6  107.55    5.36 
   2  -6  -6  113.63    5.00 
  -2  -6   6  110.41    5.73 
  -2   6   6  103.22    4.98 
   2   6  -6  128.87    7.70 
  -2   6   6  104.32    4.86 
  -2   6   6  109.43    5.22 
  -2   6   6  112.19    5.21 
  -2   6   6  112.50    5.07 
  -2   6   6  127.84    8.36 
   1  -6  -6  131.66    5.66 
  -1  -6   6  131.36    6.05 
  -1   6   6  134.45    5.81 
   1   6  -6  120.74    5.79 
  -1   6   6  129.73    8.48 
   0  -6   6   37.87    2.34 
   0  -6  -6   36.02    2.35 
   0  -6  -6   37.32    2.37 
   0   6  -6   43.37    4.14 
   0   6   6   37.84    2.29 
   0   6   6   36.49    2.21 
   0   6   6   38.52    2.09 
   0   6  -6   36.26    2.17 
  -1  -6  -6    8.97    1.15 
  -1  -6  -6   10.67    1.93 
   1  -6   6    9.67    0.80 
  -1  -6  -6    8.77    1.06 
   1   6   6    9.34    0.96 
  -1   6  -6   11.04    2.09 
   1   6   6   10.80    1.77 
  -1   6  -6   10.15    0.92 
   1   6   6    8.91    0.90 
  -1   6  -6    9.97    0.97 
  -1   6  -6   11.69    1.09 
  -2  -6  -6   32.41    2.19 
  -2  -6  -6   34.16    2.34 
  -2  -6  -6   34.39    3.64 
  -2   6  -6   33.65    1.92 
   2   6   6   34.86    1.98 
   2   6   6   29.30    3.09 
  -2   6  -6   32.76    2.12 
   2   6   6   33.32    2.07 
  -2   6  -6   35.48    2.04 
  -2   6  -6   36.01    3.94 
  -2   6  -6   35.05    1.89 
  -3  -6  -6    8.58    1.73 
  -3  -6  -6    8.80    1.07 
  -3  -6  -6    7.09    0.86 
   3  -6   6    8.84    0.71 
  -3   6  -6    7.83    1.11 
   3   6   6    8.43    0.79 
   3   6   6    7.60    0.83 
  -3   6  -6    7.93    0.78 
  -3   6  -6    8.06    0.91 
   3   6   6    6.74    1.38 
  -3   6  -6    8.00    0.78 
   4  -6   6    4.62    0.46 
  -4  -6  -6    3.79    0.58 
  -4  -6  -6    3.79    1.02 
  -4  -6  -6    4.43    0.68 
  -4  -6  -6    4.43    0.62 
  -4   6  -6    4.65    0.53 
  -4   6  -6    4.77    0.60 
   4   6   6    4.25    0.54 
  -4   6  -6    4.92    0.87 
   4   6   6    6.03    0.98 
   4   6   6    4.23    0.99 
  -4   6  -6    4.95    0.54 
  -5  -7   6    2.31    0.43 
  -5  -7   6    2.63    0.37 
   5  -7  -6    2.13    0.33 
  -5  -7   6    2.09    0.49 
  -5   7   6    1.89    0.39 
  -5   7   6    1.64    0.32 
  -4  -7   6    0.58    0.39 
  -4  -7   6    0.81    0.36 
  -4  -7   6    1.10    0.31 
   4  -7  -6    1.45    0.35 
   4   7  -6    1.43    0.48 
  -4   7   6    1.16    0.31 
  -4   7   6    1.13    0.70 
  -4   7   6    0.72    0.30 
  -3  -7   6   29.26    2.05 
   3  -7  -6   31.24    1.82 
  -3   7   6   26.83    3.53 
  -3   7   6   26.50    2.40 
  -3   7   6   30.11    1.81 
  -3   7   6   29.66    1.91 
   3   7  -6   27.91    3.08 
   2  -7  -6   35.93    2.26 
  -2  -7   6   38.28    2.45 
   2  -7  -6   41.19    2.18 
  -2   7   6   39.56    2.22 
  -2   7   6   30.69    3.81 
  -2   7   6   39.56    2.31 
  -2   7   6   36.38    2.23 
   2   7  -6   35.31    3.78 
   1  -7  -6  285.50   12.77 
   1  -7  -6  260.20   11.56 
   1   7  -6  261.63   15.93 
  -1   7   6  273.89   11.51 
  -1   7   6  247.04   11.96 
  -1   7   6  234.81   13.39 
   0  -7   6  308.18   11.89 
   0  -7  -6  276.28   11.80 
   0  -7  -6  284.17   11.82 
   0   7  -6  275.17   11.33 
   0   7   6  254.04   11.36 
   0   7   6  291.99   11.63 
   0   7   6  284.55   11.69 
   0   7  -6  276.26   14.67 
   0   7  -6  293.04   11.65 
   1  -7   6  162.95    6.71 
  -1  -7  -6  163.04    7.32 
   1  -7   6  174.22    7.35 
  -1  -7  -6  163.28    7.47 
  -1   7  -6  166.44    6.96 
   1   7   6  167.59    7.20 
  -1   7  -6  165.56    7.12 
  -1   7  -6  164.88   10.07 
   1   7   6  163.32    6.92 
   2  -7   6   19.52    1.18 
  -2  -7  -6   17.05    2.29 
  -2  -7  -6   19.14    1.58 
   2  -7   6   20.06    1.47 
  -2   7  -6   19.94    1.40 
  -2   7  -6   17.92    1.15 
   2   7   6   17.54    2.12 
   2   7   6   18.99    1.39 
   2   7   6   19.49    1.29 
  -2   7  -6   19.57    1.35 
  -3  -7  -6   21.70    1.56 
   3  -7   6   19.46    1.11 
  -3   7  -6   19.66    1.31 
  -3   7  -6   19.01    1.25 
   3   7   6   18.94    1.24 
   3   7   6   19.94    1.32 
  -3   7  -6   19.04    1.20 
  -3   7  -6   17.06    1.44 
   4  -7   6    0.19    0.15 
  -4  -7  -6    0.36    0.22 
   4  -7   6    0.08    0.13 
   4   7   6    0.08    0.20 
  -4   7  -6    0.17    0.13 
  -4   7  -6   -0.01    0.11 
  -4   7  -6    0.04    0.18 
   4   7   6    0.14    0.21 
  -4   7  -6    0.31    0.20 
  -4  -8   6   14.39    1.06 
   4  -8  -6   17.23    1.03 
  -4   8   6   15.32    1.06 
  -4   8   6   14.83    0.97 
  -4   8   6   13.07    1.95 
   3  -8  -6    5.54    0.73 
   3  -8  -6    6.31    0.66 
  -3  -8   6    6.72    0.86 
  -3   8   6    7.20    0.76 
  -3   8   6    5.44    1.39 
   3   8  -6    5.43    1.44 
  -3   8   6    6.39    0.68 
   2  -8  -6    8.63    0.92 
   2  -8  -6    7.99    0.90 
   2  -8  -6    8.12    0.79 
  -2  -8   6    6.98    0.88 
  -2   8   6    7.20    0.74 
  -2   8   6    6.13    1.49 
  -2   8   6    9.07    0.86 
   2   8  -6    8.30    1.62 
  -2   8   6    8.01    0.85 
  -1  -8   6   18.94    1.64 
   1  -8  -6   20.20    1.57 
   1  -8  -6   19.20    1.48 
  -1   8   6   19.30    1.30 
   1   8  -6   17.89    2.59 
  -1   8   6   19.16    1.37 
  -1   8   6   17.68    1.37 
   0  -8   6   35.92    1.98 
   0  -8  -6   40.01    2.83 
   0   8  -6   33.81    1.88 
   0   8  -6   29.81    3.85 
   1  -8   6    7.95    0.88 
  -1  -8  -6    8.17    0.85 
  -1  -8  -6    7.70    0.94 
  -1   8  -6    7.59    0.71 
  -1   8  -6    5.71    1.47 
   1   8   6    6.40    0.72 
   1   8   6    8.67    0.84 
  -1   8  -6    6.51    0.74 
  -2  -8  -6    7.04    0.83 
   2  -8   6    6.55    0.75 
  -2  -8  -6    7.22    0.75 
  -2   8  -6    6.89    0.69 
  -2   8  -6    7.65    1.02 
   2   8   6    7.63    0.76 
   2   8   6    6.93    0.64 
  -2   8  -6    6.58    0.72 
  -2   8  -6    5.45    1.29 
  -3  -8  -6    6.80    0.67 
   3  -8   6    6.65    0.62 
  -3   8  -6    6.75    0.53 
  -3   8  -6    6.14    0.59 
   3   8   6    6.51    0.61 
  -3   8  -6    5.64    0.53 
  -3  -9   6   14.07    1.03 
   3  -9  -6   14.87    1.00 
  -3   9   6   14.72    0.88 
  -3   9   6   14.09    0.90 
  -2  -9   6   11.04    0.97 
   2  -9  -6   10.98    0.98 
   2  -9  -6   10.95    0.90 
  -2   9   6   12.28    0.87 
  -2   9   6    9.73    0.83 
   1  -9  -6   31.50    1.82 
  -1  -9   6   33.12    2.19 
  -1   9   6   30.06    1.62 
   0  -9  -6    6.66    0.74 
   0  -9   6    8.59    1.22 
   0  -9  -6    5.51    0.67 
   0   9  -6    4.72    1.95 
   0   9   6    6.22    0.61 
   1  -9   6    5.02    0.54 
   1  -9   6    5.45    0.63 
  -1  -9  -6    5.08    0.63 
  -1  -9  -6    4.30    0.64 
  -1   9  -6    3.58    1.03 
   1   9   6    5.68    0.56 
  -7   0   7    5.13    0.60 
  -7   0   7    4.22    0.98 
  -6   0   7    9.52    0.93 
  -6   0   7    8.88    1.69 
  -6   0   7    7.23    1.49 
  -6   0   7    7.82    0.98 
  -6   0   7    9.15    0.98 
  -5   0   7   24.80    1.80 
  -5   0   7   22.58    1.70 
  -5   0   7   25.96    3.35 
  -5   0   7   25.88    3.13 
  -5   0   7   22.51    1.88 
  -4   0   7   88.89    3.98 
  -4   0   7   90.57    4.30 
  -4   0   7   89.06    4.24 
  -3   0   7   21.46    1.44 
  -3   0   7   23.24    1.47 
  -3   0   7   22.49    1.32 
  -2   0   7   56.07    2.71 
  -2   0   7   57.17    2.60 
  -2   0   7   57.08    2.76 
  -1   0   7  384.76   14.52 
  -1   0   7  365.91   14.44 
  -1   0   7  367.27   14.39 
   0   0   7   33.23    1.69 
   0   0  -7   35.16    1.79 
   0   0   7   36.14    1.73 
   0   0   7   33.99    1.73 
   0   0   7   36.16    1.77 
  -1   0  -7    0.67    0.21 
   2   0   7    1.25    0.39 
  -2   0  -7    0.66    0.32 
  -3   0  -7  158.78    7.15 
  -3   0  -7  156.21    7.43 
  -3   0  -7  163.43    7.08 
  -3   0  -7  157.19    7.27 
  -3   0  -7  167.88    7.34 
  -3   0  -7  189.18    9.40 
   3   0   7  163.76    8.84 
   3   0   7  168.04    6.72 
  -4   0  -7   42.18    2.47 
  -4   0  -7   41.95    2.47 
  -4   0  -7   42.67    2.39 
   4   0   7   41.91    3.49 
  -4   0  -7   43.08    3.59 
  -4   0  -7   42.85    2.54 
   4   0   7   42.05    2.13 
  -4   0  -7   39.19    2.48 
  -5   0  -7   15.15    1.11 
  -5   0  -7   14.83    1.15 
   5   0   7   16.51    0.96 
  -5   0  -7   16.23    1.24 
  -5   0  -7   15.05    1.15 
  -5   0  -7   11.91    1.64 
  -7  -1   7   18.66    1.21 
  -7  -1   7   19.15    1.31 
  -7   1   7   18.16    1.14 
   7   1  -7   19.85    1.07 
  -6  -1   7   17.12    2.56 
  -6  -1   7   15.60    2.11 
  -6  -1   7   17.15    1.34 
  -6  -1   7   18.29    1.37 
  -6  -1   7   15.64    1.48 
  -6   1   7   14.86    2.18 
  -6   1   7   18.26    2.39 
  -6   1   7   17.22    1.32 
  -6   1   7   15.51    1.33 
  -5  -1   7  313.10   13.79 
  -5  -1   7  352.30   16.95 
  -5  -1   7  316.37   13.38 
  -5  -1   7  324.69   13.33 
  -5  -1   7  337.74   16.06 
  -5   1   7  318.77   13.44 
  -5   1   7  327.63   16.42 
  -5   1   7  332.73   16.34 
  -5   1   7  320.97   13.30 
  -4  -1   7   64.49    3.29 
  -4   1   7   65.70    3.32 
  -4   1   7   69.48    3.56 
   4   1  -7   60.72    3.30 
  -4   1   7   62.82    3.09 
  -3  -1   7   15.94    1.11 
  -3  -1   7   12.16    0.90 
  -3  -1   7   12.61    1.07 
  -3   1   7   14.36    1.08 
  -3   1   7   12.43    1.06 
  -2  -1   7  321.51   12.40 
  -2  -1   7  313.93   12.53 
  -2  -1   7  315.21   12.62 
  -2   1   7  315.74   12.56 
  -2   1   7  326.27   12.44 
  -2   1   7  315.08   12.56 
  -1  -1   7  303.33   11.89 
  -1  -1   7  303.94   11.75 
  -1  -1   7  291.44   11.76 
   1   1  -7  294.94   11.64 
  -1   1   7  299.33   11.79 
  -1   1   7  308.47   11.76 
  -1   1   7  306.08   11.82 
   0  -1   7   60.39    2.81 
   0  -1   7   63.44    2.82 
   0   1   7   61.69    2.76 
   0   1   7   61.84    2.77 
   0   1  -7   60.13    2.90 
   0   1   7   61.25    2.70 
   1  -1   7  412.85   15.81 
  -1   1  -7  403.89   16.19 
   1   1   7  386.47   15.88 
   1   1   7  411.66   15.74 
   1   1   7  417.61   15.71 
   2  -1   7  174.60    7.17 
   2  -1   7  177.71    6.90 
  -2   1  -7  173.76    7.81 
   2   1   7  158.56    7.10 
   2   1   7  168.35    7.50 
   2   1   7  178.85    6.92 
   2   1   7  176.40    7.09 
  -3  -1  -7  198.25    8.65 
   3  -1   7  206.57    8.24 
  -3  -1  -7  225.91   11.21 
  -3  -1  -7  198.49    8.85 
  -3   1  -7  213.33    9.13 
   3   1   7  212.35    8.29 
   3   1   7  197.20    8.33 
  -3   1  -7  176.88    9.31 
  -3   1  -7  233.85    9.76 
   4  -1   7   95.45    4.02 
  -4  -1  -7   95.50    6.19 
  -4  -1  -7   96.33    4.41 
  -4  -1  -7   89.63    4.48 
  -4  -1  -7   95.38    4.63 
  -4  -1  -7   90.66    4.48 
  -4  -1  -7   88.73    4.47 
  -4   1  -7   93.75    4.34 
   4   1   7   91.04    4.03 
  -4   1  -7   93.02    4.58 
   4   1   7  104.20    6.20 
  -4   1  -7   96.11    4.55 
  -4   1  -7   89.99    4.38 
  -4   1  -7   89.52    4.42 
   5  -1   7    3.21    0.39 
  -5  -1  -7    3.59    0.55 
  -5  -1  -7    3.55    0.55 
  -5  -1  -7    2.70    0.51 
  -5  -1  -7    3.14    0.57 
  -5   1  -7    1.83    0.38 
  -5   1  -7    2.98    0.55 
  -5   1  -7    2.90    0.46 
  -5   1  -7    2.19    0.57 
  -5   1  -7    1.86    0.45 
   5   1   7    2.86    0.38 
  -7  -2   7    2.01    0.43 
  -7  -2   7    1.67    0.35 
   7   2  -7    2.43    0.34 
  -6  -2   7   57.88    3.03 
  -6  -2   7   60.22    5.03 
  -6  -2   7   58.28    3.38 
  -6  -2   7   55.52    3.01 
  -6   2   7   57.13    4.65 
  -6   2   7   51.01    5.06 
  -6   2   7   55.82    3.87 
   6   2  -7   59.74    2.79 
  -5  -2   7  118.89    5.90 
  -5  -2   7  120.24    8.05 
  -5  -2   7  120.41    7.37 
  -5  -2   7  111.01    5.31 
  -5  -2   7  117.08    5.30 
  -5   2   7  121.11    7.95 
  -5   2   7  104.00    5.03 
  -5   2   7   99.62    7.11 
   5   2  -7  113.52    5.05 
  -5   2   7  114.21    5.23 
  -5   2   7  113.87    5.39 
   4  -2  -7   91.09    4.43 
  -4  -2   7   97.35    4.51 
  -4  -2   7   97.46    4.65 
  -4   2   7  100.51    4.57 
  -4   2   7   96.99    4.48 
  -4   2   7   94.88    4.34 
   4   2  -7   92.39    4.29 
  -3  -2   7  158.19    6.48 
  -3  -2   7  158.35    6.93 
  -3  -2   7  157.57    6.92 
  -3   2   7  161.33    7.08 
  -3   2   7  162.21    6.80 
  -3   2   7  165.65    6.69 
   3   2  -7  158.13    6.65 
  -2  -2   7  216.76    8.86 
  -2  -2   7  211.41    8.52 
  -2  -2   7  209.15    8.65 
  -2   2   7  217.26    8.62 
  -2   2   7  211.69    8.72 
  -2   2   7  221.76    8.73 
  -1  -2   7  108.05    4.74 
  -1  -2   7  115.35    4.93 
  -1  -2   7  118.88    4.76 
   1   2  -7  108.69    4.77 
  -1   2   7  113.59    4.79 
  -1   2   7  114.10    4.76 
  -1   2   7  112.72    4.76 
   0  -2   7    8.90    0.75 
   0   2   7    8.56    0.67 
   0   2  -7    7.59    0.78 
   0   2   7    8.05    0.59 
   0   2   7    8.22    0.66 
   1  -2   7  195.62    7.75 
   1  -2   7  192.32    7.78 
   1  -2   7  191.10    7.55 
  -1   2  -7  181.09    8.18 
   1   2   7  193.45    7.68 
   1   2   7  182.63    7.76 
   1   2   7  196.62    7.70 
   2  -2   7  140.12    6.06 
   2  -2   7  143.96    5.74 
   2   2   7  147.10    5.95 
  -2   2  -7  139.09    6.69 
   2   2   7  138.60    6.27 
   2   2   7  141.63    5.75 
   2   2   7  138.29    5.86 
  -3  -2  -7   13.81    1.27 
  -3  -2  -7   13.62    1.18 
   3  -2   7   14.02    0.93 
  -3  -2  -7   15.66    2.29 
  -3  -2  -7   12.93    1.21 
  -3  -2  -7   13.28    1.26 
  -3   2  -7   13.31    1.16 
  -3   2  -7   14.49    1.11 
   3   2   7   13.58    1.02 
   3   2   7   13.68    0.94 
  -3   2  -7   13.00    1.25 
  -3   2  -7   13.82    1.11 
  -3   2  -7   14.37    1.25 
  -4  -2  -7   92.95    4.45 
  -4  -2  -7   86.05    4.18 
  -4  -2  -7   86.15    4.31 
   4  -2   7   89.88    3.81 
  -4  -2  -7   81.29    5.95 
  -4  -2  -7   83.47    4.27 
  -4   2  -7   85.17    4.11 
  -4   2  -7   95.19    4.16 
   4   2   7   85.51    3.94 
  -4   2  -7   87.46    4.21 
   4   2   7   90.86    3.85 
  -4   2  -7   89.75    4.40 
  -4   2  -7   87.40    4.19 
   4   2   7   94.36    6.05 
   5  -2   7   13.69    0.82 
  -5  -2  -7   13.62    1.07 
  -5  -2  -7   13.48    1.06 
   5  -2   7   12.32    0.93 
  -5  -2  -7   12.61    0.99 
  -5  -2  -7   12.28    1.80 
  -5  -2  -7   12.49    1.10 
   5   2   7   12.46    1.73 
  -5   2  -7   12.26    0.97 
   5   2   7   13.16    0.83 
  -5   2  -7   13.29    1.01 
  -5   2  -7   13.43    0.97 
  -5   2  -7   12.81    0.96 
  -5   2  -7   12.77    1.09 
  -7  -3   7   28.35    1.67 
   7   3  -7   25.32    1.28 
  -7   3   7   26.50    2.56 
  -6  -3   7   13.55    1.34 
  -6  -3   7   13.96    1.43 
  -6  -3   7   10.68    1.89 
  -6  -3   7   12.96    1.10 
  -6   3   7   11.51    1.93 
   6   3  -7   13.06    0.96 
  -6   3   7   13.53    1.07 
  -5  -3   7    3.46    1.57 
  -5  -3   7    2.86    1.37 
  -5  -3   7    5.00    0.73 
  -5   3   7    4.11    2.16 
   5   3  -7    6.05    1.02 
  -5   3   7    4.02    0.70 
  -4  -3   7   48.44    4.58 
  -4  -3   7   55.88    4.56 
  -4  -3   7   52.88    2.88 
  -4  -3   7   53.40    2.98 
  -4   3   7   49.66    2.78 
  -4   3   7   51.24    2.79 
  -4   3   7   55.75    5.24 
   4   3  -7   48.88    2.73 
  -4   3   7   49.97    2.93 
  -3  -3   7   15.70    1.31 
   3  -3  -7   15.54    1.18 
  -3  -3   7   15.98    1.17 
  -3   3   7   15.41    1.18 
  -3   3   7   16.75    1.16 
  -3   3   7   15.09    1.21 
   3   3  -7   16.99    1.20 
  -2  -3   7   16.55    1.27 
  -2  -3   7   15.46    0.98 
   2  -3  -7   13.33    1.00 
   2  -3  -7   15.07    1.07 
  -2  -3   7   16.22    1.09 
   2   3  -7   16.13    1.09 
  -2   3   7   16.00    1.13 
   2   3  -7   13.92    1.03 
  -2   3   7   15.96    1.07 
  -2   3   7   16.63    1.16 
   1  -3  -7  387.83   15.07 
  -1  -3   7  391.32   15.10 
  -1  -3   7  381.08   15.36 
  -1   3   7  399.45   15.40 
  -1   3   7  384.97   15.17 
  -1   3   7  391.76   15.10 
   1   3  -7  386.16   15.31 
   0  -3   7  109.35    4.70 
   0   3   7  111.18    4.70 
   0   3   7  109.65    4.79 
   0   3  -7  108.80    5.05 
   1  -3   7   29.97    1.82 
   1  -3   7   32.79    1.59 
   1  -3   7   31.04    1.79 
   1   3   7   32.81    1.77 
  -1   3  -7   31.68    2.17 
   1   3   7   30.77    1.73 
   1   3   7   31.57    1.70 
   2  -3   7   13.85    1.14 
   2  -3   7   15.38    0.96 
   2   3   7   14.89    1.08 
   2   3   7   16.83    1.49 
   2   3   7   15.47    0.96 
  -2   3  -7   14.63    1.49 
  -3  -3  -7   68.12    3.63 
  -3  -3  -7   78.18    5.68 
   3  -3   7   64.95    3.37 
  -3  -3  -7   69.71    3.64 
  -3  -3  -7   64.12    3.39 
   3  -3   7   70.07    3.06 
  -3  -3  -7   66.01    3.56 
  -3   3  -7   66.08    3.42 
  -3   3  -7   71.28    3.36 
   3   3   7   67.45    3.31 
  -3   3  -7   69.08    3.36 
   3   3   7   68.10    3.08 
  -3   3  -7   63.26    3.53 
  -3   3  -7   70.06    3.43 
   3   3   7   70.34    3.30 
  -4  -3  -7   34.60    2.21 
  -4  -3  -7   34.61    2.17 
  -4  -3  -7   32.71    2.14 
   4  -3   7   34.32    1.74 
  -4  -3  -7   34.21    2.05 
  -4  -3  -7   37.68    3.66 
  -4   3  -7   37.30    2.00 
   4   3   7   35.26    3.41 
  -4   3  -7   35.68    2.19 
   4   3   7   34.35    1.91 
   4   3   7   32.93    1.75 
  -4   3  -7   33.39    1.99 
  -4   3  -7   33.78    1.95 
   5  -3   7    9.72    0.65 
  -5  -3  -7    9.49    0.90 
  -5  -3  -7   10.47    1.01 
  -5  -3  -7    9.62    0.79 
  -5  -3  -7    8.65    0.84 
   5   3   7    9.54    0.73 
  -5   3  -7    8.59    0.95 
  -5   3  -7   10.35    1.18 
  -5   3  -7    9.77    0.79 
  -5   3  -7    9.11    0.77 
  -6  -4   7   11.99    1.23 
  -6  -4   7   10.51    1.74 
  -6  -4   7   13.00    1.00 
  -6  -4   7   11.46    0.98 
   6  -4  -7   11.24    0.82 
  -6   4   7    9.60    1.69 
   6   4  -7   12.31    0.85 
  -5  -4   7   59.48    3.53 
  -5  -4   7   58.21    3.01 
  -5  -4   7   58.71    2.97 
  -5  -4   7   49.45    4.56 
   5  -4  -7   56.06    2.67 
   5   4  -7   59.59    2.82 
  -5   4   7   55.07    2.92 
  -5   4   7   59.07    3.04 
   5   4  -7   55.20    4.37 
  -5   4   7   52.46    4.98 
  -4  -4   7    4.88    0.74 
   4  -4  -7    4.07    0.57 
  -4  -4   7    5.93    1.46 
  -4  -4   7    4.95    1.26 
  -4  -4   7    6.00    0.92 
  -4  -4   7    5.28    0.70 
  -4   4   7    4.91    0.66 
   4   4  -7    4.59    0.64 
  -4   4   7    4.86    0.67 
  -4   4   7    5.54    1.55 
  -4   4   7    5.22    0.73 
  -4   4   7    5.23    0.80 
  -3  -4   7    1.89    0.57 
  -3  -4   7    1.57    0.44 
   3  -4  -7    1.81    0.38 
  -3  -4   7    2.88    0.65 
  -3   4   7    2.45    0.52 
  -3   4   7    2.58    1.14 
   3   4  -7    1.88    0.43 
  -2  -4   7   32.26    1.75 
  -2  -4   7   32.14    2.05 
   2  -4  -7   31.14    1.78 
   2  -4  -7   34.49    1.85 
  -2   4   7   32.67    1.84 
   2   4  -7   30.84    1.88 
  -2   4   7   33.27    1.91 
   2   4  -7   29.25    1.71 
  -2   4   7   34.46    1.88 
   1  -4  -7   11.75    0.85 
  -1  -4   7    9.50    0.83 
   1  -4  -7   11.17    0.92 
  -1  -4   7   12.11    1.05 
  -1   4   7   11.59    0.94 
   1   4  -7   11.29    1.05 
  -1   4   7   11.38    0.89 
   0  -4   7   12.78    1.09 
   0  -4   7   13.14    0.86 
   0  -4  -7   12.52    1.00 
   0  -4   7   13.14    0.97 
   0   4  -7   12.20    1.19 
   0   4   7   12.30    0.97 
   0   4   7   13.04    0.97 
   1  -4   7   27.16    1.65 
   1  -4   7   26.17    1.70 
   1  -4   7   26.01    1.41 
   1   4   7   26.09    1.59 
  -2  -4  -7    2.40    0.60 
  -2  -4  -7    2.58    0.99 
  -2  -4  -7    2.55    0.58 
   2  -4   7    2.36    0.43 
   2   4   7    1.84    0.74 
   2   4   7    2.29    0.47 
   2   4   7    3.04    0.46 
  -2   4  -7    2.32    0.47 
   2   4   7    3.14    0.44 
  -2   4  -7    2.30    0.54 
  -2   4  -7    3.21    0.78 
  -3  -4  -7    8.58    0.91 
  -3  -4  -7    8.17    0.95 
  -3  -4  -7    6.45    0.97 
  -3  -4  -7    7.76    0.95 
  -3  -4  -7    9.01    1.89 
  -3   4  -7    8.20    0.81 
   3   4   7    7.67    0.84 
  -3   4  -7    8.84    0.82 
   3   4   7    7.29    0.77 
  -3   4  -7    7.20    0.90 
  -3   4  -7    7.46    0.79 
  -4  -4  -7   10.12    0.93 
  -4  -4  -7    9.78    1.01 
  -4  -4  -7    9.51    1.76 
  -4  -4  -7    8.89    1.00 
  -4  -4  -7    9.58    0.98 
   4  -4   7   11.05    0.82 
   4   4   7    9.84    0.79 
  -4   4  -7   10.22    0.87 
  -4   4  -7    9.35    0.83 
   4   4   7   10.10    0.87 
  -4   4  -7   10.68    1.11 
  -4   4  -7   10.30    0.87 
   4   4   7   11.08    1.79 
  -5  -4  -7   94.95    3.88 
  -5  -4  -7   83.49    3.70 
  -5  -4  -7   78.41    3.66 
   5  -4   7   81.38    3.38 
  -5  -4  -7   70.49    3.68 
  -5   4  -7   84.51    3.69 
  -5   4  -7   81.92    3.47 
  -5   4  -7   81.86    3.51 
   5   4   7   78.70    3.44 
  -5   4  -7   84.09    3.50 
  -6  -5   7   16.23    1.08 
  -6  -5   7   15.16    1.23 
   6  -5  -7   11.73    0.86 
  -6  -5   7   14.68    1.79 
  -6   5   7   14.59    0.98 
  -6   5   7   13.49    1.83 
  -5  -5   7    9.78    0.89 
   5  -5  -7    8.18    1.12 
  -5  -5   7   11.05    1.86 
  -5  -5   7    8.26    1.50 
   5   5  -7   11.87    0.86 
   5   5  -7   10.08    2.07 
  -5   5   7    7.58    2.16 
  -5   5   7    9.99    0.98 
  -5   5   7    9.23    0.81 
  -4  -5   7    4.09    0.85 
  -4  -5   7    7.26    0.81 
  -4  -5   7    6.20    1.50 
  -4  -5   7    5.65    0.92 
   4  -5  -7    5.44    0.65 
  -4  -5   7    5.78    1.40 
  -4   5   7    6.65    1.64 
   4   5  -7    7.20    1.55 
  -4   5   7    5.46    0.70 
  -4   5   7    7.29    0.87 
  -4   5   7    4.71    0.90 
   4   5  -7    5.71    0.83 
  -3  -5   7   15.55    1.62 
   3  -5  -7   19.77    1.36 
  -3  -5   7   24.17    3.00 
  -3  -5   7   20.99    1.77 
  -3  -5   7   19.56    1.35 
  -3  -5   7   21.00    2.60 
  -3  -5   7   20.20    1.40 
  -3   5   7   20.51    1.42 
   3   5  -7   22.70    1.34 
  -3   5   7   24.73    3.28 
  -3   5   7   21.57    1.69 
  -3   5   7   20.05    1.45 
   3   5  -7   20.29    2.73 
  -3   5   7   20.21    1.58 
   2  -5  -7   95.98    4.75 
  -2  -5   7   98.80    4.88 
  -2  -5   7  112.59    7.22 
  -2  -5   7   95.10    4.97 
   2   5  -7   94.81    4.72 
  -2   5   7  102.93    4.78 
   2   5  -7   93.35    4.22 
  -2   5   7  101.51    4.58 
   2   5  -7  111.23    7.02 
  -2   5   7   98.18    4.81 
  -2   5   7   98.42    4.56 
  -1  -5   7   75.26    5.76 
   1  -5  -7   78.83    3.61 
   1  -5  -7   74.09    3.49 
   1  -5  -7   71.86    3.82 
  -1   5   7   66.95    3.38 
  -1   5   7   69.65    3.69 
  -1   5   7   73.93    3.47 
   1   5  -7   70.65    3.78 
   1   5  -7   76.20    5.56 
  -1   5   7   71.62    4.16 
   0  -5  -7   41.90    2.54 
   0  -5   7   41.33    2.29 
   0   5   7   41.94    2.47 
   0   5  -7   43.29    2.75 
   0   5  -7   43.78    2.42 
   0   5   7   44.95    2.34 
   0   5  -7   49.87    4.26 
   0   5   7   43.90    2.44 
  -1  -5  -7    1.24    0.66 
  -1  -5  -7    1.38    0.42 
   1  -5   7    1.31    0.29 
  -1  -5  -7    1.56    0.80 
  -1   5  -7    0.78    0.30 
   1   5   7    0.80    0.64 
   1   5   7    0.62    0.29 
  -1   5  -7    0.98    0.70 
   1   5   7    1.47    0.37 
   1   5   7    1.20    0.61 
  -1   5  -7    1.17    0.46 
  -2  -5  -7   29.19    2.09 
   2  -5   7   28.04    1.57 
  -2  -5  -7   28.61    2.02 
  -2  -5  -7   31.28    3.49 
   2   5   7   31.03    1.81 
  -2   5  -7   30.15    1.74 
   2   5   7   27.20    1.81 
  -2   5  -7   26.85    3.39 
  -2   5  -7   30.11    1.76 
  -2   5  -7   28.30    1.92 
  -2   5  -7   30.33    1.83 
   2   5   7   29.60    3.11 
  -3  -5  -7   65.91    3.46 
  -3  -5  -7   64.66    3.52 
  -3  -5  -7   61.93    3.28 
   3  -5   7   67.13    2.98 
  -3  -5  -7   60.47    5.10 
  -3   5  -7   69.20    3.22 
   3   5   7   63.05    3.22 
   3   5   7   65.82    4.95 
  -3   5  -7   65.57    3.11 
  -3   5  -7   66.67    3.44 
  -3   5  -7   70.07    3.17 
   3   5   7   69.22    3.24 
   4  -5   7   16.48    0.97 
  -4  -5  -7   15.36    1.28 
  -4  -5  -7   16.00    1.14 
  -4  -5  -7   17.61    1.34 
   4   5   7   15.23    1.97 
  -4   5  -7   16.35    1.06 
   4   5   7   16.87    1.11 
  -4   5  -7   16.23    1.08 
   4   5   7   15.98    1.09 
  -4   5  -7   17.34    1.26 
  -4   5  -7   16.57    1.08 
  -6  -6   7    6.34    0.53 
  -6  -6   7    6.80    0.62 
  -6  -6   7    4.73    0.77 
  -6   6   7    5.97    0.50 
  -5  -6   7   17.73    1.39 
  -5  -6   7   16.48    1.25 
  -5  -6   7   17.17    1.15 
   5  -6  -7   15.71    1.10 
  -5  -6   7   17.83    1.22 
  -5   6   7   17.87    1.25 
  -5   6   7   16.87    1.35 
   5   6  -7   18.45    1.02 
  -5   6   7   15.10    2.28 
  -4  -6   7   42.48    3.03 
  -4  -6   7   37.30    3.40 
   4  -6  -7   46.73    2.41 
  -4  -6   7   46.15    2.82 
  -4   6   7   45.37    2.37 
   4   6  -7   50.23    2.23 
  -4   6   7   43.28    4.48 
  -4   6   7   46.59    2.57 
  -4   6   7   50.86    3.23 
   4   6  -7   43.17    4.92 
  -3  -6   7   54.27    3.30 
  -3  -6   7   51.91    3.21 
   3  -6  -7   59.22    2.99 
   3   6  -7   59.42    2.68 
  -3   6   7   59.34    3.00 
  -3   6   7   61.96    3.22 
   3   6  -7   57.13    4.82 
  -3   6   7   60.12    3.25 
  -3   6   7   66.68    5.74 
  -2  -6   7   39.75    2.56 
  -2  -6   7   37.88    2.52 
   2  -6  -7   41.35    2.27 
  -2   6   7   39.49    2.22 
  -2   6   7   40.27    2.46 
  -2   6   7   39.19    4.27 
  -2   6   7   41.57    2.43 
   2   6  -7   40.22    3.98 
  -2   6   7   39.75    2.29 
   1  -6  -7  109.42    5.23 
   1  -6  -7  103.69    5.08 
   1  -6  -7  112.71    4.94 
  -1  -6   7  110.74    5.26 
  -1   6   7  110.40    5.22 
  -1   6   7  109.29    5.08 
  -1   6   7  107.57    4.91 
  -1   6   7  106.77    5.09 
   1   6  -7  124.68    7.73 
   0  -6  -7  309.34   12.50 
   0  -6  -7  291.88   12.42 
   0  -6   7  319.68   12.48 
   0   6   7  301.12   12.37 
   0   6   7  311.30   12.12 
   0   6   7  274.39   14.18 
   0   6   7  292.68   12.21 
   0   6   7  306.78   12.30 
   0   6  -7  295.22   12.20 
   0   6  -7  310.60   15.38 
  -1  -6  -7   11.96    1.87 
   1  -6   7   12.62    0.93 
   1   6   7   15.78    1.13 
   1   6   7   12.21    1.67 
   1   6   7   11.34    2.55 
  -1   6  -7   12.33    2.15 
   2  -6   7   40.51    2.03 
  -2  -6  -7   43.12    2.50 
  -2  -6  -7   40.62    2.55 
  -2  -6  -7   38.27    3.87 
  -2   6  -7   40.58    2.15 
  -2   6  -7   42.67    2.28 
   2   6   7   42.15    3.70 
   2   6   7   40.92    2.25 
  -2   6  -7   40.25    2.36 
   2   6   7   38.69    2.31 
  -2   6  -7   39.86    4.09 
  -2   6  -7   40.64    2.08 
   3  -6   7    8.16    0.66 
  -3  -6  -7    8.02    0.96 
  -3  -6  -7    7.09    0.86 
  -3  -6  -7    7.57    1.50 
  -3   6  -7    7.91    0.77 
   3   6   7    8.51    0.80 
  -3   6  -7    7.53    0.66 
   3   6   7    7.74    0.77 
  -3   6  -7    8.44    0.75 
  -3   6  -7    8.17    0.88 
   4  -6   7   12.55    0.73 
  -4  -6  -7   12.40    0.87 
  -4  -6  -7   13.10    1.00 
  -4  -6  -7   10.29    1.49 
   4   6   7   10.32    1.00 
  -4   6  -7   11.43    0.75 
  -4   6  -7   11.89    0.77 
   4   6   7   11.50    1.48 
  -4   6  -7   12.82    0.83 
   5  -7  -7    2.03    0.42 
  -5  -7   7    3.03    0.39 
   5  -7  -7    2.32    0.35 
  -5  -7   7    1.89    0.39 
  -5   7   7    1.34    0.64 
  -5   7   7    3.02    0.42 
  -5   7   7    2.36    0.40 
  -4  -7   7   16.03    1.02 
  -4  -7   7   16.12    1.29 
   4  -7  -7   17.34    1.16 
   4   7  -7   12.73    1.72 
  -4   7   7   17.42    1.23 
  -4   7   7   13.49    2.16 
  -4   7   7   16.87    1.10 
   3  -7  -7   34.19    1.89 
  -3  -7   7   28.86    1.94 
  -3   7   7   30.31    1.96 
  -3   7   7   32.73    1.97 
  -3   7   7   31.23    1.92 
   3   7  -7   28.49    3.65 
  -3   7   7   28.90    4.36 
   2  -7  -7   30.92    2.09 
  -2  -7   7   33.75    2.24 
   2  -7  -7   30.54    2.01 
   2  -7  -7   32.62    1.95 
   2   7  -7   38.90    3.83 
  -2   7   7   34.58    2.03 
  -2   7   7   33.72    2.06 
  -2   7   7   35.37    2.13 
  -2   7   7   33.12    3.64 
   1  -7  -7   72.92    3.81 
   1  -7  -7   69.83    3.69 
   1  -7  -7   70.88    3.39 
  -1  -7   7   76.37    3.86 
  -1   7   7   75.18    3.76 
  -1   7   7   70.23    3.44 
   1   7  -7   80.05    6.03 
  -1   7   7   74.26    3.65 
  -1   7   7   73.41    3.62 
   0  -7  -7   52.85    2.88 
   0  -7  -7   46.87    2.77 
   0  -7   7   52.79    2.85 
   0  -7  -7   43.29    2.66 
   0   7  -7   45.91    4.43 
   0   7   7   50.50    2.78 
   0   7   7   45.23    2.46 
   0   7   7   48.73    2.48 
   0   7  -7   47.92    2.64 
   1  -7   7    1.39    0.44 
  -1  -7  -7    1.77    0.48 
  -1  -7  -7    2.78    0.57 
  -1   7  -7    1.96    0.56 
   1   7   7    2.36    0.52 
   1   7   7    1.10    0.77 
  -1   7  -7    1.94    0.88 
  -1   7  -7    1.62    0.40 
   1   7   7    2.82    0.53 
   2  -7   7   18.33    1.09 
   2  -7   7   20.47    1.43 
  -2  -7  -7   17.47    1.39 
  -2  -7  -7   21.38    1.56 
  -2   7  -7   20.40    1.32 
  -2   7  -7   14.55    2.25 
  -2   7  -7   18.73    1.21 
   2   7   7   19.41    1.26 
   2   7   7   20.86    1.40 
  -2   7  -7   20.91    1.34 
   3  -7   7   11.23    0.72 
  -3  -7  -7   12.68    0.92 
   3  -7   7   14.87    1.22 
  -3  -7  -7   13.13    1.08 
   3   7   7    9.64    1.37 
   3   7   7   12.11    0.94 
  -3   7  -7   11.90    0.90 
   3   7   7   11.41    0.94 
  -3   7  -7   14.06    1.10 
  -3   7  -7   10.85    0.77 
  -4  -8   7    8.70    0.84 
   4  -8  -7   10.26    0.74 
  -4   8   7   11.78    0.79 
  -4   8   7   10.30    0.71 
  -4   8   7    7.53    1.32 
   3  -8  -7    9.73    0.78 
   3  -8  -7    9.01    0.86 
  -3   8   7    6.57    1.95 
  -3   8   7    9.18    0.91 
  -3   8   7    9.47    0.80 
   2  -8  -7   17.09    1.29 
   2  -8  -7   17.22    1.09 
  -2  -8   7   15.74    1.32 
  -2   8   7   18.05    1.21 
  -2   8   7   16.16    1.20 
  -2   8   7   13.89    1.09 
   1  -8  -7   27.96    1.80 
  -1  -8   7   29.15    1.89 
   1  -8  -7   26.67    1.73 
   1   8  -7   26.89    3.15 
  -1   8   7   25.52    1.67 
  -1   8   7   26.58    1.66 
  -1   8   7   25.93    1.55 
   0  -8  -7  138.92    5.93 
   0  -8   7  139.11    5.96 
   0  -8  -7  116.42    5.80 
   0   8   7  140.53    5.84 
   0   8  -7  126.72    8.08 
  -1  -8  -7   17.48    1.34 
   1  -8   7   19.07    1.34 
  -1  -8  -7   16.12    1.25 
   1  -8   7   16.30    1.11 
  -1   8  -7   17.34    1.10 
   1   8   7   15.88    1.35 
  -1   8  -7   14.51    2.23 
   1   8   7   17.59    1.25 
  -2  -8  -7   11.10    0.86 
   2  -8   7   11.73    0.92 
  -2  -8  -7   11.78    0.96 
   2   8   7   12.27    0.92 
  -2   8  -7   12.10    0.91 
  -2   8  -7   10.53    0.83 
  -2  -9   7    0.83    0.31 
   2  -9  -7    1.23    0.33 
   2  -9  -7    0.63    0.37 
   2   9  -7    0.90    0.50 
  -2   9   7    1.62    0.30 
   1  -9  -7   18.09    1.16 
  -1  -9   7   16.16    1.18 
   1   9  -7   14.40    1.94 
  -1   9   7   16.88    1.13 
   0  -9   7   22.36    1.40 
   0  -9  -7   20.84    1.60 
   0  -9  -7   23.33    1.35 
   0   9   7   22.55    1.30 
  -1  -9  -7   25.56    1.34 
   1  -9   7   26.27    1.47 
  -1  -9  -7   23.67    1.41 
   1   9   7   29.45    1.75 
  -7   0   8    3.09    0.80 
   7   0  -8    2.88    0.44 
  -6   0   8    9.58    1.83 
   6   0  -8   10.42    0.96 
  -6   0   8   10.33    1.12 
  -6   0   8   11.95    1.07 
  -6   0   8    9.64    2.12 
  -6   0   8   11.08    1.08 
  -5   0   8  514.88   23.26 
  -5   0   8  534.31   24.00 
   5   0  -8  498.21   19.72 
  -5   0   8  471.87   20.42 
  -5   0   8  516.87   20.24 
  -5   0   8  521.90   20.34 
  -4   0   8  576.68   24.78 
  -4   0   8  549.30   20.95 
  -4   0   8  471.65   21.19 
  -4   0   8  512.02   20.58 
   4   0  -8  517.39   20.48 
  -4   0   8  557.30   24.11 
  -3   0   8  158.43    6.44 
  -3   0   8  154.36    6.66 
   3   0  -8  146.65    6.33 
  -3   0   8  154.35    6.62 
  -2   0   8  298.14   11.75 
  -2   0   8  296.60   11.86 
  -1   0   8   44.25    2.24 
  -1   0   8   51.99    2.41 
  -1   0   8   42.89    2.25 
   0   0   8   21.03    1.41 
   0   0   8   19.96    1.20 
   0   0   8   19.77    1.20 
   1   0   8   18.67    1.22 
  -1   0  -8   17.67    1.40 
   1   0   8   18.58    1.36 
   1   0   8   19.01    1.03 
   1   0   8   19.26    1.15 
  -2   0  -8   40.84    2.72 
   2   0   8   42.99    2.02 
   2   0   8   40.39    2.08 
   2   0   8   42.23    2.61 
   2   0   8   43.89    2.26 
  -3   0  -8   90.69    4.42 
  -3   0  -8   93.87    4.33 
  -3   0  -8   90.43    4.48 
  -3   0  -8   96.35    4.63 
   3   0   8   95.23    4.03 
  -3   0  -8   92.29    4.58 
   3   0   8   97.91    6.11 
  -3   0  -8   93.48    6.08 
   4   0   8    7.87    0.65 
  -4   0  -8    7.12    0.82 
  -4   0  -8    6.69    0.89 
  -4   0  -8    6.74    0.74 
  -4   0  -8    8.70    0.91 
  -4   0  -8    8.49    0.85 
   5   0   8    4.18    0.39 
  -5   0  -8    3.28    0.74 
  -5   0  -8    3.44    0.52 
  -5   0  -8    2.27    0.56 
  -7  -1   8   16.37    1.04 
  -7  -1   8   11.19    1.13 
   7   1  -8   14.61    1.16 
  -7   1   8   10.40    1.44 
  -7   1   8   15.56    0.98 
  -6  -1   8   26.93    3.23 
  -6  -1   8   31.39    1.92 
  -6  -1   8   29.55    1.92 
  -6  -1   8   25.76    2.80 
  -6   1   8   34.39    4.09 
  -6   1   8   30.07    1.85 
  -5  -1   8   10.48    1.98 
  -5  -1   8   10.66    1.29 
  -5  -1   8   11.46    1.14 
  -5  -1   8   11.38    1.16 
  -5  -1   8   13.10    2.31 
  -5   1   8   10.34    1.15 
  -5   1   8   12.72    2.20 
   5   1  -8   11.40    0.96 
  -5   1   8   13.04    2.27 
  -5   1   8   10.53    1.15 
  -4  -1   8  510.37   21.99 
  -4  -1   8  496.69   22.50 
  -4  -1   8  481.42   18.83 
   4  -1  -8  463.02   18.38 
  -4  -1   8  467.58   18.88 
  -4   1   8  459.17   18.57 
  -4   1   8  482.79   22.23 
  -4   1   8  457.46   18.81 
  -4   1   8  519.73   22.29 
  -4   1   8  439.34   18.89 
   4   1  -8  451.29   18.45 
  -3  -1   8   32.76    1.79 
   3  -1  -8   31.01    1.72 
  -3  -1   8   32.08    2.00 
  -3  -1   8   31.49    1.91 
  -3   1   8   31.62    1.81 
  -3   1   8   33.62    1.98 
  -3   1   8   32.29    1.94 
  -2  -1   8  360.27   14.33 
  -2  -1   8  370.51   14.23 
  -2  -1   8  358.43   14.45 
  -2   1   8  360.31   14.37 
  -2   1   8  369.62   14.26 
  -1  -1   8   80.06    3.60 
  -1  -1   8   81.18    3.73 
  -1  -1   8   79.84    3.61 
  -1   1   8   85.67    3.69 
  -1   1   8   78.81    3.62 
   0  -1   8   11.30    0.87 
   0  -1   8   11.36    0.81 
   0  -1   8   11.03    0.86 
   0   1  -8    9.95    0.89 
   0   1   8   11.30    0.85 
   0   1   8   11.95    0.85 
   0   1   8   11.26    0.78 
   1  -1   8   46.03    2.42 
   1  -1   8   48.30    2.17 
  -1   1  -8   47.07    2.74 
   1   1   8   52.07    2.43 
   1   1   8   47.06    2.48 
   1   1   8   47.24    2.15 
   2  -1   8  190.59    7.27 
   2  -1   8  190.57    7.63 
   2   1   8  152.84    7.60 
   2   1   8  185.79    7.26 
   2   1   8  189.96    7.42 
   2   1   8  175.87    7.88 
  -3  -1  -8   95.39    4.60 
   3  -1   8   97.80    4.11 
  -3  -1  -8   92.83    4.54 
  -3  -1  -8   98.85    4.72 
  -3  -1  -8   90.79    4.37 
  -3  -1  -8  101.24    6.51 
  -3  -1  -8   95.32    4.69 
  -3   1  -8   95.78    4.69 
  -3   1  -8   97.25    4.48 
   3   1   8   96.16    4.11 
  -3   1  -8   97.08    4.41 
  -3   1  -8   95.50    4.65 
   3   1   8   87.62    4.14 
   3   1   8   99.02    6.32 
  -3   1  -8   96.61    4.56 
  -4  -1  -8    4.29    0.59 
  -4  -1  -8    4.41    0.66 
  -4  -1  -8    4.65    0.70 
  -4  -1  -8    3.77    0.69 
  -4  -1  -8    4.10    1.10 
   4  -1   8    4.07    0.49 
  -4   1  -8    5.09    0.68 
   4   1   8    3.81    0.47 
   4   1   8    3.30    0.96 
  -4   1  -8    4.20    0.56 
  -4   1  -8    4.90    0.64 
  -4   1  -8    4.69    0.63 
  -4   1  -8    3.79    0.61 
  -5  -1  -8    7.95    0.97 
   5  -1   8    6.76    0.53 
   5  -1   8    6.32    0.64 
  -5  -1  -8    6.03    0.59 
  -5  -1  -8    8.37    1.04 
  -5   1  -8    6.12    0.65 
  -5   1  -8    8.26    0.97 
  -5   1  -8    6.41    0.65 
  -5   1  -8    6.08    0.87 
  -5   1  -8    6.01    0.69 
  -7  -2   8    9.66    1.46 
  -7  -2   8   11.85    0.95 
  -7  -2   8   11.39    0.87 
   7   2  -8   11.70    0.81 
  -7   2   8   12.39    0.92 
  -6  -2   8    2.27    0.54 
  -6  -2   8    1.83    0.52 
  -6  -2   8    1.50    0.70 
  -6  -2   8    1.18    0.52 
  -6  -2   8    1.78    0.95 
  -6   2   8    1.62    0.83 
  -6   2   8    1.23    0.66 
  -6   2   8    2.02    0.47 
   6   2  -8    2.52    0.44 
  -5  -2   8  187.30    8.18 
  -5  -2   8  197.72   13.28 
  -5  -2   8  203.35   14.72 
  -5   2   8  182.05    8.17 
  -5   2   8  187.02   14.72 
  -4  -2   8  117.47    6.41 
  -4  -2   8  139.02    9.45 
  -4  -2   8  107.85    5.28 
   4  -2  -8  107.03    4.96 
  -4  -2   8  124.24    5.81 
  -4  -2   8  127.24    7.81 
  -4   2   8  120.13    7.87 
  -4   2   8  138.07   10.47 
  -4   2   8  104.94    5.17 
   4   2  -8  103.06    5.21 
  -4   2   8  113.59    5.83 
  -3  -2   8   41.54    2.43 
   3  -2  -8   39.54    2.07 
  -3  -2   8   40.90    2.27 
  -3   2   8   39.71    2.28 
  -3   2   8   42.56    2.37 
   3   2  -8   39.71    2.18 
  -3   2   8   40.05    2.18 
  -2  -2   8   78.25    3.77 
  -2  -2   8   74.47    3.53 
  -2  -2   8   76.84    3.49 
   2  -2  -8   77.38    3.50 
  -2   2   8   78.06    3.61 
  -2   2   8   77.18    3.53 
  -2   2   8   78.27    3.64 
   2   2  -8   75.86    3.54 
  -1  -2   8  403.72   16.29 
  -1  -2   8  414.24   16.11 
  -1  -2   8  421.03   16.35 
   1  -2  -8  438.83   16.26 
  -1   2   8  408.10   16.10 
  -1   2   8  392.09   16.12 
  -1   2   8  422.06   16.14 
   0  -2   8   18.92    1.28 
   0  -2   8   19.83    1.34 
   0   2   8   19.85    1.26 
   0   2  -8   23.20    1.51 
   1  -2   8   67.09    3.20 
   1  -2   8   64.90    3.11 
   1   2   8   63.64    2.76 
   1   2   8   65.02    3.01 
  -1   2  -8   61.41    3.47 
   1   2   8   63.92    3.03 
   2  -2   8   22.88    1.60 
  -2  -2  -8   20.93    1.71 
  -2  -2  -8   21.09    1.79 
  -2  -2  -8   27.21    2.99 
  -2  -2  -8   23.88    1.69 
   2   2   8   24.45    1.31 
   2   2   8   24.47    1.45 
   2   2   8   25.66    2.75 
  -2   2  -8   22.45    1.58 
   2   2   8   22.74    1.43 
  -2   2  -8   23.57    1.68 
  -2   2  -8   22.57    1.52 
  -2   2  -8   24.09    1.69 
  -2   2  -8   23.27    1.98 
  -3  -2  -8   43.05    2.63 
  -3  -2  -8   44.60    2.66 
  -3  -2  -8   44.37    2.61 
   3  -2   8   43.66    2.51 
   3  -2   8   47.68    2.18 
  -3  -2  -8   42.24    2.41 
  -3  -2  -8   41.80    2.56 
  -3  -2  -8   48.48    4.21 
  -3   2  -8   44.01    2.42 
   3   2   8   40.88    2.26 
  -3   2  -8   45.64    2.58 
  -3   2  -8   44.01    2.49 
   3   2   8   45.70    2.16 
  -3   2  -8   44.60    2.64 
  -3   2  -8   45.72    2.40 
   3   2   8   44.85    3.96 
   4  -2   8    1.79    0.33 
  -4  -2  -8    2.23    0.49 
  -4  -2  -8    2.47    0.60 
  -4  -2  -8    1.89    0.48 
  -4  -2  -8    2.28    0.53 
   4  -2   8    1.38    0.53 
  -4  -2  -8    1.38    0.79 
  -4   2  -8    1.54    0.44 
  -4   2  -8    1.28    0.47 
  -4   2  -8    2.18    0.50 
   4   2   8    1.66    0.32 
  -4   2  -8    1.21    0.42 
   5  -2   8    7.10    0.51 
  -5  -2  -8    7.05    0.67 
   5  -2   8    6.79    0.90 
  -5  -2  -8    7.00    0.67 
  -5  -2  -8    7.09    0.73 
  -5  -2  -8    6.16    0.57 
  -5   2  -8    6.51    0.60 
  -5   2  -8    6.97    0.60 
   5   2   8    5.53    1.03 
  -5   2  -8    6.48    0.63 
  -5   2  -8    7.30    0.71 
  -5   2  -8    6.14    0.81 
   5   2   8    7.09    0.50 
  -7  -3   8    3.99    0.72 
  -7  -3   8    4.76    0.49 
   7   3  -8    4.75    0.39 
  -6  -3   8   22.54    1.51 
  -6  -3   8   25.18    2.80 
  -6  -3   8   22.26    1.50 
   6  -3  -8   21.51    1.31 
  -6  -3   8   24.00    1.84 
  -6   3   8   23.49    1.51 
  -6   3   8   22.82    2.60 
   6   3  -8   22.02    1.36 
  -5  -3   8   46.04    3.09 
  -5  -3   8   47.75    4.08 
  -5  -3   8   46.57    2.57 
   5  -3  -8   41.70    2.23 
  -5  -3   8   44.35    2.57 
  -5  -3   8   44.71    4.37 
   5   3  -8   48.05    2.48 
  -5   3   8   44.77    2.68 
  -5   3   8   44.54    2.45 
  -5   3   8   46.39    2.55 
  -5   3   8   44.38    4.38 
  -4  -3   8  134.79    8.08 
   4  -3  -8  119.06    5.40 
  -4  -3   8  127.61    5.70 
  -4  -3   8  126.16    6.38 
  -4  -3   8  131.64    8.41 
  -4  -3   8  124.48    5.74 
  -4   3   8  124.10    5.77 
   4   3  -8  129.34    5.65 
  -4   3   8  118.30    5.87 
  -4   3   8  129.87    8.02 
  -4   3   8  139.77    8.85 
  -4   3   8  124.69    5.70 
   3  -3  -8   39.28    2.25 
   3  -3  -8   38.43    2.08 
  -3  -3   8   38.89    2.46 
  -3  -3   8   40.57    2.24 
  -3   3   8   39.35    2.18 
  -3   3   8   42.26    2.38 
   3   3  -8   39.46    2.21 
  -2  -3   8   55.48    2.72 
   2  -3  -8   56.13    2.78 
  -2  -3   8   57.27    3.08 
   2  -3  -8   58.50    2.85 
  -2   3   8   58.72    2.87 
   2   3  -8   57.42    2.82 
  -2   3   8   59.03    2.84 
  -2   3   8   58.18    2.94 
   1  -3  -8   31.85    1.76 
   1  -3  -8   29.80    1.79 
  -1  -3   8   31.00    1.71 
  -1  -3   8   31.77    1.95 
  -1   3   8   31.13    1.78 
  -1   3   8   31.92    1.77 
   0  -3   8  166.01    7.12 
   0  -3   8  170.29    7.29 
   0   3   8  179.88    7.14 
   0   3   8  178.73    7.14 
   0   3  -8  164.65    7.49 
   1  -3   8   74.15    3.44 
   1  -3   8   72.48    3.48 
   1  -3   8   73.16    3.13 
  -1   3  -8   66.75    3.88 
   1   3   8   71.31    3.34 
   1   3   8   69.91    3.30 
  -2  -3  -8  166.02    7.36 
   2  -3   8  162.71    7.14 
  -2  -3  -8  152.97    7.16 
  -2  -3  -8  163.09    7.26 
  -2  -3  -8  157.90    7.23 
  -2  -3  -8  175.29    9.76 
   2  -3   8  161.92    6.65 
  -2   3  -8  162.81    7.25 
  -2   3  -8  163.95    7.02 
  -2   3  -8  174.20    7.32 
   2   3   8  165.10    6.92 
  -2   3  -8  178.76    7.78 
   2   3   8  154.11    6.57 
  -2   3  -8  174.73    6.97 
   2   3   8  158.54    9.15 
  -3  -3  -8   19.33    1.59 
  -3  -3  -8   22.04    1.66 
  -3  -3  -8   24.45    2.95 
   3  -3   8   21.01    1.51 
   3  -3   8   21.29    1.24 
  -3  -3  -8   19.09    1.62 
  -3  -3  -8   22.33    1.64 
   3   3   8   21.77    1.23 
  -3   3  -8   21.60    1.42 
  -3   3  -8   22.21    1.43 
   3   3   8   22.52    2.71 
  -3   3  -8   21.98    1.64 
  -3   3  -8   21.09    1.53 
  -3   3  -8   20.70    1.49 
  -4  -3  -8   24.73    1.53 
  -4  -3  -8   27.88    1.77 
   4  -3   8   24.96    1.54 
   4  -3   8   27.71    1.75 
  -4  -3  -8   24.12    2.70 
  -4  -3  -8   25.74    1.74 
  -4  -3  -8   26.09    1.73 
  -4   3  -8   26.70    1.76 
  -4   3  -8   25.70    1.60 
  -4   3  -8   24.41    1.49 
  -4   3  -8   27.96    1.57 
   4   3   8   25.59    1.49 
  -4   3  -8   26.16    1.57 
   4   3   8   26.97    1.36 
   4   3   8   25.20    2.68 
  -5  -3  -8   34.45    1.75 
  -5  -3  -8   34.63    1.81 
   5  -3   8   33.63    1.52 
  -5  -3  -8   34.75    2.00 
  -5  -3  -8   33.21    1.57 
  -5   3  -8   31.07    1.70 
  -5   3  -8   32.35    1.63 
  -5   3  -8   33.69    1.61 
  -5   3  -8   31.49    1.57 
  -6  -4   8    1.91    0.53 
  -6  -4   8    2.62    0.43 
   6  -4  -8    2.20    0.38 
  -6  -4   8    2.15    0.43 
  -6   4   8    1.44    0.69 
  -6   4   8    2.09    0.45 
  -6   4   8    1.36    0.35 
   6   4  -8    2.41    0.36 
  -5  -4   8   25.65    2.05 
  -5  -4   8   26.76    3.06 
   5  -4  -8   23.56    1.45 
  -5  -4   8   24.25    1.59 
  -5  -4   8   23.56    1.61 
  -5  -4   8   22.77    2.61 
   5   4  -8   25.13    1.52 
  -5   4   8   24.55    1.59 
  -5   4   8   22.98    3.00 
  -5   4   8   24.38    1.70 
  -4  -4   8   39.17    3.87 
  -4  -4   8   38.64    2.77 
   4  -4  -8   39.60    2.10 
  -4  -4   8   32.70    2.12 
  -4  -4   8   36.18    2.25 
  -4  -4   8   37.90    3.77 
  -4   4   8   40.27    2.33 
  -4   4   8   39.47    2.45 
  -4   4   8   40.12    2.31 
   4   4  -8   40.96    2.17 
  -4   4   8   34.57    2.03 
  -4   4   8   43.60    4.48 
  -3  -4   8  121.49    6.18 
   3  -4  -8  118.31    5.42 
  -3  -4   8  138.60    8.20 
  -3   4   8  114.03    5.63 
  -3   4   8  139.29    8.05 
  -3   4   8  128.60    5.73 
   3   4  -8  124.38    5.45 
  -3   4   8  128.64    8.58 
  -3   4   8  124.01    5.92 
  -3   4   8  124.02    5.72 
  -2  -4   8   14.67    2.21 
   2  -4  -8   14.95    1.12 
  -2  -4   8   14.33    1.29 
   2  -4  -8   14.46    1.10 
   2   4  -8   13.55    2.17 
  -2   4   8   16.15    1.43 
  -2   4   8   14.90    1.11 
  -2   4   8   14.30    1.16 
   2   4  -8   11.78    0.97 
  -1  -4   8  103.53    4.97 
  -1  -4   8  101.39    4.62 
   1  -4  -8  107.27    4.72 
  -1   4   8  108.33    4.78 
  -1   4   8  112.66    4.80 
   0  -4   8   71.82    3.41 
   0  -4   8   71.85    3.64 
   0   4   8   72.62    3.43 
   0   4  -8   71.94    3.87 
   1  -4   8  151.99    6.08 
  -1  -4  -8  142.52    6.64 
  -1  -4  -8  140.68    6.51 
  -1  -4  -8  160.49   12.51 
   1  -4   8  146.05    6.55 
   1   4   8  143.07    6.48 
   1   4   8  146.47    6.27 
  -1   4  -8  143.25    6.37 
  -1   4  -8  151.57    8.84 
   2  -4   8   49.66    2.36 
  -2  -4  -8   49.07    2.88 
  -2  -4  -8   55.46    4.77 
   2  -4   8   45.06    2.69 
  -2  -4  -8   49.52    2.85 
  -2  -4  -8   49.59    2.85 
  -2  -4  -8   46.56    2.78 
  -2   4  -8   48.98    2.51 
  -2   4  -8   46.73    2.79 
  -2   4  -8   53.04    2.64 
   2   4   8   51.51    2.63 
  -2   4  -8   48.91    2.57 
   2   4   8   47.90    2.66 
   2   4   8   58.65    4.58 
  -3  -4  -8   76.37    3.87 
   3  -4   8   77.11    3.34 
  -3  -4  -8   74.57    3.79 
  -3  -4  -8   74.08    5.66 
  -3  -4  -8   74.48    3.86 
  -3   4  -8   75.58    3.55 
   3   4   8   81.70    5.59 
   3   4   8   72.74    3.20 
  -3   4  -8   75.73    3.49 
   3   4   8   73.41    3.57 
   3   4   8   75.71    3.57 
  -3   4  -8   75.03    3.83 
  -3   4  -8   79.00    3.56 
   4  -4   8   19.09    1.05 
  -4  -4  -8   17.84    1.32 
  -4  -4  -8   17.80    1.31 
  -4  -4  -8   17.51    2.23 
  -4  -4  -8   16.94    1.11 
  -4  -4  -8   18.26    1.32 
   4   4   8   17.69    0.96 
  -4   4  -8   17.54    1.31 
   4   4   8   15.52    2.05 
  -4   4  -8   17.93    1.15 
  -4   4  -8   18.75    1.16 
   4   4   8   18.35    1.19 
  -4   4  -8   18.19    1.12 
  -6  -5   8   18.09    1.10 
   6  -5  -8   16.71    1.29 
  -6  -5   8   18.53    1.33 
  -6   5   8   16.80    1.35 
  -6   5   8   16.57    1.93 
   6   5  -8   18.53    0.97 
  -5  -5   8    0.69    0.47 
  -5  -5   8    0.66    0.32 
  -5  -5   8    1.24    0.35 
   5  -5  -8    0.78    0.27 
  -5  -5   8    0.40    0.26 
  -5   5   8    0.73    0.37 
  -5   5   8    0.44    0.26 
   5   5  -8    0.61    0.23 
  -5   5   8    0.48    0.56 
   5   5  -8   -0.01    0.42 
  -4  -5   8   11.09    1.25 
  -4  -5   8   10.41    0.91 
   4  -5  -8   11.05    0.90 
  -4  -5   8   10.41    0.95 
  -4  -5   8   10.33    1.83 
  -4  -5   8    7.72    1.53 
  -4   5   8    9.66    0.89 
   4   5  -8   10.32    0.85 
  -4   5   8    9.53    1.00 
  -4   5   8   11.44    2.17 
   4   5  -8   10.86    1.93 
  -4   5   8    9.92    1.09 
  -3  -5   8   56.49    2.82 
  -3  -5   8   62.45    5.09 
  -3  -5   8   56.45    3.41 
  -3  -5   8   51.25    2.82 
  -3  -5   8   53.51    4.48 
   3  -5  -8   55.94    2.87 
  -3  -5   8   53.29    3.13 
   3   5  -8   58.45    4.90 
  -3   5   8   57.33    2.97 
  -3   5   8   54.68    2.87 
  -3   5   8   58.31    3.11 
  -3   5   8   59.28    3.26 
  -3   5   8   61.42    5.48 
   3   5  -8   58.72    2.72 
  -2  -5   8  121.94    5.70 
  -2  -5   8  127.30    8.10 
  -2  -5   8  117.37    5.92 
   2  -5  -8  117.65    5.58 
   2  -5  -8  123.63    5.46 
  -2   5   8  122.25    5.75 
   2   5  -8  114.42    5.05 
  -2   5   8  122.23    5.65 
  -2   5   8  135.85    8.49 
  -2   5   8  122.22    5.52 
  -2   5   8  120.91    5.47 
   2   5  -8  138.84    8.21 
   1  -5  -8  209.96    8.74 
   1  -5  -8  208.45    9.02 
  -1   5   8  189.97   13.49 
  -1   5   8  217.32    8.84 
  -1   5   8  220.34    9.05 
  -1   5   8  212.38    9.06 
   1   5  -8  223.06   11.60 
  -1   5   8  217.85    8.91 
   0  -5  -8  276.81   12.18 
   0  -5   8  279.52   12.28 
   0  -5  -8  296.88   12.47 
   0  -5   8  321.88   12.30 
   0  -5  -8  292.71   12.29 
   0   5  -8  332.29   15.21 
   0   5  -8  296.73   12.02 
   0   5   8  293.07   12.22 
   0   5   8  301.80   14.65 
   0   5   8  299.70   12.01 
   0   5   8  289.55   12.15 
   1  -5   8   26.65    1.45 
  -1  -5  -8   27.93    1.96 
  -1  -5  -8   25.89    1.85 
  -1  -5  -8   25.99    1.88 
  -1   5  -8   28.57    3.22 
   1   5   8   25.97    1.80 
   1   5   8   26.38    1.65 
   1   5   8   26.26    2.96 
  -1   5  -8   24.88    1.75 
  -1   5  -8   25.77    1.65 
  -2  -5  -8   26.09    3.15 
   2  -5   8   26.07    1.43 
  -2  -5  -8   25.52    1.84 
  -2  -5  -8   26.68    1.90 
  -2   5  -8   26.31    1.54 
   2   5   8   25.45    1.70 
  -2   5  -8   24.92    1.78 
   2   5   8   26.36    1.65 
  -2   5  -8   28.14    1.66 
  -2   5  -8   26.15    1.55 
  -2   5  -8   24.97    3.08 
   2   5   8   25.82    2.93 
  -3  -5  -8    6.31    1.45 
  -3  -5  -8    4.95    0.70 
   3  -5   8    5.78    0.72 
  -3  -5  -8    6.82    0.80 
  -3  -5  -8    7.04    0.85 
   3   5   8    5.72    1.31 
   3   5   8    4.60    0.66 
  -3   5  -8    7.66    0.68 
  -3   5  -8    5.20    0.61 
   3   5   8    7.06    1.07 
  -3   5  -8    5.72    0.63 
  -3   5  -8    7.29    0.80 
   4  -5   8   16.52    0.92 
  -4  -5  -8   16.64    1.13 
  -4  -5  -8   16.96    1.18 
  -4  -5  -8   16.35    1.97 
  -4  -5  -8   18.90    1.55 
  -4   5  -8   15.86    0.98 
  -4   5  -8   17.40    1.04 
   4   5   8   17.10    1.94 
  -4   5  -8   15.66    0.95 
  -4   5  -8   16.44    1.16 
   5  -6  -8    0.95    0.26 
   5  -6  -8    0.71    0.25 
  -5  -6   8    0.31    0.25 
  -5  -6   8    0.83    0.44 
  -5  -6   8    1.26    0.53 
  -5   6   8    1.14    0.46 
  -5   6   8    1.39    0.28 
  -5   6   8    1.12    0.65 
  -4  -6   8   30.72    1.72 
  -4  -6   8   31.36    2.83 
  -4  -6   8   31.82    1.97 
  -4  -6   8   30.71    2.11 
   4  -6  -8   33.52    1.86 
  -4   6   8   30.30    1.72 
   4   6  -8   33.54    1.59 
   4   6  -8   27.67    2.90 
  -4   6   8   25.63    1.99 
  -4   6   8   32.57    1.90 
  -4   6   8   32.10    3.55 
  -3  -6   8   13.08    1.27 
   3  -6  -8   15.30    1.15 
  -3  -6   8   12.56    1.34 
  -3   6   8   13.88    2.37 
  -3   6   8   14.90    1.26 
  -3   6   8   14.88    1.27 
   3   6  -8   13.95    2.18 
  -3   6   8   13.44    1.10 
  -2  -6   8   30.47    2.07 
   2  -6  -8   30.62    2.03 
  -2  -6   8   29.05    2.15 
   2   6  -8   35.86    3.66 
  -2   6   8   31.08    2.07 
  -2   6   8   31.86    2.03 
  -2   6   8   28.72    3.43 
  -2   6   8   31.29    1.92 
   1  -6  -8  219.30    9.34 
   1   6  -8  205.02   12.59 
  -1   6   8  247.47    9.96 
  -1   6   8  225.76    9.46 
  -1   6   8  255.73   10.29 
   0  -6  -8  106.07    5.02 
   0  -6  -8   99.12    4.86 
   0  -6   8  102.22    4.87 
   0  -6  -8  100.68    4.96 
   0   6  -8  105.13    7.16 
   0   6  -8   91.73    4.68 
   0   6   8  101.60    4.73 
   0   6   8  104.76    4.90 
   0   6   8  106.08    4.66 
   0   6   8  104.76    6.57 
   1  -6   8    0.62    0.24 
  -1  -6  -8    0.22    0.36 
  -1  -6  -8    0.48    0.39 
   1   6   8    1.51    0.49 
  -1   6  -8    0.80    0.39 
   1   6   8    0.45    0.30 
  -1   6  -8    0.42    0.57 
  -1   6  -8    0.33    0.27 
   1   6   8    0.66    0.59 
  -2  -6  -8    2.87    0.65 
   2   6   8    2.96    0.56 
  -2   6  -8    3.99    0.56 
  -2   6  -8    2.75    1.01 
  -2   6  -8    3.21    0.50 
   2   6   8    2.33    1.14 
  -3  -6  -8    8.14    0.87 
  -3  -6  -8    6.03    0.79 
  -3   6  -8    6.98    0.58 
   3   6   8    6.75    1.27 
  -3   6  -8    6.06    0.58 
  -3   6  -8    6.83    0.65 
   3   6   8    5.38    0.81 
   3   6   8    6.68    0.66 
  -3   6  -8    7.27    0.73 
   5  -7  -8    3.04    0.52 
  -5   7   8    4.06    0.48 
  -5   7   8    3.15    0.76 
   4  -7  -8    1.93    0.42 
  -4  -7   8    1.79    0.40 
  -4  -7   8    2.74    0.53 
   4  -7  -8    2.99    0.44 
   4   7  -8    2.38    0.73 
  -4   7   8    2.10    0.44 
  -4   7   8    2.78    0.52 
  -4   7   8    1.72    0.77 
  -3  -7   8   20.86    1.50 
  -3  -7   8   19.87    1.45 
   3  -7  -8   19.30    1.31 
   3  -7  -8   19.94    1.40 
  -3   7   8   18.87    1.40 
  -3   7   8   17.73    1.25 
   3   7  -8   20.03    2.48 
  -3   7   8   19.74    1.37 
  -3   7   8   15.59    2.31 
   2  -7  -8   23.10    1.66 
   2  -7  -8   22.84    1.48 
  -2   7   8   27.51    2.10 
  -2   7   8   25.73    2.09 
  -2   7   8   23.25    1.53 
   2   7  -8   21.83    2.80 
   1  -7  -8   93.10    4.48 
   1  -7  -8   87.36    4.38 
  -1  -7   8   92.57    4.46 
  -1   7   8   86.99    4.12 
  -1   7   8   97.85    4.35 
  -1   7   8   94.37    4.33 
   1   7  -8   89.02    6.46 
  -1   7   8   94.32    4.44 
   0  -7   8   13.44    1.21 
   0  -7  -8   12.25    1.67 
   0  -7  -8   13.97    1.20 
   0  -7  -8   14.02    1.23 
   0   7   8   12.56    1.03 
   0   7   8   12.20    1.13 
   0   7   8   14.31    1.06 
   0   7  -8   13.78    2.18 
  -1  -7  -8   27.19    1.78 
  -1  -7  -8   24.94    1.71 
   1  -7   8   26.76    1.72 
  -1   7  -8   22.63    2.84 
  -1   7  -8   26.11    1.62 
   1   7   8   26.26    1.70 
   1   7   8   22.48    2.35 
   1   7   8   26.53    1.58 
   2  -7   8    8.65    0.82 
  -2  -7  -8    8.07    0.81 
  -2  -7  -8    8.20    0.96 
   2   7   8    7.95    0.78 
   2   7   8    7.19    0.68 
  -2   7  -8    8.10    0.74 
  -2   7  -8    7.44    0.66 
   2   7   8    6.47    1.27 
  -2   7  -8    7.07    0.72 
  -3  -7  -8    5.06    0.53 
  -3  -7  -8    5.02    0.61 
  -3   7  -8    5.18    0.48 
  -3   7  -8    5.51    0.49 
   3   7   8    4.70    0.75 
  -3   7  -8    4.87    0.51 
   4  -8  -8    1.40    0.27 
  -4   8   8    1.22    0.22 
  -4   8   8    0.99    0.38 
   3  -8  -8   32.85    1.80 
   3  -8  -8   31.92    1.60 
  -3  -8   8   29.33    1.71 
  -3   8   8   32.56    1.71 
  -3   8   8   31.66    1.66 
  -3   8   8   31.47    1.57 
   2  -8  -8    6.56    0.72 
  -2   8   8    3.23    0.67 
   2   8  -8    4.83    1.21 
  -2   8   8    5.39    0.62 
  -2   8   8    4.65    0.68 
  -1  -8   8   29.52    1.82 
   1  -8  -8   29.74    1.73 
   1  -8  -8   29.78    1.83 
   1  -8  -8   28.69    1.70 
   1   8  -8   24.61    2.90 
  -1   8   8   31.03    1.77 
  -1   8   8   28.20    1.56 
   0  -8  -8    4.14    0.68 
   0  -8   8    4.70    0.68 
   0  -8  -8    3.85    0.63 
   0   8  -8    3.23    1.17 
   0   8   8    4.21    0.60 
  -1  -8  -8   30.19    1.70 
  -1  -8  -8   28.90    1.65 
   1  -8   8   29.78    1.73 
  -1   8  -8   25.92    2.74 
   1   8   8   28.05    1.74 
  -2  -8  -8    1.80    0.33 
  -2  -8  -8    2.31    0.37 
   2   8   8    2.05    0.32 
  -1  -9   8    4.07    0.67 
   1  -9  -8    5.40    0.56 
  -1   9   8    5.17    0.49 
   0  -9   8   14.26    1.14 
   0  -9  -8   19.36    1.08 
   0   9  -8   16.02    2.49 
  -7   0   9    9.56    1.34 
  -6   0   9   15.47    2.11 
  -6   0   9   14.74    1.32 
  -6   0   9   16.77    1.31 
  -6   0   9   16.11    2.32 
   6   0  -9   17.15    1.16 
   5   0  -9  308.26   12.25 
  -5   0   9  296.85   15.88 
  -5   0   9  316.30   15.48 
  -5   0   9  282.16   12.78 
  -5   0   9  312.74   12.62 
  -5   0   9  317.44   12.75 
   4   0  -9    3.59    0.54 
  -4   0   9    3.28    1.24 
  -4   0   9    2.75    1.21 
  -4   0   9    3.04    0.72 
  -4   0   9    2.58    0.60 
  -3   0   9    4.12    0.63 
  -3   0   9    3.72    0.60 
  -3   0   9    4.75    0.59 
   3   0  -9    3.92    0.57 
   2   0  -9   91.84    4.17 
  -2   0   9   91.45    4.36 
  -2   0   9   99.25    4.35 
  -2   0   9   93.81    4.22 
  -1   0   9   75.66    3.46 
  -1   0   9   73.21    3.50 
   1   0  -9   72.83    3.39 
   0   0   9   71.06    3.30 
   0   0   9   69.44    3.25 
   1   0   9   21.96    1.18 
   1   0   9   23.51    1.38 
  -2   0  -9    1.17    0.43 
  -2   0  -9    0.95    0.38 
  -2   0  -9    1.03    0.39 
   2   0   9    1.05    0.25 
   2   0   9    0.78    0.64 
  -3   0  -9   22.83    1.52 
  -3   0  -9   21.92    1.64 
   3   0   9   24.75    2.64 
  -3   0  -9   23.41    1.71 
  -3   0  -9   22.44    1.48 
  -3   0  -9   23.98    1.71 
   3   0   9   22.20    1.28 
  -4   0  -9    0.53    0.25 
  -4   0  -9   -0.06    0.23 
  -4   0  -9    0.39    0.20 
   4   0   9    0.20    0.17 
  -4   0  -9   -0.31    0.22 
  -4   0  -9   -0.08    0.19 
   5   0   9   -0.08    0.13 
  -5   0  -9    0.24    0.17 
   5   0   9   -0.19    0.16 
  -5   0  -9    0.03    0.15 
  -5   0  -9    0.20    0.14 
  -5   0  -9    0.18    0.16 
  -7  -1   9    0.78    0.26 
  -7  -1   9    0.39    0.30 
  -7  -1   9   -0.05    0.30 
  -7   1   9    0.06    0.39 
  -7   1   9    0.61    0.40 
   7   1  -9    0.67    0.21 
  -6  -1   9    8.11    1.66 
  -6  -1   9    8.85    0.92 
   6  -1  -9    9.97    0.77 
  -6  -1   9    8.71    1.03 
  -6  -1   9    8.50    1.46 
  -6   1   9    9.51    0.94 
  -6   1   9    6.64    1.42 
  -6   1   9    9.35    0.90 
  -6   1   9    6.86    1.44 
  -5  -1   9  158.62    7.33 
  -5  -1   9  158.78    7.72 
  -5  -1   9  166.00   10.29 
  -5  -1   9  166.11    9.69 
   5  -1  -9  162.19    6.91 
  -5  -1   9  181.31    7.71 
  -5   1   9  172.91   10.27 
  -5   1   9  177.48    7.72 
   5   1  -9  164.00    7.04 
  -5   1   9  160.82    9.81 
  -5   1   9  160.95    7.39 
  -4  -1   9   68.13    3.57 
  -4  -1   9   69.57    4.06 
   4  -1  -9   65.94    3.26 
  -4  -1   9   73.91    5.68 
  -4  -1   9   64.77    3.56 
  -4  -1   9   74.74    6.03 
  -4   1   9   66.06    3.78 
  -4   1   9   70.36    3.63 
   4   1  -9   65.92    3.33 
  -4   1   9   77.53    6.01 
  -4   1   9   68.13    3.68 
  -4   1   9   73.34    5.72 
  -3  -1   9  200.17    8.41 
  -3  -1   9  201.12    8.56 
   3  -1  -9  203.20    8.36 
  -3  -1   9  205.81    8.77 
   3   1  -9  206.06    8.42 
  -3   1   9  205.80    8.67 
  -3   1   9  205.06    8.50 
  -3   1   9  208.53    8.68 
  -2  -1   9   99.78    4.71 
   2  -1  -9  101.60    4.48 
  -2  -1   9  101.18    4.51 
  -2  -1   9  101.09    4.58 
   2   1  -9  100.36    4.50 
  -2   1   9  103.75    4.55 
  -2   1   9  102.30    4.65 
  -2   1   9  102.38    4.63 
   1  -1  -9   52.68    2.58 
  -1  -1   9   51.39    2.72 
  -1  -1   9   52.71    2.60 
  -1  -1   9   51.27    2.58 
  -1   1   9   51.10    2.61 
  -1   1   9   51.90    2.62 
  -1   1   9   52.59    2.61 
   0  -1   9   10.35    0.91 
   0  -1   9    9.42    0.86 
   0  -1   9    9.66    0.84 
   0   1   9   10.81    0.86 
   0   1   9   11.05    0.89 
   1  -1   9    1.05    0.31 
   1  -1   9    1.45    0.29 
   1   1   9    0.86    0.31 
   1   1   9    1.49    0.34 
  -2  -1  -9  157.67    6.88 
  -2  -1  -9  153.23    7.06 
   2  -1   9  156.82    6.42 
  -2  -1  -9  165.40    9.17 
  -2  -1  -9  163.74    7.13 
   2  -1   9  161.49    7.01 
  -2  -1  -9  158.15    6.99 
  -2   1  -9  162.72    6.73 
   2   1   9  176.61    9.23 
  -2   1  -9  160.32    7.08 
  -2   1  -9  155.83    7.07 
  -2   1  -9  155.49    6.89 
   2   1   9  156.67    6.40 
  -2   1  -9  147.52    7.18 
   2   1   9  156.40    6.61 
  -3  -1  -9   11.81    1.21 
  -3  -1  -9   13.07    1.26 
  -3  -1  -9   15.14    2.07 
  -3  -1  -9   12.44    1.00 
   3  -1   9   15.31    1.25 
  -3  -1  -9   12.20    1.14 
   3  -1   9   13.90    0.91 
  -3  -1  -9   13.46    1.25 
  -3   1  -9   13.48    1.23 
   3   1   9   14.90    2.08 
   3   1   9   13.72    0.89 
  -3   1  -9   13.06    1.20 
  -3   1  -9   13.59    1.07 
  -3   1  -9   13.62    1.26 
  -3   1  -9   12.85    1.10 
  -4  -1  -9   53.54    2.67 
  -4  -1  -9   51.99    2.50 
   4  -1   9   56.46    2.38 
  -4  -1  -9   48.20    2.65 
  -4  -1  -9   52.92    2.75 
   4  -1   9   53.53    2.75 
  -4  -1  -9   54.82    2.84 
  -4   1  -9   53.43    2.75 
  -4   1  -9   54.82    2.71 
  -4   1  -9   51.07    2.56 
  -4   1  -9   51.89    2.79 
   4   1   9   44.87    3.60 
   4   1   9   52.07    2.34 
  -4   1  -9   48.85    2.48 
   5  -1   9   26.88    1.45 
  -5  -1  -9   29.55    1.57 
  -5  -1  -9   27.58    1.58 
   5  -1   9   25.95    1.34 
  -5  -1  -9   29.51    1.50 
  -5  -1  -9   30.25    1.34 
   5   1   9   31.60    1.58 
  -5   1  -9   23.20    1.49 
  -5   1  -9   29.34    1.47 
  -5   1  -9   29.19    1.55 
  -5   1  -9   28.94    1.48 
  -7  -2   9   13.84    0.90 
  -7  -2   9   13.30    0.93 
   7   2  -9   12.81    0.77 
  -6  -2   9    5.73    1.22 
   6  -2  -9    7.80    0.68 
  -6  -2   9    8.04    0.79 
  -6  -2   9    7.38    0.96 
  -6  -2   9    8.14    0.84 
  -6  -2   9    7.26    1.53 
  -6   2   9    8.69    0.85 
   6   2  -9    8.01    0.75 
  -6   2   9    7.76    0.86 
  -6   2   9    7.18    1.37 
  -5  -2   9   51.02    4.81 
   5  -2  -9   53.15    2.65 
  -5  -2   9   53.94    4.51 
  -5  -2   9   54.03    2.93 
  -5  -2   9   52.70    2.95 
  -5  -2   9   55.15    3.47 
  -5   2   9   59.12    3.06 
  -5   2   9   44.30    2.69 
  -5   2   9   59.46    4.95 
  -5   2   9   54.96    3.07 
  -5   2   9   59.54    5.01 
  -4  -2   9    2.61    1.08 
  -4  -2   9    3.82    0.73 
  -4  -2   9    3.92    1.13 
  -4  -2   9    1.88    0.68 
  -4  -2   9    2.30    0.62 
   4  -2  -9    3.47    0.52 
  -4   2   9    2.11    0.58 
  -4   2   9    2.28    0.52 
  -4   2   9    2.65    0.60 
  -4   2   9    2.29    0.93 
   4   2  -9    1.50    0.40 
  -4   2   9    2.28    1.04 
  -3  -2   9  252.94   11.32 
  -3  -2   9  260.35   10.70 
  -3  -2   9  246.97   13.39 
  -3  -2   9  261.32   13.42 
   3  -2  -9  266.41   10.53 
  -3   2   9  284.67   13.92 
  -3   2   9  252.25   10.92 
   3   2  -9  263.36   10.63 
  -3   2   9  261.48   10.83 
  -2  -2   9  120.45    5.45 
  -2  -2   9  112.22    5.13 
   2  -2  -9  117.84    5.11 
  -2  -2   9  117.42    5.13 
  -2   2   9  120.41    5.30 
  -2   2   9  113.50    5.19 
  -2   2   9  122.29    5.21 
  -1  -2   9   60.60    3.09 
  -1  -2   9   60.56    2.87 
   1  -2  -9   56.49    2.84 
  -1  -2   9   60.22    2.89 
   1   2  -9   56.62    2.75 
  -1   2   9   57.33    2.85 
  -1   2   9   62.20    2.94 
  -1   2   9   62.19    2.96 
   0  -2   9  113.17    5.13 
   0  -2   9  115.17    5.08 
   0   2   9  118.01    5.05 
   0   2   9  113.88    4.99 
  -1  -2  -9    8.64    1.63 
   1  -2   9    6.60    0.59 
  -1  -2  -9    7.39    0.91 
  -1  -2  -9    8.32    0.86 
   1  -2   9    7.08    0.85 
  -1  -2  -9    6.35    0.98 
  -1   2  -9    8.81    0.96 
   1   2   9    7.36    1.47 
   1   2   9    7.45    0.72 
  -1   2  -9    6.08    0.84 
  -2  -2  -9   61.46    3.32 
  -2  -2  -9   60.78    3.27 
  -2  -2  -9   59.11    3.17 
   2  -2   9   62.46    3.26 
   2  -2   9   60.19    2.76 
  -2  -2  -9   73.41    5.32 
  -2  -2  -9   61.01    3.34 
   2   2   9   59.17    4.75 
  -2   2  -9   62.66    3.17 
  -2   2  -9   58.55    3.41 
   2   2   9   60.77    2.70 
   2   2   9   54.20    2.90 
  -2   2  -9   64.66    3.01 
  -2   2  -9   65.39    3.35 
  -2   2  -9   57.20    3.22 
  -3  -2  -9   21.12    2.67 
   3  -2   9   24.75    1.35 
  -3  -2  -9   25.08    1.75 
  -3  -2  -9   24.01    1.68 
  -3  -2  -9   23.67    1.73 
   3  -2   9   24.12    1.68 
  -3  -2  -9   24.62    1.80 
  -3   2  -9   25.06    1.53 
  -3   2  -9   23.33    1.50 
   3   2   9   23.43    2.75 
  -3   2  -9   26.01    1.78 
   3   2   9   23.77    1.46 
   3   2   9   25.22    1.32 
  -3   2  -9   24.06    1.61 
  -3   2  -9   26.81    1.76 
  -4  -2  -9   16.19    1.28 
  -4  -2  -9   13.67    1.17 
  -4  -2  -9   15.26    1.12 
   4  -2   9   11.56    1.02 
   4  -2   9   14.26    0.86 
  -4  -2  -9   14.77    1.18 
  -4   2  -9   14.40    1.07 
  -4   2  -9   13.70    1.15 
  -4   2  -9   12.11    0.94 
  -4   2  -9   14.00    1.11 
  -4   2  -9   15.56    1.01 
   4   2   9   14.73    0.85 
  -5  -2  -9    0.30    0.18 
  -5  -2  -9    0.07    0.15 
  -5  -2  -9    0.57    0.24 
  -5   2  -9    0.69    0.16 
  -5   2  -9    0.47    0.24 
  -5   2  -9    0.77    0.21 
   5   2   9    0.29    0.20 
  -5   2  -9    0.44    0.17 
  -6  -3   9    1.36    0.37 
  -6  -3   9    0.69    0.56 
  -6  -3   9    1.56    0.46 
  -6  -3   9    1.82    0.45 
  -6  -3   9    1.42    0.66 
   6   3  -9    1.36    0.33 
  -6   3   9    1.19    0.71 
   6   3  -9    0.66    0.51 
  -5  -3   9   39.16    2.73 
  -5  -3   9   37.11    2.21 
  -5  -3   9   36.20    3.51 
  -5  -3   9   34.60    3.68 
  -5  -3   9   40.16    2.24 
  -5   3   9   37.65    2.22 
  -5   3   9   39.50    3.96 
  -5   3   9   36.99    3.79 
   5   3  -9   40.38    2.16 
  -5   3   9   33.73    2.03 
  -5   3   9   36.72    2.32 
  -4  -3   9    8.37    0.93 
   4  -3  -9    8.41    0.80 
  -4  -3   9    7.13    1.72 
  -4  -3   9    9.20    1.72 
  -4  -3   9    8.14    0.87 
  -4  -3   9    9.48    1.23 
  -4   3   9    8.15    1.76 
  -4   3   9    9.18    1.01 
   4   3  -9    7.19    0.85 
  -4   3   9    9.53    1.05 
  -4   3   9    8.17    0.88 
  -3  -3   9   26.29    1.92 
  -3  -3   9   33.61    3.47 
  -3  -3   9   29.58    1.93 
  -3  -3   9   30.60    2.32 
   3  -3  -9   30.08    1.81 
  -3   3   9   31.79    3.61 
  -3   3   9   30.35    2.13 
  -3   3   9   30.60    2.01 
  -3   3   9   37.59    3.82 
  -2  -3   9   52.53    2.94 
  -2  -3   9   50.10    2.61 
   2  -3  -9   53.46    2.71 
  -2  -3   9   49.43    2.59 
   2  -3  -9   51.79    2.63 
  -2  -3   9   58.70    5.10 
   2   3  -9   50.06    2.57 
  -2   3   9   49.69    2.67 
  -2   3   9   51.15    2.67 
  -2   3   9   50.29    3.16 
  -2   3   9   52.51    2.78 
  -1  -3   9   41.53    2.47 
   1  -3  -9   42.54    2.19 
   1  -3  -9   42.54    2.26 
  -1   3   9   41.60    2.29 
  -1   3   9   43.63    2.30 
   0  -3   9  179.37    7.87 
   0  -3   9  178.79    8.01 
   0   3   9  216.24   11.63 
   0   3   9  182.68    7.82 
   0   3   9  189.82    7.87 
  -1  -3  -9   32.73    3.47 
  -1  -3  -9   26.76    2.23 
   1  -3   9   31.61    1.58 
  -1  -3  -9   29.29    1.97 
   1  -3   9   31.74    2.06 
   1   3   9   32.48    3.32 
   1   3   9   32.80    1.84 
  -1   3  -9   27.99    1.91 
  -2  -3  -9   83.61    4.20 
  -2  -3  -9   83.13    4.20 
  -2  -3  -9   83.39    4.13 
  -2  -3  -9   79.77    4.20 
   2  -3   9   82.28    4.10 
  -2  -3  -9   84.00    6.16 
   2  -3   9   86.55    3.66 
   2   3   9   84.54    3.89 
   2   3   9   86.49    3.99 
  -2   3  -9   85.07    4.21 
  -2   3  -9   88.12    3.90 
  -2   3  -9   83.13    3.94 
  -2   3  -9   90.04    4.24 
  -2   3  -9   78.36    3.96 
   3  -3   9   21.63    1.23 
  -3  -3  -9   21.89    1.54 
  -3  -3  -9   22.51    1.65 
   3  -3   9   21.03    1.50 
  -3  -3  -9   21.36    2.69 
  -3  -3  -9   20.79    1.58 
   3   3   9   21.17    1.16 
   3   3   9   21.63    1.37 
  -3   3  -9   25.53    1.68 
  -3   3  -9   20.68    1.58 
  -3   3  -9   20.94    1.43 
   3   3   9   21.37    2.58 
  -3   3  -9   21.68    1.38 
  -4  -3  -9   44.58    2.39 
   4  -3   9   44.02    1.97 
   4  -3   9   41.70    2.13 
  -4  -3  -9   43.15    2.33 
  -4  -3  -9   40.65    2.31 
  -4  -3  -9   44.98    2.35 
  -4   3  -9   45.56    2.12 
  -4   3  -9   44.62    2.37 
   4   3   9   35.25    3.20 
  -4   3  -9   45.05    2.18 
   4   3   9   42.22    1.86 
   6  -4  -9    3.65    0.46 
  -6  -4   9    3.68    0.92 
  -6  -4   9    5.19    0.82 
  -6  -4   9    3.60    0.50 
  -6   4   9    4.47    0.73 
  -6   4   9    2.71    0.83 
   6   4  -9    3.92    0.57 
  -6   4   9    4.23    0.57 
  -5  -4   9   12.90    2.05 
   5  -4  -9   16.02    1.48 
  -5  -4   9   16.57    1.21 
  -5  -4   9   16.00    2.12 
  -5   4   9   16.15    3.47 
   5   4  -9   15.00    2.06 
  -5   4   9   14.98    1.26 
  -5   4   9   17.61    1.32 
  -5   4   9   15.18    1.15 
   5   4  -9   16.91    1.15 
  -4  -4   9   91.77    4.90 
  -4  -4   9   86.33    6.24 
  -4  -4   9   86.38    4.19 
  -4  -4   9   82.94    4.13 
  -4  -4   9   88.96    6.31 
   4  -4  -9   94.01    4.15 
  -4   4   9   90.75    4.51 
  -4   4   9   88.32    4.27 
  -4   4   9   97.75    6.93 
   4   4  -9   89.83    4.10 
  -4   4   9   93.39    4.38 
  -3  -4   9    1.65    0.86 
  -3  -4   9    3.14    1.13 
  -3  -4   9    2.52    0.67 
   3  -4  -9    2.17    0.49 
   3  -4  -9    2.29    0.50 
  -3  -4   9    1.44    0.43 
  -3  -4   9    1.53    0.45 
  -3   4   9    1.50    0.94 
  -3   4   9    1.53    0.45 
  -3   4   9    1.84    0.50 
   3   4  -9    1.56    0.40 
  -3   4   9    1.77    0.56 
  -3   4   9    1.28    0.46 
  -2  -4   9   66.72    3.85 
   2  -4  -9   70.13    3.68 
   2  -4  -9   69.62    3.37 
  -2  -4   9   74.73    5.61 
   2   4  -9   66.06    3.14 
  -2   4   9   67.65    3.53 
  -2   4   9   63.15    7.08 
  -2   4   9   69.20    3.62 
   2   4  -9   76.59    5.64 
  -2   4   9   68.28    3.50 
  -1  -4   9  101.22    8.93 
   1  -4  -9  111.06    5.09 
  -1   4   9  109.02    5.05 
  -1   4   9  130.01    7.71 
   0  -4  -9  148.98    6.84 
   0  -4  -9  148.95    6.68 
   0  -4   9  144.84    6.76 
   0   4   9  136.95    8.62 
   0   4   9  147.41    6.41 
   0   4   9  148.97    6.61 
   0   4   9  147.63    6.59 
   0   4  -9  173.16    9.12 
  -1  -4  -9   41.65    2.54 
   1  -4   9   40.90    1.96 
  -1  -4  -9   37.11    2.33 
   1  -4   9   37.72    2.39 
  -1  -4  -9   39.01    2.45 
   1   4   9   34.90    2.36 
   1   4   9   40.09    2.22 
   1   4   9   39.29    2.33 
  -1   4  -9   45.83    4.07 
   1   4   9   47.38    4.15 
  -1   4  -9   39.54    2.39 
  -1   4  -9   40.61    2.19 
   2  -4   9    9.98    0.75 
  -2  -4  -9   10.10    1.06 
  -2  -4  -9    7.80    1.04 
  -2  -4  -9   10.86    1.98 
  -2  -4  -9   10.08    1.00 
  -2  -4  -9    8.54    1.02 
   2  -4   9   10.20    1.01 
  -2   4  -9   10.96    0.88 
  -2   4  -9    9.22    0.88 
  -2   4  -9   10.16    0.90 
   2   4   9   10.06    1.78 
  -2   4  -9   10.28    1.06 
   2   4   9    8.65    0.91 
   2   4   9   10.98    0.94 
   3  -4   9    1.47    0.36 
  -3  -4  -9    0.82    0.34 
  -3  -4  -9    1.18    0.63 
  -3  -4  -9    1.30    0.37 
  -3  -4  -9    1.27    0.46 
  -3   4  -9    1.19    0.30 
   3   4   9    1.00    0.54 
  -3   4  -9    1.59    0.41 
  -3   4  -9    1.41    0.34 
  -3   4  -9    1.72    0.33 
   4  -4   9   18.97    0.98 
  -4  -4  -9   19.72    1.26 
  -4  -4  -9   18.55    1.20 
  -4  -4  -9   17.71    1.19 
  -4   4  -9   18.41    1.06 
   4   4   9   16.62    1.93 
  -4   4  -9   19.41    1.09 
   4   4   9   19.11    1.17 
  -4   4  -9   19.49    1.28 
  -4   4  -9   18.64    1.03 
   6  -5  -9    2.94    0.38 
  -6  -5   9    2.07    0.59 
  -6  -5   9    3.63    0.51 
  -6  -5   9    1.96    0.50 
   6   5  -9    2.90    0.34 
  -6   5   9    2.09    0.74 
   5  -5  -9    5.28    0.58 
  -5  -5   9    6.46    0.84 
  -5   5   9    4.47    1.15 
  -5   5   9    5.77    0.98 
  -5   5   9    5.65    0.65 
   5   5  -9    5.96    0.55 
  -4  -5   9    1.81    0.81 
  -4  -5   9    0.85    0.76 
  -4  -5   9    2.68    0.50 
  -4  -5   9    1.10    0.50 
   4  -5  -9    1.43    0.42 
   4  -5  -9    1.52    0.37 
  -4   5   9    1.58    0.57 
  -4   5   9    2.39    0.55 
   4   5  -9    1.29    0.71 
  -4   5   9    1.52    0.38 
  -4   5   9    1.99    0.88 
   4   5  -9    2.01    0.39 
  -3  -5   9    9.26    1.12 
   3  -5  -9    8.81    0.87 
  -3  -5   9    9.97    1.87 
   3  -5  -9    8.77    0.94 
   3   5  -9    9.39    1.77 
  -3   5   9    8.85    0.86 
  -3   5   9    9.52    0.95 
  -3   5   9    9.22    1.86 
  -3   5   9    7.88    0.99 
   3   5  -9    9.06    0.74 
  -2  -5   9  102.48    5.04 
  -2  -5   9  115.58    7.58 
  -2  -5   9  106.46    5.41 
   2  -5  -9  112.56    4.93 
   2  -5  -9  104.65    5.03 
  -2   5   9  110.23    5.05 
  -2   5   9  113.36    5.16 
  -2   5   9  105.34    6.97 
  -2   5   9  107.04    5.20 
  -2   5   9  109.65    4.93 
   2   5  -9  122.46    7.60 
  -2   5   9   98.93    7.12 
   1  -5  -9   92.40    4.25 
  -1  -5   9   92.62    4.48 
   1  -5  -9   91.35    4.54 
  -1  -5   9   88.59    4.70 
  -1   5   9   96.78    4.47 
  -1   5   9   97.80    4.59 
   1   5  -9  105.29    6.86 
  -1   5   9   95.31    4.42 
  -1   5   9   93.62    4.59 
  -1   5   9   92.72    6.50 
   0  -5  -9   82.55    4.21 
   0  -5   9   78.11    4.17 
   0  -5   9   88.84    4.12 
   0  -5  -9   82.25    4.27 
   0   5   9   90.99    6.10 
   0   5   9   82.13    4.11 
   0   5  -9   78.67    3.89 
   0   5   9   84.34    4.09 
   0   5  -9   83.32    6.07 
   0   5   9   85.00    3.96 
  -1  -5  -9   14.76    1.33 
   1  -5   9   14.41    1.30 
  -1  -5  -9   16.33    1.39 
  -1  -5  -9   16.13    1.35 
   1   5   9   15.17    1.27 
   1   5   9   17.24    2.39 
  -1   5  -9   15.85    1.27 
  -1   5  -9   16.13    1.19 
  -1   5  -9   13.20    2.15 
   1   5   9   17.46    1.42 
  -2  -5  -9   51.84    2.88 
   2  -5   9   51.90    2.52 
  -2   5  -9   48.26    2.77 
   2   5   9   51.84    2.63 
   2   5   9   52.44    4.30 
  -2   5  -9   52.39    2.61 
  -3  -5  -9    9.23    0.82 
  -3  -5  -9    8.75    0.88 
   3  -5   9    9.13    0.68 
  -3  -5  -9   10.37    0.95 
  -3   5  -9    8.57    0.69 
   3   5   9    8.91    0.77 
  -3   5  -9    9.97    0.71 
  -3   5  -9    8.60    0.86 
   3   5   9    9.40    0.81 
   3   5   9    9.21    1.52 
  -3   5  -9    9.80    0.79 
   3   5   9    8.38    0.74 
  -4  -5  -9   19.35    1.14 
  -4  -5  -9   21.62    1.17 
  -4   5  -9   20.14    1.06 
  -4   5  -9   22.08    1.46 
  -4   5  -9   22.33    1.23 
  -5  -6   9    5.74    0.92 
  -5  -6   9    7.57    0.71 
  -5   6   9    5.59    1.16 
   5   6  -9    5.44    0.90 
   4  -6  -9   23.27    1.46 
  -4  -6   9   24.50    1.73 
   4  -6  -9   24.80    1.49 
  -4   6   9   24.19    1.56 
   4   6  -9   19.65    2.37 
  -4   6   9   23.07    1.51 
  -4   6   9   23.38    1.37 
  -4   6   9   22.28    2.70 
   3  -6  -9   17.16    1.25 
  -3  -6   9   16.69    1.31 
  -3   6   9   16.45    1.30 
  -3   6   9   14.29    2.78 
   3   6  -9   16.95    2.37 
  -3   6   9   18.47    1.56 
  -2  -6   9   30.09    1.99 
   2  -6  -9   31.25    2.01 
   2  -6  -9   32.81    1.88 
  -2  -6   9   30.13    2.12 
  -2   6   9   33.88    1.96 
   2   6  -9   30.41    3.37 
  -2   6   9   30.73    3.26 
  -2   6   9   33.58    2.12 
  -2   6   9   33.80    2.05 
  -2   6   9   29.26    1.87 
  -1  -6   9    1.65    0.51 
   1  -6  -9    1.98    0.60 
  -1  -6   9    2.22    0.56 
   1   6  -9    1.98    0.90 
  -1   6   9    2.41    0.54 
  -1   6   9    2.24    0.90 
  -1   6   9    2.59    0.50 
  -1   6   9    2.06    0.55 
   0  -6  -9    4.94    0.79 
   0  -6  -9    4.66    0.72 
   0  -6  -9    4.04    0.68 
   0  -6   9    4.47    0.67 
   0   6   9    5.01    0.67 
   0   6   9    3.55    1.09 
   0   6   9    5.45    0.64 
   0   6  -9    4.88    1.27 
   0   6   9    5.37    0.73 
   0   6  -9    5.14    0.67 
  -1  -6  -9   31.60    2.01 
  -1  -6  -9   31.11    1.90 
  -1  -6  -9   28.88    1.85 
   1   6   9   29.78    1.92 
  -1   6  -9   30.91    1.83 
   1   6   9   30.83    1.80 
  -1   6  -9   29.27    3.47 
  -2  -6  -9    6.70    0.80 
  -2  -6  -9    9.74    0.94 
  -2   6  -9    6.91    0.77 
   2   6   9    8.73    0.86 
   2   6   9    8.32    1.44 
  -2   6  -9    9.01    0.79 
   2   6   9    8.94    0.80 
  -3  -6  -9    4.01    0.50 
   3  -6   9    3.56    0.47 
  -3  -6  -9    3.21    0.49 
  -3   6  -9    3.39    0.43 
   3   6   9    2.84    0.49 
  -3   6  -9    3.18    0.41 
   3   6   9    2.91    0.77 
  -4  -7   9    0.76    0.49 
   4  -7  -9    0.71    0.21 
   4  -7  -9    0.34    0.19 
  -4   7   9    0.13    0.32 
  -4   7   9    0.42    0.27 
  -4   7   9    0.74    0.21 
   4   7  -9    0.38    0.31 
  -4   7   9    0.67    0.22 
  -3  -7   9    9.80    0.93 
   3  -7  -9    9.93    0.89 
  -3  -7   9    8.55    0.89 
   3  -7  -9   10.52    0.79 
   3   7  -9    6.65    1.38 
  -3   7   9    8.70    0.86 
  -3   7   9    9.56    0.78 
  -3   7   9    8.76    0.86 
  -2  -7   9   17.87    1.36 
   2  -7  -9   18.99    1.37 
   2  -7  -9   17.49    1.17 
  -2   7   9   16.55    1.22 
   2   7  -9   17.19    2.37 
  -2   7   9   19.52    1.38 
  -2   7   9   18.51    1.33 
  -1  -7   9    0.69    0.31 
   1  -7  -9    0.78    0.35 
   1  -7  -9    0.63    0.34 
   1   7  -9    0.83    0.61 
  -1   7   9    1.31    0.41 
  -1   7   9    0.30    0.37 
  -1   7   9    1.07    0.32 
   0  -7  -9   28.33    2.04 
   0  -7  -9   28.72    1.82 
   0  -7  -9   23.11    1.61 
   0  -7   9   28.05    1.73 
   0   7  -9   24.70    2.91 
   0   7   9   26.56    1.72 
   0   7   9   27.04    1.60 
  -1  -7  -9   14.31    1.13 
  -1  -7  -9   12.00    1.03 
   1  -7   9   14.05    1.07 
  -1   7  -9    9.29    1.91 
   1   7   9   13.08    1.06 
   1   7   9   12.62    0.94 
  -1   7  -9   13.60    1.00 
  -2  -7  -9    3.31    0.52 
   2  -7   9    3.47    0.46 
  -2  -7  -9    2.88    0.50 
  -2   7  -9    3.15    0.42 
   2   7   9    4.19    0.50 
  -2   7  -9    4.70    0.47 
   3  -8  -9    1.67    0.30 
  -3  -8   9    1.62    0.50 
  -3   8   9    1.72    0.73 
  -3   8   9    1.89    0.32 
  -3   8   9    1.70    0.45 
  -2  -8   9    0.34    0.26 
   2  -8  -9    0.52    0.23 
   2  -8  -9    0.82    0.27 
  -2   8   9    0.55    0.24 
   2   8  -9    0.07    0.28 
  -2   8   9    0.36    0.21 
   1  -8  -9    5.17    0.73 
   1  -8  -9    8.50    1.09 
  -1  -8   9    5.96    0.72 
  -1   8   9    6.59    0.64 
  -1   8   9    7.47    0.72 
   1   8  -9    4.80    1.12 
   0  -8  -9   31.97    1.75 
   0  -8   9   27.99    1.64 
   0   8   9   29.00    1.68 
   1  -8   9   20.74    1.29 
  -1  -8  -9   20.81    1.25 
   1   8   9   20.47    1.22 
  -7   0  10    8.72    1.05 
  -7   0  10    8.66    0.66 
  -6   0  10   34.87    3.34 
  -6   0  10   39.19    2.43 
  -6   0  10   46.22    2.38 
  -6   0  10   44.26    2.39 
   6   0 -10   44.44    2.19 
  -5   0  10   56.89    4.86 
  -5   0  10   56.76    3.13 
   5   0 -10   58.20    2.86 
  -5   0  10   60.17    3.14 
  -5   0  10   52.23    3.23 
  -5   0  10   55.03    5.13 
  -4   0  10    0.99    0.34 
  -4   0  10    1.09    0.42 
   4   0 -10    0.39    0.26 
  -4   0  10    0.62    0.57 
  -3   0  10    6.93    0.88 
  -3   0  10   11.97    2.76 
  -3   0  10    8.42    1.02 
   3   0 -10    8.18    0.81 
  -3   0  10    8.34    1.63 
  -3   0  10    6.43    1.01 
   1   0 -10  288.27   11.66 
  -1   0  10  293.59   11.86 
  -1   0  10  298.27   11.83 
  -1   0  10  292.18   11.78 
   0   0  10   24.47    1.59 
   0   0  10   24.91    1.53 
   1   0  10   12.48    2.49 
   1   0  10   10.87    1.04 
  -1   0 -10   10.01    1.06 
  -1   0 -10    8.84    1.01 
   2   0  10   16.98    1.37 
   2   0  10   15.41    0.96 
   2   0  10   16.19    2.20 
  -2   0 -10   17.06    1.40 
  -2   0 -10   16.93    1.36 
  -2   0 -10   15.92    1.43 
   3   0  10   20.03    1.51 
   3   0  10   17.11    2.11 
  -3   0 -10   22.11    1.59 
   3   0  10   20.63    1.12 
  -3   0 -10   18.02    1.23 
  -3   0 -10   20.70    1.48 
  -3   0 -10   19.15    1.75 
  -3   0 -10   21.66    1.57 
   4   0  10   20.48    1.37 
  -4   0 -10   21.39    1.34 
  -4   0 -10   20.73    1.13 
  -4   0 -10   20.66    1.35 
   4   0  10   19.18    1.04 
  -4   0 -10   20.38    1.38 
  -4   0 -10   18.96    1.17 
  -6  -1  10    2.67    0.83 
  -6  -1  10    3.79    0.58 
  -6  -1  10    3.47    0.57 
   6  -1 -10    3.29    0.46 
  -6  -1  10    2.13    0.85 
  -6  -1  10    4.49    0.76 
  -6   1  10    3.38    0.58 
  -6   1  10    3.58    1.01 
  -6   1  10    2.67    0.52 
   6   1 -10    3.09    0.48 
  -6   1  10    3.21    0.99 
  -5  -1  10   40.85    2.75 
  -5  -1  10   42.46    2.49 
  -5  -1  10   44.03    4.09 
   5  -1 -10   36.81    2.14 
  -5  -1  10   40.23    4.22 
  -5  -1  10   42.42    2.46 
  -5   1  10   42.62    2.56 
   5   1 -10   40.97    2.30 
  -5   1  10   40.57    2.44 
  -5   1  10   42.29    4.30 
  -5   1  10   42.00    4.10 
  -4  -1  10    3.96    1.41 
   4  -1 -10    3.91    0.59 
  -4  -1  10    3.20    1.30 
  -4  -1  10    5.57    0.79 
  -4  -1  10    3.45    0.91 
  -4  -1  10    4.86    0.74 
  -4   1  10    6.04    0.80 
  -4   1  10    3.99    1.40 
  -4   1  10    5.26    1.41 
  -4   1  10    4.20    0.94 
  -4   1  10    3.83    0.76 
   4   1 -10    4.48    0.64 
  -4   1  10    4.13    0.72 
  -3  -1  10  110.22    5.04 
  -3  -1  10  104.31    5.28 
  -3  -1  10  125.81    9.66 
  -3  -1  10  110.09    8.72 
   3  -1 -10  112.12    4.90 
  -3   1  10  100.71    4.90 
  -3   1  10  111.06   10.11 
   3   1 -10  107.30    4.91 
  -3   1  10  105.20    5.35 
  -3   1  10  111.21    5.14 
  -2  -1  10    1.52    0.39 
  -2  -1  10    2.61    0.49 
  -2  -1  10    2.46    0.57 
   2  -1 -10    3.43    0.53 
  -2   1  10    1.78    0.46 
  -2   1  10    3.02    0.53 
   2   1 -10    2.99    0.49 
  -2   1  10    2.22    0.53 
   1  -1 -10   86.95    3.96 
  -1  -1  10   89.16    4.18 
  -1  -1  10   87.32    4.01 
  -1  -1  10   85.35    4.04 
   1   1 -10   82.48    3.86 
  -1   1  10   88.93    4.06 
  -1   1  10   91.55    4.09 
  -1   1  10   85.32    4.02 
   0  -1  10   99.51    4.52 
   0  -1 -10  100.86    4.94 
   0  -1 -10  103.25    5.43 
   0  -1  10  105.85    4.95 
   0   1 -10  104.15    4.92 
   0   1  10  106.67    4.63 
  -1  -1 -10   14.98    1.35 
  -1  -1 -10   14.81    1.25 
   1  -1  10   16.73    1.37 
  -1  -1 -10   14.81    1.33 
  -1   1 -10   15.74    1.86 
  -1   1 -10   15.72    1.33 
   1   1  10   14.72    1.31 
   1   1  10   15.17    1.11 
   1   1  10   19.67    2.46 
  -1   1 -10   16.68    1.40 
   2  -1  10   18.90    1.05 
   2  -1  10   13.49    1.85 
  -2  -1 -10   18.51    2.20 
  -2   1 -10   14.95    1.87 
   2   1  10   17.27    3.42 
   2   1  10   18.79    1.22 
   2   1  10   18.65    1.05 
   3  -1  10   77.79    3.26 
  -3  -1 -10   80.41    4.27 
  -3  -1 -10   74.73    3.78 
   3  -1  10   78.75    3.78 
  -3  -1 -10   70.27    4.11 
  -3  -1 -10   77.55    3.77 
  -3   1 -10   75.92    3.78 
  -3   1 -10   70.23    3.41 
   3   1  10   74.87    3.22 
  -3   1 -10   75.50    3.65 
  -3   1 -10   74.22    3.80 
   3   1  10   74.13    3.73 
  -3   1 -10   77.25    3.48 
   4  -1  10   33.56    2.21 
  -4  -1 -10   23.80    1.60 
  -4  -1 -10   32.04    1.79 
  -4  -1 -10   28.52    1.62 
  -4  -1 -10   27.25    1.52 
   4  -1  10   30.53    1.38 
  -4  -1 -10   31.25    1.80 
  -4   1 -10   28.46    1.45 
  -4   1 -10   28.76    1.48 
  -4   1 -10   27.20    1.87 
  -4   1 -10   26.96    1.85 
   4   1  10   28.86    1.33 
   4   1  10   24.75    3.45 
  -4   1 -10   24.98    2.18 
   4   1  10   32.25    1.78 
  -6  -2  10   13.55    1.21 
   6  -2 -10   10.08    0.98 
  -6  -2  10   12.51    0.98 
  -6  -2  10   11.69    1.83 
  -6  -2  10   11.64    0.95 
  -6   2  10   10.15    1.62 
   6   2 -10   12.08    0.88 
  -6   2  10   13.05    1.06 
  -6   2  10    9.99    0.91 
  -6   2  10    8.91    1.38 
  -5  -2  10   87.40    4.10 
  -5  -2  10   79.64    5.82 
  -5  -2  10   84.05    4.12 
  -5  -2  10   86.17    4.62 
  -5  -2  10   84.45    6.36 
  -5   2  10   79.31    4.18 
  -5   2  10   92.93    6.39 
  -5   2  10   87.72    4.20 
   5   2 -10   88.08    4.02 
  -5   2  10   77.42    5.97 
  -4  -2  10  307.74   12.56 
   4  -2 -10  298.69   12.30 
  -4  -2  10  306.29   12.65 
  -4  -2  10  314.02   13.34 
  -4  -2  10  328.52   15.57 
  -4  -2  10  283.11   15.54 
  -4   2  10  308.59   12.56 
  -4   2  10  310.53   12.70 
  -4   2  10  296.63   12.76 
  -4   2  10  317.76   15.71 
  -4   2  10  314.66   15.86 
  -3  -2  10   19.14    1.50 
  -3  -2  10   18.54    1.84 
   3  -2 -10   21.12    1.44 
  -3  -2  10   24.49    2.98 
  -3  -2  10   23.82    2.88 
  -3  -2  10   21.24    1.53 
  -3   2  10   25.00    2.99 
  -3   2  10   22.06    1.63 
  -3   2  10   20.30    1.50 
  -3   2  10   23.60    3.19 
  -3   2  10   19.89    1.61 
  -2  -2  10   59.37    3.38 
  -2  -2  10   53.08    2.80 
  -2  -2  10   62.04    4.82 
  -2   2  10   63.96    5.21 
  -2   2  10   55.08    2.96 
  -2   2  10   51.09    3.06 
   2   2 -10   50.63    2.75 
  -2   2  10   52.34    3.02 
  -2   2  10   56.47    4.71 
  -1  -2  10   15.91    1.16 
   1  -2 -10   15.49    1.39 
  -1  -2  10   16.58    1.43 
   1  -2 -10   16.53    1.18 
  -1  -2  10   15.92    1.33 
  -1   2  10   16.90    1.34 
  -1   2  10   17.56    1.28 
  -1   2  10   18.51    2.46 
   0  -2 -10  206.42   10.00 
   0  -2  10  274.44   10.47 
   0  -2 -10  238.77    9.69 
   0  -2 -10  218.25    9.81 
   0   2  10  237.39    9.66 
   0   2  10  246.45    9.81 
   0   2  10  243.68    9.76 
   0   2  10  196.23   10.88 
   0   2 -10  228.15    9.72 
  -1  -2 -10   54.25    3.09 
   1  -2  10   49.05    2.53 
  -1  -2 -10   51.99    2.96 
   1  -2  10   57.26    3.11 
  -1  -2 -10   54.71    3.03 
   1   2  10   65.26    4.92 
  -1   2 -10   55.66    3.07 
   1   2  10   56.70    2.79 
   1   2  10   57.26    2.98 
   2  -2  10    3.21    0.59 
  -2  -2 -10    1.69    0.46 
   2  -2  10    2.06    0.37 
  -2  -2 -10    1.03    0.42 
  -2  -2 -10    1.85    0.47 
  -2   2 -10    2.33    0.59 
   2   2  10    2.15    0.85 
  -2   2 -10    1.91    0.40 
  -2   2 -10    1.90    0.55 
   2   2  10    2.00    0.39 
  -2   2 -10    1.43    0.49 
   3  -2  10    0.28    0.26 
  -3  -2 -10    0.32    0.32 
  -3  -2 -10    0.40    0.30 
   3   2  10    0.56    0.47 
  -3   2 -10    0.44    0.29 
   3   2  10    0.95    0.24 
   3   2  10    1.73    0.44 
  -3   2 -10    0.67    0.27 
  -3   2 -10    0.84    0.28 
  -3   2 -10    1.14    0.35 
   4  -2  10   28.97    1.35 
  -4  -2 -10   27.82    1.52 
  -4  -2 -10   31.92    1.75 
  -4  -2 -10   30.03    1.71 
   4  -2  10   26.89    1.57 
  -4   2 -10   29.28    1.55 
  -4   2 -10   28.10    1.42 
   4   2  10   29.01    1.66 
  -4   2 -10   28.66    1.67 
  -4   2 -10   28.45    1.43 
  -6  -3  10    3.16    0.44 
   6  -3 -10    2.06    0.36 
  -6  -3  10    1.51    0.50 
  -6  -3  10    1.83    0.70 
   6   3 -10    2.13    0.63 
   6   3 -10    2.15    0.52 
  -6   3  10    1.04    0.64 
  -6   3  10    2.50    0.45 
  -5  -3  10   40.21    2.49 
  -5  -3  10   51.12    6.41 
  -5  -3  10   48.30    2.56 
   5  -3 -10   49.95    3.13 
  -5  -3  10   46.62    4.18 
  -5  -3  10   54.80    4.57 
  -5   3  10   41.43    4.84 
  -5   3  10   41.76    3.76 
  -5   3  10   53.39    3.80 
  -5   3  10   45.09    2.39 
   5   3 -10   52.40    2.51 
  -4  -3  10  136.08    5.89 
  -4  -3  10  137.61    6.63 
  -4  -3  10  130.06    5.86 
  -4  -3  10  142.32    8.62 
   4  -3 -10  134.85    5.74 
  -4  -3  10  137.95    8.28 
  -4   3  10  129.09    6.08 
   4   3 -10  135.86    5.81 
  -4   3  10  109.20    6.08 
  -4   3  10  122.22    8.26 
  -4   3  10  128.45    5.82 
  -4   3  10  140.04    8.45 
  -3  -3  10   69.56    3.52 
  -3  -3  10   71.86    4.12 
  -3  -3  10   69.64    5.49 
  -3  -3  10   79.87    5.90 
   3  -3 -10   71.31    3.48 
  -3  -3  10   69.93    3.50 
  -3   3  10   63.52    5.60 
  -3   3  10   78.77    3.81 
  -3   3  10   71.77    3.65 
   3   3 -10   75.68    3.52 
  -3   3  10   75.32    5.83 
  -3   3  10   72.56    3.84 
  -2  -3  10   62.80    3.63 
  -2  -3  10   64.19    5.13 
  -2  -3  10   66.78    5.07 
  -2  -3  10   64.66    3.23 
   2  -3 -10   63.88    3.13 
  -2   3  10   63.65    5.31 
   2   3 -10   54.55    2.90 
  -2   3  10   60.75    3.35 
  -2   3  10   66.18    5.14 
  -2   3  10   63.02    3.28 
  -2   3  10   62.63    3.27 
   1  -3 -10  261.92   11.19 
   1  -3 -10  250.79   10.59 
  -1  -3  10  272.82   13.55 
  -1  -3  10  260.47   11.24 
   1   3 -10  275.18   13.52 
  -1   3  10  259.59   10.79 
  -1   3  10  295.41   13.97 
  -1   3  10  246.22   10.87 
  -1   3  10  259.33   10.94 
   0  -3  10  109.31    5.23 
   0  -3 -10  103.41    5.00 
   0  -3 -10  105.24    5.21 
   0   3 -10  102.64    4.98 
   0   3  10  104.57    5.04 
   0   3  10  104.29    4.82 
   0   3  10  102.97    4.96 
   0   3 -10  120.89    7.11 
   0   3  10  121.77    7.38 
   0   3  10  105.19    4.95 
  -1  -3 -10   57.22    3.13 
  -1  -3 -10   53.49    3.09 
  -1  -3 -10   57.71    3.22 
   1  -3  10   61.70    3.25 
  -1   3 -10   59.59    2.81 
   1   3  10   59.34    2.94 
   1   3  10   57.93    3.03 
  -1   3 -10   56.14    3.11 
   1   3  10   64.77    5.03 
   1   3  10   56.00    2.98 
  -2  -3 -10   24.25    1.72 
  -2  -3 -10   22.50    1.67 
  -2  -3 -10   22.78    1.66 
  -2  -3 -10   22.64    1.53 
   2  -3  10   22.89    1.64 
   2  -3  10   23.14    1.26 
  -2   3 -10   22.58    1.66 
   2   3  10   23.96    1.60 
   2   3  10   25.17    2.92 
   2   3  10   20.91    1.45 
  -2   3 -10   23.84    1.44 
  -2   3 -10   25.78    1.52 
  -3  -3 -10   55.18    2.80 
  -3  -3 -10   56.81    2.87 
  -3  -3 -10   49.98    2.66 
  -3  -3 -10   51.89    2.65 
   3  -3  10   56.97    2.38 
  -3   3 -10   57.44    2.54 
  -3   3 -10   48.48    2.51 
   3   3  10   51.06    2.53 
   3   3  10   53.86    4.17 
   3   3  10   54.56    2.72 
  -3   3 -10   52.74    2.81 
  -3   3 -10   44.40    2.42 
  -4  -3 -10    4.29    0.53 
  -4  -3 -10    6.07    0.71 
  -4  -3 -10    4.04    0.51 
   4  -3  10    3.47    0.66 
  -4   3 -10    3.85    0.52 
  -4   3 -10    4.94    0.38 
  -4   3 -10    3.84    0.43 
  -4   3 -10    4.51    0.54 
   4   3  10    3.82    0.49 
  -6  -4  10    3.23    0.77 
  -6  -4  10    5.59    0.68 
   6  -4 -10    4.65    0.54 
  -6   4  10    5.26    0.52 
   6   4 -10    3.35    0.64 
  -6   4  10    3.15    0.85 
  -5  -4  10    3.76    1.00 
  -5  -4  10    5.45    0.82 
  -5  -4  10    4.44    0.58 
  -5  -4  10    4.76    0.59 
   5  -4 -10    4.90    0.56 
  -5  -4  10    3.55    1.09 
  -5   4  10    4.50    1.14 
  -5   4  10    5.19    0.69 
  -5   4  10    3.69    0.57 
   5   4 -10    4.17    0.54 
   5   4 -10    4.27    1.09 
  -4  -4  10    7.10    0.81 
  -4  -4  10    7.43    1.07 
  -4  -4  10    7.32    1.58 
  -4  -4  10    6.05    1.39 
  -4  -4  10    9.18    0.88 
   4  -4 -10    8.27    0.79 
  -4   4  10    7.62    0.92 
  -4   4  10    6.90    0.80 
   4   4 -10    5.56    1.42 
  -4   4  10    8.35    0.94 
   4   4 -10    7.42    0.74 
  -4   4  10    7.55    1.65 
  -3  -4  10   14.80    2.32 
  -3  -4  10   12.38    2.06 
   3  -4 -10   14.15    1.13 
  -3  -4  10   13.46    1.45 
  -3   4  10   14.58    1.25 
  -3   4  10   15.25    1.38 
   3   4 -10   14.57    2.33 
  -3   4  10   13.90    2.26 
   3   4 -10   13.33    1.39 
  -3   4  10   12.64    1.06 
  -3   4  10   16.02    2.33 
  -3   4  10   12.60    1.19 
   2  -4 -10   93.58    4.12 
  -2  -4  10   87.47    4.62 
  -2  -4  10   85.08    6.32 
   2  -4 -10   81.31    4.12 
  -2   4  10   88.01    6.19 
   2   4 -10   81.52    6.19 
  -2   4  10   88.99    4.39 
  -2   4  10   84.29    6.37 
  -2   4  10   93.46    4.35 
  -2   4  10   90.24    4.28 
  -1  -4  10   85.40    4.44 
   1  -4 -10   82.14    3.83 
  -1  -4  10   82.52    6.13 
   1  -4 -10   84.09    4.11 
   1  -4 -10   86.21    4.41 
   1   4 -10   88.46    6.14 
  -1   4  10   78.97    6.05 
  -1   4  10   82.45    4.16 
  -1   4  10   86.45    4.18 
  -1   4  10   84.64    4.04 
   0  -4 -10  141.72    6.41 
   0  -4  10  148.26    6.23 
   0  -4  10  145.60    6.59 
   0  -4 -10  143.92    6.58 
   0   4  10  133.98    6.30 
   0   4  10  142.27    8.62 
   0   4  10  143.35    6.21 
   0   4  10  144.26    6.39 
   0   4 -10  142.27    6.30 
   0   4 -10  141.34    8.42 
  -1  -4 -10   41.63    2.46 
  -1  -4 -10   40.47    2.46 
   1  -4  10   40.21    2.44 
   1   4  10   34.59    3.63 
   1   4  10   40.28    2.32 
   1   4  10   43.89    2.31 
   1   4  10   38.80    2.25 
  -1   4 -10   42.53    2.41 
  -1   4 -10   41.67    2.17 
  -2  -4 -10    0.26    0.30 
  -2  -4 -10    0.61    0.28 
  -2  -4 -10    0.87    0.34 
   2  -4  10    0.17    0.30 
   2  -4  10    0.02    0.25 
  -2  -4 -10    0.55    0.35 
  -2   4 -10    0.55    0.31 
   2   4  10    0.12    0.24 
   2   4  10    0.11    0.35 
  -2   4 -10    0.09    0.26 
   2   4  10    0.16    0.24 
   2   4  10    0.93    0.29 
  -3  -4 -10    8.18    0.82 
  -3  -4 -10    7.91    0.84 
   3  -4  10    7.24    0.56 
  -3  -4 -10    6.20    0.77 
  -3   4 -10    8.07    0.82 
  -3   4 -10    6.77    0.62 
   3   4  10    7.68    1.40 
  -3   4 -10    9.10    0.99 
   3   4  10    8.70    0.91 
   5  -5 -10    4.42    0.52 
  -5  -5  10    3.55    0.86 
  -5  -5  10    4.24    0.47 
   5   5 -10    4.96    0.45 
  -5   5  10    4.79    0.54 
  -5   5  10    3.86    1.58 
  -5   5  10    4.84    0.57 
   4  -5 -10   23.32    1.85 
  -4  -5  10   21.30    1.69 
  -4  -5  10   21.53    2.52 
  -4   5  10   19.42    1.37 
   4   5 -10   16.19    2.22 
  -4   5  10   15.83    2.29 
  -4   5  10   19.45    1.46 
   4   5 -10   19.53    1.13 
  -4   5  10   19.52    1.38 
  -4   5  10   20.47    1.54 
   3  -5 -10    6.06    0.71 
   3  -5 -10    6.54    0.71 
  -3  -5  10    6.81    0.95 
  -3  -5  10    6.84    1.51 
   3   5 -10    6.81    1.51 
  -3   5  10    6.72    0.80 
  -3   5  10    6.20    0.81 
  -3   5  10    5.90    0.69 
  -3   5  10    6.23    1.44 
  -3   5  10    7.06    0.87 
  -2  -5  10    1.97    0.56 
   2  -5 -10    1.17    0.38 
  -2  -5  10    2.04    0.95 
   2   5 -10    1.81    0.89 
  -2   5  10    2.07    0.85 
  -2   5  10    2.14    0.53 
  -2   5  10    2.11    0.53 
  -2   5  10    1.32    0.72 
  -2   5  10    1.60    0.55 
  -1  -5  10  232.05   10.03 
   1  -5 -10  229.67    9.79 
   1  -5 -10  240.70   10.13 
  -1  -5  10  208.75    9.56 
  -1   5  10  240.81   12.36 
  -1   5  10  235.53    9.86 
   1   5 -10  230.16   12.21 
  -1   5  10  232.76    9.72 
  -1   5  10  253.03    9.88 
   0  -5  10   14.21    1.33 
   0  -5 -10   17.08    1.39 
   0  -5 -10   16.05    1.43 
   0  -5  10   16.32    1.28 
   0   5  10   16.39    1.33 
   0   5 -10   18.34    2.47 
   0   5  10   16.78    1.34 
   0   5 -10   16.58    1.20 
   0   5  10   17.23    2.34 
   0   5  10   19.39    1.35 
   1  -5  10   49.28    2.74 
  -1  -5 -10   54.40    2.91 
  -1  -5 -10   49.57    2.94 
   1   5  10   52.73    2.65 
   1   5  10   56.03    4.42 
   1   5  10   53.10    2.73 
  -1   5 -10   43.20    3.92 
  -2  -5 -10   22.89    1.55 
  -2  -5 -10   22.04    1.40 
   2   5  10   22.35    1.38 
   2   5  10   18.86    1.32 
  -2   5 -10   22.29    1.47 
   2   5  10   20.75    2.46 
  -2   5 -10   18.98    1.24 
  -3  -5 -10   11.00    0.99 
  -3  -5 -10   13.29    0.99 
  -3   5 -10   11.72    0.80 
  -3   5 -10   12.89    0.95 
  -5   6  10   10.29    1.37 
  -5   6  10   12.44    0.97 
   4  -6 -10    2.24    0.40 
  -4   6  10    1.77    0.38 
   4   6 -10    1.14    0.70 
  -4   6  10    2.48    0.59 
  -4   6  10    2.15    1.17 
   3  -6 -10    0.43    0.27 
  -3  -6  10    0.76    0.29 
   3  -6 -10    0.48    0.24 
  -3   6  10    0.32    0.43 
   3   6 -10    0.60    0.57 
  -3   6  10    0.13    0.42 
  -3   6  10    0.28    0.23 
  -3   6  10    0.13    0.23 
  -3   6  10    0.32    0.28 
  -2  -6  10   12.23    1.21 
   2  -6 -10   18.17    1.66 
  -2  -6  10   14.57    1.31 
   2  -6 -10   15.85    1.23 
   2   6 -10   13.06    2.93 
   1  -6 -10    3.36    0.96 
  -1  -6  10    2.44    0.51 
  -1  -6  10    2.36    0.59 
   1  -6 -10    3.71    0.72 
   1   6 -10    2.87    1.06 
  -1   6  10    3.17    0.52 
  -1   6  10    2.22    0.79 
  -1   6  10    3.81    0.59 
   0  -6 -10   42.84    2.38 
   0  -6  10   43.71    2.28 
   0   6  10   37.47    2.52 
   0   6 -10   39.57    3.71 
   0   6  10   35.81    3.34 
  -1  -6 -10    1.19    0.43 
  -1  -6 -10    1.42    0.39 
  -1  -6 -10    0.02    0.40 
   1  -6  10    1.19    0.34 
  -1   6 -10    0.81    0.44 
  -1   6 -10    0.97    0.28 
   1   6  10    1.19    0.38 
   1   6  10    1.05    0.35 
   1   6  10    0.88    0.51 
  -1   6 -10    0.41    0.62 
  -2  -6 -10    7.43    0.81 
  -2  -6 -10    6.77    0.84 
   2  -6  10    8.52    0.73 
   2   6  10    7.39    1.24 
   2   6  10    8.54    0.71 
  -2   6 -10    8.03    0.71 
   2   6  10    8.35    0.72 
  -2   6 -10    8.23    0.67 
   4  -7 -10   -0.18    0.18 
   4  -7 -10    0.84    0.41 
  -4   7  10    0.35    0.21 
  -4   7  10    0.27    0.26 
   4   7 -10   -0.08    0.26 
  -4   7  10    0.56    0.21 
   3  -7 -10    4.22    0.49 
  -3  -7  10    3.57    0.71 
   3  -7 -10    3.27    0.48 
   3   7 -10    2.99    0.85 
  -3   7  10    2.98    0.48 
  -3   7  10    3.94    0.52 
  -3   7  10    2.10    0.98 
  -2  -7  10    7.02    0.78 
   2  -7 -10    6.84    0.77 
   2  -7 -10    7.76    0.77 
  -2   7  10    6.41    0.69 
  -2   7  10    6.04    0.75 
   2   7 -10    5.53    1.26 
   1  -7 -10    1.83    0.59 
   1  -7 -10    2.33    0.52 
  -1  -7  10    1.99    0.45 
  -1   7  10    1.40    0.47 
   1   7 -10    1.64    0.75 
  -1   7  10    1.51    0.41 
  -1   7  10    1.47    0.53 
   0  -7  10    1.13    0.35 
   0  -7 -10    1.79    0.39 
   0   7  10    1.87    0.42 
   0   7  10    1.56    0.37 
   0   7  10    1.04    0.60 
   0   7 -10    1.31    0.81 
  -1  -7 -10    4.27    0.57 
   1  -7  10    3.07    0.49 
   1   7  10    4.31    0.51 
   2  -8 -10    2.90    0.42 
  -2   8  10    2.89    0.40 
  -2   8  10    3.42    0.35 
  -1  -8  10    0.19    0.23 
   1  -8 -10    0.29    0.17 
   1   8 -10    0.28    0.28 
  -1   8  10    0.18    0.18 
   0  -8  10   13.16    0.81 
   0  -8 -10   14.68    1.21 
   0   8  10   10.07    1.06 
  -6   0  11    1.51    0.68 
  -6   0  11    1.83    0.41 
  -6   0  11    1.78    0.89 
  -5   0  11    5.83    0.98 
  -5   0  11    8.78    1.72 
  -5   0  11    8.64    0.89 
  -5   0  11    8.22    1.66 
   5   0 -11    8.54    0.83 
  -5   0  11    8.29    0.94 
  -4   0  11   34.94    2.27 
  -4   0  11   38.27    2.62 
  -4   0  11   44.37    4.16 
   4   0 -11   36.78    2.15 
  -4   0  11   34.85    3.95 
  -3   0  11   46.36    2.59 
  -3   0  11   43.83    2.85 
  -3   0  11   40.59    4.28 
  -3   0  11   42.50    2.57 
   3   0 -11   42.59    2.49 
  -3   0  11   40.34    2.38 
  -3   0  11   51.68    4.53 
   3   0 -11   45.73    2.45 
  -2   0  11    0.49    0.26 
  -2   0  11    0.01    0.45 
   2   0 -11    0.83    0.32 
   2   0 -11    0.32    0.26 
  -2   0  11    0.57    0.36 
  -2   0  11    0.78    0.39 
   1   0 -11    8.15    0.88 
  -1   0  11    8.35    0.81 
  -1   0  11    7.04    0.96 
  -1   0  11    7.92    1.74 
   0   0  11   50.38    2.65 
   0   0  11   57.30    4.67 
   0   0 -11   48.70    2.88 
   0   0  11   50.11    2.90 
   1   0  11    5.15    1.28 
  -1   0 -11    5.17    0.74 
  -1   0 -11    4.33    0.72 
  -1   0 -11    3.65    0.67 
   1   0  11    4.97    0.70 
  -2   0 -11    0.21    0.30 
   2   0  11    0.89    0.59 
  -2   0 -11    0.68    0.35 
   2   0  11    0.56    0.30 
  -2   0 -11    0.84    0.36 
  -3   0 -11    0.27    0.21 
   3   0  11   -0.06    0.19 
  -3   0 -11    0.27    0.26 
  -3   0 -11    0.00    0.20 
  -4   0 -11    2.92    0.38 
  -4   0 -11    2.45    0.39 
   4   0  11    2.15    0.37 
   6  -1 -11    5.05    0.79 
  -6  -1  11    4.26    0.65 
  -6  -1  11    4.62    1.36 
  -6  -1  11    4.85    0.76 
  -6  -1  11    3.58    0.89 
  -6   1  11    5.21    0.60 
  -6   1  11    3.29    0.86 
  -6   1  11    3.19    0.91 
   6   1 -11    4.62    0.61 
  -5  -1  11   16.61    1.61 
  -5  -1  11   15.00    1.79 
  -5  -1  11   14.63    2.72 
   5  -1 -11   15.58    1.14 
  -5  -1  11   18.25    1.33 
  -5   1  11   14.73    1.27 
  -5   1  11   11.72    2.04 
  -5   1  11   14.72    1.42 
  -5   1  11   10.57    3.09 
  -4  -1  11   43.13    4.37 
  -4  -1  11   43.67    4.16 
   4  -1 -11   42.68    2.31 
  -4  -1  11   41.46    2.89 
  -4  -1  11   40.10    2.43 
  -4   1  11   39.25    2.60 
  -4   1  11   36.38    2.19 
  -4   1  11   40.17    2.51 
  -4   1  11   48.05    4.57 
   4   1 -11   39.88    2.32 
  -4   1  11   44.77    4.23 
  -3  -1  11   13.59    1.45 
  -3  -1  11   13.10    1.17 
   3  -1 -11   12.65    1.21 
  -3  -1  11   12.10    1.17 
  -3  -1  11   13.48    2.25 
   3  -1 -11   13.18    1.10 
  -3  -1  11   14.42    2.43 
  -3   1  11   13.26    1.15 
   3   1 -11   16.22    1.22 
  -3   1  11   11.94    1.16 
  -3   1  11   13.94    2.26 
  -3   1  11   13.92    1.42 
  -3   1  11   16.11    2.54 
  -3   1  11   12.71    1.22 
   2  -1 -11    5.43    0.70 
  -2  -1  11    4.25    0.93 
  -2  -1  11    6.28    1.36 
   2  -1 -11    4.02    0.79 
  -2  -1  11    5.98    0.73 
  -2   1  11    4.60    0.72 
  -2   1  11    6.74    1.50 
  -2   1  11    6.84    0.93 
  -2   1  11    5.50    0.76 
  -2   1  11    5.29    0.69 
  -2   1  11    5.41    1.37 
  -1  -1  11    2.06    0.49 
  -1  -1  11    1.29    1.05 
   1  -1 -11    1.81    0.52 
  -1  -1  11    1.59    0.54 
  -1  -1  11    3.00    1.06 
   1   1 -11    1.30    0.45 
  -1   1  11    1.64    0.82 
   0  -1 -11   64.73    3.26 
   0  -1  11   71.53    5.26 
   0  -1 -11   63.76    3.48 
   0  -1  11   65.67    3.53 
   0   1  11   62.98    3.41 
   0   1  11   61.27    3.18 
   0   1  11   70.29    5.32 
   0   1 -11   62.52    3.42 
  -1  -1 -11   13.27    1.36 
   1  -1  11   12.41    1.46 
  -1  -1 -11   13.17    1.56 
   1  -1  11   10.79    2.79 
   1   1  11   12.20    1.00 
   1   1  11   11.28    1.91 
   1   1  11   12.05    1.52 
  -1   1 -11   13.14    1.24 
  -2  -1 -11    4.97    0.73 
  -2  -1 -11    4.84    0.74 
   2  -1  11    4.68    0.73 
  -2  -1 -11    6.26    0.77 
  -2   1 -11    5.59    0.67 
  -2   1 -11    6.03    0.81 
  -2   1 -11    5.32    0.78 
   2   1  11    6.53    1.37 
  -3  -1 -11   37.93    2.11 
   3  -1  11   39.18    2.18 
  -3  -1 -11   36.82    1.92 
  -3  -1 -11   37.97    2.19 
  -3  -1 -11   36.33    2.12 
  -3   1 -11   36.45    2.16 
   3   1  11   34.15    3.00 
  -3   1 -11   39.47    2.06 
   3   1  11   37.45    2.14 
  -3   1 -11   38.59    2.21 
   4  -1  11    4.60    0.64 
  -4  -1 -11    4.87    0.52 
  -4  -1 -11    4.44    0.46 
  -4   1 -11    4.69    0.52 
   4   1  11    3.93    0.49 
  -4   1 -11    5.16    0.69 
  -6  -2  11    8.22    0.88 
  -6  -2  11    9.00    0.77 
  -6  -2  11    6.58    1.31 
   6  -2 -11    7.89    0.67 
   6   2 -11    9.58    0.71 
  -6   2  11    8.97    0.81 
  -5  -2  11   38.93    3.55 
  -5  -2  11   40.09    2.22 
   5  -2 -11   40.93    2.45 
  -5  -2  11   39.37    2.56 
  -5  -2  11   37.43    3.73 
  -5   2  11   37.36    3.64 
  -5   2  11   39.17    2.32 
  -5   2  11   32.46    3.46 
  -4  -2  11   95.04    4.63 
   4  -2 -11   96.37    4.70 
  -4  -2  11   99.55    4.66 
   4  -2 -11  100.09    4.52 
  -4  -2  11  116.89    7.52 
  -4  -2  11   87.88    6.51 
  -4  -2  11  100.63    5.29 
  -4   2  11  103.91    4.83 
  -4   2  11  105.86    7.08 
  -4   2  11  101.06    4.85 
   4   2 -11  101.63    4.59 
  -4   2  11   94.08    4.49 
  -4   2  11   93.80    6.96 
  -3  -2  11  155.62    9.17 
  -3  -2  11  148.54    7.30 
  -3  -2  11  157.30    9.44 
   3  -2 -11  154.13    6.62 
  -3  -2  11  146.54    6.67 
   3  -2 -11  149.07    6.92 
  -3   2  11  158.43    6.91 
   3   2 -11  144.69    6.58 
  -3   2  11  174.98   10.00 
  -3   2  11  145.44    6.85 
  -3   2  11  174.44    9.59 
  -3   2  11  148.54    6.68 
   2  -2 -11   42.11    2.32 
  -2  -2  11   42.72    2.37 
  -2  -2  11   44.30    2.86 
  -2  -2  11   44.90    4.19 
  -2  -2  11   44.82    4.10 
   2  -2 -11   43.72    2.66 
  -2   2  11   42.47    2.48 
  -2   2  11   43.69    4.03 
   2   2 -11   41.16    2.23 
  -2   2  11   40.77    2.62 
  -2   2  11   42.73    2.48 
  -2   2  11   48.68    4.48 
  -2   2  11   41.67    2.57 
   1  -2 -11  164.96    7.60 
   1  -2 -11  174.59    7.51 
  -1  -2  11  199.58   10.29 
  -1  -2  11  190.31    8.20 
   1  -2 -11  181.60    8.03 
  -1  -2  11  180.09   10.09 
   1   2 -11  178.58    7.79 
  -1   2  11  184.82    7.87 
  -1   2  11  171.60   10.30 
  -1   2  11  185.76    7.89 
   1   2 -11  180.54   10.01 
  -1   2  11  183.13    7.95 
  -1   2  11  191.44    7.78 
   0  -2  11  102.58    5.02 
   0  -2 -11   96.66    4.94 
   0  -2 -11   99.20    4.73 
   0   2  11  101.06    4.72 
   0   2  11  100.56    4.83 
   0   2  11  101.56    4.66 
   0   2 -11   98.92    4.84 
   0   2  11  119.18    7.30 
   1  -2  11    0.43    0.34 
  -1  -2 -11    0.23    0.31 
  -1  -2 -11    0.85    0.35 
  -1  -2 -11    0.25    0.34 
   1   2  11    0.60    0.53 
  -1   2 -11    0.70    0.33 
   1   2  11    0.61    0.32 
  -2  -2 -11   43.79    2.44 
  -2  -2 -11   43.02    2.47 
   2  -2  11   42.40    2.46 
  -2  -2 -11   42.49    2.50 
  -2   2 -11   42.95    2.50 
   2   2  11   42.65    2.39 
   2   2  11   42.51    2.22 
   2   2  11   37.42    3.60 
  -3  -2 -11   31.48    1.62 
  -3  -2 -11   32.80    1.84 
   3  -2  11   31.00    1.83 
  -3  -2 -11   29.86    1.84 
  -3   2 -11   29.74    1.49 
  -3   2 -11   27.81    1.69 
  -3   2 -11   28.82    1.81 
   3   2  11   30.61    1.79 
  -6  -3  11    0.41    0.18 
  -6  -3  11    0.32    0.37 
   6  -3 -11    0.09    0.15 
  -6  -3  11    0.48    0.27 
  -6  -3  11    0.12    0.31 
   6   3 -11    0.79    0.20 
   6   3 -11    0.34    0.30 
  -6   3  11    0.79    0.23 
  -6   3  11    0.59    0.43 
  -5  -3  11   61.63    3.42 
  -5  -3  11   57.79    4.55 
   5  -3 -11   59.12    2.84 
  -5  -3  11   62.07    2.93 
  -5  -3  11   56.51    2.90 
  -5  -3  11   52.80    4.26 
  -5   3  11   63.28    3.05 
  -5   3  11   59.92    4.68 
   5   3 -11   64.10    2.86 
  -5   3  11   56.59    3.21 
  -5   3  11   60.15    3.11 
  -4  -3  11   17.09    1.65 
  -4  -3  11   16.57    1.23 
   4  -3 -11   16.63    1.22 
  -4  -3  11   16.86    2.38 
  -4  -3  11   15.72    2.34 
  -4  -3  11   16.34    1.24 
   4   3 -11   18.05    1.23 
  -4   3  11   14.61    2.25 
  -4   3  11   17.18    1.24 
  -4   3  11   15.36    2.26 
  -4   3  11   16.25    1.36 
  -4   3  11   18.61    1.45 
  -3  -3  11   59.66    3.62 
  -3  -3  11   61.17    5.03 
  -3  -3  11   57.20    3.34 
  -3  -3  11   65.11    5.17 
   3  -3 -11   59.27    3.03 
  -3  -3  11   65.66    3.73 
  -3   3  11   65.60    5.41 
  -3   3  11   61.33    3.35 
   3   3 -11   59.73    2.93 
  -3   3  11   59.51    3.17 
  -3   3  11   58.03    4.93 
   2  -3 -11   19.63    1.36 
   2  -3 -11   19.55    1.67 
  -2  -3  11   18.77    2.61 
  -2  -3  11   20.27    1.71 
  -2  -3  11   19.17    2.54 
  -2   3  11   22.24    2.66 
  -2   3  11   19.05    1.48 
  -2   3  11   16.05    2.56 
  -2   3  11   19.03    1.53 
  -2   3  11   20.11    1.50 
  -1  -3  11   69.31    3.81 
   1  -3 -11   66.69    3.40 
   1  -3 -11   67.06    3.68 
  -1  -3  11   68.53    5.32 
  -1   3  11   66.48    3.48 
   1   3 -11   62.55    5.08 
  -1   3  11   71.08    3.57 
   1   3 -11   61.09    3.34 
  -1   3  11   70.55    3.45 
  -1   3  11   79.83    5.88 
   0   3  11   20.42    3.60 
   0   3  11   23.83    1.51 
   0   3 -11   15.18    3.13 
  -1  -3 -11   13.13    1.13 
   1  -3  11   12.41    1.16 
  -1  -3 -11   12.66    1.20 
  -1  -3 -11   10.11    1.11 
  -1   3 -11   12.19    1.13 
   1   3  11   12.85    1.04 
   1   3  11   11.16    1.96 
   1   3  11   11.07    0.99 
   1   3  11   11.64    1.05 
  -2  -3 -11    3.42    0.64 
  -2  -3 -11    2.62    0.53 
   2  -3  11    4.00    0.63 
  -2  -3 -11    4.31    0.57 
   2   3  11    3.64    0.93 
  -2   3 -11    3.65    0.52 
   2   3  11    2.54    0.49 
  -2   3 -11    4.02    0.56 
  -2   3 -11    2.40    0.51 
  -3  -3 -11    5.22    0.88 
  -3  -3 -11    7.74    0.76 
  -3  -3 -11    6.07    1.08 
   3  -3  11    6.18    0.69 
   3   3  11    9.51    1.84 
  -3   3 -11    8.24    0.94 
   3   3  11    8.61    0.72 
  -3   3 -11    7.46    0.58 
  -3   3 -11    7.47    0.60 
  -5  -4  11   19.62    2.31 
  -5  -4  11   23.50    1.72 
  -5  -4  11   21.94    1.32 
   5  -4 -11   25.61    1.40 
  -5   4  11   21.41    2.41 
   5   4 -11   24.56    1.34 
  -5   4  11   22.36    1.33 
  -5   4  11   26.33    2.08 
  -4  -4  11   59.07    2.92 
  -4  -4  11   61.57    4.80 
   4  -4 -11   65.79    3.33 
  -4  -4  11   58.87    2.90 
  -4  -4  11   62.24    3.54 
  -4   4  11   58.65    3.20 
  -4   4  11   69.18    3.84 
  -4   4  11   61.01    4.80 
   4   4 -11   64.95    2.89 
  -4   4  11   62.04    3.07 
   4   4 -11   66.59    4.99 
  -4   4  11   54.74    4.35 
  -3  -4  11    7.84    1.64 
   3  -4 -11    7.17    0.79 
  -3  -4  11    7.49    1.48 
  -3  -4  11    6.60    1.03 
   3   4 -11    6.06    0.68 
  -3   4  11    9.00    0.93 
  -3   4  11    6.97    1.54 
  -3   4  11    7.18    1.48 
  -3   4  11    7.41    0.84 
   3   4 -11    8.05    1.64 
  -3   4  11    6.48    0.84 
  -2  -4  11   92.44    4.75 
  -2  -4  11   81.81    6.19 
   2  -4 -11   86.14    4.19 
   2  -4 -11   94.83    4.63 
   2  -4 -11   88.98    4.11 
  -2   4  11   90.27    4.46 
   2   4 -11   95.49    6.48 
  -2   4  11   90.72    4.35 
  -2   4  11   90.84    6.50 
  -2   4  11   92.87    4.39 
   1  -4 -11   20.11    1.67 
  -1  -4  11   20.36    1.73 
   1  -4 -11   18.80    1.47 
  -1   4  11   18.43    2.66 
   1   4 -11   21.13    2.63 
  -1   4  11   20.20    1.51 
  -1   4  11   20.57    1.50 
  -1   4  11   21.20    1.57 
   0  -4 -11   22.92    1.69 
   0  -4 -11   21.07    1.56 
   0  -4  11   21.35    1.67 
   0   4  11   21.77    1.54 
   0   4 -11   19.53    2.46 
   0   4  11   21.73    1.48 
   0   4  11   19.29    2.58 
   0   4 -11   22.94    1.54 
  -1  -4 -11   21.59    1.54 
   1   4  11   21.51    1.41 
   1   4  11   19.71    1.38 
   1   4  11   20.75    1.64 
   1   4  11   18.46    2.44 
  -1   4 -11   19.97    1.26 
   2  -4  11   12.70    1.26 
  -2  -4 -11    9.51    1.29 
  -2  -4 -11   13.33    1.10 
   2   4  11   12.35    1.82 
   2   4  11   12.62    0.93 
  -2   4 -11   10.44    1.09 
  -2   4 -11   14.02    1.09 
  -3  -4 -11    6.35    0.63 
   3   4  11    5.30    0.49 
  -3   4 -11    4.53    0.43 
  -3   4 -11    4.50    0.57 
   3   4  11    3.31    0.86 
  -5  -5  11    2.58    0.62 
  -5  -5  11    2.98    0.46 
   5  -5 -11    3.59    0.43 
   5  -5 -11    2.68    0.44 
  -5  -5  11    3.56    0.55 
   5   5 -11    2.39    0.67 
  -5   5  11    3.07    0.77 
  -5   5  11    2.92    0.45 
  -5   5  11    3.05    0.40 
  -4  -5  11    6.06    1.28 
  -4  -5  11    8.00    0.95 
   4  -5 -11    7.14    0.68 
   4   5 -11    7.28    1.41 
  -4   5  11    6.08    0.76 
  -4   5  11    6.91    0.72 
  -4   5  11    7.66    1.06 
  -4   5  11    5.69    1.21 
   3  -5 -11    0.42    0.31 
  -3  -5  11    1.15    0.68 
  -3  -5  11    0.81    0.40 
   3   5 -11    0.71    0.56 
  -3   5  11    0.89    0.63 
  -3   5  11    0.85    0.33 
  -3   5  11    1.41    0.70 
  -2  -5  11    6.68    0.98 
   2  -5 -11    8.13    1.06 
   2  -5 -11    6.56    0.87 
  -2   5  11    6.26    1.68 
   2   5 -11    5.83    1.32 
  -2   5  11    6.44    0.78 
  -2   5  11    6.38    0.81 
  -2   5  11    6.64    0.81 
   1  -5 -11   12.27    1.10 
   1  -5 -11   11.84    1.22 
  -1  -5  11   11.02    1.30 
  -1   5  11   13.06    2.04 
   1   5 -11   12.60    1.97 
  -1   5  11   12.30    1.09 
  -1   5  11   12.59    1.12 
  -1   5  11   10.97    1.05 
   0  -5 -11   17.37    1.77 
   0  -5  11   17.72    1.39 
   0  -5  11   15.04    1.18 
   0   5  11   19.05    2.95 
   0   5  11   17.11    1.25 
   0   5 -11   13.54    2.03 
   1  -5  11    0.99    0.33 
  -1  -5 -11    1.21    0.41 
  -1  -5 -11    0.77    0.27 
  -1   5 -11    0.77    0.39 
   1   5  11    0.85    0.29 
  -1   5 -11    1.38    0.36 
   1   5  11    0.46    0.26 
   1   5  11    0.42    0.42 
   2  -5  11    5.51    0.53 
  -2   5 -11    4.34    0.54 
   2   5  11    6.07    0.81 
   2   5  11    4.57    1.19 
   2   5  11    3.85    0.55 
  -2   5 -11    3.84    0.44 
   4  -6 -11   15.41    0.94 
  -4  -6  11   13.11    1.07 
  -4   6  11   14.35    1.02 
  -4   6  11   14.76    1.00 
   3  -6 -11   16.23    1.36 
   3  -6 -11   18.05    1.17 
  -3  -6  11   17.48    1.51 
  -3   6  11   19.55    1.34 
  -3   6  11   19.44    1.28 
   3   6 -11   14.57    1.99 
  -2  -6  11    7.23    0.87 
   2  -6 -11    8.31    0.90 
   2  -6 -11    6.46    0.74 
  -2   6  11    8.08    0.79 
   2   6 -11    8.52    1.51 
  -2   6  11    7.34    0.80 
  -2   6  11    6.47    0.74 
   1  -6 -11    4.93    0.68 
   1  -6 -11    6.29    0.79 
  -1   6  11    5.85    0.71 
  -1   6  11    6.89    0.77 
   1   6 -11    5.26    1.23 
  -1   6  11    5.72    1.22 
  -1   6  11    7.31    0.77 
   0  -6 -11    1.65    0.53 
   0  -6 -11    1.51    0.42 
   0  -6  11    1.66    0.42 
   0   6  11    2.63    0.44 
   0   6  11    2.70    0.80 
   0   6  11    2.42    0.50 
   0   6 -11    1.76    0.81 
   1  -6  11   12.90    0.89 
   1   6  11   13.69    0.96 
   1   6  11   12.87    0.92 
   1   6  11   10.19    1.48 
   2   6  11    3.32    0.85 
   2   6  11    3.89    0.59 
   3  -7 -11    1.01    0.31 
   3  -7 -11    0.75    0.22 
  -3   7  11    0.76    0.31 
  -3   7  11    1.50    0.30 
   3   7 -11    0.69    0.45 
   2  -7 -11    0.64    0.25 
   2  -7 -11    0.47    0.23 
  -2   7  11    0.84    0.25 
  -2   7  11    1.02    0.31 
   2   7 -11    0.27    0.40 
   1  -7 -11    9.35    0.80 
   1  -7 -11   10.27    0.85 
   1   7 -11    8.98    1.40 
  -1   7  11    9.79    0.85 
   0  -7 -11    3.11    0.46 
   0   7  11    3.15    0.45 
   0   7 -11    2.24    0.82 
  -6   0  12    0.00    0.19 
  -6   0  12    0.03    0.26 
  -6   0  12   -0.01    0.26 
   6   0 -12    0.14    0.16 
  -5   0  12    6.78    0.78 
  -5   0  12    7.81    0.84 
  -5   0  12    6.37    1.41 
  -5   0  12    7.87    1.01 
  -5   0  12    7.34    1.44 
   5   0 -12    7.55    0.75 
  -4   0  12   59.78    3.06 
  -4   0  12   53.03    2.94 
  -4   0  12   53.72    3.24 
  -4   0  12   56.87    4.76 
   4   0 -12   56.29    2.88 
  -4   0  12   53.47    4.90 
   3   0 -12   73.32    3.66 
  -3   0  12   75.69    3.80 
  -3   0  12   75.62    4.13 
   3   0 -12   78.27    3.68 
  -3   0  12   65.92    5.72 
  -3   0  12   84.54    5.98 
  -2   0  12    0.88    0.68 
  -2   0  12    1.52    0.52 
  -2   0  12    1.61    0.86 
   2   0 -12    0.61    0.35 
  -2   0  12   -0.11    0.67 
  -2   0  12    1.45    0.49 
  -1   0  12   81.77    4.39 
  -1   0  12  100.55    4.88 
  -1   0  12  111.90    7.15 
   1   0 -12   99.42    4.74 
   0   0  12  854.09   33.54 
   0   0  12  725.52   30.34 
   0   0 -12  766.14   30.40 
   1   0  12   16.09    1.34 
  -1   0 -12   16.03    1.23 
   1   0  12   16.20    2.24 
  -1   0 -12   14.76    1.36 
  -2   0 -12   30.25    1.80 
  -2   0 -12   35.12    2.06 
   2   0  12   37.36    2.09 
   2   0  12   26.15    2.71 
  -3   0 -12   16.71    1.14 
  -3   0 -12   13.72    0.99 
   3   0  12   16.75    1.17 
  -6  -1  12    0.15    0.29 
  -6  -1  12    0.28    0.18 
  -6  -1  12    0.28    0.27 
  -6  -1  12    0.89    0.31 
  -6   1  12    0.12    0.19 
  -6   1  12    0.51    0.37 
   6   1 -12    0.51    0.20 
  -6   1  12    0.26    0.30 
  -5  -1  12    0.91    0.30 
  -5  -1  12    1.32    0.66 
  -5  -1  12    0.55    0.37 
  -5  -1  12    1.11    0.68 
   5  -1 -12    1.05    0.32 
  -5  -1  12    1.07    0.36 
  -5   1  12    0.55    0.46 
  -5   1  12    0.71    0.37 
   5   1 -12    1.04    0.39 
  -5   1  12    0.57    0.58 
  -5   1  12    1.65    0.40 
  -4  -1  12   12.96    1.14 
  -4  -1  12   11.13    1.11 
   4  -1 -12   12.75    1.07 
  -4  -1  12   13.40    2.07 
  -4  -1  12   11.78    1.35 
  -4  -1  12   12.01    2.13 
  -4   1  12   12.45    1.41 
  -4   1  12   11.47    1.97 
  -4   1  12   12.65    1.13 
  -4   1  12   13.47    1.18 
  -4   1  12   14.13    2.20 
   3  -1 -12   26.46    1.61 
  -3  -1  12   26.10    3.01 
  -3  -1  12   24.71    1.71 
  -3  -1  12   22.25    1.89 
  -3  -1  12   25.65    3.17 
  -3  -1  12   22.96    1.61 
   3  -1 -12   24.06    1.69 
  -3   1  12   23.85    2.88 
  -3   1  12   19.18    1.72 
  -3   1  12   24.54    1.87 
  -3   1  12   22.57    1.59 
  -3   1  12   22.22    1.67 
  -3   1  12   21.72    3.04 
   3   1 -12   25.06    1.56 
   2  -1 -12   43.01    2.28 
  -2  -1  12   39.14    2.34 
  -2  -1  12   44.73    6.30 
   2   1 -12   40.42    2.29 
  -2   1  12   44.45    2.47 
  -1  -1  12  135.79   10.45 
  -1  -1  12  115.92    6.21 
   1  -1 -12  111.66    7.01 
  -1  -1  12  132.09    5.62 
  -1  -1  12  112.66    9.83 
  -1   1  12  143.49    5.79 
  -1   1  12  139.69    6.89 
   0  -1  12   25.93    1.91 
   0  -1 -12   26.05    1.67 
   0  -1 -12   26.01    1.90 
   0  -1  12   25.01    2.93 
   0   1  12   28.59    3.23 
   0   1  12   27.45    1.87 
   0   1 -12   24.57    1.79 
  -1  -1 -12   14.19    1.18 
   1  -1  12   14.17    1.27 
   1  -1  12   11.68    1.81 
  -1  -1 -12   13.36    1.25 
  -1   1 -12   14.20    1.26 
   1   1  12   16.42    2.22 
   1   1  12   13.42    1.07 
   1   1  12   14.99    1.25 
  -2  -1 -12    5.66    0.76 
   2  -1  12    6.26    0.74 
  -2  -1 -12    6.11    0.70 
  -2  -1 -12    5.65    0.75 
   2   1  12    5.80    1.18 
  -2   1 -12    6.38    0.78 
   2   1  12    6.58    0.75 
  -2   1 -12    5.82    0.68 
  -3  -1 -12    5.22    0.61 
   3  -1  12    6.38    0.66 
  -3  -1 -12    6.05    0.61 
   3   1  12    5.14    1.01 
   3   1  12    5.58    0.63 
  -3   1 -12    5.33    0.52 
  -3   1 -12    5.58    0.66 
  -6  -2  12   20.37    1.17 
   6  -2 -12   16.46    1.31 
  -6  -2  12   21.85    1.29 
  -6  -2  12   16.19    2.13 
   6   2 -12   16.80    2.02 
  -6   2  12   15.76    1.49 
  -6   2  12   22.08    1.21 
   6   2 -12   20.82    1.08 
  -5  -2  12    7.98    0.77 
  -5  -2  12    8.89    0.81 
  -5  -2  12    7.20    1.38 
  -5  -2  12    8.70    1.00 
  -5  -2  12    5.75    1.35 
   5  -2 -12    8.55    0.75 
  -5   2  12    7.38    1.43 
  -5   2  12    7.80    0.83 
  -5   2  12    7.94    0.83 
  -5   2  12    7.75    1.42 
   5   2 -12    8.87    0.76 
  -4  -2  12   13.23    2.13 
   4  -2 -12   13.54    1.14 
  -4  -2  12   13.93    1.11 
  -4  -2  12   12.14    1.98 
  -4  -2  12   14.64    1.50 
   4  -2 -12   13.70    1.07 
  -4  -2  12   13.58    1.12 
  -4   2  12   10.24    2.45 
  -4   2  12   14.60    1.21 
  -4   2  12   15.68    2.19 
  -4   2  12   13.43    1.18 
  -4   2  12   12.66    1.05 
   4   2 -12   13.89    1.08 
   3  -2 -12   43.21    2.58 
   3  -2 -12   45.37    2.41 
  -3  -2  12   44.15    2.45 
  -3  -2  12   40.53    2.35 
  -3  -2  12   45.99    4.29 
  -3  -2  12   46.82    2.95 
  -3  -2  12   44.37    4.10 
  -3   2  12   45.49    2.60 
  -3   2  12   45.81    4.16 
  -3   2  12   45.14    2.47 
   3   2 -12   42.97    2.32 
  -3   2  12   48.15    2.67 
  -3   2  12   49.50    4.56 
   2  -2 -12   82.13    3.91 
  -2  -2  12   85.81    6.17 
  -2  -2  12   93.69    6.27 
   2  -2 -12   84.01    4.27 
  -2  -2  12   84.93    4.52 
  -2   2  12   79.43    4.22 
  -2   2  12   85.92    5.86 
  -2   2  12   94.41    6.63 
  -2   2  12   83.34    4.13 
  -2   2  12   82.98    4.18 
   1  -2 -12   46.44    2.80 
  -1  -2  12   50.85    2.98 
  -1  -2  12   47.64    4.12 
  -1  -2  12   48.07    4.14 
  -1   2  12   55.52    4.72 
  -1   2  12   46.67    2.72 
  -1   2  12   44.87    2.61 
   1   2 -12   40.48    3.81 
   1   2 -12   44.30    2.58 
   0  -2  12   30.41    2.07 
   0  -2 -12   28.12    1.98 
   0  -2 -12   27.43    1.79 
   0   2 -12   30.80    1.97 
   0   2  12   29.05    3.28 
   0   2  12   27.37    1.88 
   0   2  12   25.49    2.40 
   0   2  12   30.46    1.84 
  -1  -2 -12    3.12    0.61 
   1  -2  12    3.21    0.60 
  -1  -2 -12    2.50    0.63 
  -1   2 -12    4.64    0.67 
   1   2  12    3.27    0.56 
   1   2  12    3.71    1.10 
   1   2  12    3.57    0.56 
  -2  -2 -12    1.78    0.45 
  -2  -2 -12    1.42    0.37 
  -2  -2 -12    1.51    0.43 
   2  -2  12    1.50    0.40 
  -2   2 -12    0.70    0.50 
   2   2  12    1.17    0.59 
  -2   2 -12    2.02    0.46 
   2   2  12    1.81    0.42 
   3  -2  12    4.91    0.55 
  -3  -2 -12    5.95    0.67 
  -3  -2 -12    5.13    0.54 
   3   2  12    4.76    0.52 
  -3   2 -12    5.41    0.59 
  -3   2 -12    4.76    0.46 
  -5  -3  12   38.53    2.98 
  -5  -3  12   33.25    1.75 
  -5  -3  12   29.05    3.62 
  -5  -3  12   35.75    3.57 
   5  -3 -12   36.16    1.80 
   5  -3 -12   35.45    1.97 
  -5   3  12   36.04    2.09 
  -5   3  12   32.92    2.99 
   5   3 -12   37.66    3.75 
  -5   3  12   28.09    1.75 
  -5   3  12   29.77    2.67 
  -4  -3  12    6.97    0.95 
  -4  -3  12    6.80    0.73 
  -4  -3  12    8.01    1.48 
   4  -3 -12    7.29    0.87 
  -4  -3  12    6.07    1.33 
  -4  -3  12    7.06    0.74 
   4  -3 -12    5.57    0.73 
   4   3 -12    7.61    0.68 
  -4   3  12    5.40    0.79 
  -4   3  12    7.13    1.39 
  -4   3  12    7.09    1.40 
  -4   3  12    7.65    1.08 
  -4   3  12    6.43    0.69 
  -3  -3  12   49.10    3.02 
   3  -3 -12   47.07    2.71 
   3  -3 -12   47.92    2.46 
  -3  -3  12   41.15    3.91 
  -3  -3  12   49.87    4.26 
   3   3 -12   46.91    4.20 
  -3   3  12   49.89    2.70 
   3   3 -12   47.73    2.27 
  -3   3  12   46.83    2.65 
  -3   3  12   39.42    3.78 
  -3   3  12   46.11    2.54 
  -3   3  12   50.89    4.46 
  -2  -3  12   31.08    2.25 
  -2  -3  12   30.16    3.27 
   2  -3 -12   31.00    2.10 
   2  -3 -12   29.09    1.75 
  -2  -3  12   28.77    3.08 
  -2   3  12   30.42    2.03 
   2   3 -12   32.32    3.35 
  -2   3  12   32.10    2.00 
  -2   3  12   34.81    3.65 
  -2   3  12   31.07    1.97 
  -1  -3  12   70.74    3.77 
   1  -3 -12   63.20    3.25 
  -1  -3  12   69.75    5.17 
   1  -3 -12   67.46    3.59 
  -1   3  12   67.87    3.45 
  -1   3  12   68.47    3.39 
   1   3 -12   65.44    4.89 
   1   3 -12   62.33    3.23 
  -1   3  12   68.94    3.52 
  -1   3  12   65.67    5.34 
   0  -3 -12    9.40    1.02 
   0  -3  12    9.16    1.04 
   0  -3 -12    9.33    0.92 
   0   3  12    8.67    0.89 
   0   3  12    9.17    0.92 
   0   3  12   12.19    1.18 
   0   3  12    9.64    1.76 
   0   3 -12    7.88    0.91 
  -1  -3 -12    5.72    0.74 
  -1  -3 -12    4.23    0.67 
   1  -3  12    5.49    0.74 
   1   3  12    4.96    0.64 
   1   3  12    4.75    1.19 
  -1   3 -12    5.00    0.70 
  -2  -3 -12    6.89    0.79 
  -2  -3 -12    6.67    1.14 
   2  -3  12    7.84    1.06 
   2   3  12    6.65    0.94 
   2   3  12    5.89    1.20 
  -2   3 -12    7.35    0.76 
  -3  -3 -12    1.88    0.36 
  -3   3 -12    1.80    0.31 
   3   3  12    1.44    0.28 
  -5  -4  12   43.91    2.30 
  -5  -4  12   35.56    2.87 
   5  -4 -12   41.01    1.92 
  -5   4  12   35.20    1.89 
  -5   4  12   40.78    2.05 
   5   4 -12   37.10    2.93 
   4  -4 -12   28.09    1.59 
   4  -4 -12   29.63    1.78 
  -4  -4  12   29.69    2.02 
  -4   4  12   23.03    2.53 
  -4   4  12   28.48    1.70 
   4   4 -12   28.39    1.37 
  -4   4  12   26.23    2.54 
  -4   4  12   28.12    1.77 
   4   4 -12   22.76    2.58 
  -4   4  12   28.89    1.63 
   3  -4 -12   10.22    1.05 
  -3  -4  12   11.94    1.23 
  -3  -4  12   10.25    1.81 
   3  -4 -12   11.57    0.96 
  -3   4  12   10.06    1.00 
  -3   4  12   10.32    1.78 
  -3   4  12    9.31    1.60 
  -3   4  12   11.42    0.98 
   3   4 -12   11.53    1.87 
   2  -4 -12    4.95    0.86 
   2  -4 -12    3.95    0.56 
  -2  -4  12    3.56    0.72 
   2  -4 -12    3.61    0.72 
  -2  -4  12    3.81    1.16 
  -2   4  12    3.74    0.69 
  -2   4  12    3.71    0.60 
   2   4 -12    3.61    1.11 
  -2   4  12    2.26    1.00 
  -2   4  12    3.34    0.57 
  -1  -4  12    4.73    0.76 
   1  -4 -12    4.68    0.70 
   1   4 -12    3.78    1.59 
  -1   4  12    4.44    0.65 
  -1   4  12    3.60    0.64 
  -1   4  12    2.89    0.58 
   0  -4 -12   37.53    2.12 
   0  -4  12   37.91    2.30 
   0  -4 -12   39.03    2.31 
   0   4  12   38.68    2.12 
   0   4  12   32.67    2.03 
   0   4  12   38.15    3.89 
   0   4 -12   29.43    2.97 
   0   4 -12   38.27    2.03 
   1  -4  12   27.16    1.82 
  -1  -4 -12   34.55    1.91 
  -1  -4 -12   32.35    1.91 
   1   4  12   31.45    3.02 
  -1   4 -12   27.15    1.72 
   1   4  12   29.98    1.73 
  -2  -4 -12   23.37    1.49 
  -2  -4 -12   22.07    1.35 
   2  -4  12   18.71    1.48 
  -2   4 -12   21.92    1.31 
   2   4  12   18.72    1.14 
   4  -5 -12   19.75    1.31 
  -4  -5  12   19.09    1.41 
   4  -5 -12   19.35    1.13 
  -4   5  12   18.87    1.18 
  -4   5  12   17.41    1.25 
  -3  -5  12    8.88    0.98 
   3  -5 -12    8.34    0.92 
   3  -5 -12    8.39    0.81 
  -3   5  12    7.36    1.28 
   3   5 -12    7.01    1.41 
  -3   5  12    8.66    0.86 
  -3   5  12    8.70    0.83 
   2  -5 -12    7.87    0.73 
  -2  -5  12    7.19    0.91 
   2  -5 -12    6.93    0.83 
   2   5 -12    6.13    1.29 
  -2   5  12    7.52    0.82 
  -2   5  12    6.24    0.75 
  -2   5  12    5.46    1.27 
  -2   5  12    7.04    0.75 
   1  -5 -12    4.41    0.60 
   1  -5 -12    4.98    0.70 
  -1  -5  12    5.06    0.74 
  -1   5  12    5.72    0.67 
  -1   5  12    6.10    0.71 
  -1   5  12    5.28    1.19 
   1   5 -12    4.50    1.09 
   0  -5 -12   31.76    1.90 
   0  -5 -12   32.84    1.85 
   0   5 -12   27.33    2.67 
   0   5  12   31.65    1.78 
   0   5  12   32.37    1.83 
   0   5  12   26.63    2.82 
  -1  -5 -12   17.78    1.19 
  -1  -5 -12   21.83    1.43 
   1   5  12   17.72    1.18 
   1   5  12   17.25    1.13 
  -1   5 -12   18.85    1.22 
  -2   5 -12   -0.09    0.14 
   2   5  12   -0.03    0.18 
  -3  -6  12   15.09    1.18 
   3  -6 -12   17.83    1.23 
  -3   6  12   18.27    1.18 
  -3   6  12   18.51    1.13 
   2  -6 -12   17.63    1.12 
  -2  -6  12   17.91    1.24 
   2  -6 -12   18.86    1.34 
  -2   6  12   18.13    1.34 
   2   6 -12   15.40    1.97 
  -2   6  12   20.81    1.27 
   1  -6 -12   10.01    0.81 
   1   6 -12    8.86    1.42 
  -1   6  12    7.97    0.87 
   0  -6 -12    0.88    0.29 
   0  -6 -12    1.77    0.37 
   0   6 -12    0.99    0.57 
   0   6  12    1.47    0.35 
   0   6  12    0.84    0.40 
  -1  -6 -12    0.20    0.18 
   1   6  12    0.33    0.29 
   1   6  12    0.31    0.17 
  -5   0  13    0.23    0.51 
  -5   0  13    0.32    0.35 
  -5   0  13    0.24    0.45 
   5   0 -13    0.45    0.23 
  -5   0  13    0.21    0.39 
  -4   0  13   16.87    1.26 
  -4   0  13   16.26    1.37 
  -4   0  13   14.06    2.22 
  -4   0  13   15.82    1.20 
  -4   0  13   14.98    2.14 
  -3   0  13   24.61    3.07 
  -3   0  13   25.91    1.70 
   3   0 -13   26.20    1.58 
  -3   0  13   24.71    1.89 
   3   0 -13   24.31    1.58 
  -3   0  13   25.45    2.84 
  -2   0  13   68.53    5.09 
  -2   0  13   76.37    3.64 
  -2   0  13   79.52    4.07 
   2   0 -13   77.68    3.78 
  -2   0  13   81.04    5.94 
  -2   0  13   75.42    3.70 
  -1   0  13   69.43    3.32 
  -1   0  13   67.08    5.24 
   1   0 -13   65.70    3.48 
  -1   0  13   67.02    3.61 
   0   0 -13   30.51    1.99 
   0   0  13   30.38    2.05 
   0   0  13   33.52    3.31 
  -1   0 -13    0.99    0.39 
  -1   0 -13    1.25    0.38 
   1   0  13    0.48    0.29 
   1   0  13    0.22    0.37 
  -2   0 -13   14.50    0.94 
  -5  -1  13    1.92    0.85 
  -5  -1  13    2.09    0.88 
  -5  -1  13    3.35    0.62 
  -5  -1  13    3.07    0.45 
  -5  -1  13    3.22    0.48 
  -5   1  13    1.58    0.83 
  -5   1  13    3.37    0.52 
  -5   1  13    2.85    0.74 
  -5   1  13    2.14    0.79 
   4  -1 -13   20.27    1.33 
  -4  -1  13   18.34    1.31 
  -4  -1  13   20.50    2.63 
  -4  -1  13   20.66    2.46 
  -4  -1  13   20.74    1.63 
  -4  -1  13   20.04    1.42 
   4   1 -13   20.25    1.30 
  -4   1  13   21.44    1.48 
  -4   1  13   17.91    2.46 
  -4   1  13   19.19    2.41 
  -4   1  13   21.83    1.46 
  -4   1  13   16.36    1.82 
  -3  -1  13   74.77    5.23 
  -3  -1  13   70.16    5.35 
  -3  -1  13   73.13    3.33 
  -3  -1  13   70.48    3.80 
   3  -1 -13   66.73    3.24 
  -3  -1  13   68.15    3.38 
  -3   1  13   73.22    3.49 
  -3   1  13   61.36    6.44 
   3   1 -13   66.39    3.20 
  -3   1  13   62.72    5.29 
  -3   1  13   64.68    3.58 
  -3   1  13   63.21    4.13 
  -2  -1  13    5.05    0.80 
  -2  -1  13    4.11    1.15 
  -2  -1  13    4.60    1.21 
   2  -1 -13    4.62    0.72 
  -2  -1  13    5.34    0.69 
  -2   1  13    4.62    1.30 
  -2   1  13    4.71    0.77 
  -2   1  13    4.91    1.17 
  -2   1  13    5.37    0.71 
   2   1 -13    5.61    0.73 
  -2   1  13    5.58    0.74 
  -1  -1  13  130.97    8.03 
  -1  -1  13  135.74    6.29 
   1  -1 -13  137.81    6.16 
   1   1 -13  139.74    6.05 
  -1   1  13  149.99    8.58 
  -1   1  13  128.24    6.12 
  -1   1  13  126.65    5.89 
   0  -1 -13   77.79    3.98 
   0  -1  13   79.42    4.04 
   0  -1  13   78.24    5.39 
   0   1  13   85.10    4.19 
   0   1 -13   85.24    3.99 
   0   1  13   69.34    5.43 
   0   1  13   84.26    4.31 
   1  -1  13   32.58    2.08 
  -1  -1 -13   34.74    1.89 
  -1  -1 -13   34.57    2.10 
  -1   1 -13   34.71    2.06 
   1   1  13   35.66    2.09 
   1   1  13   33.99    3.24 
   2  -1  13   11.40    1.40 
  -2  -1 -13    9.67    0.78 
  -2  -1 -13    9.34    0.87 
   2   1  13    7.60    1.26 
  -2   1 -13    9.07    1.07 
   2   1  13   10.24    1.03 
  -5  -2  13    5.68    0.57 
  -5  -2  13    6.19    0.77 
   5  -2 -13    6.56    0.60 
  -5   2  13    4.88    1.02 
  -5   2  13    6.37    0.67 
   5   2 -13    6.90    0.55 
  -4  -2  13    7.64    0.93 
  -4  -2  13    7.59    1.49 
   4  -2 -13    7.98    0.75 
  -4  -2  13    6.25    1.29 
  -4  -2  13    8.04    0.75 
  -4   2  13    7.91    0.82 
  -4   2  13    8.01    0.80 
  -4   2  13    7.09    1.51 
   4   2 -13    8.66    0.70 
  -4   2  13    5.92    1.26 
   3  -2 -13   94.44    4.34 
  -3  -2  13   94.73    4.16 
  -3  -2  13   86.07    5.97 
  -3  -2  13   87.24    6.12 
  -3   2  13   97.09    4.37 
  -3   2  13   79.47    5.65 
   3   2 -13   93.64    3.90 
  -3   2  13   89.04    7.96 
  -3   2  13   97.51    4.40 
   2  -2 -13    7.32    0.87 
  -2  -2  13    7.48    1.79 
  -2  -2  13    7.02    1.76 
  -2  -2  13    6.45    0.91 
  -2   2  13    7.69    0.97 
  -2   2  13    8.76    0.96 
  -2   2  13    6.90    0.78 
   2   2 -13    6.08    1.31 
  -2   2  13    7.89    1.66 
   1  -2 -13   36.47    2.18 
  -1  -2  13   36.35    2.32 
  -1  -2  13   28.42    2.90 
  -1  -2  13   30.60    3.39 
  -1   2  13   33.26    3.49 
   1   2 -13   31.28    2.95 
  -1   2  13   34.74    2.01 
   0  -2 -13   51.71    2.63 
   0  -2  13   56.78    4.06 
   0   2  13   49.21    5.33 
   0   2  13   53.72    2.82 
   0   2 -13   53.86    2.80 
  -1  -2 -13   15.54    1.22 
   1  -2  13   15.46    1.24 
  -1  -2 -13   14.21    1.05 
   1   2  13   13.26    1.92 
  -1   2 -13   15.63    1.18 
   1   2  13   13.87    1.13 
  -2  -2 -13   13.49    0.94 
  -2  -2 -13   13.71    1.00 
   2  -2  13   14.02    1.04 
   2   2  13   13.01    0.96 
  -2   2 -13   13.66    1.01 
  -5  -3  13    5.13    0.41 
  -5  -3  13    4.59    0.93 
  -5  -3  13    4.99    0.62 
  -5  -3  13    3.49    0.78 
  -5   3  13    5.23    0.57 
   5   3 -13    4.63    0.92 
  -5   3  13    3.47    0.72 
   4  -3 -13    3.54    0.54 
  -4  -3  13    2.21    0.89 
  -4  -3  13    2.24    0.89 
   4   3 -13    3.03    0.89 
  -4   3  13    1.51    0.91 
  -4   3  13    2.55    0.52 
  -4   3  13    2.40    1.35 
  -3  -3  13    4.27    1.08 
   3  -3 -13    5.67    0.70 
   3  -3 -13    4.75    0.60 
  -3  -3  13    5.52    0.82 
  -3  -3  13    4.03    1.00 
  -3   3  13    4.09    1.17 
  -3   3  13    4.64    0.67 
  -3   3  13    4.98    0.67 
  -3   3  13    5.47    0.63 
  -3   3  13    3.96    0.99 
   3   3 -13    4.26    1.09 
   2  -3 -13   40.94    2.34 
  -2  -3  13   34.42    3.34 
  -2  -3  13   31.69    3.05 
  -2  -3  13   40.18    2.55 
  -2   3  13   41.30    2.24 
   2   3 -13   31.21    3.15 
  -2   3  13   41.47    3.83 
  -2   3  13   39.67    2.22 
  -1  -3  13   20.04    1.61 
   1  -3 -13   18.09    1.26 
   1  -3 -13   21.42    1.67 
   1   3 -13   20.40    1.35 
  -1   3  13   21.42    1.57 
  -1   3  13   18.39    2.43 
   1   3 -13   16.51    2.06 
   0  -3 -13    2.22    0.43 
   0  -3 -13    1.17    0.42 
   0  -3  13    2.74    0.55 
   0   3  13    1.56    0.66 
   0   3  13    1.80    0.40 
   0   3 -13    1.98    0.42 
   1  -3  13    1.30    0.39 
  -1  -3 -13    1.50    0.39 
   1   3  13    1.12    0.36 
   1   3  13    1.08    0.60 
   1   3  13    1.26    0.33 
   2  -3  13    6.11    0.85 
  -2  -3 -13    8.41    0.68 
  -2  -3 -13    7.17    0.65 
  -2   3 -13    8.73    0.69 
   2   3  13    8.13    0.63 
   2   3  13    6.58    1.13 
   4  -4 -13    6.83    0.58 
  -4  -4  13    6.83    0.81 
   4  -4 -13    6.09    0.65 
  -4  -4  13    5.96    1.13 
   4   4 -13    7.09    1.22 
  -4   4  13    5.25    1.11 
  -4   4  13    7.33    0.62 
  -4   4  13    6.60    0.70 
  -3  -4  13    0.24    0.26 
   3  -4 -13    0.23    0.29 
  -3  -4  13    0.44    0.41 
  -3   4  13    0.37    0.21 
  -3   4  13    0.24    0.22 
  -3   4  13    0.52    0.57 
   3   4 -13    0.03    0.35 
  -3   4  13    0.35    0.40 
  -2  -4  13    8.68    1.01 
   2  -4 -13    8.53    0.88 
  -2   4  13    9.41    0.87 
  -2   4  13    8.52    0.86 
  -2   4  13    7.52    1.46 
  -2   4  13    8.99    0.86 
   2   4 -13    7.80    1.39 
  -1  -4  13    7.27    0.88 
   1  -4 -13    5.89    0.75 
  -1   4  13    4.76    1.17 
  -1   4  13    6.18    0.73 
   1   4 -13    5.27    1.15 
  -1   4  13    6.93    0.76 
   0  -4  13    6.94    0.81 
   0  -4 -13    7.58    0.83 
   0  -4 -13    7.99    1.13 
   0   4 -13    7.63    0.72 
   0   4  13    7.87    0.74 
   0   4  13    5.33    1.23 
   0   4  13    6.76    0.71 
  -1  -4 -13   53.82    2.55 
   1  -4  13   49.93    2.53 
  -1   4 -13   51.84    2.43 
   4  -5 -13    7.32    0.63 
  -4   5  13    7.81    0.61 
   3  -5 -13   34.61    1.89 
  -3  -5  13   34.09    1.96 
   3   5 -13   29.31    2.64 
  -3   5  13   34.81    1.79 
  -3   5  13   33.41    1.81 
  -2  -5  13   11.00    0.99 
  -2   5  13   10.95    0.94 
   2   5 -13    9.02    1.41 
   1  -5 -13    2.32    0.41 
  -1  -5  13    2.45    0.49 
   1  -5 -13    3.38    0.57 
  -1   5  13    2.64    0.50 
  -1   5  13    2.80    0.44 
   0  -5  13    3.67    0.59 
   0  -5 -13    2.90    0.45 
   0  -5 -13    4.00    0.52 
   0   5  13    3.11    0.47 
  -1  -5 -13   14.96    0.92 
   1   5  13   14.93    1.56 
   2  -6 -13   36.18    2.24 
  -2  -6  13   37.69    1.93 
  -2   6  13   32.25    1.88 
   1  -6 -13    4.50    0.42 
   1  -6 -13    3.43    0.40 
   1   6 -13    2.84    0.62 
  -1   6  13    4.40    0.59 
  -5   0  14    0.87    0.43 
  -5   0  14    0.55    0.37 
   5   0 -14    0.85    0.28 
  -5   0  14    1.53    0.41 
  -4   0  14   12.16    1.04 
  -4   0  14   10.12    1.07 
  -4   0  14   11.66    0.91 
  -4   0  14   11.03    1.75 
   4   0 -14   11.84    0.85 
  -4   0  14   14.00    2.17 
  -3   0  14    0.21    0.36 
  -3   0  14    0.39    0.47 
  -3   0  14    0.77    0.41 
  -3   0  14   -0.22    0.28 
   3   0 -14   -0.16    0.32 
  -3   0  14   -0.36    0.22 
   2   0 -14    4.94    0.66 
  -2   0  14    6.56    0.81 
  -2   0  14    5.49    1.34 
  -2   0  14    6.39    0.75 
  -2   0  14    5.85    1.19 
   1   0 -14   73.85    3.52 
  -1   0  14   74.82    3.38 
  -1   0  14   63.28    4.91 
  -1   0  14   73.03    3.68 
   0   0 -14   -0.18    0.21 
   0   0  14    0.08    0.22 
   0   0  14    0.54    0.42 
   1   0  14   23.53    2.15 
  -1   0 -14   29.28    2.04 
   2   0  14    0.33    0.27 
  -2   0 -14   -0.09    0.23 
  -5  -1  14    2.86    0.72 
  -5  -1  14    3.51    0.39 
  -5  -1  14    3.67    0.79 
  -5   1  14    4.42    0.47 
  -5   1  14    2.69    0.76 
  -4  -1  14    0.22    0.24 
   4  -1 -14    0.31    0.21 
  -4  -1  14    0.44    0.24 
  -4  -1  14    0.36    0.39 
  -4   1  14    0.31    0.24 
  -4   1  14    0.04    0.26 
   4   1 -14   -0.14    0.20 
  -4   1  14   -0.19    0.26 
  -3  -1  14    0.09    0.35 
  -3  -1  14    1.06    0.31 
  -3  -1  14    0.20    0.41 
   3  -1 -14   -0.12    0.34 
  -3  -1  14    0.45    0.33 
  -3   1  14   -0.07    0.26 
  -3   1  14    0.38    0.43 
  -3   1  14    0.41    0.23 
  -3   1  14    0.15    0.40 
  -2  -1  14    3.71    1.11 
   2  -1 -14    4.64    0.66 
  -2  -1  14    3.58    0.98 
  -2  -1  14    5.41    0.75 
  -2   1  14    5.64    0.65 
  -2   1  14    4.41    1.17 
   2   1 -14    3.18    0.93 
  -2   1  14    5.09    0.69 
   2   1 -14    4.63    0.64 
  -2   1  14    4.09    0.68 
  -1  -1  14   40.32    2.40 
   1  -1 -14   43.05    2.31 
  -1   1  14   37.71    2.27 
   1   1 -14   36.35    2.11 
  -1   1  14   37.54    3.55 
   0  -1 -14   48.00    2.56 
   0  -1  14   47.02    2.64 
   0   1 -14   49.05    2.52 
   0   1  14   44.75    2.50 
  -1  -1 -14    3.42    0.58 
  -1  -1 -14    3.73    0.65 
   1  -1  14    2.63    0.48 
  -1   1 -14    3.37    0.50 
   1   1  14    2.81    0.44 
  -4  -2  14    5.37    1.08 
   4  -2 -14    7.96    0.84 
  -4  -2  14    6.96    1.22 
  -4  -2  14    7.82    0.81 
  -4   2  14    6.93    1.28 
  -4   2  14    5.75    1.06 
   4   2 -14    5.09    1.10 
  -4   2  14    7.01    0.70 
  -3  -2  14    2.35    0.88 
  -3  -2  14    1.90    0.72 
  -3  -2  14    2.09    0.53 
   3  -2 -14    1.75    0.51 
  -3   2  14    1.96    0.77 
   3   2 -14    2.25    0.82 
  -3   2  14    2.23    0.74 
  -3   2  14    2.95    0.50 
  -3   2  14    2.58    0.50 
  -2  -2  14    8.25    1.46 
   2  -2 -14   11.96    1.02 
  -2  -2  14   11.06    1.10 
  -2  -2  14   10.82    1.56 
   2   2 -14    9.76    1.48 
  -2   2  14    9.52    1.70 
  -2   2  14   11.12    0.95 
  -2   2  14    9.91    0.89 
  -1  -2  14   82.27    4.10 
   1  -2 -14   84.83    3.98 
   1   2 -14   96.10    4.44 
  -1   2  14   77.50    3.77 
  -1   2  14   75.37    5.43 
   0  -2 -14   60.45    3.01 
   0  -2  14   60.18    3.11 
   0   2  14   58.68    4.32 
   0   2  14   56.72    2.87 
  -1  -2 -14    6.76    0.58 
   1  -2  14    7.35    0.77 
  -1  -2 -14    8.16    0.77 
  -1   2 -14    7.52    0.70 
   1   2  14    6.15    1.06 
   1   2  14    7.11    0.66 
  -4  -3  14    4.28    0.78 
  -4  -3  14    3.19    0.78 
  -4  -3  14    4.85    0.64 
   4  -3 -14    4.53    0.51 
  -4   3  14    2.67    0.78 
  -4   3  14    3.32    0.76 
  -4   3  14    4.90    0.52 
   4   3 -14    3.86    0.86 
  -3  -3  14    4.41    1.03 
   3  -3 -14    5.29    0.62 
  -3  -3  14    4.03    0.85 
  -3  -3  14    3.46    0.89 
  -3   3  14    3.72    0.66 
  -3   3  14    4.55    0.59 
  -3   3  14    4.33    1.06 
   3   3 -14    4.71    1.00 
  -2  -3  14   35.29    2.12 
   2  -3 -14   32.48    1.89 
  -2   3  14   33.57    1.87 
  -2   3  14   30.18    2.99 
   2   3 -14   28.85    2.63 
   1  -3 -14    4.01    0.65 
  -1  -3  14    5.85    0.77 
  -1   3  14    4.96    1.14 
  -1   3  14    6.14    0.62 
   0  -3 -14   34.63    2.03 
   0  -3  14   33.12    1.98 
   0   3 -14   33.36    1.73 
   1  -3  14    4.31    0.71 
  -1  -3 -14    5.66    0.62 
  -1  -3 -14    4.27    0.45 
  -1   3 -14    5.15    0.62 
  -3  -4  14    9.40    0.89 
   3  -4 -14    8.38    0.76 
  -3   4  14    9.78    0.78 
  -2  -4  14    2.59    0.48 
   2  -4 -14    2.00    0.40 
  -2   4  14    2.33    0.43 
   2   4 -14    1.39    0.65 
  -2   4  14    1.47    0.59 
  -1  -4  14    8.92    0.86 
   1  -4 -14    7.93    0.77 
  -1   4  14    5.63    1.11 
  -1   4  14    7.82    0.65 
   1   4 -14    7.11    1.01 
   0  -4 -14   11.24    0.74 
   0  -4  14   12.99    1.17 
   0  -4 -14   11.43    0.87 
   2  -5 -14    3.12    0.51 
  -2  -5  14    4.31    0.51 
  -2   5  14    4.62    0.48 
   1  -5 -14    9.00    0.78 
  -1  -5  14   10.20    0.77 
  -1   5  14    9.23    0.65 
  -4   0  15    1.18    0.30 
  -4   0  15    0.92    0.45 
  -4   0  15    1.19    0.45 
  -3   0  15    0.31    0.36 
  -3   0  15    0.65    0.27 
  -3   0  15    0.18    0.33 
   3   0 -15    0.13    0.49 
  -2   0  15    2.63    0.54 
   2   0 -15    3.70    0.50 
   1   0 -15    0.48    0.21 
  -1   0  15    0.33    0.23 
  -1   0  15    0.12    0.30 
   0   0 -15   18.76    1.19 
   0   0  15   17.31    1.22 
  -4  -1  15   12.85    1.49 
  -4  -1  15   12.20    1.53 
  -4   1  15   10.49    1.41 
   4   1 -15    9.40    1.61 
   3  -1 -15    0.18    0.37 
  -3  -1  15    0.58    0.41 
  -3  -1  15    0.76    0.52 
  -3  -1  15    1.04    0.34 
   3  -1 -15    1.13    0.26 
   3   1 -15    1.14    0.45 
  -3   1  15    1.32    0.34 
  -3   1  15    0.64    0.39 
  -2  -1  15    3.27    0.85 
  -2  -1  15    5.07    0.67 
   2  -1 -15    4.62    0.51 
  -2   1  15    4.01    0.56 
  -2   1  15    3.09    1.10 
  -1  -1  15   35.57    2.04 
   1  -1 -15   36.65    1.92 
   1   1 -15   35.00    1.81 
  -1   1  15   34.32    1.92 
   0  -1 -15    0.44    0.21 
   0  -1  15    0.40    0.22 
   0   1 -15    0.46    0.21 
   0   1  15    0.33    0.33 
   0   1  15    0.75    0.25 
  -3  -2  15   16.94    1.77 
  -3  -2  15   15.27    1.66 
  -3   2  15   14.81    1.75 
   2  -2 -15   15.97    1.07 
  -2  -2  15   16.11    1.24 
   2   2 -15   14.70    1.42 
  -2   2  15   16.08    0.93 
   1  -2 -15   42.27    2.15 
  -1  -2  15   41.32    2.27 
   1   2 -15   40.81    1.94 
   0  -2 -15   24.58    1.42 
   0   2 -15   24.51    1.29 
   3  -3 -15    0.75    0.19 
  -3  -3  15    0.65    0.27 
  -3   3  15    0.60    0.21 
   3   3 -15    0.32    0.31 
  -3   3  15    0.17    0.36 
  -2  -3  15   13.76    1.06 
   2  -3 -15   14.09    0.97 
  -2   3  15   13.47    0.81 
   1  -3 -15    4.93    0.54 
  -1  -3  15    5.12    0.59 
  -1   3  15    3.62    0.80 
  -2   0  16    0.98    0.26 
  -2   0  16    1.13    0.41 
   0   0   0    0.00    0.00 
;
_shelx_hkl_checksum              5660
loop_
_space_group_symop_operation_xyz
'x, y, z'
'-x, y+1/2, -z'
loop_
_atom_site_label
_atom_site_type_symbol
_atom_site_fract_x
_atom_site_fract_y
_atom_site_fract_z
_atom_site_U_iso_or_equiv
_atom_site_adp_type
_atom_site_occupancy
_atom_site_site_symmetry_order
_atom_site_calc_flag
_atom_site_refinement_flags_posn
_atom_site_refinement_flags_adp
_atom_site_refinement_flags_occupancy
_atom_site_disorder_assembly
_atom_site_disorder_group
O1 O 0.4932(2) 0.39864(17) 0.13416(10) 0.0512(4) Uani 1 1 d . . . . .
N1 N 0.2084(2) 0.36391(18) 0.20724(12) 0.0420(4) Uani 1 1 d . . . . .
N2 N 0.4810(2) 0.19463(17) 0.37216(12) 0.0391(4) Uani 1 1 d . . . . .
C1 C 0.1003(3) 0.6289(2) 0.14441(14) 0.0420(4) Uani 1 1 d . . . . .
C2 C -0.0331(3) 0.6859(3) 0.20495(16) 0.0524(5) Uani 1 1 d . . . . .
H2 H -0.1267 0.6200 0.2290 0.063 Uiso 1 1 calc R U . . .
C3 C -0.0254(4) 0.8422(3) 0.22918(18) 0.0638(6) Uani 1 1 d . . . . .
H3 H -0.1148 0.8821 0.2695 0.077 Uiso 1 1 calc R U . . .
C4 C 0.1153(4) 0.9396(3) 0.19359(19) 0.0645(6) Uani 1 1 d . . . . .
H4 H 0.1206 1.0444 0.2108 0.077 Uiso 1 1 calc R U . . .
C5 C 0.2471(4) 0.8828(3) 0.13314(18) 0.0587(6) Uani 1 1 d . . . . .
H5 H 0.3410 0.9489 0.1095 0.070 Uiso 1 1 calc R U . . .
C6 C 0.2393(3) 0.7262(2) 0.10754(14) 0.0475(5) Uani 1 1 d . . . . .
C7 C 0.3621(4) 0.6389(3) 0.04085(18) 0.0598(6) Uani 1 1 d . . . . .
H7A H 0.5164 0.6598 0.0633 0.072 Uiso 1 1 calc R U . . .
H7B H 0.3114 0.6671 -0.0325 0.072 Uiso 1 1 calc R U . . .
C8 C 0.3143(3) 0.4688(3) 0.05790(14) 0.0511(5) Uani 1 1 d . . . . .
H8 H 0.2797 0.4109 -0.0083 0.061 Uiso 1 1 calc R U . . .
C9 C 0.1270(3) 0.4623(2) 0.11408(14) 0.0438(4) Uani 1 1 d . . . . .
H9 H -0.0064 0.4206 0.0685 0.053 Uiso 1 1 calc R U . . .
C10 C 0.4063(3) 0.34015(19) 0.21205(13) 0.0378(4) Uani 1 1 d . . . . .
C11 C 0.5637(3) 0.26025(19) 0.29733(13) 0.0366(4) Uani 1 1 d . . . . .
C12 C 0.7830(3) 0.2615(2) 0.30024(15) 0.0467(5) Uani 1 1 d . . . . .
H12 H 0.8338 0.3069 0.2464 0.056 Uiso 1 1 calc R U . . .
C13 C 0.9243(3) 0.1938(3) 0.38486(17) 0.0546(5) Uani 1 1 d . . . . .
H13 H 1.0727 0.1930 0.3894 0.066 Uiso 1 1 calc R U . . .
C14 C 0.8422(3) 0.1277(3) 0.46244(17) 0.0542(5) Uani 1 1 d . . . . .
H14 H 0.9349 0.0823 0.5205 0.065 Uiso 1 1 calc R U . . .
C15 C 0.6187(3) 0.1291(2) 0.45342(15) 0.0435(4) Uani 1 1 d . . . . .
C16 C 0.5219(4) 0.0614(3) 0.53744(17) 0.0563(5) Uani 1 1 d . . . . .
H16A H 0.6270 -0.0074 0.5811 0.068 Uiso 1 1 calc R U . . .
H16B H 0.3958 0.0000 0.5047 0.068 Uiso 1 1 calc R U . . .
C17 C 0.4556(4) 0.1836(3) 0.60576(17) 0.0637(6) Uani 1 1 d . . . . .
H17A H 0.3473 0.2496 0.5634 0.096 Uiso 1 1 calc R U . . .
H17B H 0.5799 0.2445 0.6387 0.096 Uiso 1 1 calc R U . . .
H17C H 0.3973 0.1344 0.6587 0.096 Uiso 1 1 calc R U . . .
loop_
_atom_site_aniso_label
_atom_site_aniso_U_11
_atom_site_aniso_U_22
_atom_site_aniso_U_33
_atom_site_aniso_U_23
_atom_site_aniso_U_13
_atom_site_aniso_U_12
O1 0.0523(7) 0.0643(9) 0.0428(7) 0.0113(6) 0.0225(6) 0.0096(6)
N1 0.0376(7) 0.0409(8) 0.0472(8) 0.0051(6) 0.0096(6) -0.0024(6)
N2 0.0391(7) 0.0367(7) 0.0438(8) 0.0019(6) 0.0141(6) 0.0005(6)
C1 0.0398(9) 0.0433(10) 0.0387(8) 0.0029(7) 0.0015(7) -0.0010(7)
C2 0.0492(10) 0.0511(11) 0.0577(11) 0.0024(9) 0.0144(9) 0.0000(9)
C3 0.0689(14) 0.0564(14) 0.0662(14) -0.0065(11) 0.0164(11) 0.0076(11)
C4 0.0734(14) 0.0441(11) 0.0686(14) -0.0042(10) 0.0023(11) -0.0006(10)
C5 0.0623(12) 0.0475(11) 0.0600(12) 0.0113(10) 0.0023(9) -0.0113(10)
C6 0.0471(10) 0.0513(12) 0.0408(9) 0.0109(8) 0.0040(7) -0.0015(8)
C7 0.0646(12) 0.0660(14) 0.0526(11) 0.0185(10) 0.0216(9) 0.0037(10)
C8 0.0604(12) 0.0587(12) 0.0345(8) 0.0016(8) 0.0122(8) 0.0063(9)
C9 0.0418(9) 0.0454(10) 0.0402(9) -0.0010(8) 0.0022(7) -0.0026(7)
C10 0.0415(9) 0.0372(9) 0.0375(8) -0.0026(7) 0.0146(7) -0.0034(7)
C11 0.0365(8) 0.0346(8) 0.0410(8) -0.0029(7) 0.0136(6) -0.0005(7)
C12 0.0412(9) 0.0506(10) 0.0522(10) 0.0002(9) 0.0192(8) -0.0006(8)
C13 0.0341(9) 0.0668(13) 0.0633(12) 0.0000(10) 0.0125(8) 0.0045(9)
C14 0.0454(10) 0.0614(12) 0.0530(11) 0.0064(10) 0.0061(8) 0.0095(9)
C15 0.0467(9) 0.0386(9) 0.0458(9) 0.0031(8) 0.0123(7) 0.0039(7)
C16 0.0603(12) 0.0555(12) 0.0541(11) 0.0173(9) 0.0157(10) 0.0036(9)
C17 0.0649(13) 0.0824(16) 0.0480(11) 0.0071(11) 0.0216(10) 0.0017(11)
loop_
_atom_type_symbol
_atom_type_description
_atom_type_scat_dispersion_real
_atom_type_scat_dispersion_imag
_atom_type_scat_source
C C 0.0181 0.0091 'International Tables Vol C Tables 4.2.6.8 and 6.1.1.4'
H H 0.0000 0.0000 'International Tables Vol C Tables 4.2.6.8 and 6.1.1.4'
N N 0.0311 0.0180 'International Tables Vol C Tables 4.2.6.8 and 6.1.1.4'
O O 0.0492 0.0322 'International Tables Vol C Tables 4.2.6.8 and 6.1.1.4'
loop_
_geom_angle_atom_site_label_1
_geom_angle_atom_site_label_2
_geom_angle_atom_site_label_3
_geom_angle
_geom_angle_site_symmetry_1
_geom_angle_site_symmetry_3
_geom_angle_publ_flag
C10 O1 C8 106.19(14) . . ?
C10 N1 C9 106.38(14) . . ?
C15 N2 C11 117.86(14) . . ?
C2 C1 C6 121.02(17) . . ?
C2 C1 C9 127.71(17) . . ?
C6 C1 C9 111.20(16) . . ?
C1 C2 C3 119.0(2) . . ?
C1 C2 H2 120.5 . . ?
C3 C2 H2 120.5 . . ?
C2 C3 C4 120.2(2) . . ?
C2 C3 H3 119.9 . . ?
C4 C3 H3 119.9 . . ?
C5 C4 C3 120.7(2) . . ?
C5 C4 H4 119.7 . . ?
C3 C4 H4 119.7 . . ?
C4 C5 C6 119.6(2) . . ?
C4 C5 H5 120.2 . . ?
C6 C5 H5 120.2 . . ?
C1 C6 C5 119.5(2) . . ?
C1 C6 C7 111.28(17) . . ?
C5 C6 C7 129.25(19) . . ?
C6 C7 C8 104.25(16) . . ?
C6 C7 H7A 110.9 . . ?
C8 C7 H7A 110.9 . . ?
C6 C7 H7B 110.9 . . ?
C8 C7 H7B 110.9 . . ?
H7A C7 H7B 108.9 . . ?
O1 C8 C7 110.55(18) . . ?
O1 C8 C9 102.73(14) . . ?
C7 C8 C9 107.98(17) . . ?
O1 C8 H8 111.7 . . ?
C7 C8 H8 111.7 . . ?
C9 C8 H8 111.7 . . ?
N1 C9 C1 111.54(14) . . ?
N1 C9 C8 105.06(14) . . ?
C1 C9 C8 103.83(15) . . ?
N1 C9 H9 112.0 . . ?
C1 C9 H9 112.0 . . ?
C8 C9 H9 112.0 . . ?
N1 C10 O1 118.60(16) . . ?
N1 C10 C11 126.73(15) . . ?
O1 C10 C11 114.60(14) . . ?
N2 C11 C12 123.35(16) . . ?
N2 C11 C10 115.94(14) . . ?
C12 C11 C10 120.65(15) . . ?
C13 C12 C11 118.36(17) . . ?
C13 C12 H12 120.8 . . ?
C11 C12 H12 120.8 . . ?
C14 C13 C12 118.90(17) . . ?
C14 C13 H13 120.6 . . ?
C12 C13 H13 120.6 . . ?
C13 C14 C15 119.49(18) . . ?
C13 C14 H14 120.3 . . ?
C15 C14 H14 120.3 . . ?
N2 C15 C14 122.03(17) . . ?
N2 C15 C16 116.55(16) . . ?
C14 C15 C16 121.39(18) . . ?
C15 C16 C17 112.77(19) . . ?
C15 C16 H16A 109.0 . . ?
C17 C16 H16A 109.0 . . ?
C15 C16 H16B 109.0 . . ?
C17 C16 H16B 109.0 . . ?
H16A C16 H16B 107.8 . . ?
C16 C17 H17A 109.5 . . ?
C16 C17 H17B 109.5 . . ?
H17A C17 H17B 109.5 . . ?
C16 C17 H17C 109.5 . . ?
H17A C17 H17C 109.5 . . ?
H17B C17 H17C 109.5 . . ?
loop_
_geom_bond_atom_site_label_1
_geom_bond_atom_site_label_2
_geom_bond_distance
_geom_bond_site_symmetry_2
_geom_bond_publ_flag
O1 C10 1.369(2) . ?
O1 C8 1.453(2) . ?
N1 C10 1.260(2) . ?
N1 C9 1.476(2) . ?
N2 C15 1.331(2) . ?
N2 C11 1.344(2) . ?
C1 C2 1.383(3) . ?
C1 C6 1.386(3) . ?
C1 C9 1.511(3) . ?
C2 C3 1.382(3) . ?
C2 H2 0.9300 . ?
C3 C4 1.386(3) . ?
C3 H3 0.9300 . ?
C4 C5 1.374(3) . ?
C4 H4 0.9300 . ?
C5 C6 1.389(3) . ?
C5 H5 0.9300 . ?
C6 C7 1.506(3) . ?
C7 C8 1.524(3) . ?
C7 H7A 0.9700 . ?
C7 H7B 0.9700 . ?
C8 C9 1.544(3) . ?
C8 H8 0.9800 . ?
C9 H9 0.9800 . ?
C10 C11 1.479(2) . ?
C11 C12 1.384(2) . ?
C12 C13 1.378(3) . ?
C12 H12 0.9300 . ?
C13 C14 1.374(3) . ?
C13 H13 0.9300 . ?
C14 C15 1.395(3) . ?
C14 H14 0.9300 . ?
C15 C16 1.503(3) . ?
C16 C17 1.507(4) . ?
C16 H16A 0.9700 . ?
C16 H16B 0.9700 . ?
C17 H17A 0.9600 . ?
C17 H17B 0.9600 . ?
C17 H17C 0.9600 . ?
loop_
_geom_torsion_atom_site_label_1
_geom_torsion_atom_site_label_2
_geom_torsion_atom_site_label_3
_geom_torsion_atom_site_label_4
_geom_torsion
_geom_torsion_site_symmetry_1
_geom_torsion_site_symmetry_2
_geom_torsion_site_symmetry_3
_geom_torsion_site_symmetry_4
_geom_torsion_publ_flag
C6 C1 C2 C3 -0.4(3) . . . . ?
C9 C1 C2 C3 176.25(19) . . . . ?
C1 C2 C3 C4 -0.4(3) . . . . ?
C2 C3 C4 C5 0.6(3) . . . . ?
C3 C4 C5 C6 -0.1(3) . . . . ?
C2 C1 C6 C5 1.0(3) . . . . ?
C9 C1 C6 C5 -176.21(17) . . . . ?
C2 C1 C6 C7 -178.14(17) . . . . ?
C9 C1 C6 C7 4.7(2) . . . . ?
C4 C5 C6 C1 -0.7(3) . . . . ?
C4 C5 C6 C7 178.2(2) . . . . ?
C1 C6 C7 C8 -10.5(2) . . . . ?
C5 C6 C7 C8 170.44(19) . . . . ?
C10 O1 C8 C7 123.47(16) . . . . ?
C10 O1 C8 C9 8.46(19) . . . . ?
C6 C7 C8 O1 -99.47(18) . . . . ?
C6 C7 C8 C9 12.2(2) . . . . ?
C10 N1 C9 C1 -103.71(18) . . . . ?
C10 N1 C9 C8 8.15(18) . . . . ?
C2 C1 C9 N1 -61.1(2) . . . . ?
C6 C1 C9 N1 115.83(16) . . . . ?
C2 C1 C9 C8 -173.75(17) . . . . ?
C6 C1 C9 C8 3.20(19) . . . . ?
O1 C8 C9 N1 -10.04(19) . . . . ?
C7 C8 C9 N1 -126.89(16) . . . . ?
O1 C8 C9 C1 107.20(16) . . . . ?
C7 C8 C9 C1 -9.7(2) . . . . ?
C9 N1 C10 O1 -3.0(2) . . . . ?
C9 N1 C10 C11 173.81(16) . . . . ?
C8 O1 C10 N1 -4.0(2) . . . . ?
C8 O1 C10 C11 178.88(15) . . . . ?
C15 N2 C11 C12 0.7(3) . . . . ?
C15 N2 C11 C10 -176.30(15) . . . . ?
N1 C10 C11 N2 6.4(2) . . . . ?
O1 C10 C11 N2 -176.69(14) . . . . ?
N1 C10 C11 C12 -170.63(18) . . . . ?
O1 C10 C11 C12 6.3(2) . . . . ?
N2 C11 C12 C13 -0.9(3) . . . . ?
C10 C11 C12 C13 175.94(18) . . . . ?
C11 C12 C13 C14 0.2(3) . . . . ?
C12 C13 C14 C15 0.6(3) . . . . ?
C11 N2 C15 C14 0.2(3) . . . . ?
C11 N2 C15 C16 178.06(16) . . . . ?
C13 C14 C15 N2 -0.8(3) . . . . ?
C13 C14 C15 C16 -178.6(2) . . . . ?
N2 C15 C16 C17 -74.8(2) . . . . ?
C14 C15 C16 C17 103.1(2) . . . . ?
