#------------------------------------------------------------------------------
#$Date: 2020-08-05 01:43:58 +0300 (Wed, 05 Aug 2020) $
#$Revision: 254794 $
#$URL: file:///home/coder/svn-repositories/cod/cif/4/13/51/4135129.cif $
#------------------------------------------------------------------------------
#
# This file is available in the Crystallography Open Database (COD),
# http://www.crystallography.net/
#
# All data on this site have been placed in the public domain by the
# contributors.
#
data_4135129
loop_
_publ_author_name
'Andres, R\'emi'
'Wang, Qian'
'Zhu, Jieping'
_publ_section_title
;
 Asymmetric Total Synthesis of (-)-Arborisidine and
 (-)-19-epi-Arborisidine Enabled by a Catalytic Enantioselective
 Pictet-Spengler Reaction.
;
_journal_name_full               'Journal of the American Chemical Society'
_journal_paper_doi               10.1021/jacs.0c05804
_journal_year                    2020
_chemical_absolute_configuration rmad
_chemical_formula_moiety         'C15 H18 N2 O'
_chemical_formula_sum            'C15 H18 N2 O'
_chemical_formula_weight         242.31
_space_group_crystal_system      monoclinic
_space_group_IT_number           4
_space_group_name_Hall           'P 2yb'
_space_group_name_H-M_alt        'P 1 21 1'
_atom_sites_solution_hydrogens   difmap
_atom_sites_solution_primary     dual
_atom_sites_solution_secondary   difmap
_audit_creation_date             2020-03-10
_audit_creation_method
;
Olex2 1.3-alpha
(compiled 2019.10.11 svn.r3662 for OlexSys, GUI svn.r5962)
;
_cell_angle_alpha                90
_cell_angle_beta                 107.116(3)
_cell_angle_gamma                90
_cell_formula_units_Z            2
_cell_length_a                   7.28461(18)
_cell_length_b                   8.30644(17)
_cell_length_c                   11.2310(3)
_cell_measurement_reflns_used    6915
_cell_measurement_temperature    140.00(10)
_cell_measurement_theta_max      72.4800
_cell_measurement_theta_min      4.0640
_cell_volume                     649.48(3)
_computing_cell_refinement       'CrysAlisPro 1.171.40.71a (Rigaku OD, 2020)'
_computing_data_collection       'CrysAlisPro 1.171.40.71a (Rigaku OD, 2020)'
_computing_data_reduction        'CrysAlisPro 1.171.40.71a (Rigaku OD, 2020)'
_computing_molecular_graphics    'Olex2 1.3-alpha (Dolomanov et al., 2009)'
_computing_publication_material  'Olex2 1.3-alpha (Dolomanov et al., 2009)'
_computing_structure_refinement  'ShelXL 2018/3 (Sheldrick, 2015)'
_computing_structure_solution    'ShelXT 2018/2 (Sheldrick, 2015)'
_diffrn_ambient_environment      N~2~
_diffrn_ambient_temperature      140.00(10)
_diffrn_detector                 'CCD plate'
_diffrn_detector_area_resol_mean 10.2665
_diffrn_detector_type            Atlas
_diffrn_measured_fraction_theta_full 1.000
_diffrn_measured_fraction_theta_max 0.992
_diffrn_measurement_details
;
List of Runs (angles in degrees, time in seconds):

  # Type    Start    End  Width  t~exp~   \w     \q     \k     \f   Frames
--------------------------------------------------------------------------
  1  \w     -4.00  21.00   1.00    1.00    --   34.00  91.00-117.25   25
  2  \w   -116.00 -80.00   1.00    1.00    --  -43.01 -37.00  30.00   36
  3  \w    -53.00 -19.00   1.00    1.00    --  -43.01 -37.00 150.00   34
  4  \w    -75.00 -21.00   1.00    1.00    --  -43.01 -37.00  30.00   54
  5  \w    -86.00  -7.00   1.00    1.00    --  -43.01 125.00   0.00   79
  6  \w      7.00  76.00   1.00    1.00    --   43.01 -99.00-120.00   69
  7  \w     12.00  38.00   1.00    1.00    --   46.00  81.00  63.67   26
  8  \w     13.00  41.00   1.00    1.00    --   46.00  80.00 -82.56   28
  9  \w     13.00  38.00   1.00    1.00    --   46.00  79.00 151.04   25
 10  \w     16.00  41.00   1.00    1.00    --   50.00  81.00 -24.83   25
 11  \w     16.00  42.00   1.00    1.00    --   50.00  81.00  32.67   26
 12  \w     23.00  54.00   1.00    1.00    --   54.00  71.00-176.99   31
 13  \w     27.00  65.00   1.00    1.00    --   58.00  74.00  68.08   38
 14  \w     29.00  74.00   1.00    1.00    --   58.00  73.00-104.27   45
 15  \w     81.00 133.00   1.00    1.00    --   58.00  73.00-104.27   52
 16  \w     90.00 115.00   1.00    1.00    --   58.00  74.00  68.08   25
 17  \w     32.00  60.00   1.00    1.00    --   62.00  72.00-142.03   28
 18  \w     36.00  67.00   1.00    1.00    --   66.00  67.00 123.50   31
 19  \w     79.00 138.00   1.00    1.00    --   66.00  67.00 123.50   59
 20  \w     94.00 135.00   1.00    1.00    --   70.00  74.00 -33.07   41
 21  \w     38.00  68.00   1.00    1.00    --   70.00  74.00 -33.07   30
 22  \w     44.00  81.00   1.00    4.00    --   74.00  73.00 149.67   37
 23  \w    106.00 143.00   1.00    4.00    --   78.00  68.00 -72.56   37
 24  \w     48.00  74.00   1.00    4.00    --   78.00  68.00 -72.56   26
 25  \w     52.00  90.00   1.00    4.00    --   78.00  55.00-109.92   38
 26  \w     52.00  93.00   1.00    4.00    --   82.00  68.00  34.34   41
 27  \w     58.00  85.00   1.00    4.00    --   86.00  62.00 -52.06   27
 28  \w     59.00  86.00   1.00    4.00    --   90.00  70.00 -18.48   27
 29  \w     66.00  99.00   1.00    4.00    --   94.00  57.00 157.48   33
 30  \w    125.00 157.00   1.00    4.00    --   94.00  57.00 157.48   32
 31  \w    105.00 160.00   1.00    4.00    --  103.80 111.00-150.00   55
 32  \w    108.00 178.00   1.00    4.00    --  103.80  77.00  30.00   70
 33  \w     21.00  90.00   1.00    4.00    --  103.80 -94.00-180.00   69
 34  \w     81.00 176.00   1.00    4.00    --  103.80  45.00 -30.00   95
 35  \w    148.00 176.00   1.00    4.00    --  103.80 111.00  90.00   28
 36  \w     22.00 103.00   1.00    4.00    --  103.80 -94.00  30.00   81
 37  \w     77.00 168.00   1.00    4.00    --  103.80  61.00 -90.00   91
 38  \w     75.00 136.00   1.00    4.00    --  103.80  61.00  30.00   61
 39  \w     76.00 143.00   1.00    4.00    --  103.80  61.00  90.00   67
 40  \w     75.00 148.00   1.00    4.00    --  103.80  61.00-150.00   73
 41  \w     37.00 106.00   1.00    4.00    --  103.80-111.00 150.00   69
 42  \w     75.00 172.00   1.00    4.00    --  103.80  61.00 120.00   97
 43  \w     76.00 107.00   1.00    4.00    --  103.80-111.00 -30.00   31
 44  \w     75.00 118.00   1.00    4.00    --  103.80  61.00-120.00   43
 45  \w     28.00  71.00   1.00    4.00    --  103.80-111.00 -30.00   43
 46  \w    133.00 176.00   1.00    4.00    --  103.80  61.00-180.00   43
 47  \w     75.00 110.00   1.00    4.00    --  103.80  61.00-180.00   35
 48  \w     76.00 101.00   1.00    4.00    --  103.80  60.00-160.35   25
 49  \w     78.00 119.00   1.00    4.00    --  103.80  61.00   0.00   41
 50  \w    135.00 161.00   1.00    4.00    --  103.80  61.00   0.00   26
 51  \w     77.00 102.00   1.00    4.00    --  103.80  61.00  60.00   25
 52  \w     30.00  97.00   1.00    4.00    --  103.80 -94.00-120.00   67
;
_diffrn_measurement_device       'four-circle diffractometer'
_diffrn_measurement_device_type  'SuperNova, Dual, Cu at home/near, Atlas'
_diffrn_measurement_method       '\w scans'
_diffrn_orient_matrix_type
'CrysAlisPro convention (1999,Acta A55,543-557)'
_diffrn_orient_matrix_UB_11      0.0071040000
_diffrn_orient_matrix_UB_12      -0.1479363000
_diffrn_orient_matrix_UB_13      0.0839145000
_diffrn_orient_matrix_UB_21      -0.1807660000
_diffrn_orient_matrix_UB_22      0.0604458000
_diffrn_orient_matrix_UB_23      0.0307567000
_diffrn_orient_matrix_UB_31      -0.1274865000
_diffrn_orient_matrix_UB_32      -0.0940563000
_diffrn_orient_matrix_UB_33      -0.1123241000
_diffrn_radiation_monochromator  mirror
_diffrn_radiation_probe          x-ray
_diffrn_radiation_type           'Cu K\a'
_diffrn_radiation_wavelength     1.54184
_diffrn_reflns_av_R_equivalents  0.0149
_diffrn_reflns_av_unetI/netI     0.0098
_diffrn_reflns_Laue_measured_fraction_full 1.000
_diffrn_reflns_Laue_measured_fraction_max 0.992
_diffrn_reflns_limit_h_max       9
_diffrn_reflns_limit_h_min       -9
_diffrn_reflns_limit_k_max       10
_diffrn_reflns_limit_k_min       -10
_diffrn_reflns_limit_l_max       13
_diffrn_reflns_limit_l_min       -13
_diffrn_reflns_number            9811
_diffrn_reflns_point_group_measured_fraction_full 0.999
_diffrn_reflns_point_group_measured_fraction_max 0.979
_diffrn_reflns_theta_full        67.684
_diffrn_reflns_theta_max         72.634
_diffrn_reflns_theta_min         4.119
_diffrn_source                   'micro-focus sealed X-ray tube'
_diffrn_source_type              'SuperNova (Cu) X-ray Source'
_exptl_absorpt_coefficient_mu    0.619
_exptl_absorpt_correction_T_max  1.000
_exptl_absorpt_correction_T_min  0.196
_exptl_absorpt_correction_type   gaussian
_exptl_absorpt_process_details
;
 CrysAlisPro 1.171.40.71a (Rigaku Oxford Diffraction, 2020)
 Numerical absorption correction based on Gaussian integration over
 a multifaceted crystal model.
 Empirical absorption correction using spherical harmonics
 as implemented in SCALE3 ABSPACK scaling algorithm
;
_exptl_crystal_colour            'clear colourless'
_exptl_crystal_density_diffrn    1.239
_exptl_crystal_description       plate
_exptl_crystal_F_000             260
_exptl_crystal_size_max          0.786
_exptl_crystal_size_mid          0.369
_exptl_crystal_size_min          0.115
_refine_diff_density_max         0.208
_refine_diff_density_min         -0.118
_refine_diff_density_rms         0.025
_refine_ls_abs_structure_details
;
 Flack x determined using 1144 quotients [(I+)-(I-)]/[(I+)+(I-)]
 (Parsons, Flack and Wagner, Acta Cryst. B69 (2013) 249-259).
;
_refine_ls_abs_structure_Flack   0.12(5)
_refine_ls_extinction_coef       0.0137(14)
_refine_ls_extinction_expression Fc^*^=kFc[1+0.001xFc^2^\l^3^/sin(2\q)]^-1/4^
_refine_ls_extinction_method     'SHELXL-2018/3 (Sheldrick 2018)'
_refine_ls_goodness_of_fit_ref   1.057
_refine_ls_hydrogen_treatment    refall
_refine_ls_matrix_type           full
_refine_ls_number_parameters     236
_refine_ls_number_reflns         2532
_refine_ls_number_restraints     1
_refine_ls_restrained_S_all      1.056
_refine_ls_R_factor_all          0.0239
_refine_ls_R_factor_gt           0.0239
_refine_ls_shift/su_max          0.000
_refine_ls_shift/su_mean         0.000
_refine_ls_structure_factor_coef Fsqd
_refine_ls_weighting_details
'w=1/[\s^2^(Fo^2^)+(0.0366P)^2^+0.0783P] where P=(Fo^2^+2Fc^2^)/3'
_refine_ls_weighting_scheme      calc
_refine_ls_wR_factor_gt          0.0623
_refine_ls_wR_factor_ref         0.0624
_reflns_Friedel_coverage         0.841
_reflns_Friedel_fraction_full    0.997
_reflns_Friedel_fraction_max     0.964
_reflns_number_gt                2521
_reflns_number_total             2532
_reflns_threshold_expression     'I > 2\s(I)'
_cod_data_source_file            ja0c05804_si_003.cif
_cod_data_source_block           randres-6rat89-15
_cod_depositor_comments
;
The following automatic conversions were performed:

data item '_exptl_absorpt_correction_type' value 'Gaussian' was
changed to 'gaussian' in accordance with the
/home/data/users/saulius/crontab/automatic-downloads/rss-feeds/ACS/lib/dictionaries/cif_core.dic
dictionary named 'cif_core.dic' version 2.4.2 last updated on
2011-04-26.

Automatic conversion script
Id: cif_fix_values 7556 2019-12-06 15:28:31Z antanas 
;
_cod_database_code               4135129
_shelx_shelxl_version_number     2018/3
_audit_contact_author            'Farzaneh Fadaei Tirani'
_chemical_oxdiff_formula         'C15 H18 N2 O'
_shelx_space_group_comment
;
The symmetry employed for this shelxl refinement is uniquely defined
by the following loop, which should always be used as a source of
symmetry information in preference to the above space-group names.
They are only intended as comments.
;
_shelx_estimated_absorpt_t_max   0.932
_shelx_estimated_absorpt_t_min   0.642
_reflns_odcompleteness_completeness 100.00
_reflns_odcompleteness_iscentric 1
_reflns_odcompleteness_theta     66.97
_olex2_refinement_description
;
;
_shelx_res_file
;
TITL randres-6rat89-15.res in P2(1)
    randres-6rat89-15.res
    created by SHELXL-2018/3 at 15:06:25 on 10-Mar-2020
CELL 1.54184 7.284613 8.306444 11.230971 90 107.1156 90
ZERR 2 0.000175 0.000166 0.000262 0 0.0025 0
LATT -1
SYMM -X,0.5+Y,-Z
SFAC C H N O
UNIT 30 36 4 2
EQIV $1 1-X,-0.5+Y,1-Z
EQIV $2 -X,0.5+Y,1-Z

L.S. 30
PLAN  10
SIZE 0.786 0.369 0.115
TEMP -133.15
CONF
HTAB N1 O1_$1
HTAB N2 N1_$2
BOND $H
MORE -1
fmap 2
acta
REM <olex2.extras>
REM <HklSrc "%.\\randres-6rat89-15.hkl">
REM </olex2.extras>

WGHT    0.036600    0.078300
EXTI    0.013724
FVAR      15.63534
O1    4    0.612374    0.507282    0.579866    11.00000    0.03004    0.04740 =
         0.03999    0.00537    0.01393   -0.00421
N1    3    0.231925    0.284579    0.535199    11.00000    0.02899    0.02900 =
         0.02763   -0.00595    0.00811   -0.00103
H1    2    0.287577    0.247806    0.477642    11.00000    0.03285
N2    3    0.161659    0.684928    0.671886    11.00000    0.03000    0.02391 =
         0.02416    0.00048    0.00291    0.00399
H2    2    0.068507    0.738264    0.618456    11.00000    0.04068
C1    1    0.165850    0.512582    0.642415    11.00000    0.02271    0.02316 =
         0.02256   -0.00162    0.00353   -0.00051
H1A   2    0.035132    0.468425    0.616276    11.00000    0.02403
C2    1    0.292280    0.440608    0.765992    11.00000    0.02493    0.02094 =
         0.02306    0.00020    0.00447   -0.00171
C3    1    0.253214    0.259584    0.761973    11.00000    0.03238    0.02157 =
         0.03023    0.00072    0.00927   -0.00288
H3A   2    0.117134    0.244238    0.755215    11.00000    0.02970
H3B   2    0.326695    0.204317    0.838187    11.00000    0.03572
C4    1    0.304179    0.186428    0.650115    11.00000    0.03178    0.02325 =
         0.03403   -0.00270    0.00890   -0.00205
H4A   2    0.445861    0.170332    0.673228    11.00000    0.02951
H4B   2    0.245968    0.080071    0.630853    11.00000    0.03769
C5    1    0.270872    0.460895    0.550183    11.00000    0.02508    0.02751 =
         0.02450   -0.00019    0.00509   -0.00051
C6    1    0.482088    0.485041    0.624407    11.00000    0.02659    0.02353 =
         0.02925    0.00212    0.00696   -0.00142
C7    1    0.502866    0.472361    0.762511    11.00000    0.02325    0.02435 =
         0.02684    0.00106    0.00353    0.00001
H7    2    0.582763    0.381293    0.796546    11.00000    0.03128
C8    1    0.215893    0.542744    0.424485    11.00000    0.03501    0.04086 =
         0.02370    0.00207    0.00537    0.00276
H8A   2    0.076866    0.519709    0.382495    11.00000    0.04261
H8B   2    0.238913    0.668620    0.434810    11.00000    0.04516
H8C   2    0.291463    0.489479    0.370077    11.00000    0.04525
C9    1    0.608332    0.619705    0.831808    11.00000    0.02839    0.03238 =
         0.03801   -0.00488    0.00310   -0.00699
H9A   2    0.532407    0.716729    0.800821    11.00000    0.04011
H9B   2    0.629272    0.611029    0.923171    11.00000    0.04170
H9C   2    0.734760    0.621865    0.819314    11.00000    0.04565
C10   1    0.236258    0.544882    0.858575    11.00000    0.02454    0.02329 =
         0.02565   -0.00254    0.00523   -0.00376
C11   1    0.162892    0.688818    0.797798    11.00000    0.02303    0.02698 =
         0.02509   -0.00255    0.00331   -0.00196
C12   1    0.110264    0.813841    0.863189    11.00000    0.02835    0.02830 =
         0.03204   -0.00502    0.00154    0.00241
H12   2    0.060585    0.913750    0.821318    11.00000    0.02863
C13   1    0.127682    0.789985    0.988857    11.00000    0.02737    0.03629 =
         0.03242   -0.01262    0.00572   -0.00171
H13   2    0.089292    0.871512    1.032869    11.00000    0.03612
C14   1    0.198155    0.647320    1.048630    11.00000    0.03369    0.03793 =
         0.02524   -0.00515    0.00752   -0.00847
H14   2    0.209152    0.629688    1.138981    11.00000    0.03145
C15   1    0.256201    0.523756    0.983624    11.00000    0.03372    0.02883 =
         0.02554    0.00026    0.00615   -0.00536
H15   2    0.306920    0.421945    1.025470    11.00000    0.03063
HKLF 4




REM  randres-6rat89-15.res in P2(1)
REM wR2 = 0.0624, GooF = S = 1.057, Restrained GooF = 1.056 for all data
REM R1 = 0.0239 for 2521 Fo > 4sig(Fo) and 0.0239 for all 2532 data
REM 236 parameters refined using 1 restraints

END

WGHT      0.0366      0.0783

REM Highest difference peak  0.208,  deepest hole -0.118,  1-sigma level  0.025
Q1    1   0.2308  0.4730  0.7039  11.00000  0.05    0.21
Q2    1   0.2194  0.4962  0.5975  11.00000  0.05    0.18
Q3    1   0.2605  0.4817  0.8204  11.00000  0.05    0.17
Q4    1   0.5001  0.4788  0.7002  11.00000  0.05    0.15
Q5    1   0.3715  0.4868  0.5836  11.00000  0.05    0.13
Q6    1   0.2791  0.2310  0.7051  11.00000  0.05    0.12
Q7    1   0.0954  0.7332  0.8262  11.00000  0.05    0.12
Q8    1   0.2656  0.3563  0.7589  11.00000  0.05    0.12
Q9    1   0.3960  0.4611  0.7695  11.00000  0.05    0.12
Q10   1   0.1980  0.5146  0.9112  11.00000  0.05    0.11
;
_shelx_res_checksum              74326
_shelx_hkl_file
;
   0 -10   0 2203.11 58.8137  35
   0 -10  -1 7460.03 113.063  35
   0 -10   1 7394.15 123.490  42
   0 -10  -2 962.682 40.8799  35
   0 -10   2 929.225 43.9513  42
   0 -10   3 4213.01 84.2722  42
   0  -9   0-6.78248 22.1231  42
   0  -9   1 9211.19 185.923  36
   0  -9  -1 9272.08 182.046  42
   0  -9   1 9327.17 187.962  42
   0  -9   2 4687.34 133.239  36
   0  -9  -2 4504.68 118.047  42
   0  -9   2 4758.71 133.491  42
   0  -9  -3 8406.14 165.728  35
   0  -9   3 8230.15 168.240  42
   0  -9  -4 1353.85 64.3885  35
   0  -9   4 1294.71 60.3265  30
   0  -9   4 1275.94 63.8038  42
   0  -9  -5 7630.19 134.815  35
   0  -9   5 7214.45 133.788  30
   0  -9   5 7189.92 129.402  42
   0  -9  -5 7640.48 110.200  43
   0  -9  -6 796.081 38.2384  35
   0  -9  -6 728.235 30.8600  43
   0  -8   0 15661.3 284.197  36
   0  -8   0 14998.2 270.683  42
   0  -8  -1 3308.48 126.768  42
   0  -8   1 3380.76 131.697  42
   0  -8  -2 17248.7 239.711  45
   0  -8   2 17367.0 267.348  30
   0  -8   2 17483.0 291.855  42
   0  -8  -2 16735.5 269.453  42
   0  -8  -3 3490.91 112.094  45
   0  -8   3 3604.13 126.856  30
   0  -8  -3 3411.13 111.736  42
   0  -8   3 3561.44 131.045  42
   0  -8  -4 349.417 39.4946  45
   0  -8  -4 355.819 48.3670  35
   0  -8   4 351.313 43.8017  30
   0  -8   4 303.889 41.7804  42
   0  -8  -5 3228.38 100.226  45
   0  -8   5 3103.56 108.953  42
   0  -8   5 3299.12 119.526  30
   0  -8  -5 3279.65 111.861  35
   0  -8   6 7321.75 145.084  42
   0  -8   6 7695.68 170.477  30
   0  -8  -6 7644.42 155.152  35
   0  -8  -7 2790.04 75.3554  43
   0  -8   7 2704.28 91.8195  30
   0  -8  -7 2614.55 79.6929  35
   0  -8  -8 397.486 25.3199  43
   0  -7   0 18.9713 29.7226  42
   0  -7  -1 1470.54 88.3406  36
   0  -7   1 1463.26 91.3647  42
   0  -7  -1 1353.27 85.0416  42
   0  -7  -1 1391.01 73.8013  45
   0  -7   2 23081.1 343.719  42
   0  -7  -2 22671.5 321.957  42
   0  -7  -2 23036.2 309.839  45
   0  -7   3 9358.42 442.760  19
   0  -7  -3 9801.24 207.840  45
   0  -7   3 10054.1 226.877  42
   0  -7  -3 10025.7 203.291  42
   0  -7   4 4776.06 318.943  19
   0  -7   4 4863.76 156.914  42
   0  -7  -4 4808.57 148.208  45
   0  -7   5 18389.1 599.853  19
   0  -7  -5 18889.7 294.451  35
   0  -7   5 18951.3 268.320  47
   0  -7  -5 19597.9 243.393  52
   0  -7  -5 18915.8 281.533  45
   0  -7   5 18506.2 291.464  42
   0  -7  -6 3194.50 114.219  35
   0  -7  -6 3373.13 100.514  52
   0  -7  -6 3353.66 114.330  45
   0  -7   6 3340.64 114.538  47
   0  -7   6 3282.85 113.480  42
   0  -7  -7 2068.61 84.0961  35
   0  -7   7 2023.96 86.5730  47
   0  -7  -7 2100.13 75.6111  52
   0  -7  -8 5640.63 115.845  43
   0  -7   8 5269.63 125.352  47
   0  -7   9 446.914 35.1347  30
   0  -7  -9 441.596 28.6254  43
   0  -6   0 93889.1 642.400  42
   0  -6   0 86794.2 1191.96  19
   0  -6  -1 7664.09 167.917  45
   0  -6  -1 7785.40 182.184  42
   0  -6   1 8052.48 193.194  42
   0  -6   1 7594.32 360.471  19
   0  -6  -2 5116.33 145.580  42
   0  -6   2 5212.30 159.618  42
   0  -6  -2 4800.41 141.028  45
   0  -6   2 4994.86 300.995  19
   0  -6  -3 47214.0 447.801  45
   0  -6  -3 45841.5 423.313  42
   0  -6   3 48029.2 490.504  42
   0  -6  -3 46220.0 364.888  52
   0  -6   3 46264.7 915.638  19
   0  -6  -4 58963.1 516.998  45
   0  -6   4 58637.7 484.378  47
   0  -6  -4 58880.6 435.394  52
   0  -6   4 57465.9 1031.30  19
   0  -6   5 3109.56 122.354  42
   0  -6  -5 3142.00 107.937  52
   0  -6   5 2977.13 116.460  47
   0  -6  -5 3124.51 120.657  45
   0  -6   5 3086.84 241.723  19
   0  -6   6 14282.1 246.521  42
   0  -6   6 13965.8 507.642  19
   0  -6  -6 14068.2 248.209  35
   0  -6  -6 14243.1 224.459  52
   0  -6  -6 14187.2 249.369  45
   0  -6   6 13868.2 227.802  48
   0  -6   6 13620.5 252.986  47
   0  -6  -7 1388.78 76.5602  35
   0  -6  -7 1435.59 78.4992  45
   0  -6   7 1429.27 74.7628  48
   0  -6  -7 1379.34 73.8262  52
   0  -6   7 1386.47 82.6459  47
   0  -6  -8 2462.73 91.9008  35
   0  -6   8 2468.63 94.4653  48
   0  -6   8 2435.33 101.937  47
   0  -6  -8 2374.17 89.2476  52
   0  -6  -9 106.568 25.2624  52
   0  -6   9 130.839 23.3329  48
   0  -6   9 108.841 29.2114  47
   0  -6  -9 141.565 23.0301  43
   0  -6   9 144.701 20.9194  40
   0  -6  10 4754.94 109.036  47
   0  -6 -10 5006.53 94.3345  52
   0  -6  10 4873.85 101.062  48
   0  -6 -10 4806.10 84.4253  43
   0  -5   0-14.1817 59.5921  19
   0  -5  -1 86577.0 1044.44  19
   0  -5   1 82618.6 1040.29  19
   0  -5  -2 88695.0 987.447   5
   0  -5   2 86513.4 1093.88  19
   0  -5  -3 26453.5 308.175  45
   0  -5   3 27867.8 329.546  42
   0  -5  -3 25552.6 257.143  52
   0  -5   3 27162.9 632.005  19
   0  -5   4 59975.0 493.291  42
   0  -5  -4 58060.2 474.363  45
   0  -5   4 57661.8 464.152  47
   0  -5  -4 58957.8 421.004  52
   0  -5   4 56638.9 935.510  19
   0  -5  -5 37750.3 398.471  45
   0  -5  -5 37969.3 362.235  52
   0  -5   5 37417.5 399.263  47
   0  -5   5 37869.8 781.911  19
   0  -5  -6 5118.49 148.194  35
   0  -5  -6 5253.76 143.496  52
   0  -5   6 5163.75 158.774  47
   0  -5  -6 5072.13 150.737  45
   0  -5   6 4991.76 286.278  19
   0  -5  -7 4958.20 143.959  45
   0  -5   7 5026.24 157.823  47
   0  -5  -7 5136.21 143.304  52
   0  -5  -7 4829.09 140.627  35
   0  -5   8 24426.0 341.645  47
   0  -5  -8 24083.1 303.480  52
   0  -5  -8 24190.6 294.653  35
   0  -5  -9 335.335 34.6621  43
   0  -5   9 292.019 46.0749  47
   0  -5  -9 361.482 44.4271  52
   0  -5  10 1204.65 62.6497  40
   0  -5 -10 1358.59 52.2135  43
   0  -5 -10 1290.23 61.7532  52
   0  -5  10 1273.79 68.7735  47
   0  -5  10 1323.70 68.8490  48
   0  -5  11 3804.87 94.8419  47
   0  -5 -11 3816.19 82.0146  52
   0  -5  11 3843.25 94.1589  48
   0  -5  11 3680.29 84.6544  40
   0  -4   0 367774. 1454.39   5
   0  -4   0 356243. 1845.38  19
   0  -4   1 161893. 861.016   5
   0  -4  -1 162310. 1097.54   5
   0  -4   1 164644. 1264.52  19
   0  -4  -2 150353. 1167.87   5
   0  -4   2 151963. 1248.58  19
   0  -4  -2 152013. 1172.77  19
   0  -4  -3 34328.7 626.696   5
   0  -4   3 33871.6 312.491  29
   0  -4   3 33330.1 604.940  19
   0  -4  -4 9529.75 326.338   6
   0  -4   4 9008.78 329.888  19
   0  -4   4 9272.01 176.135  29
   0  -4   4 8873.56 284.141  17
   0  -4   5 37246.1 647.602  17
   0  -4  -5 37258.1 344.244  52
   0  -4  -5 38055.5 362.401  45
   0  -4  -5 36833.8 362.464  41
   0  -4  -5 37791.5 708.953   6
   0  -4   5 36782.7 688.268  19
   0  -4  -5 37784.9 340.925  33
   0  -4   5 36770.1 377.740  29
   0  -4  -5 37670.5 345.539  32
   0  -4   6 15614.1 464.772  17
   0  -4   6 15366.2 256.049  47
   0  -4  -6 15660.2 241.356  52
   0  -4  -6 15868.7 244.552  45
   0  -4  -6 15605.1 259.573  41
   0  -4  -6 15497.5 492.616   6
   0  -4   6 15929.9 459.800  19
   0  -4  -6 15290.6 235.369  33
   0  -4  -6 15934.0 237.032  35
   0  -4   6 15293.2 259.606  29
   0  -4  -6 14994.9 231.936  32
   0  -4   7 76416.5 1109.74  17
   0  -4  -7 76978.4 612.201  41
   0  -4  -7 75324.4 1142.80   6
   0  -4  -7 76030.6 560.330  33
   0  -4  -7 76420.9 528.175  35
   0  -4  -7 76999.0 544.643  45
   0  -4  -7 75193.8 563.014  52
   0  -4   7 75579.4 604.151  47
   0  -4  -8 38319.3 408.873  33
   0  -4  -8 36882.8 361.360  35
   0  -4  -8 37800.7 403.136  52
   0  -4  -8 37340.1 358.066  45
   0  -4   8 38055.1 435.954  47
   0  -4  -9 24648.6 263.269  43
   0  -4   9 23886.6 338.526  47
   0  -4  -9 23995.5 313.539  52
   0  -4  -9 24298.2 325.795  33
   0  -4  10 1361.99 80.0042  48
   0  -4  10 1344.17 77.0093  47
   0  -4 -10 1354.50 73.1153  52
   0  -4 -11 1083.06 54.9460  52
   0  -4  11 1080.65 60.4455  48
   0  -4  11 981.857 57.8368  47
   0  -4  11 1067.62 59.4950  40
   0  -4 -12 130.054 15.8697  52
   0  -4  12 105.135 17.3847  48
   0  -4  12 152.381 19.0494  40
   0  -3   0 94.9954 29.6720  19
   0  -3   0 31.6695 18.3063   5
   0  -3   1 102182. 822.955  19
   0  -3   1 101221. 561.417   5
   0  -3   2 37266.5 398.365  17
   0  -3   2 37226.6 525.511  19
   0  -3  -2 37172.3 519.251   5
   0  -3  -2 38394.0 491.923   6
   0  -3   2 38323.2 306.778   5
   0  -3  -2 37324.0 478.371  19
   0  -3   3 133640. 1046.13  19
   0  -3  -3 132077. 1012.68   6
   0  -3  -3 134243. 1103.36   5
   0  -3   3 131859. 536.766  22
   0  -3   4 4968.57 216.602  19
   0  -3   4 4924.20 213.355  17
   0  -3  -4 5303.43 229.065   6
   0  -3   4 4770.56 114.563  22
   0  -3   5 15297.1 351.757   1
   0  -3  -5 16106.0 434.898   6
   0  -3   5 16156.6 222.468  22
   0  -3   5 16291.1 225.524  29
   0  -3   5 16140.2 400.836  19
   0  -3   5 15303.1 425.063  17
   0  -3   6 17658.8 503.442  17
   0  -3  -6 18141.7 266.663  41
   0  -3  -6 18496.0 252.569  52
   0  -3  -6 17730.4 501.999   6
   0  -3  -6 18473.1 250.498  33
   0  -3   6 18124.9 260.064  29
   0  -3   7 16868.8 538.204  17
   0  -3  -7 17649.0 286.321  41
   0  -3  -7 17763.7 238.430  45
   0  -3  -7 17607.1 268.969  52
   0  -3  -7 16696.6 531.016   6
   0  -3  -7 16964.0 231.535  35
   0  -3  -7 17004.2 264.133  33
   0  -3  -7 17253.0 242.612  32
   0  -3   7 17553.4 271.014  29
   0  -3   8 10311.1 451.134  17
   0  -3  -8 10637.1 234.492  41
   0  -3   8 10814.2 231.191  47
   0  -3  -8 10390.8 221.562  52
   0  -3  -8 10810.8 451.434   6
   0  -3  -8 10803.1 226.396  33
   0  -3  -8 10623.0 192.740  32
   0  -3  -9 59013.6 542.943  41
   0  -3  -9 57601.9 514.762  52
   0  -3   9 57798.0 536.128  47
   0  -3  -9 58697.2 535.279  33
   0  -3  10 11863.7 230.537  47
   0  -3 -10 11922.1 221.931  52
   0  -3  10 12047.0 481.133  17
   0  -3 -10 12301.0 239.419  33
   0  -3 -11 795.769 60.2829  33
   0  -3  11 823.510 61.2353  48
   0  -3 -11 788.285 54.3728  52
   0  -3  11 768.615 55.6423  47
   0  -3  12 418.606 35.9596  40
   0  -3  12 383.857 31.5322  47
   0  -3  12 394.778 35.8115  48
   0  -3 -12 392.031 29.5132  52
   0  -2   0 246887. 775.903   5
   0  -2  -1 111554. 667.025   5
   0  -2  -1 106550. 661.273   6
   0  -2  -2 38416.6 464.340   5
   0  -2  -2 39601.8 445.415   6
   0  -2   3 31081.6 470.754  12
   0  -2   3 30209.0 413.850  19
   0  -2  -3 30078.0 472.455   5
   0  -2   3 31450.3 227.035  22
   0  -2   4 154771. 1183.83  12
   0  -2   4 152683. 990.789  19
   0  -2   4 153851. 1094.68   3
   0  -2   4 151840. 558.760  22
   0  -2   5 86790.4 999.377  12
   0  -2   5 88565.2 803.231  19
   0  -2   5 86160.0 466.765  22
   0  -2  -5 87619.4 969.070   6
   0  -2   6 98541.9 540.560  22
   0  -2   6 97282.0 1064.32   1
   0  -2   6 98935.1 544.571  29
   0  -2   7 16301.7 523.504  17
   0  -2  -7 16576.7 255.668  52
   0  -2  -7 16373.0 266.112  41
   0  -2  -7 16536.8 518.854   6
   0  -2   7 15689.8 474.445   1
   0  -2   7 16507.1 238.090  22
   0  -2  -7 15982.7 253.633  33
   0  -2   7 16278.3 237.684  29
   0  -2  -8 28453.7 737.199   6
   0  -2  -8 28561.4 365.032  52
   0  -2  -8 29236.4 376.754  33
   0  -2   8 28691.3 748.688  17
   0  -2  -8 28494.7 380.862  41
   0  -2  -9 4792.63 316.998   6
   0  -2  -9 4379.50 150.393  41
   0  -2  -9 4735.58 160.228  33
   0  -2   9 4052.64 299.735  17
   0  -2   9 4359.21 146.655  47
   0  -2  -9 4437.80 148.132  52
   0  -2 -10 1591.45 89.8910  41
   0  -2 -10 1638.10 90.1227  52
   0  -2  10 1691.81 90.3932  47
   0  -2  10 1598.19 192.492  17
   0  -2 -10 1640.20 97.6565  33
   0  -2 -11 427.036 51.7810  33
   0  -2  11 433.114 43.3828  47
   0  -2 -11 368.753 42.7038  52
   0  -2  11 414.115 48.9795  48
   0  -2 -12 1529.31 72.5560  33
   0  -2 -12 1443.13 59.4470  52
   0  -2  12 1733.99 74.8959  48
   0  -2  12 1677.69 75.9248  40
   0  -1   0 8.61542 6.23605   5
   0  -1   1 612855. 1233.65  12
   0  -1  -1 608671. 1241.12   5
   0  -1  -2 157697. 810.315   5
   0  -1   2 162693. 779.695   3
   0  -1   3 2293.58 117.253  12
   0  -1   3 2174.24 106.387   3
   0  -1  -3 2263.72 114.119   6
   0  -1   4 101487. 891.184  12
   0  -1   4 102713. 814.601   3
   0  -1   4 100120. 402.248  22
   0  -1   5 177802. 1346.27  12
   0  -1   5 177652. 1217.42   3
   0  -1   5 179255. 602.425  22
   0  -1   6 7115.64 302.729  12
   0  -1   6 6903.21 291.312   1
   0  -1  -6 7227.39 299.947   6
   0  -1   6 7231.14 276.322   3
   0  -1   6 7122.03 134.966  22
   0  -1   7 7915.96 367.359  17
   0  -1   7 8165.54 154.315  22
   0  -1  -7 7993.26 178.817  33
   0  -1   7 8026.27 324.645   3
   0  -1   7 8653.21 368.439   1
   0  -1  -7 8320.55 356.056   6
   0  -1  -8 19069.2 596.406   6
   0  -1   8 19874.3 561.489   3
   0  -1   8 19418.3 608.418   1
   0  -1  -8 20324.3 301.107  52
   0  -1  -8 19859.5 311.802  33
   0  -1   8 19921.8 622.693  17
   0  -1  -8 20069.9 304.549  41
   0  -1  -9 26848.9 752.861   6
   0  -1  -9 26209.9 360.747  41
   0  -1  -9 26791.9 386.852  33
   0  -1   9 26641.5 774.675  17
   0  -1  -9 26445.9 364.161  52
   0  -1   9 28009.3 358.703  47
   0  -1 -10 2619.30 111.060  41
   0  -1  10 2866.93 114.379  47
   0  -1 -10 2591.48 113.551  52
   0  -1  10 2562.10 246.396  17
   0  -1 -10 2771.48 128.005  33
   0  -1 -11 2635.32 116.676  33
   0  -1 -11 2691.67 104.801  52
   0  -1 -12 1013.49 63.2772  33
   0  -1 -12 1046.46 53.4036  52
   0  -1  12 1225.01 64.6039  48
   0  -1  12 1203.10 68.4190  40
   0   0  -1 62550.4 280.135   2
   0   0   2 226.800 27.2636   9
   0   0   2 102.928 23.2676  12
   0   0  -3 786.632 65.6384   6
   0   0   3 641.271 55.9043   3
   0   0   4 2293.18 116.951   3
   0   0   4 2623.57 138.280  12
   0   0   5 308506. 727.341  22
   0   0   5 309134. 1735.10   1
   0   0   5 305664. 1674.45  12
   0   0   6 13490.9 170.228  22
   0   0   6 13029.4 355.780   3
   0   0   6 14136.9 420.929   1
   0   0  -6 14244.5 404.730   6
   0   0   7 870.398 114.543  12
   0   0   7 624.729 111.808  17
   0   0   7 865.883 108.755   3
   0   0  -7 619.271 101.502   6
   0   0   7 839.942 117.982   1
   0   0   8 5420.09 333.117   1
   0   0  -8 5248.29 312.462   6
   0   0   8 4928.64 266.620   3
   0   0  -8 5239.79 152.626  52
   0   0  -8 5234.86 162.316  33
   0   0  -8 5298.67 171.188  34
   0   0   8 5158.87 324.685  17
   0   0  -8 5444.06 153.747  41
   0   0  -9 39687.1 905.654   6
   0   0   9 36762.0 754.388   3
   0   0  -9 43411.9 442.648  41
   0   0  -9 42042.9 490.542  33
   0   0   9 45410.1 1016.92  17
   0   0  -9 41635.1 453.346  52
   0   0 -10 42291.9 417.338  41
   0   0 -10 41041.1 446.187  52
   0   0 -10 42003.4 490.327  33
   0   0 -11 2427.51 113.466  33
   0   0 -11 2328.94 96.9306  52
   0   0 -12 389.511 43.2451  33
   0   0 -12 407.553 33.9535  52
   0   0  12 463.216 40.8393  40
   0   0 -13 2423.25 70.2806  33
   0   1   0 2.63277 7.55562   2
   0   1  -1 608597. 1334.93   2
   0   1   1 626697. 1180.69   1
   0   1  -2 162722. 831.606   2
   0   1   2 161750. 806.973   1
   0   1   3 2168.44 115.187   1
   0   1   3 2371.12 101.510  12
   0   1  -3 2054.57 106.632  20
   0   1   4 102190. 894.165   1
   0   1   4 97632.4 717.608   9
   0   1   4 97661.8 789.365  12
   0   1  -4 101947. 900.728  20
   0   1   5 179883. 1090.44   9
   0   1   5 180109. 1352.83   1
   0   1   5 179110. 1223.91  12
   0   1  -5 179825. 1422.28  20
   0   1   6 6775.81 249.156   3
   0   1  -6 7216.94 290.900   6
   0   1   6 7006.14 301.888   1
   0   1   6 7122.81 273.011  12
   0   1  -6 7187.30 332.123  20
   0   1  -7 7834.82 179.346  33
   0   1   7 8271.62 369.488  17
   0   1   7 8265.15 331.675  12
   0   1   7 8091.11 367.549   1
   0   1  -7 8054.48 345.858   6
   0   1   7 7711.91 294.725   3
   0   1  -8 20061.3 318.578  33
   0   1  -8 19866.9 347.469  34
   0   1   8 18326.3 484.728   3
   0   1   8 20533.0 648.336   1
   0   1  -8 19353.5 593.418   6
   0   1   8 21160.3 638.176  17
   0   1  -9 26409.1 394.227  33
   0   1  -9 26163.0 418.154  34
   0   1  -9 26784.5 738.247   6
   0   1 -10 2682.94 112.348  52
   0   1 -10 2585.43 124.985  33
   0   1  10 2735.73 251.296  14
   0   1  10 2955.60 262.088  17
   0   1  11 2957.34 117.006  25
   0   1 -11 2656.80 118.665  33
   0   1 -11 2744.79 101.580  52
   0   1 -12 1120.11 65.7236  33
   0   2   0 246291. 891.408   2
   0   2  -1 110936. 723.944   2
   0   2   1 109548. 597.972   8
   0   2  -2 37924.6 295.980  11
   0   2   2 37635.3 420.998   1
   0   2  -3 31224.5 443.448  20
   0   2   3 30358.8 441.865   1
   0   2  -4 147640. 1154.76  20
   0   2   4 149270. 900.532  12
   0   2   4 150244. 1127.55   1
   0   2  -5 89567.4 1055.79  20
   0   2   5 87693.7 802.621  12
   0   2   5 88219.5 982.659   1
   0   2   5 90562.4 760.737   9
   0   2  -6 100099. 1251.54  20
   0   2   6 99530.8 1106.30  17
   0   2   6 94241.1 1137.72   1
   0   2   6 91283.5 884.637   3
   0   2   7 15184.4 395.253   3
   0   2  -7 15964.5 496.297   6
   0   2   7 15752.7 518.142   1
   0   2  -7 15807.1 257.046  33
   0   2  -7 16766.9 576.371  20
   0   2  -7 15921.3 288.664  34
   0   2   7 16763.8 502.106  17
   0   2  -8 27993.9 714.639   6
   0   2   8 29469.0 773.215   1
   0   2  -8 27524.3 425.917  34
   0   2   8 29571.0 724.872  17
   0   2  -8 28513.4 384.098  33
   0   2   9 4802.63 322.202   8
   0   2  -9 3933.85 281.961   6
   0   2  -9 4279.68 158.643  33
   0   2  -9 4430.71 180.850  34
   0   2   9 4413.31 295.200  17
   0   2   9 4304.15 297.234  14
   0   2 -10 1573.00 82.9901  52
   0   2  10 1707.30 87.7396  25
   0   2 -10 1542.78 104.082  34
   0   2 -10 1565.78 97.0430  33
   0   2  10 1450.15 164.782  17
   0   2  10 1753.46 194.300  14
   0   2 -11 400.453 49.9618  33
   0   2 -12 1481.15 70.1140  33
   0   3   0 24.7083 8.94818  15
   0   3   0 49.6066 24.8704  10
   0   3  -1 100960. 636.613  21
   0   3   1 98364.0 514.190  14
   0   3  -1 101417. 550.506  15
   0   3   1 98961.5 729.685  10
   0   3   2 36616.5 387.732  14
   0   3   2 35147.5 452.846   8
   0   3   3 128708. 891.846  14
   0   3   3 129780. 979.481   8
   0   3  -4 4966.39 105.580  23
   0   3  -4 5245.64 240.748  20
   0   3   4 5178.36 207.641  14
   0   3   4 4929.01 216.768   1
   0   3   4 5149.85 220.039   8
   0   3   5 15905.3 409.925  14
   0   3   5 15381.1 425.033   8
   0   3   5 16028.6 433.184   1
   0   3  -6 18114.2 557.798  20
   0   3   6 17464.7 477.895  14
   0   3  -6 18018.0 276.066  34
   0   3   6 18704.7 519.907   8
   0   3   7 17562.8 551.496   8
   0   3  -7 16832.0 271.168  33
   0   3  -7 16967.0 593.641  20
   0   3  -7 17016.7 308.580  34
   0   3   7 16823.0 512.501  14
   0   3   8 10996.7 471.172   8
   0   3  -8 10146.7 436.534   6
   0   3  -8 10635.8 236.433  33
   0   3  -8 10408.2 272.185  34
   0   3   8 9935.34 422.548  14
   0   3  -8 10812.7 519.829  20
   0   3  -9 57443.0 566.386  33
   0   3   9 58395.8 1064.20  14
   0   3  -9 57639.5 652.595  34
   0   3 -10 11369.5 245.981  33
   0   3 -10 11639.7 283.454  34
   0   3 -11 758.474 65.5816  34
   0   3 -11 756.223 58.9535  33
   0   3 -12 362.655 31.4913  33
   0   4   0 368919. 1458.30  21
   0   4   1 160145. 1030.69  10
   0   4   1 164927. 469.889  24
   0   4  -1 165912. 986.496  21
   0   4   1 161173. 1034.30  21
   0   4   2 153703. 1077.46  10
   0   4   2 151053. 494.126  24
   0   4   3 35287.9 566.453  10
   0   4  -3 35536.3 295.228  28
   0   4  -3 32928.6 261.136  23
   0   4   3 33521.8 259.707  24
   0   4  -4 9638.12 354.571  20
   0   4  -4 8981.11 156.297  23
   0   4   4 8699.67 262.585  14
   0   4   4 9075.15 305.206   8
   0   4  -5 37004.4 351.033  23
   0   4   5 36231.7 603.560  14
   0   4  -5 37642.4 369.825  34
   0   4   5 36218.7 679.356   8
   0   4  -6 15157.8 257.678  49
   0   4  -6 15936.0 553.154  20
   0   4  -6 15195.6 269.032  34
   0   4   6 15842.9 445.458  14
   0   4   7 73176.2 1153.11   8
   0   4  -7 74658.2 571.841  49
   0   4  -7 75323.0 672.088  34
   0   4   7 75971.4 1065.78  14
   0   4   8 39144.5 892.549   8
   0   4  -8 37307.1 435.542  33
   0   4  -8 37119.3 508.370  34
   0   4   8 38842.8 806.785  14
   0   4  -8 40251.3 1009.70  20
   0   4  -9 24012.1 417.829  34
   0   4  -9 23865.1 349.580  33
   0   4 -10 1416.61 99.9965  34
   0   4 -10 1283.12 77.3047  33
   0   4 -11 1059.51 58.3209  33
   0   4 -11 1034.95 70.9904  34
   0   5   0-25.8052 38.2031  21
   0   5   0 118.019 18.1823  27
   0   5  -1 84891.6 401.541  28
   0   5   1 85148.1 397.995  27
   0   5   2 85680.1 394.115  24
   0   5  -2 84833.0 422.017  23
   0   5   2 84704.9 880.215  21
   0   5  -2 85138.3 443.816  28
   0   5   2 85701.0 412.706  27
   0   5   2 86603.8 880.891  10
   0   5   3 26801.8 238.843  24
   0   5  -3 26175.1 259.280  23
   0   5  -3 26304.4 292.911  28
   0   5   3 26306.2 244.926  27
   0   5  -3 26450.9 282.269  34
   0   5  -4 60315.8 958.053  20
   0   5  -4 56970.7 422.248  23
   0   5   4 58910.1 382.775  24
   0   5  -4 60236.0 494.465  49
   0   5  -4 58107.3 452.095  34
   0   5   4 57815.5 832.657  10
   0   5  -5 38621.6 839.765  20
   0   5  -5 38204.9 375.748  23
   0   5   5 38117.8 332.303  24
   0   5  -5 39128.4 442.021  49
   0   5  -5 37027.3 403.363  34
   0   5   5 36623.8 711.397  10
   0   5  -6 5179.52 338.234  20
   0   5   6 5296.79 132.991  24
   0   5  -6 5132.26 162.591  49
   0   5  -6 4976.65 164.396  34
   0   5   6 5173.16 281.738  10
   0   5   7 4998.88 136.892  24
   0   5  -7 5660.88 375.718  20
   0   5  -7 5028.45 154.716  49
   0   5  -7 5219.58 181.772  34
   0   5   7 4991.02 288.602  10
   0   5  -8 24382.9 402.909  34
   0   5   8 25192.1 312.501  24
   0   5  -8 24383.4 784.868  20
   0   5  -8 23918.3 332.978  33
   0   5  -9 335.044 61.8968  34
   0   5  -9 274.709 38.8600  33
   0   5 -10 1406.71 90.1849  34
   0   5 -10 1227.57 64.7148  33
   0   5 -11 3579.48 110.305  34
   0   6   0 87798.3 517.758  34
   0   6   0 87611.2 901.278  11
   0   6   1 7722.33 277.682  21
   0   6   1 7407.91 130.901  27
   0   6  -1 7441.81 142.922  28
   0   6   1 7302.85 148.306  34
   0   6  -1 7433.08 155.165  34
   0   6  -1 7886.60 241.892  11
   0   6  -2 5000.47 133.104  34
   0   6   2 5132.45 230.658  21
   0   6  -2 5214.02 131.254  28
   0   6   2 4793.78 105.980  27
   0   6   3 47227.4 712.059  21
   0   6  -3 47539.7 429.867  28
   0   6   3 46704.2 333.216  27
   0   6  -3 45674.4 419.818  34
   0   6   3 46712.4 741.026  10
   0   6   4 57538.5 848.050  10
   0   6   4 58941.2 835.996  21
   0   6  -4 62703.0 1055.75  20
   0   6  -4 61307.9 547.720  49
   0   6  -4 59194.4 506.788  34
   0   6   4 58178.0 384.308  27
   0   6   5 3072.36 208.328  10
   0   6   5 3017.39 200.223  21
   0   6  -5 3262.70 261.540  20
   0   6  -5 3256.97 137.764  49
   0   6  -5 3070.45 126.099  34
   0   6   5 3110.45 92.6220  27
   0   6   6 14323.0 453.750  10
   0   6   6 13924.1 437.513  21
   0   6  -6 14513.3 571.520  20
   0   6  -6 14255.3 274.962  49
   0   6  -6 13463.2 272.319  34
   0   6   6 13804.5 194.192  27
   0   6  -7 1658.47 106.306  34
   0   6  -7 1810.58 215.450  20
   0   6   7 1425.69 143.473  21
   0   6  -7 1453.18 83.3091  49
   0   6  -8 2497.27 126.646  34
   0   6  -8 2388.00 242.099  20
   0   6   8 2668.36 182.521  21
   0   6  -8 2342.92 95.7098  33
   0   6  -9 139.562 39.6284  34
   0   6 -10 4752.22 136.743  34
   0   7   0-10.2467 32.1569  28
   0   7   0-0.19873 22.0593  34
   0   7   0 42.7285 38.6480  11
   0   7   1 1220.18 122.411  21
   0   7  -1 1405.13 75.9820  28
   0   7   1 1441.38 70.2733  28
   0   7   1 1395.15 70.8019  34
   0   7  -1 1356.90 74.7689  34
   0   7  -2 22489.5 299.223  34
   0   7   2 22429.8 270.408  34
   0   7  -2 23062.0 306.528  28
   0   7   2 22092.4 497.148  21
   0   7  -3 9851.98 221.278  49
   0   7  -3 9748.34 206.811  34
   0   7   3 8976.74 149.380  27
   0   7   3 9083.65 322.323  21
   0   7  -4 4877.29 153.497  34
   0   7  -4 5152.23 169.543  49
   0   7   4 4489.54 229.616  21
   0   7  -4 5141.42 314.572  20
   0   7  -5 18684.2 307.126  34
   0   7  -5 19119.9 325.340  49
   0   7   5 18737.0 471.312  21
   0   7  -5 19187.0 630.484  20
   0   7  -6 3493.10 139.047  34
   0   7  -6 3353.55 126.666  49
   0   7  -6 3472.00 275.627  20
   0   7   6 3381.36 196.582  21
   0   7  -7 1989.18 86.3599  49
   0   7  -7 2032.02 107.772  34
   0   7  -7 1885.81 78.6813  33
   0   7  -8 5601.98 164.137  34
   0   7  -9 412.774 43.9296  34
   0   8   0 14789.7 226.390  34
   0   8   0 14979.1 226.969  28
   0   8   1 3473.46 107.297  34
   0   8  -1 3177.14 110.062  34
   0   8  -1 3229.17 117.700  28
   0   8   1 3371.64 105.626  28
   0   8  -2 16783.6 257.094  34
   0   8  -2 16912.4 274.032  28
   0   8   2 17112.6 220.676  28
   0   8  -3 3654.19 137.992  49
   0   8  -3 3560.98 123.647  34
   0   8   3 3505.02 98.8505  28
   0   8  -3 3400.83 250.895  20
   0   8   3 3561.39 200.285  21
   0   8  -4 336.676 48.9953  34
   0   8  -4 399.335 54.4860  49
   0   8   4 428.821 65.5317  21
   0   8  -4 396.125 83.9870  20
   0   8  -5 3261.12 122.897  34
   0   8  -5 3298.78 121.727  49
   0   8  -5 3491.97 251.856  20
   0   8  -6 7397.52 178.766  34
   0   8  -6 7169.81 153.595  49
   0   8  -7 2730.62 103.523  34
   0   8  -8 388.387 37.2485  34
   0   9   0-11.3032 17.1054  34
   0   9   0 22.2733 24.8233  28
   0   9  -1 9489.87 168.942  34
   0   9   1 9507.97 171.911  28
   0   9  -1 9710.54 191.557  49
   0   9  -2 4765.47 123.706  34
   0   9   2 4622.90 114.361  28
   0   9  -2 4799.67 139.372  49
   0   9   3 8476.59 142.140  28
   0   9  -3 8630.43 185.006  49
   0   9  -4 1293.99 66.2773  34
   0   9   4 1294.66 53.2113  28
   0   9  -4 1242.53 67.4243  49
   0   9  -5 7300.51 148.207  34
   0   9  -5 6740.38 127.097  49
   0   9  -6 726.220 44.4374  34
   0  10   0 2410.69 78.6930  49
   0  10   1 7503.07 132.107  49
   0  10  -1 7741.76 139.259  49
   0  10   2 951.584 45.9380  49
   0  10  -2 981.577 48.3412  49
   1 -10  -3 3491.95 75.7279  35
   1 -10  -2 4795.84 93.5252  35
   1 -10  -1 936.632 42.8268  35
   1 -10   0 711.747 36.5156  35
   1 -10   0 730.963 38.1801  42
   1 -10   1 4189.54 91.3735  42
   1 -10   2 5367.45 97.7904  42
   1  -9  -6 1723.70 59.7336  35
   1  -9  -5 812.489 49.4942  35
  -1  -9   5 725.206 42.5743  42
  -1  -9   5 828.328 47.7609  30
  -1  -9   4 1525.33 68.7314  42
   1  -9  -4 1573.80 73.7738  35
  -1  -9   4 1513.72 66.2836  30
   1  -9  -4 1486.05 58.0649  45
  -1  -9   3 1845.18 80.6687  42
  -1  -9   3 1867.91 86.7626  36
  -1  -9   3 1793.34 72.7165  30
   1  -9  -3 1926.61 66.5841  45
  -1  -9   2 2182.67 94.5209  36
   1  -9  -2 2158.68 84.2568  42
  -1  -9   2 2135.16 89.1856  42
  -1  -9   1 4144.20 129.040  36
  -1  -9   1 4343.26 107.470  35
   1  -9  -1 4036.81 121.031  42
  -1  -9   1 4113.43 123.985  42
  -1  -9   0 3939.84 124.325  36
  -1  -9   0 4051.75 109.876  35
  -1  -9   0 3936.90 119.280  42
   1  -9   0 3829.61 120.094  42
  -1  -9  -1 1100.85 60.1763  35
   1  -9   1 1210.65 69.9549  42
  -1  -9  -2 11539.9 184.486  35
   1  -9   2 11420.4 199.858  42
  -1  -9  -3 9396.48 159.404  35
   1  -9   3 9417.98 173.026  42
  -1  -9  -4 1103.77 53.2760  35
  -1  -9  -4 1053.56 39.9259  43
   1  -9   4 1064.75 55.2743  42
  -1  -9  -5 4406.17 91.2728  35
  -1  -9  -5 4210.11 72.9693  43
   1  -9   5 4217.37 91.5026  42
   1  -8  -8 3762.92 80.9627  43
  -1  -8   8 3564.56 92.7522  30
   1  -8  -7 2122.49 76.6053  35
  -1  -8   7 2113.23 82.8865  30
  -1  -8   6 1214.38 60.9352  42
   1  -8  -6 1289.13 69.5411  35
  -1  -8   6 1309.07 72.2691  30
   1  -8  -6 1369.56 67.7271  45
  -1  -8   5 13866.2 228.581  42
  -1  -8   5 14222.8 243.215  30
   1  -8  -5 14492.8 227.766  45
  -1  -8   4 164.190 36.5789  42
   1  -8  -4 160.713 33.2188  45
  -1  -8   4 162.093 34.1900  30
   1  -8  -3 5840.52 149.251  42
   1  -8  -3 5976.27 154.857  45
  -1  -8   3 5840.14 164.699  42
  -1  -8   3 5826.44 161.393  30
   1  -8  -2 4391.87 139.916  42
   1  -8  -2 4574.10 133.463  45
  -1  -8   2 4454.31 147.632  42
  -1  -8   2 4439.70 135.490  30
  -1  -8   1 15052.5 268.370  42
   1  -8  -1 14732.1 264.568  42
  -1  -8   1 15462.0 290.097  36
  -1  -8   0 23884.4 333.868  42
   1  -8   0 23603.4 337.266  42
  -1  -8   0 23924.3 353.703  36
   1  -8   1 18884.7 626.576  19
   1  -8   1 18916.6 305.574  42
  -1  -8  -1 18927.3 290.556  42
  -1  -8  -1 19159.1 311.513  36
   1  -8   2 1476.15 177.330  19
  -1  -8  -2 1545.02 85.7353  35
  -1  -8  -2 1277.29 78.9174  36
   1  -8   2 1516.92 91.4650  42
  -1  -8  -2 1431.46 77.7897  42
  -1  -8  -3 295.639 43.3673  35
   1  -8   3 407.862 97.4098  19
   1  -8   3 289.282 45.3775  42
  -1  -8  -4 5135.05 138.313  35
   1  -8   4 4992.08 143.923  42
  -1  -8  -5 385.949 41.0182  35
   1  -8   5 321.910 37.8709  42
  -1  -8  -5 365.806 34.8455  43
  -1  -8  -6 362.977 35.2915  35
  -1  -8  -6 358.405 30.7360  43
   1  -8   6 318.856 30.1669  42
   1  -8   7 10000.5 160.692  30
  -1  -8  -7 9681.19 123.811  43
  -1  -7   9 5494.34 123.972  30
   1  -7  -9 5616.53 105.233  43
   1  -7  -8 932.791 48.2855  52
   1  -7  -8 1026.95 56.4374  45
  -1  -7   8 1030.38 63.8593  30
   1  -7  -8 1022.21 55.7268  35
   1  -7  -7 3955.55 102.495  52
   1  -7  -7 4112.14 126.039  45
   1  -7  -7 4029.90 124.582  35
  -1  -7   7 4287.19 138.373  30
   1  -7  -6 9993.17 212.120  35
  -1  -7   6 9524.32 192.084  42
   1  -7  -6 9905.36 209.607  45
   1  -7  -6 10115.1 168.560  52
  -1  -7   5 88.1324 29.8466  42
   1  -7  -5 65.9635 35.6480  45
   1  -7  -5 117.208 26.0211  52
   1  -7  -4 494.095 57.1504  45
  -1  -7   4 537.190 57.5861  42
   1  -7  -3 20148.3 314.361  45
   1  -7  -3 20378.7 294.540  42
  -1  -7   3 19957.2 314.072  42
  -1  -7   3 20282.2 316.271  30
   1  -7  -2 12524.8 244.110  42
   1  -7  -2 12165.1 241.690  45
  -1  -7   2 12361.1 248.732  42
  -1  -7   2 12593.9 242.790  30
   1  -7  -1 73193.6 611.197  42
   1  -7  -1 72267.1 562.800  45
  -1  -7   1 72523.9 598.439  42
  -1  -7   1 72381.5 548.263  30
   1  -7   0 38369.0 454.324  42
  -1  -7   0 37669.9 431.038  42
  -1  -7  -1 28230.7 365.542  42
   1  -7   1 29292.0 401.750  42
  -1  -7  -1 27812.8 383.312  36
  -1  -7  -1 27321.6 295.981  45
   1  -7   1 28726.2 779.309  19
  -1  -7  -2 4074.15 135.992  42
   1  -7   2 4239.04 155.935  42
  -1  -7  -2 4097.20 147.660  36
  -1  -7  -2 4090.83 121.309  45
   1  -7   2 3881.45 293.729  19
  -1  -7  -3 37091.1 380.462  42
  -1  -7  -3 36876.5 431.799  36
  -1  -7  -3 36769.7 368.305  45
   1  -7   4 8971.92 215.847  42
  -1  -7  -4 8684.25 198.910  35
  -1  -7  -4 9231.89 183.918  45
   1  -7   4 8707.50 429.388  19
   1  -7   5 8536.66 197.529  42
  -1  -7  -5 8327.75 184.202  35
   1  -7   5 8398.31 174.201  47
   1  -7   5 8235.79 405.619  19
   1  -7   6 9231.49 183.554  42
   1  -7   6 9251.62 180.362  47
  -1  -7  -6 9298.85 183.762  35
  -1  -7  -7 2415.71 78.4293  43
   1  -7   7 2224.57 85.2416  47
  -1  -7  -7 2165.96 80.6367  35
   1  -7   8 4634.45 107.511  47
  -1  -7  -8 4907.56 97.5428  43
  -1  -7  -9 5705.35 81.1214  43
   1  -6 -11 2042.89 52.6146  52
  -1  -6  10 110.185 16.3588  40
   1  -6 -10 156.865 19.1839  43
  -1  -6  10 137.488 22.1799  48
   1  -6 -10 153.921 24.5171  52
  -1  -6  10 135.224 21.2318  30
  -1  -6   9 44.5442 18.9398  48
   1  -6  -9 74.5358 24.9235  52
  -1  -6   9 68.7657 26.6134  47
  -1  -6   9 37.6700 21.4603  30
  -1  -6   9 29.3505 13.0358  40
   1  -6  -8 2859.49 98.9361  52
  -1  -6   8 2832.69 110.506  47
  -1  -6   8 2827.17 101.749  48
   1  -6  -8 2941.68 105.946  45
   1  -6  -8 3101.41 105.199  35
  -1  -6   7 23430.7 324.663  47
   1  -6  -7 23228.9 288.318  52
   1  -6  -7 23657.3 325.860  45
  -1  -6   7 23964.2 295.585  48
   1  -6  -6 19656.7 266.955  52
  -1  -6   6 20251.9 268.875  48
  -1  -6   6 19310.3 299.361  47
   1  -6  -6 20165.5 313.662  45
  -1  -6   6 20523.9 289.691  42
  -1  -6   5 82501.8 600.267  47
   1  -6  -5 83987.4 533.756  52
  -1  -6   5 84576.3 613.570  42
   1  -6  -5 84306.9 649.195  45
  -1  -6   4 31886.4 354.419  47
   1  -6  -4 32307.5 310.728  52
  -1  -6   4 32055.5 756.842  19
   1  -6  -4 32787.1 404.674  45
  -1  -6   4 32649.3 390.993  42
   1  -6  -3 3546.52 97.0343  52
  -1  -6   3 3134.86 105.433  47
  -1  -6   3 3446.83 248.526  19
   1  -6  -3 3453.87 131.460  45
  -1  -6   3 3322.48 125.640  42
   1  -6  -3 3411.61 117.712  42
   1  -6  -2 49934.0 893.241  19
  -1  -6   2 53595.9 491.755  42
   1  -6  -2 55068.2 493.747  42
   1  -6  -2 51102.6 488.216  45
  -1  -6   1 15673.1 261.368  42
   1  -6  -1 15279.6 256.256  45
   1  -6  -1 16249.2 272.266  42
  -1  -6   1 16015.0 251.771  30
   1  -6   0 7757.65 366.663  19
   1  -6   0 8302.42 197.579  42
  -1  -6   0 7946.24 184.580  42
  -1  -6   0 7865.97 165.945  30
  -1  -6  -1 14382.5 247.546  42
   1  -6   1 14368.6 262.706  42
  -1  -6  -1 14067.8 251.874  36
  -1  -6  -1 13713.8 212.329  45
   1  -6   1 13549.8 497.101  19
   1  -6   2 5362.93 164.784  42
  -1  -6  -2 5171.42 147.263  42
  -1  -6  -2 4998.04 152.441  36
  -1  -6  -2 4917.16 134.973  45
   1  -6   2 5350.86 318.554  19
  -1  -6  -3 3468.14 115.945  42
   1  -6   3 3446.09 134.663  42
  -1  -6  -3 3473.79 131.672  36
  -1  -6  -3 3350.32 115.196  45
  -1  -6  -3 3589.67 105.399  52
   1  -6   3 3099.41 253.671  19
   1  -6   4 28914.2 383.468  42
  -1  -6  -4 30388.6 371.940  35
  -1  -6  -4 28892.0 334.423  45
   1  -6   4 30183.8 354.339  47
  -1  -6  -4 29994.7 307.141  52
   1  -6   4 28630.6 756.480  19
   1  -6   5 87128.1 660.723  42
  -1  -6  -5 84235.4 602.131  35
  -1  -6  -5 85046.0 572.146  45
  -1  -6  -5 87172.5 534.736  52
   1  -6   5 85095.3 624.927  47
   1  -6   5 85082.9 1306.29  19
   1  -6   6 12844.2 237.327  42
  -1  -6  -6 12415.2 226.334  35
  -1  -6  -6 12440.3 203.085  52
   1  -6   6 11945.6 238.551  47
   1  -6   6 11877.2 475.258  19
   1  -6   7 5801.34 147.412  48
   1  -6   7 5710.08 159.093  47
  -1  -6  -7 5857.26 135.459  52
  -1  -6  -7 5902.22 138.104  43
  -1  -6  -7 5483.00 140.868  35
  -1  -6  -8 3889.59 100.392  43
   1  -6   8 3871.97 113.102  48
   1  -6   8 3931.21 123.330  47
  -1  -6  -9 484.955 32.8266  43
  -1  -6  -9 489.343 33.9896  52
   1  -6   9 565.499 43.7899  47
   1  -6   9 435.630 34.6364  48
   1  -6  10 1850.98 60.0453  47
   1  -5 -11 1406.06 60.8279  52
  -1  -5  11 1407.05 61.1547  48
  -1  -5  11 1356.67 56.3677  40
  -1  -5  10 3829.75 110.061  40
   1  -5 -10 4012.85 115.742  52
  -1  -5  10 3912.35 120.810  47
  -1  -5  10 3981.54 117.661  48
   1  -5 -10 4049.56 95.4923  43
  -1  -5  10 3949.53 116.117  30
   1  -5  -9 205.938 30.9070  45
  -1  -5   9 117.804 27.2846  40
  -1  -5   9 158.771 35.2385  48
   1  -5  -9 268.471 42.9670  52
  -1  -5   9 199.705 41.7540  47
  -1  -5   8 15774.9 254.916  40
   1  -5  -8 15827.5 256.041  52
   1  -5  -8 15575.4 255.541  45
  -1  -5   8 15691.7 259.507  48
  -1  -5   8 15895.9 273.150  47
   1  -5  -8 15586.2 258.368  32
   1  -5  -7 8214.70 185.040  52
  -1  -5   7 7723.06 184.141  48
  -1  -5   7 7859.86 192.556  47
   1  -5  -7 7815.82 193.435  45
   1  -5  -7 8248.47 185.506  35
   1  -5  -7 7956.73 188.725  32
   1  -5  -6 43001.9 457.141  45
  -1  -5   6 43405.3 440.307  47
  -1  -5   6 42876.2 410.521  48
   1  -5  -6 42836.9 408.841  52
   1  -5  -6 44105.2 434.767  32
  -1  -5   6 43346.1 807.201  19
  -1  -5   5 13389.9 231.565  42
   1  -5  -5 13202.4 247.062  45
   1  -5  -5 12964.6 210.973  52
  -1  -5   5 13236.6 230.401  47
  -1  -5   5 13317.8 214.225  48
   1  -5  -5 12944.3 227.734  32
  -1  -5   5 13622.2 455.730  19
   1  -5  -4 47141.9 451.658  45
   1  -5  -4 46919.7 369.395  52
  -1  -5   4 46880.1 402.855  47
   1  -5  -4 47374.9 409.653  32
  -1  -5   4 45928.5 827.896  19
   1  -5  -3 18444.9 464.416  19
  -1  -5   3 19146.9 521.956  19
   1  -5  -3 19277.2 246.057  32
  -1  -5   3 19577.1 272.765  42
   1  -5  -3 18992.3 275.778  45
  -1  -5   2 10490.9 375.688  19
   1  -5  -2 10724.8 366.847  19
  -1  -5   1 24671.8 492.987   5
  -1  -5   1 24814.9 563.427  19
   1  -5  -1 23479.1 554.243  19
  -1  -5   0 59620.8 822.211   5
  -1  -5   0 56806.9 408.343  30
   1  -5   0 58725.5 887.488  19
  -1  -5  -1 9387.75 347.656   5
   1  -5   1 8840.56 355.235  19
   1  -5   1 9332.24 173.388  29
   1  -5   2 2951.09 109.006  42
  -1  -5  -2 3274.30 87.3909  52
  -1  -5  -2 3035.14 214.960   5
   1  -5   2 2951.10 105.825  29
   1  -5   2 3259.17 223.085  19
   1  -5   3 10772.4 413.869  19
   1  -5   3 11216.4 216.786  42
  -1  -5  -3 11217.2 172.660  52
  -1  -5  -3 11085.1 191.950  45
  -1  -5  -3 10820.0 435.017   5
  -1  -5  -3 10465.3 212.375  36
   1  -5   3 10369.0 210.589  29
   1  -5   4 25342.8 651.678  19
  -1  -5  -4 23995.6 696.721   5
  -1  -5  -4 25187.2 275.594  52
  -1  -5  -4 25021.8 298.495  45
  -1  -5  -4 24220.6 303.764  41
   1  -5   4 25976.6 338.785  42
  -1  -5  -4 26163.5 325.679  35
  -1  -5  -4 24542.6 336.269  36
   1  -5   4 24469.7 340.923  29
  -1  -5  -5 8013.77 175.696  45
  -1  -5  -5 8074.22 167.213  52
   1  -5   5 8084.06 378.526  19
  -1  -5  -5 7993.67 188.265  41
   1  -5   5 8043.49 192.194  42
  -1  -5  -5 8225.68 182.797  35
   1  -5   5 7899.78 198.241  29
  -1  -5  -6 9554.29 187.743  45
  -1  -5  -6 9516.66 185.387  52
   1  -5   6 9388.26 218.568  47
   1  -5   6 9694.99 418.519  19
  -1  -5  -6 8978.67 191.228  35
   1  -5   6 9338.40 222.730  29
   1  -5   6 9516.57 203.451  42
  -1  -5  -6 9252.36 212.695  41
   1  -5   7 42076.9 459.836  47
  -1  -5  -7 42446.9 390.274  52
  -1  -5  -8 2908.85 95.5438  43
   1  -5   8 2989.05 122.509  47
  -1  -5  -8 3055.27 103.213  52
  -1  -5  -9 10333.1 156.962  43
  -1  -5  -9 10478.3 168.884  52
   1  -5   9 10716.1 206.124  47
  -1  -5 -10 7559.25 106.029  43
   1  -5  10 7716.32 149.890  47
  -1  -5 -10 7455.88 118.982  52
   1  -5  10 7510.83 146.153  48
   1  -5  11 5353.31 97.0133  47
   1  -5  11 5313.15 93.2286  48
   1  -4 -12 1676.55 61.5071  52
  -1  -4  12 1693.64 63.4087  48
  -1  -4  12 1620.61 59.5112  40
  -1  -4  11 7484.81 158.190  47
  -1  -4  11 7606.15 158.644  48
   1  -4 -11 7603.01 159.247  52
  -1  -4  11 7471.12 154.021  40
  -1  -4  11 7662.19 162.580  25
   1  -4 -10 893.844 68.6932  52
  -1  -4  10 894.879 65.1398  47
  -1  -4  10 899.923 67.2811  48
  -1  -4  10 955.654 66.3429  40
  -1  -4   9 42722.9 443.567  48
  -1  -4   9 43589.0 449.704  47
   1  -4  -9 43266.4 378.884  45
   1  -4  -9 42760.1 442.453  52
  -1  -4   8 848.661 66.0831  48
   1  -4  -8 1050.15 67.0006  45
  -1  -4   8 805.024 67.2209  47
   1  -4  -8 812.657 66.8501  52
   1  -4  -8 793.294 64.1041  32
   1  -4  -8 837.364 129.438   6
   1  -4  -7 8244.54 187.977  45
   1  -4  -7 8012.53 374.509   6
   1  -4  -7 8364.36 192.042  52
  -1  -4   7 8358.75 194.081  47
   1  -4  -7 8843.09 199.868  32
  -1  -4   6 8936.41 187.668  47
   1  -4  -6 9039.51 185.819  52
   1  -4  -6 9111.72 194.859  45
   1  -4  -6 8361.51 361.484   6
  -1  -4   6 9287.31 335.476  19
  -1  -4   6 8693.74 319.994  17
   1  -4  -6 9118.37 192.127  32
   1  -4  -5 14670.2 236.479  45
  -1  -4   5 14161.0 416.596  19
   1  -4  -5 14464.3 433.399   6
  -1  -4   5 14082.2 219.458  47
   1  -4  -5 14062.8 223.211  32
   1  -4  -4 4212.30 216.620   6
  -1  -4   4 4066.39 219.436  19
   1  -4  -3 20291.9 418.160   6
  -1  -4   3 20123.9 351.348   5
   1  -4  -3 20843.8 419.071  19
  -1  -4   3 19246.4 457.562  19
  -1  -4   2 93047.1 790.315   5
   1  -4  -2 94808.8 929.066  19
  -1  -4   2 93857.7 984.958  19
   1  -4  -1 66205.9 797.482  19
  -1  -4   1 64155.3 791.979  19
   1  -4   0 34399.8 592.341  19
  -1  -4   0 35517.8 555.384   5
  -1  -4   0 35441.2 581.648  19
   1  -4   1 145268. 1250.15  19
  -1  -4  -1 143527. 1217.61   5
   1  -4   2 89936.7 1024.06  19
  -1  -4  -2 90028.1 1042.99   5
   1  -4   2 92365.6 512.754  22
  -1  -4  -3 11884.5 410.195   5
   1  -4   3 12046.9 200.039  29
   1  -4   3 11503.4 383.612  19
   1  -4   3 11914.0 198.744  22
  -1  -4  -4 4523.75 277.228   5
   1  -4   4 4561.15 131.797  22
   1  -4   4 4497.74 132.017  29
   1  -4   4 4479.50 248.310  19
   1  -4   5 975.633 120.917  19
  -1  -4  -5 1025.58 58.4664  52
  -1  -4  -5 977.212 57.0556  45
  -1  -4  -5 874.959 64.0593  41
   1  -4   5 1102.16 66.4516  42
  -1  -4  -5 998.938 123.763   6
   1  -4   5 1043.68 72.6984  22
  -1  -4  -5 1212.17 65.3287  35
  -1  -4  -5 982.105 59.6667  33
   1  -4   5 1089.88 73.3588  29
   1  -4   6 39335.4 778.269  19
   1  -4   6 37411.4 786.618  17
  -1  -4  -6 37406.4 435.305  41
  -1  -4  -6 37114.2 356.189  45
  -1  -4  -6 37084.2 367.552  52
  -1  -4  -6 38037.5 768.953   6
  -1  -4  -6 36647.9 367.163  35
  -1  -4  -6 37374.9 384.258  33
   1  -4   6 37293.9 425.955  29
   1  -4   7 11170.9 456.959  17
  -1  -4  -7 11435.8 252.557  41
  -1  -4  -7 11340.7 211.414  52
  -1  -4  -7 11440.2 440.730   6
  -1  -4  -7 11221.8 222.061  33
  -1  -4  -7 10894.9 202.166  35
   1  -4   7 11403.1 241.422  29
   1  -4   8 57853.3 1060.58  17
  -1  -4  -8 57745.5 556.634  41
  -1  -4  -8 57462.7 418.141  43
  -1  -4  -8 58110.4 503.660  33
   1  -4   8 57879.0 531.332  29
  -1  -4  -8 58516.3 470.291  52
   1  -4   8 57018.2 545.827  47
   1  -4   9 48054.0 476.723  47
  -1  -4  -9 47000.1 398.137  52
  -1  -4  -9 48406.3 487.597  41
  -1  -4  -9 48334.4 439.863  33
   1  -4  10 9090.09 184.760  47
  -1  -4 -10 8723.46 150.119  52
  -1  -4 -11 8043.57 108.375  52
   1  -4  11 8429.18 149.009  48
   1  -4  11 8510.99 148.740  47
  -1  -3  13 707.450 35.3615  40
   1  -3 -13 651.327 31.8674  52
  -1  -3  12 1918.53 74.6818  40
   1  -3 -12 1887.69 76.0953  52
  -1  -3  12 1935.18 77.0654  48
  -1  -3  11 8615.47 183.417  40
  -1  -3  11 8685.37 179.569  47
  -1  -3  11 8455.32 182.573  48
   1  -3 -11 8521.39 188.179  52
   1  -3 -10 16499.6 266.773  33
   1  -3 -10 16108.6 232.758  32
  -1  -3  10 16199.2 272.987  48
   1  -3 -10 16660.3 285.655  52
  -1  -3  10 16737.1 270.688  47
  -1  -3   9 9411.23 420.581  17
  -1  -3   9 9613.40 211.262  47
   1  -3  -9 9501.32 220.142  52
   1  -3  -9 9866.36 212.001  33
   1  -3  -9 9471.98 198.350  32
  -1  -3   8 64163.7 1050.26  17
   1  -3  -8 63352.2 468.075  45
   1  -3  -8 63130.4 551.065  52
  -1  -3   8 63426.8 535.663  47
   1  -3  -8 62626.9 1108.97   6
   1  -3  -8 64649.6 524.449  33
   1  -3  -8 62488.7 520.177  32
  -1  -3   7 27721.1 646.678  17
   1  -3  -7 28986.5 320.453  45
   1  -3  -7 29025.7 336.586  41
  -1  -3   7 29576.2 342.540  47
   1  -3  -7 28855.5 348.783  52
   1  -3  -7 29213.9 326.421  33
   1  -3  -7 28883.8 700.656   6
   1  -3  -7 28658.5 339.862  32
  -1  -3   6 3597.01 212.413  17
   1  -3  -6 3333.57 221.496   6
  -1  -3   5 513.189 76.1662  17
   1  -3  -5 544.915 86.6109   6
  -1  -3   5 654.965 76.6363  19
  -1  -3   4 5283.63 200.592  17
   1  -3  -4 5484.04 227.484   6
  -1  -3   4 5363.20 214.095  19
   1  -3  -3 39394.4 536.210   6
  -1  -3   3 39516.4 560.127  19
   1  -3  -3 38798.4 464.636  19
   1  -3  -2 154262. 969.919  19
  -1  -3   2 154789. 841.566   5
   1  -3  -2 151812. 929.502   6
  -1  -3   2 152034. 1053.73  19
   1  -3  -1 20033.4 364.699  19
  -1  -3   1 20965.6 338.833   5
  -1  -3   1 20631.4 379.884  19
  -1  -3   0 84352.8 744.783   5
  -1  -3   0 83876.7 755.648  19
   1  -3   1 103446. 900.813  19
  -1  -3  -1 102718. 887.243   5
   1  -3   1 104726. 428.808  22
  -1  -3  -2 113785. 1035.95   5
   1  -3   2 112734. 494.687  22
   1  -3   3 7730.17 281.943  12
  -1  -3  -3 8233.31 308.747   5
  -1  -3  -3 7828.92 258.277   6
   1  -3   3 7909.74 145.650  22
  -1  -3  -4 40778.3 752.365   5
  -1  -3  -4 40277.7 632.216   6
   1  -3   4 39931.9 354.294  29
   1  -3   4 40382.6 666.294  19
   1  -3   4 39713.6 704.829  12
   1  -3   4 40550.5 356.683  22
  -1  -3  -5 45641.9 742.953   6
   1  -3   5 45318.2 405.536  22
   1  -3   5 45442.7 414.598  29
   1  -3   5 46541.0 842.166  12
   1  -3   5 45839.0 748.173  19
   1  -3   6 30830.0 631.410  19
  -1  -3  -6 30171.2 321.520  52
  -1  -3  -6 29795.4 288.810  45
  -1  -3  -6 30292.5 381.531  41
   1  -3   6 29394.9 348.750  22
  -1  -3  -6 29408.7 300.267  35
  -1  -3  -6 30401.9 343.344  33
   1  -3   6 29993.9 362.049  29
   1  -3   7 6818.64 373.321  17
  -1  -3  -7 6772.64 165.585  52
  -1  -3  -7 6882.10 196.509  41
  -1  -3  -7 6639.08 336.383   6
   1  -3   7 6979.10 179.430  22
  -1  -3  -7 6825.09 178.086  33
   1  -3   7 6859.45 181.124  29
   1  -3   8 15352.6 578.117  17
  -1  -3  -8 16110.0 211.695  43
  -1  -3  -8 15958.3 303.922  41
  -1  -3  -8 15990.0 257.353  52
  -1  -3  -8 16150.3 540.038   6
  -1  -3  -8 16224.5 283.807  33
   1  -3   8 16302.3 278.693  29
   1  -3   9 2961.75 125.193  47
  -1  -3  -9 2960.12 108.626  52
  -1  -3  -9 2902.90 122.565  33
   1  -3   9 2604.82 238.707  17
  -1  -3  -9 2757.30 83.8875  43
  -1  -3  -9 2955.75 131.232  41
  -1  -3 -10 2917.43 118.954  41
  -1  -3 -10 2834.92 95.3596  52
   1  -3  10 3114.32 118.699  47
  -1  -3 -10 3031.31 116.853  33
   1  -3  11 4041.51 119.399  48
  -1  -3 -11 3728.84 86.0171  52
   1  -3  11 3963.42 113.851  47
  -1  -3 -11 3779.55 110.335  33
   1  -3  12 212.909 22.8016  40
   1  -3  12 210.745 22.7206  48
  -1  -2  13 246.437 25.9959  40
   1  -2 -13 268.801 25.2358  52
  -1  -2  12 3981.31 117.052  40
   1  -2 -12 3833.90 108.298  33
   1  -2 -12 3833.05 117.125  52
  -1  -2  12 4198.09 119.963  48
  -1  -2  11 3484.70 122.907  48
   1  -2 -11 3402.34 128.859  52
  -1  -2  11 3809.44 121.022  47
   1  -2 -11 3411.81 119.226  33
   1  -2 -10 1210.90 86.6567  52
  -1  -2  10 1197.09 79.7663  48
  -1  -2  10 1186.69 73.6752  47
   1  -2 -10 1147.55 77.3609  33
  -1  -2  10 1200.89 162.786  14
  -1  -2  10 906.843 140.790  17
  -1  -2   9 28880.9 749.417  17
   1  -2  -9 29675.1 396.221  52
  -1  -2   9 29489.7 360.955  47
   1  -2  -9 28674.0 797.517   6
   1  -2  -9 29990.7 376.735  33
   1  -2  -9 29067.1 339.222  32
  -1  -2   8 12311.5 466.009  17
   1  -2  -8 13329.3 237.464  41
  -1  -2   8 12842.7 229.361  47
   1  -2  -8 13006.1 248.345  52
  -1  -2   8 13038.1 490.832   3
   1  -2  -8 12862.0 503.251   6
   1  -2  -8 13465.9 238.152  33
   1  -2  -8 13175.2 227.095  32
   1  -2  -7 12257.4 218.840  52
  -1  -2   7 12118.9 207.442  47
   1  -2  -7 12125.6 209.056  41
   1  -2  -7 12027.4 437.986   6
  -1  -2   7 12678.2 430.920   3
  -1  -2   7 11565.6 413.742  17
   1  -2  -7 12230.2 207.490  33
  -1  -2   6 29665.4 602.258  17
   1  -2  -6 29839.5 621.943   6
  -1  -2   6 29964.7 597.747   3
  -1  -2   6 28022.0 500.834   1
  -1  -2   5 106834. 1037.31  17
  -1  -2   5 109031. 1028.73   3
  -1  -2   5 112830. 862.025   1
   1  -2  -5 110830. 1070.04   6
  -1  -2   4 71269.3 567.489   1
   1  -2  -4 71641.7 764.695   6
  -1  -2   4 71660.6 627.734  19
  -1  -2   3 73994.0 627.544  17
   1  -2  -3 73081.8 683.810   6
  -1  -2   3 75408.0 624.561  19
   1  -2  -2 68938.7 559.055   6
  -1  -2   2 68449.2 573.989  19
  -1  -2   1 71988.8 508.908   5
   1  -2  -1 82514.1 516.529   6
   1  -2   0 303320. 1182.91  16
  -1  -2   0 303786. 1183.24   5
   1  -2   1 75227.8 550.181  16
  -1  -2  -1 72249.9 638.771   5
   1  -2   2 105711. 860.718  12
   1  -2   2 106712. 426.105  22
   1  -2   3 3809.02 187.551  12
  -1  -2  -3 3735.45 163.143   6
  -1  -2  -3 3483.54 183.191   5
   1  -2   3 3771.76 90.2439  22
   1  -2   4 76161.4 923.248  12
   1  -2   4 77646.3 458.310  22
  -1  -2  -5 116437. 1130.27   6
   1  -2   5 116622. 612.643  22
   1  -2   5 115724. 605.102  29
   1  -2   5 115773. 1265.54  12
   1  -2   5 117336. 1060.26  19
   1  -2   6 14036.7 231.467  29
  -1  -2  -6 14293.8 249.767  41
  -1  -2  -6 14539.8 445.612   6
   1  -2   6 14327.6 232.102  22
  -1  -2  -6 14732.7 235.068  33
   1  -2   6 14358.6 492.734  12
   1  -2   7 9638.21 442.461  12
  -1  -2  -7 9421.99 190.740  52
  -1  -2  -7 9810.58 154.214  43
  -1  -2  -7 9618.29 225.444  41
  -1  -2  -7 9251.45 389.509   6
   1  -2   7 9541.42 200.813  22
  -1  -2  -7 9337.40 204.058  36
  -1  -2  -7 9894.01 216.567  33
   1  -2   7 9510.91 200.124  29
   1  -2   8 6836.56 398.945  17
  -1  -2  -8 6905.87 172.854  52
  -1  -2  -8 7003.91 201.575  41
   1  -2   8 7013.48 177.691  22
  -1  -2  -8 7316.94 200.390  33
   1  -2   8 7478.73 181.718  29
  -1  -2  -9 2742.01 107.733  52
  -1  -2  -9 2921.85 131.814  33
   1  -2   9 2646.61 255.573  17
  -1  -2  -9 2764.51 128.318  41
  -1  -2 -10 2676.91 96.2587  52
   1  -2  10 2907.22 118.583  47
  -1  -2 -10 2803.99 124.240  33
   1  -2  10 3158.46 265.685  17
  -1  -2 -10 2522.16 114.034  41
  -1  -2 -11 4025.43 96.3073  52
  -1  -2 -11 4052.97 127.521  33
   1  -2  12 486.150 38.9723  40
   1  -2  12 471.336 36.0828  48
  -1  -2 -12 421.341 33.9926  33
   1  -1 -13 4600.18 101.407  52
  -1  -1  13 5225.07 110.527  40
  -1  -1  12 116.019 29.2269  40
  -1  -1  12 161.974 32.5707  25
   1  -1 -12 87.7325 25.4212  33
  -1  -1  12 133.572 25.8844  48
   1  -1 -12 120.783 31.9948  52
   1  -1 -11 3802.66 140.215  52
  -1  -1  11 3992.00 131.662  48
   1  -1 -11 3771.91 128.724  33
  -1  -1  10 43366.7 450.510  48
   1  -1 -10 43240.7 486.013  52
   1  -1 -10 42249.4 450.526  33
  -1  -1  10 43694.2 946.664  17
   1  -1  -9 12092.1 256.307  52
  -1  -1   9 12405.9 221.299  47
   1  -1  -9 12176.2 517.554   6
  -1  -1   9 12223.3 479.382   3
   1  -1  -9 12264.6 227.080  41
   1  -1  -9 12077.3 240.182  33
  -1  -1   9 11779.1 481.021  17
   1  -1  -8 16801.0 277.684  52
   1  -1  -8 16541.2 263.233  50
  -1  -1   8 16842.1 247.349  47
   1  -1  -8 17335.8 258.958  41
   1  -1  -8 16842.0 564.560   6
  -1  -1   8 17502.9 544.382   3
  -1  -1   8 16746.3 535.427  17
   1  -1  -8 17335.1 268.371  33
  -1  -1   7 26161.8 613.507  17
  -1  -1   7 24592.8 556.746   1
   1  -1  -7 26079.5 625.618   6
  -1  -1   7 26579.1 602.405   3
  -1  -1   6 20829.1 496.190  17
  -1  -1   6 20398.7 474.039   3
   1  -1  -6 20321.7 490.484   6
  -1  -1   6 19625.8 449.711   1
  -1  -1   5 10773.2 322.321  17
  -1  -1   5 10804.2 307.836   3
  -1  -1   5 10928.3 288.609   1
   1  -1  -5 11436.9 326.843   6
  -1  -1   4 178996. 1139.54  17
  -1  -1   4 176963. 1086.52   3
   1  -1  -4 186660. 1152.91   6
   1  -1  -4 187045. 806.985   2
  -1  -1   4 180343. 1000.81   1
  -1  -1   3 50188.4 504.739  17
   1  -1  -3 51117.7 473.611  16
  -1  -1   3 49514.8 421.713   1
  -1  -1   2 34079.0 333.771  17
   1  -1  -2 33190.6 350.556   6
   1  -1  -2 34023.8 269.253   4
   1  -1  -1 632910. 1114.22   6
  -1  -1   1 639241. 1151.24   3
   1  -1   0 575643. 1227.98   9
  -1  -1   0 536742. 1264.83   5
  -1  -1  -1 153776. 796.332   5
   1  -1   1 151566. 800.352   9
   1  -1   2 48531.6 472.920  18
  -1  -1  -2 48626.7 461.747   6
  -1  -1  -2 48466.0 528.939   5
   1  -1   3 98805.8 748.427  18
  -1  -1  -3 95362.8 846.953   5
   1  -1   3 94228.5 839.650   9
  -1  -1  -3 97397.3 759.837   6
   1  -1   4 52196.9 598.330  18
   1  -1   4 48870.7 708.726  12
  -1  -1  -4 50774.9 705.252   5
  -1  -1  -4 50041.2 628.615   6
   1  -1   4 50604.7 337.213  22
   1  -1   5 71512.9 957.937  12
   1  -1   5 70238.1 450.599  22
  -1  -1  -6 12504.1 403.631   6
   1  -1   6 12861.9 208.192  22
   1  -1   6 12693.8 203.732  29
   1  -1   6 12926.0 452.005  12
   1  -1   7 14112.6 548.631   1
  -1  -1  -7 14684.7 482.478   6
  -1  -1  -7 15082.4 270.872  41
  -1  -1  -7 14668.9 234.097  52
   1  -1   7 14469.6 234.062  22
  -1  -1  -7 14764.2 256.941  36
  -1  -1  -7 14497.8 264.192  33
   1  -1   7 15271.6 534.962  12
   1  -1   8 10886.1 517.642   1
  -1  -1  -8 9886.15 420.496   6
  -1  -1  -8 10268.5 206.519  52
   1  -1   8 10517.4 206.995  22
  -1  -1  -8 10683.4 249.768  33
   1  -1   8 10432.1 481.646  12
  -1  -1  -8 10382.6 241.798  41
  -1  -1  -9 13810.1 237.874  52
  -1  -1  -9 14203.1 294.966  33
   1  -1   9 14415.0 607.984  17
  -1  -1  -9 13395.4 276.821  41
   1  -1  10 4681.89 149.469  47
  -1  -1 -10 4113.49 120.346  52
  -1  -1 -10 4059.32 155.616  33
   1  -1  10 4908.26 353.205  17
  -1  -1 -10 3992.54 142.229  41
  -1  -1 -11 7330.19 164.991  41
  -1  -1 -11 7369.41 183.550  33
  -1  -1 -12 5293.81 122.998  33
   1  -1  12 6261.83 126.080  48
   1   0 -13 1210.13 48.6147  33
   1   0 -13 1368.92 56.6725  52
  -1   0  12 875.260 54.8101  40
   1   0 -12 849.193 61.6162  52
   1   0 -12 833.087 54.7985  33
  -1   0  12 985.991 67.1516  25
  -1   0  11 1749.59 89.4475  40
   1   0 -11 1575.79 86.1768  33
   1   0 -11 1685.66 95.0326  52
  -1   0  11 1719.87 97.0747  25
  -1   0  10 2599.55 106.221  48
   1   0 -10 2289.14 115.012  52
   1   0 -10 2018.03 100.072  50
   1   0 -10 2227.88 105.712  33
  -1   0  10 2278.61 220.772  17
  -1   0  10 2456.62 242.008  14
   1   0  -9 72967.6 596.071  50
   1   0  -9 73554.0 589.218  33
  -1   0   9 77349.5 1217.36  17
  -1   0   9 71858.1 1125.43   3
   1   0  -9 75456.5 1291.68   6
   1   0  -8 89685.6 623.209  50
   1   0  -8 90647.3 1301.52   6
  -1   0   8 91321.2 1237.15  17
   1   0  -8 90359.5 711.670  34
   1   0  -8 91832.1 608.497  33
  -1   0   7 5710.18 272.420   1
   1   0  -7 5715.29 295.668   6
  -1   0   7 5830.91 278.178   3
  -1   0   7 5792.92 282.836  17
  -1   0   6 62613.0 807.959   3
  -1   0   6 63687.6 812.089   1
   1   0  -6 64924.5 872.811   6
  -1   0   6 63011.2 839.934  17
   1   0  -5 76.7249 47.1253   6
  -1   0   5 93.2771 46.8530   1
   1   0  -5 38.2045 29.4159   2
  -1   0   5-1.12650 32.0207  17
   1   0  -4 345.470 48.2521   2
  -1   0   4 349.326 55.0062   1
  -1   0   4 408.718 56.0982  17
   1   0  -4 423.819 37.8173  16
  -1   0   3 178496. 896.676   1
   1   0  -3 179995. 859.379   2
   1   0  -2 106909. 556.010   4
  -1   0   2 110441. 573.005  14
  -1   0   1 278352. 584.192   8
   1   0  -1 272747. 819.106   4
   1   0   0 9340.12 144.429   7
  -1   0   0 10362.3 126.440   5
  -1   0  -1 999999. 1644.98   5
  -1   0  -1 995729. 1724.54  15
  -1   0  -2 5343.11 134.816   6
  -1   0  -2 5700.53 157.510   5
   1   0   3 10687.8 155.507   7
   1   0   3 10180.5 264.005   9
   1   0   3 10293.3 207.826   3
  -1   0  -3 9910.56 225.510   6
  -1   0  -3 9934.98 248.575   5
   1   0   3 9994.66 215.547  18
   1   0   4 27.1463 33.4231   9
   1   0   4 55.9231 17.2585   7
  -1   0  -4-16.3033 30.1165   6
   1   0   4 4.44030 14.0523  18
   1   0   5 62022.2 817.550   9
   1   0   5 60968.2 669.087   3
  -1   0  -5 60446.2 761.152   6
   1   0   5 59789.1 857.596  12
   1   0   6 26995.8 287.841  22
   1   0   6 26015.1 625.714  12
  -1   0  -6 26908.5 572.828   6
   1   0   6 26407.5 493.754   3
  -1   0  -7 16966.7 280.194  41
  -1   0  -7 16890.3 502.078   6
   1   0   7 17085.6 607.452   1
   1   0   7 17539.1 246.853  22
  -1   0  -7 17669.0 294.597  33
   1   0   7 17007.3 562.160  12
   1   0   8 84755.2 1458.84   1
  -1   0  -8 73186.1 1130.88   6
  -1   0  -8 74338.3 545.687  52
  -1   0  -8 76078.4 674.772  33
   1   0   8 81083.9 1324.91  12
  -1   0  -8 73366.1 619.126  41
  -1   0  -9 101634. 634.799  52
  -1   0  -9 102546. 806.418  33
  -1   0 -10 6845.27 177.159  41
  -1   0 -10 7308.18 212.263  33
  -1   0 -11 977.992 73.9883  33
  -1   0 -11 984.897 58.0703  41
   1   0  12 1428.41 59.6305  40
  -1   0 -12 1453.61 68.8047  33
   1   1 -13 4345.77 94.1942  52
  -1   1  12 207.631 30.1768  25
   1   1 -12 121.644 30.1928  52
   1   1 -12 148.454 25.3159  33
   1   1 -11 3562.30 123.344  33
   1   1 -11 3724.94 136.089  52
  -1   1  11 3745.73 130.694  25
   1   1 -10 42455.2 450.474  50
  -1   1  10 42852.1 449.647  25
   1   1 -10 41440.6 563.297  34
   1   1 -10 42022.5 446.379  33
  -1   1  10 43362.4 934.158  17
  -1   1  10 43263.4 957.521  14
   1   1  -9 11847.1 244.719  50
   1   1  -9 11976.5 236.102  33
   1   1  -9 11739.8 291.863  34
  -1   1   9 11869.7 483.671  14
  -1   1   9 12231.2 479.599  17
  -1   1   9 10821.5 420.702   3
   1   1  -9 11930.4 512.141   6
  -1   1   9 11807.6 470.503   8
   1   1  -8 17030.4 280.954  50
   1   1  -8 16979.8 565.218   6
  -1   1   8 18045.2 539.969  17
   1   1  -8 16780.8 314.514  34
   1   1  -8 16748.6 260.516  33
   1   1  -7 25169.7 625.955   6
  -1   1   7 25251.1 562.593   3
  -1   1   7 26732.1 598.169  17
   1   1  -6 19816.9 531.158  20
  -1   1   6 20559.1 477.848   1
  -1   1   6 20253.1 479.461  17
   1   1  -5 11160.8 344.928  20
  -1   1   5 10362.6 306.654   1
   1   1  -5 11127.4 319.278   2
  -1   1   5 10810.6 314.321  17
   1   1  -4 178991. 1162.94   2
  -1   1   4 180531. 1115.11   1
  -1   1   4 181128. 1086.01  17
   1   1  -3 46932.9 533.950   2
  -1   1   3 50745.1 476.363  17
   1   1  -2 33565.5 305.755   7
   1   1  -1 629733. 1438.07   4
  -1   1   1 630538. 1189.54  14
   1   1   0 575125. 1235.25   4
  -1   1   0 564923. 1173.40  15
   1   1   1 156891. 650.761   4
  -1   1  -1 159593. 458.062   5
   1   1   2 48565.7 299.506   3
  -1   1  -3 96941.6 684.743   6
  -1   1  -3 95846.8 732.194  20
   1   1   4 50313.0 490.441   3
  -1   1  -4 50380.7 588.380   6
   1   1   4 50880.2 659.814   9
  -1   1  -4 50411.8 340.578  23
  -1   1  -5 72501.2 900.362  20
   1   1   5 72813.0 936.769  12
   1   1   5 71262.7 672.851   3
  -1   1  -5 69405.6 802.342   6
   1   1   5 71123.8 867.372   9
   1   1   6 13362.2 447.033  12
   1   1   6 13482.1 408.219   9
   1   1   6 12105.8 310.180   3
  -1   1  -6 12869.2 388.445   6
   1   1   6 13071.3 463.207   1
  -1   1  -7 13944.0 452.400   6
   1   1   7 14311.3 539.437   1
  -1   1  -7 14590.4 271.750  33
  -1   1  -7 13921.1 247.283  41
   1   1   7 14811.2 517.544  12
  -1   1  -8 10472.0 423.557   6
  -1   1  -8 10265.3 251.516  33
  -1   1  -8 10086.1 220.755  41
  -1   1  -9 13937.5 301.285  33
   1   1   9 14631.2 614.365  17
  -1   1 -10 4051.37 161.030  33
   1   1  10 4106.82 321.998  17
  -1   1 -11 7416.85 190.750  33
  -1   1 -12 5635.65 132.352  33
   1   2 -12 3772.70 111.809  52
   1   2 -11 3288.89 113.619  33
   1   2 -11 3416.26 156.507  34
  -1   2  11 3332.01 111.868  25
   1   2 -11 3111.24 108.511  50
   1   2 -11 3319.75 123.095  52
  -1   2  10 1186.04 70.3842  25
   1   2 -10 1176.58 77.5942  50
   1   2 -10 1168.24 104.225  34
   1   2 -10 1174.03 74.9216  33
  -1   2  10 1287.57 158.080  14
  -1   2   9 29022.9 337.924  25
   1   2  -9 29076.0 389.900  50
   1   2  -9 28083.6 784.853   6
  -1   2   9 28933.7 727.468   8
   1   2  -9 28800.4 455.999  34
   1   2  -9 29206.0 364.823  33
  -1   2   9 29502.8 746.533  14
  -1   2   9 30164.9 712.484  17
  -1   2   8 13156.0 218.189  25
   1   2  -8 12600.1 227.503  33
   1   2  -8 13161.1 509.742   6
  -1   2   8 11567.4 406.036   3
  -1   2   8 12026.8 444.462   8
   1   2  -8 12473.3 277.448  34
  -1   2   8 13301.3 448.956  17
  -1   2   8 13186.1 466.655  14
  -1   2   7 12101.8 407.853   8
  -1   2   7 11841.2 410.857  14
  -1   2   7 12440.8 400.607  17
   1   2  -7 12014.1 237.703  34
   1   2  -7 11926.0 479.489  20
  -1   2   6 29968.3 585.866   8
  -1   2   6 28002.5 545.519  17
  -1   2   6 29735.2 592.560  14
   1   2  -6 29061.4 659.941  20
   1   2  -5 109088. 1120.89   2
  -1   2   5 110092. 1018.04   8
  -1   2   5 108750. 947.752  17
  -1   2   5 110546. 1019.60  14
  -1   2   4 72704.3 739.914   8
   1   2  -4 70666.1 820.565   2
  -1   2   4 70076.9 646.247  17
  -1   2   4 72799.8 730.071  14
   1   2  -4 70336.3 751.142  20
  -1   2   3 72366.2 654.291   8
   1   2  -3 71554.3 754.927   2
  -1   2   3 74132.8 645.519  14
   1   2  -3 75156.7 648.739  20
  -1   2   2 67930.0 545.091   8
  -1   2   2 67757.1 518.335  14
   1   2  -1 82655.8 463.540  11
  -1   2   1 83321.9 497.396  14
   1   2   0 305140. 1066.36   4
   1   2   0 304290. 936.159  10
   1   2   1 74469.9 475.811   4
  -1   2  -1 73861.3 560.747  15
   1   2   2 108562. 525.478   4
  -1   2  -2 106161. 813.495  15
   1   2   3 4078.91 99.2395   4
   1   2   3 3700.23 100.779   3
  -1   2  -3 3806.21 84.2739  23
  -1   2  -3 4240.28 166.364  20
   1   2   4 77200.3 565.956   3
  -1   2  -4 79040.9 444.692  23
   1   2   5 113245. 1211.00   1
   1   2   5 122084. 1150.88   9
  -1   2  -5 118060. 1051.91   6
  -1   2  -5 116617. 635.254  23
  -1   2  -5 119905. 1207.75  20
   1   2   6 14617.5 429.343   9
  -1   2  -6 14485.2 409.906   6
   1   2   6 13448.1 467.562   1
   1   2   6 15807.9 479.643  12
  -1   2  -6 14762.5 475.318  20
  -1   2  -7 9402.22 222.422  34
   1   2   7 9632.32 440.062   1
  -1   2  -7 9160.33 362.780   6
  -1   2  -7 9255.53 218.762  33
  -1   2  -8 7039.38 203.112  34
   1   2   8 7381.15 396.258  17
  -1   2  -8 6923.98 207.301  33
  -1   2  -9 2805.39 125.230  34
   1   2   9 2797.36 252.348  17
  -1   2  -9 2785.89 137.779  33
  -1   2 -10 2682.92 130.046  33
  -1   2 -11 4151.82 138.382  33
  -1   2 -12 397.095 35.8825  33
   1   3 -12 1830.04 69.0555  52
   1   3 -11 8321.37 233.715  34
   1   3 -10 16277.0 274.707  50
   1   3 -10 16090.8 258.814  33
   1   3 -10 16545.0 348.857  34
  -1   3  10 16497.9 527.812  14
   1   3  -9 9598.73 205.879  33
  -1   3   9 9952.57 425.417   8
   1   3  -9 9433.86 260.489  34
  -1   3   9 8876.29 394.124  14
  -1   3   8 63807.6 450.115  25
   1   3  -8 61441.2 502.973  33
  -1   3   8 64155.4 1037.82   8
   1   3  -8 62651.0 625.052  34
  -1   3   8 62143.7 996.711  14
   1   3  -7 28755.7 374.114  49
  -1   3   7 28965.6 284.895  25
   1   3  -7 29105.9 768.544  20
   1   3  -7 28060.7 373.890  34
  -1   3   7 28797.3 637.768  14
  -1   3   7 28757.5 652.762   8
  -1   3   6 4040.72 227.468   8
  -1   3   6 3913.36 214.979  14
   1   3  -6 3798.44 251.544  20
  -1   3   6 3716.64 93.6005  25
  -1   3   5 596.414 85.4178   8
  -1   3   5 530.149 73.4969  14
   1   3  -5 531.880 91.0937  20
  -1   3   5 558.482 32.9975  25
   1   3  -4 5116.89 252.350   2
  -1   3   4 5334.54 213.290   8
  -1   3   4 5405.09 204.657  14
   1   3  -4 5102.15 225.740  20
  -1   3   3 38982.9 478.917  14
  -1   3   3 39760.2 517.129   8
   1   3  -3 40889.8 642.119   2
   1   3  -3 41097.8 371.210   7
   1   3  -2 149501. 1139.41   2
  -1   3   2 151484. 461.782  24
   1   3  -1 20475.6 380.200   2
   1   3  -1 19517.8 278.902  11
  -1   3   1 19818.1 281.734  15
   1   3  -1 20733.0 270.827  21
   1   3   0 86102.9 700.050   2
   1   3   0 90599.3 615.741  10
  -1   3   0 86089.7 608.614  15
   1   3   0 88836.9 566.138  21
  -1   3   0 82793.8 586.531  21
   1   3   1 104220. 639.643   1
   1   3   1 106385. 676.449   2
   1   3   1 105467. 714.936  10
  -1   3  -1 105633. 669.973  21
   1   3   2 113523. 829.492   8
   1   3   2 115271. 827.721  10
   1   3   2 113208. 834.123   1
   1   3   2 111151. 702.110  14
  -1   3  -2 116724. 446.642  23
   1   3   3 7823.38 259.497   1
   1   3   3 8098.15 258.885   8
  -1   3  -3 7919.09 133.410  23
   1   3   4 38962.8 651.946   1
   1   3   4 39380.4 648.796   8
  -1   3  -4 41508.8 663.711  20
  -1   3  -4 40876.3 347.487  23
   1   3   5 45094.2 792.460   8
   1   3   5 45389.3 784.990   1
  -1   3  -5 47489.7 793.769  20
  -1   3  -5 46112.5 412.194  23
  -1   3  -6 30162.3 382.887  37
   1   3   6 29427.4 703.457   1
   1   3   6 30585.5 734.713   8
  -1   3  -6 29525.7 374.226  34
  -1   3  -6 30345.1 703.429  20
   1   3   7 6452.11 363.228   1
   1   3   7 6866.86 389.375   8
  -1   3  -7 6589.47 187.332  33
  -1   3  -7 6994.71 201.523  34
  -1   3  -7 6859.39 370.391  20
  -1   3  -8 15648.5 308.226  33
  -1   3  -8 16232.5 319.023  34
   1   3   8 18332.0 629.304  14
   1   3   8 18139.4 690.514   8
  -1   3  -9 2919.15 138.438  33
  -1   3  -9 2985.25 132.978  34
   1   3   9 2752.68 252.696  14
  -1   3 -10 2877.42 127.709  33
  -1   3 -10 2819.91 111.830  34
  -1   3 -11 3568.42 120.556  33
   1   4 -11 7498.68 207.186  34
   1   4 -11 7488.55 151.413  52
   1   4 -10 875.417 63.9378  50
   1   4 -10 1024.62 92.3120  34
   1   4  -9 42978.7 542.827  34
  -1   4   9 41487.5 803.359  14
  -1   4   8 844.025 119.579   8
  -1   4   8 1143.34 133.004  14
   1   4  -8 1101.12 91.6027  34
   1   4  -8 697.534 153.908  20
   1   4  -7 8595.84 435.856  20
   1   4  -7 8892.26 225.337  49
  -1   4   7 7900.36 352.769   8
   1   4  -7 8325.42 212.900  34
  -1   4   7 8605.19 341.679  14
   1   4  -6 9757.90 419.779  20
   1   4  -6 9222.81 217.095  49
   1   4  -6 9163.41 200.577  34
  -1   4   6 8789.59 318.696  14
  -1   4   5 13528.8 396.197   8
   1   4  -5 14221.0 447.872  20
  -1   4   5 14252.1 368.600  14
   1   4  -5 13847.2 218.933  34
  -1   4   4 4176.80 180.688  14
  -1   4   4 4220.16 102.738  24
   1   4  -4 4413.26 226.642  20
   1   4  -4 4547.43 118.225  26
  -1   4   3 19450.8 203.213  24
   1   4  -3 20028.6 211.444  28
  -1   4   3 19611.0 356.242  14
  -1   4   3 20302.0 424.436  10
   1   4  -3 19770.3 502.168   2
  -1   4   2 91495.2 409.450  24
   1   4  -2 93089.6 382.166  28
   1   4  -2 89295.9 689.197  11
   1   4  -2 91720.7 1001.33   2
  -1   4   2 95059.9 833.737  10
  -1   4   1 67358.8 667.696  21
   1   4  -1 67256.9 593.060  21
  -1   4   1 70104.1 345.462  27
  -1   4   1 69933.0 650.684  10
   1   4  -1 67143.6 604.892  11
   1   4  -1 66904.4 792.836   2
   1   4   0 36054.1 432.996  21
  -1   4   0 35042.4 460.964  21
  -1   4   0 36626.1 244.428  27
  -1   4   0 36069.1 441.893  15
   1   4   0 36055.6 521.947   2
  -1   4  -1 140870. 964.968  15
   1   4   1 141495. 913.821  21
  -1   4  -1 140471. 938.021  21
   1   4   2 90805.9 803.874  10
  -1   4  -2 89324.5 448.472  23
   1   4   3 12314.4 324.014   8
  -1   4  -3 12515.1 176.618  28
  -1   4  -3 12822.6 185.670  23
   1   4   4 4855.90 223.592  10
   1   4   4 4925.90 234.571   8
  -1   4  -4 4728.11 128.176  23
  -1   4  -4 4813.11 250.986  20
  -1   4  -5 973.029 68.8271  37
   1   4   5 846.220 110.390   8
  -1   4  -5 940.507 66.3284  34
  -1   4  -5 979.914 67.2362  23
  -1   4  -5 974.192 136.639  20
  -1   4  -6 38520.6 452.133  37
   1   4   6 39312.3 825.477   8
  -1   4  -6 38634.8 838.316  20
  -1   4  -6 38010.6 450.311  34
   1   4   7 11565.1 494.259   8
  -1   4  -7 11239.0 266.330  34
  -1   4  -7 11478.6 487.372  20
  -1   4  -8 57774.6 609.666  34
  -1   4  -8 57166.1 573.962  33
  -1   4  -9 47736.1 523.999  34
  -1   4  -9 48398.1 517.813  33
  -1   4 -10 8892.28 192.348  34
  -1   4 -10 8830.10 201.563  33
  -1   4 -11 7790.00 152.141  33
   1   5 -11 1471.47 83.6858  34
   1   5 -10 3629.93 114.783  50
   1   5 -10 3792.97 150.528  34
  -1   5   9 117.665 29.3664  24
   1   5  -9 157.284 52.8507  34
   1   5  -8 15876.3 304.397  49
   1   5  -8 15581.7 311.854  34
  -1   5   8 15936.8 252.292  24
   1   5  -8 16555.6 650.097  20
  -1   5   7 8226.23 380.940  10
   1   5  -7 8002.38 222.442  49
   1   5  -7 7618.87 210.029  34
   1   5  -7 8591.34 445.151  20
  -1   5   7 7833.49 172.459  24
  -1   5   6 41301.7 813.965  10
   1   5  -6 45180.9 508.952  49
   1   5  -6 42214.7 459.928  34
  -1   5   6 42199.5 377.024  24
   1   5  -6 44939.1 929.747  20
  -1   5   5 12669.7 417.944  10
   1   5  -5 13182.4 257.491  49
   1   5  -5 12894.1 232.178  34
   1   5  -5 13660.4 470.029  20
  -1   5   5 12670.3 196.107  24
  -1   5   4 46423.5 745.491  10
   1   5  -4 46773.3 422.446  49
   1   5  -4 47836.9 405.590  34
   1   5  -4 46804.8 793.714  20
  -1   5   4 45078.0 350.098  24
   1   5  -4 49360.5 422.428  26
  -1   5   3 18180.7 220.385  27
   1   5  -3 18148.4 232.036  28
  -1   5   3 18865.6 438.899  10
  -1   5   3 18235.2 209.785  24
  -1   5   2 10605.9 160.131  27
   1   5  -2 10857.3 155.828  28
   1   5  -2 10338.7 268.121  11
  -1   5   2 10773.8 306.241  10
  -1   5   2 10603.5 310.951  21
   1   5  -1 24744.4 213.330  28
  -1   5   1 24875.5 238.031  27
   1   5  -1 24612.9 413.653  11
  -1   5   1 25354.2 456.832  21
  -1   5   0 58814.6 361.816  27
   1   5   0 57031.3 673.014  11
   1   5   0 57771.1 633.990  21
  -1   5  -1 9405.25 139.640  28
   1   5   1 9587.64 265.271  21
  -1   5  -2 3210.87 90.5070  28
  -1   5  -2 3216.62 100.384  34
   1   5   2 3132.89 165.778  10
   1   5   2 2787.47 151.385  21
  -1   5  -3 11076.2 192.833  28
   1   5   3 10966.8 316.705  21
  -1   5  -3 10665.6 186.986  23
  -1   5  -3 11268.2 197.369  34
   1   5   3 11022.5 327.946  10
  -1   5  -4 27192.2 645.268  20
  -1   5  -4 24737.4 309.591  23
   1   5   4 23402.7 516.478  10
  -1   5  -4 24451.5 322.799  37
  -1   5  -4 25404.0 321.650  34
  -1   5  -4 26895.8 319.007  49
  -1   5  -5 8055.42 197.868  37
  -1   5  -5 7841.27 188.625  23
   1   5   5 8003.91 318.280  10
  -1   5  -5 8084.28 202.502  34
  -1   5  -6 9683.45 443.090  20
   1   5   6 9525.84 362.310  10
  -1   5  -6 9529.92 236.052  34
  -1   5  -7 41970.0 946.837  20
  -1   5  -7 41267.3 512.653  34
  -1   5  -8 3164.68 143.694  34
  -1   5  -8 2858.28 252.521  20
  -1   5  -8 2951.23 126.573  33
  -1   5  -9 10903.9 240.478  34
  -1   5  -9 10834.7 223.512  33
  -1   5 -10 7207.30 156.608  33
  -1   5 -10 7304.71 157.850  34
   1   6 -11 1897.51 73.8668  34
   1   6 -10 163.654 35.7490  34
   1   6  -9 79.6666 40.3848  34
  -1   6   9 94.3256 21.8128  27
  -1   6   8 2977.85 99.4849  24
   1   6  -8 2927.06 125.637  49
   1   6  -8 2863.29 131.191  34
  -1   6   8 2999.06 101.117  27
  -1   6   7 24632.4 282.824  24
   1   6  -7 24913.8 382.882  49
  -1   6   6 20405.2 553.405  10
   1   6  -6 20686.5 654.379  20
  -1   6   6 19811.5 250.021  24
   1   6  -6 20777.0 353.427  49
   1   6  -6 19843.0 325.164  34
  -1   6   6 19348.1 256.987  27
  -1   6   5 84471.4 1081.47  10
   1   6  -5 85772.5 1248.47  20
  -1   6   5 84258.2 1062.28  21
  -1   6   5 83670.0 495.433  24
   1   6  -5 84254.9 689.023  49
   1   6  -5 83962.8 629.758  34
  -1   6   5 83725.0 518.796  27
  -1   6   4 31312.3 626.844  10
  -1   6   4 32840.0 634.434  21
  -1   6   4 32114.9 297.435  24
   1   6  -4 31974.6 716.750  20
   1   6  -4 31766.6 387.252  49
   1   6  -4 32432.7 367.941  34
  -1   6   4 32355.6 313.660  27
  -1   6   3 3227.28 195.727  21
  -1   6   3 3438.23 100.914  27
   1   6  -3 3383.66 113.354  28
   1   6  -3 3262.60 110.244  34
  -1   6   3 3539.56 205.316  10
  -1   6   2 52301.6 732.028  21
  -1   6   2 50768.9 375.889  27
   1   6  -2 52558.7 397.389  28
   1   6  -2 52439.0 405.997  34
   1   6  -2 52355.6 727.963  11
  -1   6   1 15488.2 390.713  21
   1   6  -1 15794.6 200.974  28
  -1   6   1 15004.4 205.536  27
   1   6  -1 14709.1 205.955  34
   1   6  -1 15684.9 363.955  11
   1   6   0 7708.03 263.868  21
  -1   6   0 8029.71 287.799  21
  -1   6   0 7800.08 141.733  28
   1   6   0 7530.56 132.743  28
  -1   6   0 7665.11 165.923  34
   1   6   0 7298.90 261.817  11
  -1   6  -1 15359.3 212.844  23
   1   6   1 13813.2 348.376  21
  -1   6  -1 14441.6 199.091  28
  -1   6  -1 13964.9 227.789  34
   1   6   1 12652.8 365.396  11
  -1   6  -2 4939.67 140.522  34
  -1   6  -2 4874.75 127.155  23
   1   6   2 4747.68 208.752  21
  -1   6  -2 5143.05 130.805  28
  -1   6  -3 3558.83 125.928  34
  -1   6  -3 3351.23 113.210  23
   1   6   3 3492.11 187.583  21
   1   6   4 29713.4 562.556  21
  -1   6  -4 29431.6 353.187  23
  -1   6  -4 29748.0 362.689  49
  -1   6  -4 29938.8 375.341  34
   1   6   4 29661.2 596.687  10
  -1   6  -5 86158.9 672.679  34
  -1   6  -5 85338.1 631.130  23
   1   6   5 84351.9 964.774  21
  -1   6  -6 12263.7 266.061  34
   1   6   6 12133.7 362.178  21
  -1   6  -6 12449.8 509.959  20
  -1   6  -7 5521.85 180.847  34
   1   6   7 5438.64 227.769  21
  -1   6  -7 5908.20 347.972  20
  -1   6  -8 3930.36 146.656  34
  -1   6  -8 3803.97 128.381  33
  -1   6  -9 515.829 51.1723  34
  -1   6  -9 490.576 43.6458  33
   1   7 -10 1194.14 57.2077  34
   1   7  -9 5433.16 145.309  34
   1   7  -8 1048.54 75.2822  34
  -1   7   7 4368.35 228.312  21
   1   7  -7 4127.69 292.542  20
   1   7  -7 4239.83 145.860  49
   1   7  -7 4096.32 145.609  34
  -1   7   7 4090.48 103.156  27
  -1   7   6 10012.4 353.231  21
   1   7  -6 10032.9 449.316  20
   1   7  -6 9891.59 236.738  49
   1   7  -6 9613.05 221.457  34
  -1   7   6 9558.99 164.111  27
  -1   7   5 126.701 65.6610  21
   1   7  -5 83.5004 44.2137  49
   1   7  -5 72.0313 33.7378  34
  -1   7   5 66.7327 22.6927  27
   1   7  -4 561.423 111.895  20
  -1   7   4 517.338 85.1467  21
   1   7  -4 618.244 67.7147  49
   1   7  -4 476.976 52.5630  34
  -1   7   4 699.887 48.3349  27
  -1   7   3 20406.4 487.500  21
   1   7  -3 20837.2 300.402  26
   1   7  -3 19173.6 302.507  49
   1   7  -3 19067.7 278.745  34
  -1   7   3 19630.7 244.854  27
   1   7  -2 12454.1 211.202  34
  -1   7   2 12317.5 221.135  34
  -1   7   2 12426.2 378.393  21
  -1   7   2 12046.2 192.489  27
   1   7  -2 12309.0 218.271  28
  -1   7   1 72396.0 918.537  21
   1   7  -1 70034.4 475.870  28
  -1   7   1 72860.9 456.104  28
  -1   7   1 69580.4 524.837  34
   1   7  -1 71796.5 481.659  34
   1   7  -1 72022.6 905.983  11
  -1   7   0 36524.0 332.938  23
   1   7   0 35835.4 321.894  28
  -1   7   0 36138.1 383.987  34
   1   7   0 36673.9 608.526  11
  -1   7  -1 27475.6 297.843  23
   1   7   1 27375.0 268.772  28
  -1   7  -1 27767.7 341.995  34
  -1   7  -2 4228.72 123.090  23
   1   7   2 3847.97 201.367  21
  -1   7  -2 4233.01 133.556  28
  -1   7  -2 4158.05 136.984  34
   1   7   2 4250.31 226.279  11
  -1   7  -3 37656.4 382.040  23
  -1   7  -3 39428.3 419.784  49
  -1   7  -3 38387.9 420.007  34
   1   7   3 39144.7 704.433  11
  -1   7  -4 8743.62 211.088  34
  -1   7  -4 8915.04 200.643  49
   1   7   4 8711.79 296.308  21
  -1   7  -4 8716.97 190.450  23
  -1   7  -4 9358.71 418.683  20
  -1   7  -5 8728.46 215.495  34
  -1   7  -5 8839.06 416.731  20
   1   7   5 8229.78 281.235  21
  -1   7  -6 9104.25 217.932  34
  -1   7  -6 10004.7 438.582  20
  -1   7  -7 2255.89 90.9205  33
  -1   7  -7 2187.24 106.095  34
  -1   7  -8 4447.20 111.811  33
  -1   7  -8 4828.66 139.580  34
   1   8  -8 3636.84 105.097  34
   1   8  -7 2182.61 91.1886  34
   1   8  -7 2059.34 85.4179  49
   1   8  -6 1244.99 74.2015  34
   1   8  -6 1413.76 81.9866  49
   1   8  -5 13869.7 240.502  34
   1   8  -5 14556.0 269.090  49
   1   8  -5 14224.1 495.293  20
  -1   8   5 14662.1 389.587  21
  -1   8   4 191.372 27.8217  34
   1   8  -4 164.571 33.8459  34
   1   8  -4 248.951 51.9166  49
  -1   8   4 191.971 56.1027  21
   1   8  -3 5915.36 171.869  49
   1   8  -3 5718.04 147.664  34
  -1   8   3 5833.94 141.857  34
  -1   8   3 6112.53 130.797  28
  -1   8   3 6021.08 261.728  21
   1   8  -3 5920.14 316.114  20
   1   8  -2 4439.41 144.466  49
   1   8  -2 4294.52 123.667  34
  -1   8   2 4512.27 129.779  34
  -1   8   2 4590.03 116.573  28
   1   8  -2 4750.56 143.803  26
   1   8  -1 14510.6 234.517  28
  -1   8   1 15243.6 218.071  28
  -1   8   1 14852.7 236.741  34
  -1   8   0 24233.3 292.876  28
  -1   8   0 23939.0 305.933  34
   1   8   1 18783.9 236.036  28
  -1   8  -1 19109.7 276.985  28
  -1   8  -1 19231.7 278.181  34
  -1   8  -2 1528.85 85.3615  49
  -1   8  -2 1560.00 86.0630  34
   1   8   2 1415.62 65.4182  28
  -1   8  -3 333.116 43.3045  49
  -1   8  -3 244.283 46.2292  34
   1   8   3 266.550 31.2843  28
  -1   8  -3 299.387 81.0545  20
  -1   8  -4 5109.40 137.638  49
  -1   8  -4 5098.01 152.573  34
   1   8   4 4921.54 104.227  28
   1   8   5 316.974 26.2026  28
  -1   8  -5 329.321 47.8476  34
  -1   8  -6 350.211 44.9923  34
  -1   8  -7 9706.78 176.731  34
   1   9  -6 1599.24 61.7025  49
   1   9  -6 1450.92 58.3216  34
   1   9  -5 779.148 53.5931  49
  -1   9   5 789.835 39.8865  28
   1   9  -5 719.154 45.8113  34
   1   9  -4 1575.00 80.4088  49
  -1   9   4 1636.12 60.8070  28
   1   9  -4 1428.54 64.4920  34
   1   9  -3 1869.76 89.5524  49
  -1   9   3 1970.08 70.8154  28
   1   9  -3 1789.88 71.9338  34
  -1   9   3 1811.55 64.9613  34
   1   9  -2 2146.05 94.4862  49
  -1   9   2 2178.87 77.0454  34
  -1   9   2 2245.28 80.3488  28
   1   9  -1 4270.83 126.338  49
  -1   9   1 4204.06 111.901  34
  -1   9   1 4349.28 115.757  28
   1   9  -1 4165.55 125.184  26
  -1   9   0 3894.14 115.358  28
   1   9   0 3774.33 110.659  28
  -1   9   0 3875.50 111.222  34
  -1   9  -1 1204.51 67.9785  49
   1   9   1 1148.19 60.2216  28
  -1   9  -1 1092.64 63.3609  34
  -1   9  -2 11482.5 197.552  49
   1   9   2 11530.6 171.172  28
  -1   9  -2 11268.1 194.093  34
  -1   9  -3 8800.66 158.341  49
   1   9   3 9176.27 139.354  28
  -1   9  -3 9287.35 176.439  34
  -1   9  -4 1105.28 61.9375  34
  -1   9  -5 4369.14 111.474  34
   1  10  -3 3461.95 83.9284  49
   1  10  -2 4977.43 107.782  49
  -1  10   2 5002.36 99.1501  49
   1  10  -1 977.270 50.4442  49
  -1  10   1 950.081 45.8853  49
   1  10   0 737.291 43.3924  49
  -1  10   0 769.856 41.7223  49
   1  10   1 4305.93 94.6200  49
   2  -9  -6 5941.93 98.8617  45
  -2  -9   6 5933.93 119.123  36
   2  -9  -6 5831.47 106.788  35
   2  -9  -5 5754.69 109.988  45
  -2  -9   5 5822.97 121.256  30
  -2  -9   5 5831.38 132.005  36
   2  -9  -5 5826.62 127.670  35
   2  -9  -4 2901.37 82.9611  45
  -2  -9   4 2807.97 87.8369  30
  -2  -9   4 3006.30 102.387  36
  -2  -9   3 6892.64 159.446  36
   2  -9  -3 6562.55 124.202  45
  -2  -9   2 2762.48 104.290  36
   2  -9  -2 2767.85 91.9833  42
  -2  -9   1 3110.22 110.831  36
   2  -9  -1 2965.63 99.8553  42
  -2  -9   0 2496.86 96.3475  36
  -2  -9   0 2534.55 74.6744  35
   2  -9   0 2428.28 91.8948  42
  -2  -9  -1 3367.05 102.663  36
  -2  -9  -1 3321.63 87.3463  35
   2  -9   1 3298.09 106.118  42
  -2  -9  -2 3996.16 95.5051  35
   2  -9   2 3853.20 110.744  42
  -2  -9  -3 1790.54 61.5625  35
   2  -9   3 1775.14 70.3623  42
   2  -9   4 278.485 26.6411  42
  -2  -8   8 1877.46 68.1208  30
   2  -8  -7 483.522 40.5553  45
  -2  -8   7 523.400 42.7188  30
   2  -8  -7 497.286 38.5557  35
   2  -8  -6-1.74982 24.7528  45
  -2  -8   6 30.3606 22.6722  30
   2  -8  -6 6.61326 20.0754  35
  -2  -8   5 1090.47 70.2682  30
   2  -8  -5 1102.83 68.3008  45
  -2  -8   5 1007.18 61.9566  42
  -2  -8   4 326.599 43.0664  30
   2  -8  -4 320.256 42.2996  45
  -2  -8   4 336.038 42.7395  42
  -2  -8   3 2404.67 101.921  30
  -2  -8   3 2233.51 100.357  42
   2  -8  -3 2299.67 100.568  45
   2  -8  -3 2258.88 94.3603  42
  -2  -8   2 2017.52 99.4143  42
   2  -8  -2 2082.05 96.8989  42
   2  -8  -2 2162.81 94.9833  45
  -2  -8   2 2193.96 109.784  36
  -2  -8   2 2111.78 93.9140  30
   2  -8  -1 5303.79 325.703  19
   2  -8  -1 5399.23 160.070  42
  -2  -8   1 5510.17 158.300  42
  -2  -8   1 5542.52 170.279  36
  -2  -8   1 5412.70 131.314  35
  -2  -8   1 5198.48 138.208  30
  -2  -8   0 36689.4 435.348  36
  -2  -8   0 38132.5 360.827  35
   2  -8   0 37860.8 877.071  19
  -2  -8   0 36478.4 394.051  42
   2  -8   0 37135.4 418.851  42
  -2  -8  -1 3018.39 124.301  36
  -2  -8  -1 3185.20 108.339  35
   2  -8   1 3020.03 253.039  19
   2  -8   1 3018.36 122.670  42
  -2  -8  -2 12752.2 213.440  35
  -2  -8  -2 13082.6 240.400  36
   2  -8   2 13417.5 521.991  19
  -2  -8  -2 12718.5 165.904  43
   2  -8   2 12431.9 240.123  42
  -2  -8  -3 66.8323 23.8861  36
  -2  -8  -3 59.5320 25.8710  35
  -2  -8  -3 137.761 22.0768  43
   2  -8   3 78.9934 32.0738  42
  -2  -8  -4 7934.97 156.770  35
  -2  -8  -4 7826.62 129.402  43
  -2  -8  -5 3054.60 88.7229  35
   2  -8   5 2874.88 91.4446  42
  -2  -8  -5 3073.07 77.9561  43
  -2  -8  -6 1104.05 42.8303  43
   2  -7  -9 3268.81 87.4192  45
  -2  -7   9 3071.17 93.0928  30
   2  -7  -8 616.624 36.9461  52
   2  -7  -8 669.463 51.0113  45
  -2  -7   8 658.946 51.6656  30
   2  -7  -7 986.527 49.4350  52
   2  -7  -7 1029.71 64.9253  35
   2  -7  -7 998.883 70.5814  45
  -2  -7   7 972.743 66.8417  30
   2  -7  -6 1909.15 101.816  45
  -2  -7   6 1892.22 84.7375  42
  -2  -7   6 1977.60 98.9786  30
   2  -7  -6 1998.63 70.1280  52
  -2  -7   5 20904.3 300.954  42
   2  -7  -5 21073.4 332.602  45
  -2  -7   5 20720.6 315.029  30
   2  -7  -4 10197.9 235.549  45
  -2  -7   4 9891.35 215.130  42
  -2  -7   4 10185.9 224.195  30
   2  -7  -3 17297.3 307.747  45
  -2  -7   3 17152.5 289.667  42
   2  -7  -3 17921.9 281.552  42
  -2  -7   3 17587.6 294.073  30
   2  -7  -2 14586.3 535.864  19
  -2  -7   2 14807.0 269.961  42
   2  -7  -2 14995.2 281.286  45
   2  -7  -2 15343.0 279.548  42
  -2  -7   2 15009.3 267.345  30
  -2  -7   1 39626.3 438.396  42
   2  -7  -1 41079.3 466.271  42
   2  -7  -1 40421.6 445.097  45
  -2  -7   1 41253.6 477.846  36
  -2  -7   1 40365.3 418.249  30
   2  -7   0 44286.5 973.072  19
  -2  -7   0 44830.7 462.051  42
   2  -7   0 45328.1 493.006  42
  -2  -7   0 44717.0 491.354  36
  -2  -7   0 45821.2 435.053  35
  -2  -7   0 43453.1 412.306  30
  -2  -7  -1 6387.78 186.070  36
  -2  -7  -1 6528.24 168.874  35
  -2  -7  -1 6805.22 135.279  43
  -2  -7  -1 6459.48 173.785  42
   2  -7   1 7076.40 198.740  42
   2  -7   1 6449.52 378.969  19
  -2  -7  -2 1492.73 92.2047  36
  -2  -7  -2 1446.73 80.8431  35
   2  -7   2 1586.25 97.5585  42
  -2  -7  -2 1549.82 68.6086  43
   2  -7   2 1493.80 195.643  19
  -2  -7  -3 1555.79 83.9638  35
  -2  -7  -3 1595.01 90.3125  36
  -2  -7  -3 1660.70 73.3135  43
   2  -7   3 1648.84 97.2048  42
   2  -7   3 1512.68 179.187  19
  -2  -7  -4 3123.22 115.316  35
  -2  -7  -4 2790.67 110.910  36
  -2  -7  -4 3081.57 96.5550  43
   2  -7   4 2999.66 124.198  42
   2  -7   4 3128.74 257.821  19
  -2  -7  -5 850.899 52.4053  43
   2  -7   5 800.924 62.2228  42
  -2  -7  -5 766.312 58.2016  35
   2  -7   6 7059.18 144.347  47
   2  -7   6 6893.05 148.027  42
  -2  -7  -6 7114.34 130.652  43
   2  -7   7 4688.42 106.522  47
  -2  -7  -7 4565.92 96.1672  43
  -2  -7  -8 3113.23 63.7764  43
   2  -6 -11 1296.63 43.3896  52
  -2  -6  10 7607.25 119.352  40
  -2  -6  10 7842.71 145.296  30
  -2  -6   9 2431.49 77.5600  40
   2  -6  -9 2453.98 84.8251  52
   2  -6  -9 2504.46 92.0825  45
  -2  -6   9 2350.44 94.0248  30
   2  -6  -8 8712.73 166.771  52
  -2  -6   8 8841.81 197.306  30
   2  -6  -8 8849.09 194.868  45
   2  -6  -7 291.858 36.4588  52
   2  -6  -7 315.302 41.8961  35
   2  -6  -7 297.382 47.7862  45
   2  -6  -7 322.163 47.8695  32
  -2  -6   7 267.573 47.6419  30
  -2  -6   6 25190.3 312.890  42
   2  -6  -6 25403.1 369.943  45
   2  -6  -6 25147.2 337.804  32
  -2  -6   6 25277.3 358.180  30
   2  -6  -6 25625.4 289.354  52
   2  -6  -5 11689.7 257.438  45
  -2  -6   5 11548.2 225.288  42
  -2  -6   5 12170.1 247.605  30
   2  -6  -5 11748.3 229.416  32
   2  -6  -5 12058.2 189.145  52
  -2  -6   4 23158.4 333.592  30
   2  -6  -4 22320.2 307.190  32
  -2  -6   4 22797.2 326.096  42
   2  -6  -4 23024.8 357.440  45
   2  -6  -3 11692.9 428.966  19
  -2  -6   3 12298.9 239.381  42
   2  -6  -3 12599.1 234.497  42
  -2  -6   3 12464.7 240.184  30
   2  -6  -2 22118.6 328.761  39
   2  -6  -2 22821.6 623.593  19
  -2  -6   2 22119.4 319.500  42
   2  -6  -2 21841.7 319.388  42
  -2  -6   2 22316.0 313.004  30
   2  -6  -1 31137.9 391.602  39
   2  -6  -1 30681.0 748.847  19
  -2  -6   1 30496.8 369.284  42
   2  -6  -1 31884.8 394.297  42
  -2  -6   1 31075.4 361.234  30
  -2  -6   0 7386.42 168.530  30
  -2  -6   0 7199.58 178.350  42
   2  -6   0 7455.72 195.223  42
   2  -6   0 7190.98 371.382  19
   2  -6   0 7201.28 189.777  39
  -2  -6   0 8007.02 199.830  36
  -2  -6   0 7777.48 383.069   5
  -2  -6  -1 4282.39 299.237   5
  -2  -6  -1 4073.34 133.318  42
   2  -6   1 4276.78 151.257  42
   2  -6   1 4237.39 133.317  29
   2  -6   1 4156.64 143.777  39
  -2  -6  -1 4041.30 142.582  36
   2  -6   1 3863.71 277.150  19
   2  -6   2 16113.4 275.832  29
   2  -6   2 16574.6 299.302  42
  -2  -6  -2 15562.3 283.777  36
  -2  -6  -2 16106.6 262.828  35
   2  -6   2 16431.4 575.526  19
   2  -6   3 21307.5 331.621  29
   2  -6   3 22357.9 346.298  42
  -2  -6  -3 21631.0 302.126  35
  -2  -6  -3 21927.1 338.283  36
   2  -6   3 22340.0 687.012  19
   2  -6   4 19624.9 323.448  42
   2  -6   4 19650.8 292.730  47
   2  -6   4 19151.2 642.673  19
  -2  -6  -4 19100.0 284.711  35
  -2  -6  -4 19221.1 311.816  36
   2  -6   4 19604.1 322.839  29
   2  -6   5 727.584 120.434  19
  -2  -6  -5 927.608 58.2782  52
   2  -6   5 830.339 64.5373  47
   2  -6   5 806.634 66.5549  42
  -2  -6  -5 824.999 57.3132  43
  -2  -6  -5 797.010 63.6291  35
  -2  -6  -5 792.786 63.9977  36
   2  -6   5 748.393 68.6835  29
   2  -6   6 12254.3 224.828  42
  -2  -6  -6 12408.2 192.172  43
  -2  -6  -6 12140.9 210.201  35
   2  -6   6 12161.2 233.573  47
  -2  -6  -6 12785.4 188.595  52
   2  -6   7 1931.92 90.0473  47
  -2  -6  -7 2109.19 78.2450  43
   2  -6   8 17545.9 213.857  48
   2  -6   8 17378.7 232.610  47
  -2  -6  -8 17682.3 191.612  43
   2  -6   9 698.362 40.0157  47
  -2  -6  -9 737.634 31.3058  43
   2  -5 -12 507.540 29.9699  52
  -2  -5  11 2564.47 77.4221  40
   2  -5 -11 2664.51 85.9800  52
  -2  -5  10 2986.02 96.5382  40
  -2  -5  10 3099.59 101.080  30
   2  -5 -10 3095.44 105.227  52
  -2  -5  10 3119.70 104.083  48
  -2  -5   9 3061.00 105.973  40
  -2  -5   9 3142.23 118.040  47
  -2  -5   9 3308.05 115.518  48
   2  -5  -9 3595.97 120.601  52
   2  -5  -9 3192.10 112.862  45
   2  -5  -9 3245.53 120.231  32
  -2  -5   9 3280.43 118.135  30
  -2  -5   8 5298.98 140.886  40
   2  -5  -8 5550.97 162.446  45
  -2  -5   8 5426.35 157.806  47
   2  -5  -8 5543.42 152.943  52
  -2  -5   8 5601.30 153.154  48
  -2  -5   8 5777.11 165.677  30
   2  -5  -8 5585.45 165.877  32
  -2  -5   7 58797.3 495.704  48
  -2  -5   7 59959.1 522.624  47
   2  -5  -7 60368.6 493.166  52
  -2  -5   7 59928.5 463.600  40
   2  -5  -7 58806.5 554.733  45
   2  -5  -7 60198.4 540.765  32
   2  -5  -6 23957.6 361.129  45
  -2  -5   6 24438.1 330.405  47
   2  -5  -6 24712.3 300.948  52
  -2  -5   6 25177.3 308.893  48
   2  -5  -6 24879.2 343.709  32
  -2  -5   6 24599.2 284.603  40
   2  -5  -5 50970.0 510.323  45
  -2  -5   5 49052.8 436.430  42
   2  -5  -5 50423.4 398.301  52
  -2  -5   5 49760.7 446.865  47
  -2  -5   5 49612.2 406.543  48
   2  -5  -5 49719.7 472.114  32
  -2  -5   4 19081.5 274.806  42
   2  -5  -4 18073.2 275.564  39
  -2  -5   4 17951.5 252.041  47
   2  -5  -4 19197.0 276.414  32
  -2  -5   3 7578.27 170.715  42
   2  -5  -3 7896.52 312.583  19
   2  -5  -3 7363.08 174.559  39
  -2  -5   3 7767.79 306.993   5
  -2  -5   3 7660.13 173.306  30
   2  -5  -3 7540.31 163.169  32
  -2  -5   2 23772.4 297.506  42
   2  -5  -2 23001.6 560.703  19
   2  -5  -2 22931.5 304.011  39
  -2  -5   2 22618.6 286.347  30
  -2  -5   2 23219.4 561.027   5
  -2  -5   1 62282.5 470.683  42
  -2  -5   1 59207.3 924.411   5
   2  -5  -1 60009.0 487.647  39
  -2  -5   1 60921.8 453.845  30
   2  -5  -1 60268.5 927.434  19
  -2  -5   0 19871.5 264.728  42
   2  -5   0 19477.7 281.237  42
  -2  -5   0 19435.9 570.467   5
   2  -5   0 19575.8 278.791  39
  -2  -5   0 19525.4 251.877  30
   2  -5   0 18666.2 248.570  29
   2  -5   0 19303.3 545.871  19
   2  -5   1 66112.8 1031.79  19
  -2  -5  -1 64073.5 405.328  45
  -2  -5  -1 67013.4 483.919  42
   2  -5   1 68431.1 537.693  42
  -2  -5  -1 66361.2 1112.79   5
   2  -5   1 67670.4 521.032  39
  -2  -5  -1 65672.6 509.565  36
   2  -5   1 64878.9 492.205  29
  -2  -5  -1 64926.4 445.831  30
   2  -5   2 21403.1 609.183  19
  -2  -5  -2 22932.6 236.247  52
  -2  -5  -2 21205.0 244.857  45
   2  -5   2 22182.1 316.811  42
  -2  -5  -2 21209.5 273.121  42
  -2  -5  -2 21046.4 664.466   5
   2  -5   2 21327.7 293.057  39
  -2  -5  -2 20381.0 298.463  36
  -2  -5  -2 22405.5 281.388  35
   2  -5   2 20887.4 302.641  29
   2  -5   3 18660.9 588.449  19
   2  -5   3 18938.4 302.645  42
  -2  -5  -3 18283.0 222.909  52
  -2  -5  -3 17961.1 648.665   5
  -2  -5  -3 18675.4 265.215  35
  -2  -5  -3 17945.5 291.067  36
   2  -5   3 18222.5 297.698  29
   2  -5   4 30603.4 773.516  19
  -2  -5  -4 29556.5 354.698  41
   2  -5   4 29984.9 387.549  42
  -2  -5  -4 29647.2 298.776  52
  -2  -5  -4 30672.0 879.723   5
  -2  -5  -4 30376.5 345.381  35
  -2  -5  -4 29680.4 380.636  36
   2  -5   4 29614.0 390.751  29
   2  -5   5 12229.3 494.511  19
  -2  -5  -5 11664.2 191.848  52
  -2  -5  -5 11760.0 243.364  36
  -2  -5  -5 11856.5 219.973  35
   2  -5   5 11825.3 255.025  29
  -2  -5  -5 11930.2 238.019  41
  -2  -5  -5 12180.7 201.462  43
   2  -5   5 11894.0 243.270  42
   2  -5   6 10458.5 450.025  19
  -2  -5  -6 10258.6 180.156  52
  -2  -5  -6 9973.95 198.503  35
  -2  -5  -6 10217.3 225.807  36
  -2  -5  -6 10401.4 182.252  43
  -2  -5  -6 10056.3 226.869  41
   2  -5   6 10704.7 216.818  42
   2  -5   6 10165.5 237.947  29
  -2  -5  -7 885.092 56.5441  43
   2  -5   7 882.949 72.9861  29
  -2  -5  -7 867.905 54.3033  52
   2  -5   7 854.163 71.2117  47
  -2  -5  -8 24431.4 251.486  43
  -2  -5  -8 24962.5 243.784  52
   2  -5   8 24720.8 326.787  47
  -2  -5  -9 14155.9 154.838  52
   2  -5   9 13920.3 212.845  47
   2  -5  10 84.9026 14.3452  40
   2  -5  10 88.4369 16.6591  48
   2  -5  10 119.289 18.7983  47
  -2  -4  12 1484.11 58.8253  40
   2  -4 -12 1496.57 65.2465  52
  -2  -4  12 1407.99 47.6756  44
   2  -4 -11 1241.71 72.3409  52
  -2  -4  11 1298.29 68.5866  48
  -2  -4  11 1221.07 62.7540  25
  -2  -4  11 1216.42 63.8909  40
  -2  -4  10 546.499 47.2363  25
  -2  -4  10 452.720 48.2673  47
  -2  -4  10 470.016 52.2120  48
   2  -4 -10 585.102 58.1763  52
   2  -4 -10 435.945 47.8777  32
  -2  -4  10 513.553 51.1646  40
  -2  -4   9 23745.1 310.536  25
  -2  -4   9 23123.3 312.250  40
  -2  -4   9 23656.6 320.432  48
   2  -4  -9 24036.8 305.777  45
  -2  -4   9 23667.3 327.519  47
   2  -4  -9 22960.3 332.730  52
  -2  -4   9 24616.2 318.779  30
   2  -4  -9 23148.7 336.904  32
  -2  -4   8 18176.9 289.216  47
   2  -4  -8 17733.4 291.712  52
  -2  -4   8 18324.6 280.091  48
  -2  -4   8 18269.0 277.392  40
   2  -4  -8 17684.7 282.569  45
   2  -4  -8 17821.0 300.220  32
  -2  -4   7 6518.67 164.041  48
  -2  -4   7 6676.66 170.278  47
   2  -4  -7 6463.67 170.049  52
  -2  -4   7 6561.66 161.520  40
   2  -4  -7 6506.44 176.274  45
   2  -4  -7 6463.87 332.665   6
   2  -4  -7 6718.15 181.422  32
  -2  -4   6 10949.4 197.842  48
  -2  -4   6 11105.8 206.645  47
   2  -4  -6 11056.8 205.543  52
  -2  -4   6 10845.2 191.935  40
   2  -4  -6 10733.3 218.239  32
   2  -4  -6 10842.3 223.569  45
   2  -4  -6 10416.0 390.144   6
  -2  -4   5 5481.67 201.986   5
   2  -4  -5 5383.03 254.028   6
   2  -4  -5 5832.12 151.242  32
  -2  -4   5 5508.06 130.025  48
  -2  -4   5 5878.09 141.771  47
   2  -4  -4 21688.6 453.863   6
  -2  -4   4 20169.4 392.594   5
  -2  -4   3 4061.84 191.429   5
   2  -4  -3 4213.37 199.481  19
  -2  -4   2 35002.0 603.325   5
   2  -4  -2 34250.7 599.672  19
   2  -4  -1 1912.07 151.067  19
  -2  -4   1 1824.80 151.509   5
   2  -4   0 21110.8 505.004  19
  -2  -4   0 20757.5 525.690   5
   2  -4   0 21391.2 224.670  22
   2  -4   1 5654.22 268.209  19
   2  -4   1 5885.11 222.228  12
  -2  -4  -1 5904.38 298.398   5
   2  -4   1 5886.12 131.189  22
  -2  -4  -2 45735.4 880.609   5
   2  -4   2 43608.3 382.233  22
   2  -4   2 44597.0 401.600  29
   2  -4   2 44365.4 703.249  12
   2  -4   2 44816.9 789.752  19
   2  -4   3 64437.2 957.008  12
   2  -4   3 66561.6 1006.99  19
  -2  -4  -3 65595.1 405.808  45
  -2  -4  -3 64153.5 386.563  52
   2  -4   3 66148.0 509.686  42
  -2  -4  -3 64998.5 1123.25   5
   2  -4   3 65454.1 505.104  22
  -2  -4  -3 65701.7 446.228  35
   2  -4   3 64931.1 520.239  29
   2  -4   4 2445.28 205.610  19
   2  -4   4 2652.22 216.557  12
  -2  -4  -4 2506.03 83.2754  52
  -2  -4  -4 2594.28 108.258  41
   2  -4   4 2658.52 107.244  42
  -2  -4  -4 2720.52 249.237   5
   2  -4   4 2841.61 114.179  22
  -2  -4  -4 2626.31 89.1266  33
  -2  -4  -4 2583.30 93.9277  35
  -2  -4  -4 2535.87 106.154  36
   2  -4   4 2541.31 112.615  29
   2  -4   5 5125.36 302.336  19
  -2  -4  -5 4553.20 120.370  52
   2  -4   5 4966.82 149.675  42
  -2  -4  -5 4798.54 159.733  41
  -2  -4  -5 5271.93 128.094  43
  -2  -4  -5 4836.98 348.593   5
   2  -4   5 4844.95 155.516  22
  -2  -4  -5 4898.55 134.635  35
  -2  -4  -5 4723.45 130.189  33
  -2  -4  -5 4758.76 152.965  36
   2  -4   5 5144.13 163.512  29
   2  -4   6 444.811 99.4935  19
  -2  -4  -6 363.015 54.7687  41
  -2  -4  -6 385.664 40.8503  43
  -2  -4  -6 339.057 39.8093  52
   2  -4   6 387.535 53.7841  22
  -2  -4  -6 397.264 43.3077  33
  -2  -4  -6 316.828 41.8408  35
  -2  -4  -6 402.641 50.5511  36
   2  -4   6 335.937 52.9682  29
   2  -4   7 23436.6 692.651  17
  -2  -4  -7 23445.2 282.209  52
  -2  -4  -7 23073.2 303.055  33
  -2  -4  -7 24600.4 357.635  36
   2  -4   7 24355.1 361.879  29
  -2  -4  -7 23687.5 273.275  43
  -2  -4  -7 23975.7 377.796  41
  -2  -4  -8 1314.30 65.0334  52
  -2  -4  -8 1208.41 69.9927  33
  -2  -4  -8 1091.68 58.8001  43
  -2  -4  -8 1076.92 84.4516  41
   2  -4   8 1111.11 77.1625  29
  -2  -4  -9 30389.8 251.935  43
  -2  -4  -9 30336.0 257.081  52
   2  -4   9 30909.3 360.267  47
   2  -4  10 2877.18 95.6195  47
  -2  -4 -10 2678.04 58.4003  52
  -2  -3  13 846.347 40.4532  40
  -2  -3  13 841.158 35.6577  44
   2  -3 -13 818.691 43.0382  52
   2  -3 -12 2773.01 102.018  52
  -2  -3  12 2864.38 92.3358  48
  -2  -3  12 2875.03 90.2183  40
  -2  -3  11 1743.53 85.1921  25
  -2  -3  11 1814.91 81.5104  47
   2  -3 -11 1915.82 101.070  52
  -2  -3  11 1826.02 86.2785  48
   2  -3 -11 1870.16 78.4523  32
  -2  -3  11 1806.65 85.7177  40
  -2  -3  10 1460.13 83.4965  25
  -2  -3  10 1504.81 84.0340  40
   2  -3 -10 1423.95 81.3380  32
  -2  -3  10 1448.33 80.4591  47
   2  -3 -10 1565.80 98.9455  52
  -2  -3  10 1413.89 82.8863  48
  -2  -3   9 40631.9 424.582  40
  -2  -3   9 40290.6 421.841  48
   2  -3  -9 40455.2 466.956  52
  -2  -3   9 40108.4 421.568  47
   2  -3  -9 39065.8 444.148  32
   2  -3  -8 2179.32 93.4826  45
  -2  -3   8 2437.84 102.662  48
   2  -3  -8 2211.67 108.152  52
  -2  -3   8 2187.37 99.6273  47
   2  -3  -8 2255.82 213.166   6
  -2  -3   8 2292.84 213.844   3
   2  -3  -8 2275.31 93.8360  33
   2  -3  -8 2311.53 109.788  32
   2  -3  -7 8591.70 185.778  45
  -2  -3   7 8779.35 182.863  48
  -2  -3   7 9171.67 188.248  47
   2  -3  -7 8875.98 198.266  52
   2  -3  -7 8957.11 169.955  33
   2  -3  -7 8832.66 200.104  32
   2  -3  -7 8628.50 386.590   6
  -2  -3   7 8848.79 381.277   3
  -2  -3   6 31834.4 318.340  48
  -2  -3   6 31774.9 326.040  47
   2  -3  -6 31431.4 349.690  32
  -2  -3   5 15464.1 422.126   3
   2  -3  -5 15117.6 418.921   6
   2  -3  -4 54575.9 692.891   6
  -2  -3   4 54766.1 714.564   3
   2  -3  -3 16541.8 331.959  19
   2  -3  -3 16846.5 296.218   4
  -2  -3   3 16700.5 356.664   3
   2  -3  -3 17316.2 336.148   6
   2  -3  -2 7909.19 244.248  19
  -2  -3   2 7758.39 224.124   5
   2  -3  -1 27672.2 479.408  19
   2  -3  -1 26768.6 508.883  16
  -2  -3   1 26127.2 463.343   5
   2  -3   0 7659.39 120.294  22
   2  -3   0 7301.44 208.440  12
   2  -3   0 7351.04 256.734  16
  -2  -3   0 7807.34 286.281   5
   2  -3   1 14581.3 186.277  22
   2  -3   1 15368.1 354.856  12
  -2  -3  -1 14763.1 408.781   5
   2  -3   2 128458. 611.996  22
  -2  -3  -2 131057. 1327.30   5
   2  -3   3 24998.3 294.770  22
   2  -3   3 24540.4 570.869  12
   2  -3   4 826.798 62.3348  22
  -2  -3  -4 1015.17 139.913   5
   2  -3   4 888.522 122.310  19
   2  -3   4 806.880 112.534  12
   2  -3   5 1404.12 153.408  19
   2  -3   5 1574.28 176.060  12
  -2  -3  -5 1438.76 64.4247  52
  -2  -3  -5 1563.57 65.4919  43
  -2  -3  -5 1518.49 89.6980  41
  -2  -3  -5 1869.20 208.966   5
  -2  -3  -5 1391.31 136.882   6
   2  -3   5 1376.15 84.2451  22
  -2  -3  -5 1456.41 73.0297  33
  -2  -3  -5 1413.52 67.2533  35
  -2  -3  -5 1427.34 80.9470  36
   2  -3   5 1423.53 85.8136  29
   2  -3   6 12318.6 516.113  12
  -2  -3  -6 11675.2 192.889  52
  -2  -3  -6 11775.4 184.822  43
  -2  -3  -6 11833.1 267.523  41
  -2  -3  -6 11784.1 411.292   6
   2  -3   6 12156.0 245.606  22
  -2  -3  -6 11672.0 241.957  36
  -2  -3  -6 11315.4 215.745  33
   2  -3   6 11639.8 246.016  29
  -2  -3  -7 55988.6 433.332  52
  -2  -3  -7 56797.9 601.953  41
  -2  -3  -7 56086.9 411.936  43
  -2  -3  -7 54637.9 921.879   6
   2  -3   7 56389.5 543.201  22
  -2  -3  -7 56056.7 552.000  36
  -2  -3  -7 55009.3 495.280  33
   2  -3   7 55844.8 542.368  29
   2  -3   8 24736.7 762.396  17
  -2  -3  -8 24333.0 276.917  52
   2  -3   8 25101.1 357.729  22
  -2  -3  -8 24364.1 329.301  33
  -2  -3  -8 24494.5 364.528  36
   2  -3   8 24607.0 350.875  29
  -2  -3  -8 24493.0 261.092  43
  -2  -3  -8 24680.0 394.792  41
  -2  -3  -9 8505.55 146.781  52
  -2  -3  -9 8532.68 184.486  33
   2  -3   9 8960.20 195.238  29
  -2  -3  -9 8541.31 135.446  43
  -2  -3  -9 8403.94 220.404  41
  -2  -3 -10 5392.95 153.976  41
   2  -3  10 5516.85 146.074  47
  -2  -3 -10 5436.93 128.667  33
   2  -3  11 898.357 49.3389  48
   2  -3  11 907.094 46.3439  47
  -2  -2  13 3590.00 91.0410  40
   2  -2 -13 3402.05 98.3801  52
  -2  -2  12 2614.15 93.9942  40
   2  -2 -12 2531.87 107.729  52
  -2  -2  12 2704.56 94.6771  48
  -2  -2  12 2752.66 102.311  25
  -2  -2  11 8031.10 180.348  40
  -2  -2  11 7888.18 166.589  47
   2  -2 -11 7793.82 211.196  52
  -2  -2  11 7715.90 175.635  48
   2  -2 -11 7584.07 161.594  33
  -2  -2  11 8174.28 192.123  25
  -2  -2  10 2027.08 186.537  14
  -2  -2  10 2253.76 102.494  48
  -2  -2  10 2379.21 99.5946  47
   2  -2 -10 2368.11 123.922  52
  -2  -2  10 2336.72 104.866  40
   2  -2 -10 2444.20 99.3718  33
   2  -2 -10 2364.73 103.248  32
  -2  -2   9 10761.2 414.673  14
  -2  -2   9 10233.9 214.112  48
  -2  -2   9 10638.2 208.975  47
   2  -2  -9 11103.0 253.149  52
   2  -2  -9 10770.8 206.909  33
   2  -2  -9 10508.2 227.042  32
   2  -2  -9 11011.2 511.449   6
  -2  -2   9 10822.8 465.262   3
  -2  -2   8 4795.29 262.033  14
   2  -2  -8 4654.68 154.413  52
  -2  -2   8 4543.03 136.652  48
  -2  -2   8 4646.86 133.778  47
   2  -2  -8 4481.28 127.138  33
   2  -2  -8 4562.33 146.363  32
  -2  -2   8 4887.91 299.124   3
   2  -2  -8 4537.13 302.906   6
   2  -2  -7 27349.1 336.836  52
  -2  -2   7 27769.0 308.666  48
  -2  -2   7 27711.7 305.538  47
  -2  -2   7 28199.8 657.839   3
  -2  -2   7 28004.0 576.094  14
   2  -2  -7 27201.8 330.533  32
  -2  -2   6 22460.6 465.744  14
  -2  -2   6 21587.9 519.403   3
  -2  -2   5 338.060 53.5576  14
   2  -2  -5 294.065 64.1202   6
  -2  -2   5 295.780 68.6943   3
   2  -2  -4 80133.5 870.463  16
  -2  -2   4 82030.4 633.335  14
  -2  -2   4 80443.5 803.648   3
   2  -2  -4 81949.3 811.614   6
  -2  -2   3 25201.9 270.674  14
   2  -2  -3 27271.4 468.064  16
  -2  -2   3 25606.9 194.816   8
   2  -2  -3 25441.4 362.264   4
   2  -2  -3 27106.1 399.771   6
  -2  -2   3 26011.0 402.867   3
   2  -2  -2 1984.99 125.270  16
   2  -2  -2 2076.49 88.5545   6
  -2  -2   2 1865.77 95.9123   3
   2  -2  -1 93488.7 806.341  16
  -2  -2   1 91349.0 688.979   5
   2  -2   0 94620.9 813.780  18
   2  -2   0 91770.2 761.512  16
   2  -2   1 73072.7 774.306  18
   2  -2   1 73205.8 660.067  16
  -2  -2  -1 72406.8 813.562   5
   2  -2   2 135321. 865.445  16
  -2  -2  -2 133264. 1199.46   5
   2  -2   3 84139.7 504.060  22
   2  -2   3 83104.1 1003.87  12
  -2  -2  -3 85337.2 801.023   6
   2  -2   4 10459.9 193.155  22
  -2  -2  -4 10051.1 308.040   6
  -2  -2  -4 10478.2 398.514   5
   2  -2   4 11067.2 404.373  12
   2  -2   5 12997.9 233.137  22
  -2  -2  -5 12155.9 370.369   6
  -2  -2  -5 13117.1 492.247   5
  -2  -2  -5 12865.0 244.881  41
   2  -2   5 13102.9 478.899  12
   2  -2   6 1409.56 142.080  19
   2  -2   6 1211.57 166.848  12
  -2  -2  -6 1271.47 63.9569  52
  -2  -2  -6 1659.58 99.5741  41
  -2  -2  -6 1231.14 56.1654  43
  -2  -2  -6 1072.99 124.851   6
   2  -2   6 1416.26 85.2317  22
  -2  -2  -6 1507.45 89.1273  36
  -2  -2  -6 1254.83 74.7572  33
   2  -2   6 1189.98 79.4099  29
   2  -2   7 56035.1 1137.44  12
  -2  -2  -7 54948.1 423.574  52
  -2  -2  -7 54024.8 384.470  43
  -2  -2  -7 56773.3 602.665  41
  -2  -2  -7 55853.5 912.109   6
   2  -2   7 56918.3 533.390  22
  -2  -2  -7 54990.8 518.479  33
  -2  -2  -7 55466.2 558.475  36
   2  -2   7 56644.9 531.342  29
   2  -2   8 5527.77 375.759  12
  -2  -2  -8 5343.29 117.729  43
  -2  -2  -8 5182.11 187.662  41
  -2  -2  -8 5046.42 127.908  52
   2  -2   8 5198.01 163.089  22
  -2  -2  -8 5271.41 165.627  33
  -2  -2  -8 5471.86 181.653  36
   2  -2   8 5477.14 164.557  29
   2  -2   9 2738.45 113.647  22
  -2  -2  -9 2786.62 117.090  33
   2  -2   9 2680.59 260.014  17
  -2  -2  -9 2655.76 132.347  41
  -2  -2 -10 2597.97 115.447  41
   2  -2  10 2733.03 110.728  47
  -2  -2 -10 2549.49 102.157  33
   2  -2  11 3877.18 101.101  47
  -2  -2 -11 3535.96 94.0853  33
  -2  -1  13 7240.48 132.180  40
   2  -1 -13 6727.96 148.640  52
  -2  -1  12 1278.35 69.3801  40
  -2  -1  12 1388.84 67.9315  48
   2  -1 -12 1364.74 86.6048  52
   2  -1 -12 1307.96 59.6717  33
  -2  -1  12 1447.29 79.2148  25
  -2  -1  11 6359.72 174.314  25
  -2  -1  11 6295.06 159.321  48
   2  -1 -11 6216.54 195.738  52
  -2  -1  11 6255.54 161.824  40
   2  -1 -11 5840.52 143.452  33
  -2  -1  10 4456.99 285.677  14
   2  -1 -10 4643.65 172.264  52
  -2  -1  10 4545.33 139.342  48
  -2  -1  10 4695.89 154.430  25
  -2  -1  10 4536.74 142.915  40
   2  -1 -10 4709.93 136.994  33
   2  -1 -10 5021.77 144.535  32
  -2  -1   9 38364.3 812.602  14
   2  -1  -9 40560.3 490.021  52
  -2  -1   9 38190.4 396.535  48
   2  -1  -9 39727.0 474.032  50
   2  -1  -9 39604.5 391.730  33
   2  -1  -9 38158.4 415.623  32
  -2  -1   9 39476.3 891.057   3
   2  -1  -9 39482.3 975.386   6
  -2  -1   9 37915.6 778.009   8
  -2  -1   8 12753.2 441.896  14
  -2  -1   8 11874.5 431.236  17
  -2  -1   8 13038.5 216.808  48
   2  -1  -8 13478.8 255.360  50
  -2  -1   8 12984.1 206.019  47
   2  -1  -8 13207.5 213.247  33
  -2  -1   8 13317.0 484.859   3
   2  -1  -8 13075.3 511.844   6
   2  -1  -8 12677.4 231.307  32
  -2  -1   7 22746.7 532.624  14
  -2  -1   7 21946.2 537.581  17
   2  -1  -7 21501.8 590.498   6
  -2  -1   7 23024.5 573.914   3
  -2  -1   6 70785.7 879.217  17
  -2  -1   6 71269.6 855.584  14
   2  -1  -6 73239.4 734.210   2
   2  -1  -6 73543.0 962.487   6
  -2  -1   6 73849.3 927.425   3
  -2  -1   5 147197. 1080.36  14
   2  -1  -5 140888. 1054.69  16
   2  -1  -5 137571. 1163.58   6
   2  -1  -5 148736. 976.618   2
  -2  -1   4 104323. 777.958  14
   2  -1  -4 103964. 858.730  16
   2  -1  -4 103449. 872.512   6
   2  -1  -4 103630. 752.034   4
   2  -1  -3 63492.0 581.483   4
   2  -1  -3 63862.3 581.066   6
   2  -1  -2 75299.3 641.865   4
   2  -1  -2 79113.4 526.275   6
   2  -1  -1 260151. 1098.95  18
   2  -1  -1 255138. 553.930   6
   2  -1   0 742300. 2006.03  18
   2  -1   0 739442. 2013.11   9
   2  -1   1 59890.2 643.190   9
  -2  -1  -1 56912.0 644.096   5
   2  -1   2 40019.1 563.731  18
  -2  -1  -2 39117.1 435.398   6
  -2  -1  -2 39542.3 581.351   5
   2  -1   2 39198.4 591.378   9
   2  -1   3 967.629 99.4711  18
  -2  -1  -3 982.113 80.1836   6
  -2  -1  -3 987.319 106.521   5
   2  -1   3 871.093 102.770   9
   2  -1   4 51798.0 732.494  18
  -2  -1  -4 50060.6 803.431   5
  -2  -1  -4 50149.1 639.465   6
   2  -1   4 50782.9 800.206   9
   2  -1   5 9415.86 191.173  22
  -2  -1  -5 9781.74 314.569   6
   2  -1   5 10338.2 348.622  18
   2  -1   5 9930.92 411.757  12
  -2  -1  -6 50988.3 336.046  43
  -2  -1  -6 52478.3 528.928  41
  -2  -1  -6 52472.3 802.041   6
   2  -1   6 52538.9 478.284  22
  -2  -1  -6 52565.9 471.038  33
  -2  -1  -6 53640.7 506.719  36
   2  -1   6 51097.9 1011.36  12
   2  -1   7 11173.8 228.556  29
  -2  -1  -7 10444.3 257.670  41
  -2  -1  -7 10655.2 157.734  43
  -2  -1  -7 10184.9 378.115   6
   2  -1   7 10627.2 226.344  22
  -2  -1  -7 10467.8 232.534  33
  -2  -1  -7 10277.3 245.071  36
   2  -1   7 10723.8 495.741  12
   2  -1   8 18038.9 296.991  22
  -2  -1  -8 18276.6 319.599  33
   2  -1   8 18799.3 690.986  12
  -2  -1  -8 17890.1 344.739  41
  -2  -1  -9 4938.51 165.749  33
  -2  -1  -9 4618.71 172.740  41
   2  -1  10 239.853 37.9663  47
  -2  -1 -10 205.357 42.1969  33
  -2  -1 -10 237.230 43.2542  41
  -2  -1 -11 685.064 49.2691  41
  -2  -1 -11 657.683 47.7825  33
   2   0 -13 437.018 42.8717  52
  -2   0  12 289.450 34.1869  40
  -2   0  12 336.590 40.9834  25
   2   0 -12 343.554 50.1999  52
   2   0 -11 66.9484 42.2878  52
  -2   0  11 56.8074 20.9486  48
  -2   0  11 64.8427 28.7924  25
   2   0 -11 45.4796 20.1217  33
  -2   0  11 6.79957 52.0932  14
  -2   0  10 13798.8 228.224  48
   2   0 -10 12635.6 284.201  50
  -2   0  10 13929.5 259.475  25
  -2   0  10 13740.3 239.391  40
  -2   0  10 13718.0 511.165  14
   2   0 -10 13594.4 230.764  33
  -2   0  10 12622.0 507.232   3
  -2   0  10 13303.5 493.279   8
   2   0  -9 21254.5 720.636   6
  -2   0   9 20617.8 633.269   3
  -2   0   9 20591.0 587.414   8
  -2   0   9 21006.2 276.016  48
   2   0  -9 19691.4 347.339  50
  -2   0   9 20748.5 289.928  40
   2   0  -9 20529.3 278.120  33
  -2   0   9 20620.7 596.431  14
  -2   0   8 915.758 129.729  14
  -2   0   8 791.309 121.332  17
   2   0  -8 1014.25 144.558   6
  -2   0   8 1015.91 136.253   3
  -2   0   8 819.234 112.588   8
  -2   0   8 937.976 56.9829  48
   2   0  -8 953.162 72.4937  50
   2   0  -8 1005.93 78.6037  34
   2   0  -8 923.080 63.3241  32
   2   0  -8 926.504 61.2935  38
  -2   0   7 28772.5 602.856  17
  -2   0   7 29426.9 606.165  14
   2   0  -7 27937.5 681.983   6
   2   0  -7 29194.6 573.688   2
  -2   0   6 5496.90 239.079  14
  -2   0   6 5055.09 231.547  17
   2   0  -6 5221.40 265.802   6
   2   0  -6 5167.84 227.916   2
   2   0  -5 40084.1 481.285  16
  -2   0   5 42035.0 584.797  14
   2   0  -5 39629.0 578.816   2
  -2   0   5 41140.3 545.449   8
  -2   0   4 730.798 35.2687  25
  -2   0   4 381.833 53.7757  14
   2   0  -4 520.983 63.3445   4
  -2   0   4 587.459 60.2910   8
  -2   0   3 3596.20 127.958  14
   2   0  -3 3396.92 142.432   4
  -2   0   3 3361.25 117.207   8
   2   0  -2 125158. 762.028  13
  -2   0   2 123537. 625.771  14
  -2   0   1 172924. 668.841  15
   2   0  -1 165011. 947.852   4
  -2   0   0 815658. 1733.10  15
   2   0   0 800783. 1841.36  13
   2   0   1 268933. 1096.65  13
  -2   0  -1 267027. 1266.14  15
  -2   0  -1 265134. 1199.61   5
   2   0   2 43222.4 316.930  11
  -2   0  -2 43662.5 390.858   6
  -2   0  -2 43469.3 544.357   5
  -2   0  -3 20998.6 212.998  23
  -2   0  -3 21028.2 329.937   6
   2   0   3 20488.0 455.298   9
  -2   0  -3 20827.3 423.943   5
   2   0   3 19879.7 398.408  18
   2   0   3 20269.4 302.264  13
  -2   0  -4 104009. 1062.47   5
   2   0   4 101954. 1118.87   9
   2   0   4 105006. 999.526  18
  -2   0  -5 39305.7 604.099   6
   2   0   5 40869.2 772.573   9
   2   0   5 40697.7 653.496  18
  -2   0  -6 8406.49 192.274  33
  -2   0  -6 8253.02 205.709  41
  -2   0  -6 8316.93 308.697   6
  -2   0  -6 8949.25 209.162  36
   2   0   6 8819.63 422.942  12
   2   0   7 1977.10 97.8835  22
  -2   0  -7 1841.65 101.616  33
  -2   0  -7 1829.53 109.540  41
   2   0   7 1861.94 210.517  12
   2   0   8 6630.17 179.033  22
  -2   0  -8 6305.23 193.975  33
   2   0   8 6654.25 419.902  12
  -2   0  -8 6177.91 200.348  41
  -2   0  -9 26263.2 387.384  33
  -2   0  -9 24857.1 389.658  41
  -2   0 -10 22193.5 326.571  41
  -2   0 -10 23263.3 334.324  33
  -2   0 -11 391.787 35.4625  41
  -2   0 -11 535.144 46.3277  33
  -2   0 -12 784.491 37.0937  33
   2   1 -13 6617.43 147.907  52
  -2   1  13 6976.09 127.728  44
   2   1 -12 1220.54 80.6145  52
  -2   1  12 1266.79 67.8464  25
   2   1 -11 5745.08 184.127  50
  -2   1  11 6541.79 343.971  14
  -2   1  11 6154.49 160.948  25
  -2   1  10 4561.44 291.378   8
  -2   1  10 4597.00 143.097  25
   2   1 -10 4341.46 170.463  50
  -2   1  10 4789.02 130.473  40
   2   1 -10 4414.92 180.747  34
  -2   1  10 4719.38 300.095  14
   2   1  -9 39502.8 997.650   6
  -2   1   9 37899.5 844.093   3
  -2   1   9 39124.2 819.191   8
  -2   1   9 39516.3 403.565  25
   2   1  -9 37951.9 490.118  50
  -2   1   9 40225.3 374.808  40
   2   1  -9 38960.6 508.634  34
  -2   1   9 40055.1 830.736  14
  -2   1   8 13535.4 454.829  14
  -2   1   8 13010.1 205.777  40
   2   1  -8 13124.3 268.940  34
   2   1  -8 13828.7 546.672   6
  -2   1   8 12916.1 442.193   8
  -2   1   8 13114.9 221.769  25
  -2   1   7 22102.8 267.083  25
   2   1  -7 22464.5 566.604   2
  -2   1   7 21338.8 520.119   8
  -2   1   7 21547.2 525.114  14
  -2   1   6 72080.3 443.764  25
   2   1  -6 72121.5 949.141   2
  -2   1   5 147306. 553.907  25
   2   1  -5 142259. 1182.47  20
   2   1  -5 145756. 1221.04   2
  -2   1   5 151297. 1098.35   8
  -2   1   5 149678. 1122.44  14
  -2   1   4 107746. 417.849  25
  -2   1   4 107480. 835.041  14
   2   1  -3 63854.5 672.434   4
   2   1  -3 65776.6 602.906  13
  -2   1   3 64795.9 575.508  14
   2   1  -2 79444.5 699.325   4
   2   1  -2 78921.7 639.609  13
  -2   1   2 79107.7 555.430  14
   2   1  -1 257061. 1215.44   4
  -2   1   1 259080. 610.605  10
   2   1  -1 256322. 1102.07   7
   2   1  -1 258645. 1111.31  13
   2   1   0 740250. 2079.02   4
  -2   1   0 746299. 1769.87  15
   2   1   1 58001.2 563.648   4
   2   1   1 62496.1 360.153  10
  -2   1  -1 60628.9 461.372   5
   2   1   1 62836.0 505.687   7
  -2   1  -1 57741.2 608.700  15
   2   1   1 59690.2 409.382  11
  -2   1  -2 40253.3 314.388   6
   2   1   2 40950.1 418.571   7
  -2   1  -2 40849.2 440.618   5
   2   1   2 39134.6 351.596  11
  -2   1  -2 39231.2 598.434  15
  -2   1  -3 947.401 75.9168  20
  -2   1  -3 893.294 46.5882  23
  -2   1  -3 1027.81 68.2543   6
   2   1   3 1060.66 71.9771   7
   2   1   3 1053.65 61.2724  11
  -2   1  -4 49899.1 645.023  20
  -2   1  -4 48750.7 393.141  23
   2   1   4 49065.9 548.297  13
   2   1   4 52938.7 537.064   7
   2   1   4 51213.1 791.764   9
  -2   1  -4 51057.7 569.566   6
   2   1   5 9908.67 318.452  18
  -2   1  -5 9586.99 284.357   6
   2   1   5 10460.6 396.799   9
  -2   1  -6 52361.0 507.076  41
   2   1   6 53505.1 961.818   9
  -2   1  -6 52362.9 478.618  33
  -2   1  -7 10573.0 246.717  41
   2   1   7 12978.0 578.956   1
   2   1   7 11560.3 227.993  22
  -2   1  -7 10962.5 243.851  33
   2   1   7 13479.3 577.503  12
  -2   1  -8 18375.7 329.438  33
  -2   1  -8 17639.2 323.991  41
  -2   1  -9 4793.53 169.476  33
  -2   1  -9 4847.24 161.890  41
  -2   1 -10 190.555 30.8396  41
  -2   1 -10 176.450 43.1959  33
  -2   1 -11 724.575 52.8483  33
   2   2 -13 3203.80 96.3589  52
  -2   2  13 3228.64 73.3083  44
   2   2 -12 2446.77 107.165  52
   2   2 -12 2448.16 98.3335  50
  -2   2  12 2525.45 82.0879  44
   2   2 -11 7110.64 203.131  50
  -2   2  11 7761.43 165.442  25
   2   2 -10 2220.40 122.712  50
   2   2 -10 2411.21 135.796  34
  -2   2  10 2553.71 209.119  14
  -2   2  10 2358.52 96.8403  25
  -2   2   9 10463.0 422.252  14
   2   2  -9 10898.7 268.147  34
   2   2  -9 11918.0 552.365   6
  -2   2   9 9329.07 406.007   3
  -2   2   9 10489.9 425.475   8
  -2   2   9 10940.8 204.111  25
  -2   2   8 4806.25 273.396  14
   2   2  -8 4438.70 161.665  34
  -2   2   8 4882.52 273.335   8
  -2   2   8 4454.36 125.062  25
  -2   2   7 27303.6 592.781  14
   2   2  -7 27216.8 352.552  34
   2   2  -7 26858.6 678.363  20
  -2   2   7 26480.4 284.277  25
   2   2  -7 26638.1 681.132   2
  -2   2   7 25420.2 575.465   8
   2   2  -6 22099.6 546.006  20
  -2   2   6 21087.5 235.999  25
  -2   2   6 21995.4 487.168  14
   2   2  -6 21950.5 570.347   2
  -2   2   6 21335.3 479.980   8
  -2   2   5 318.699 28.2883  25
   2   2  -5 305.830 30.2984  26
  -2   2   5 461.178 74.2210  14
  -2   2   5 326.102 63.2004   8
   2   2  -5 345.877 79.6610   2
   2   2  -4 85007.5 438.138  26
  -2   2   4 84317.6 370.186  25
  -2   2   4 84559.3 764.298  14
   2   2  -4 85122.9 737.704  13
  -2   2   4 83671.2 773.999   8
  -2   2   3 26126.0 187.956  25
   2   2  -3 26048.3 366.185  20
   2   2  -3 25781.6 395.427  13
  -2   2   3 26385.3 382.225  14
   2   2  -3 26773.3 403.310   7
  -2   2   2 2249.25 101.298  14
   2   2  -2 2156.77 110.142   7
   2   2  -2 2138.84 129.022   4
  -2   2   1 96342.7 509.478  10
  -2   2   1 101167. 664.783  15
   2   2  -1 102958. 665.978   7
   2   2  -1 98291.9 816.375   4
   2   2   0 88566.1 575.643  11
  -2   2   0 91115.9 705.711  15
   2   2   0 90598.6 754.328   4
  -2   2   0 88066.7 296.479   5
   2   2   0 89647.4 341.778   8
   2   2   1 71036.2 549.064  11
   2   2   1 71380.4 661.843   4
  -2   2  -2 136371. 501.114  23
  -2   2  -2 136613. 808.945  20
  -2   2  -2 130471. 1116.98  15
   2   2   2 131207. 906.763   4
  -2   2  -3 85751.6 756.068  20
  -2   2  -3 83324.3 459.225  23
  -2   2  -4 10355.5 310.384  20
  -2   2  -4 10374.9 190.358  23
   2   2   4 10653.0 261.942   7
  -2   2  -5 12433.8 241.545  37
   2   2   5 12889.2 293.578   7
   2   2   5 13249.2 461.485   9
  -2   2  -5 12761.0 238.269  23
  -2   2  -5 12393.7 382.143  20
  -2   2  -6 1325.81 81.0421  41
   2   2   6 1384.80 172.770   1
   2   2   6 1426.73 166.482   9
  -2   2  -6 1145.36 84.8288  37
  -2   2  -6 1431.69 81.4482  33
   2   2   6 1428.55 180.393  12
  -2   2  -7 59146.9 558.497  33
  -2   2  -7 57024.8 544.229  41
  -2   2  -8 5331.45 178.273  33
  -2   2  -9 2676.67 126.657  33
  -2   2 -10 2580.23 112.148  33
  -2   2 -11 3655.66 107.844  33
   2   3 -12 2727.20 103.759  52
   2   3 -12 2709.28 96.4225  50
   2   3 -11 1737.27 98.2452  50
   2   3 -11 1836.75 113.136  34
  -2   3  11 1857.84 70.1274  44
  -2   3  10 1428.35 67.2888  44
   2   3 -10 1453.04 99.6976  50
  -2   3  10 1483.60 71.0669  25
   2   3 -10 1418.49 105.767  34
  -2   3  10 1205.88 137.854  14
  -2   3   9 39910.9 364.474  25
   2   3  -9 39022.5 503.182  34
  -2   3   9 39161.7 789.704  14
  -2   3   9 38073.6 792.488   8
  -2   3   8 2619.16 91.6978  25
  -2   3   8 2276.58 193.490   8
   2   3  -8 2366.56 123.801  34
  -2   3   8 2041.15 176.692  14
   2   3  -7 8900.02 215.994  49
  -2   3   7 9103.02 159.608  25
   2   3  -7 9136.33 405.580  20
  -2   3   7 8710.45 347.596   8
   2   3  -7 8565.74 190.329  38
   2   3  -7 8857.69 208.527  34
  -2   3   7 9147.45 346.235  14
   2   3  -6 31667.9 315.138  26
  -2   3   6 32088.1 279.868  25
   2   3  -6 31417.2 669.015  20
   2   3  -6 30942.7 361.038  49
  -2   3   6 31546.8 587.262  14
   2   3  -6 31601.0 748.470   2
  -2   3   6 32421.0 609.370   8
   2   3  -5 15935.1 493.126   2
  -2   3   5 15189.0 380.454   8
  -2   3   5 15380.1 374.635  14
   2   3  -5 14693.3 407.460  20
   2   3  -5 15929.1 222.445  26
  -2   3   5 15298.1 178.084  25
   2   3  -4 54293.6 851.048   2
   2   3  -4 55522.0 640.711  13
  -2   3   4 54620.5 638.283  14
   2   3  -4 54030.9 684.144  20
  -2   3   4 56011.6 314.676  25
   2   3  -4 56622.7 403.254  26
   2   3  -3 17488.1 450.754   2
  -2   3   3 17303.0 330.430  14
  -2   3   3 17266.7 172.318  24
   2   3  -3 17340.8 196.264  26
   2   3  -2 8295.59 210.464   7
  -2   3   2 7975.81 208.382  10
   2   3  -2 7727.52 277.220   2
   2   3  -2 7596.31 216.511  11
  -2   3   2 7981.26 108.297  24
  -2   3   1 27747.0 331.277  10
   2   3  -1 27779.9 360.152  11
  -2   3   1 27052.9 347.270  21
   2   3   0 7708.91 240.967   4
  -2   3   0 7274.50 220.207  15
   2   3   0 7421.95 192.792  11
  -2   3   0 8252.35 179.687  21
   2   3   0 7938.82 158.104  21
   2   3   1 15539.0 321.305   4
   2   3   1 15192.2 293.696  11
   2   3   1 15409.5 263.082  10
   2   3   1 16116.8 246.140  21
  -2   3  -2 120169. 1142.38  15
  -2   3  -2 123587. 537.310  23
   2   3   3 25862.7 419.817  10
  -2   3  -3 25584.6 453.425  20
  -2   3  -3 25420.5 275.203  23
  -2   3  -4 881.528 97.6841  20
  -2   3  -4 894.984 63.7132  23
  -2   3  -5 1369.86 87.8045  37
   2   3   5 1700.76 177.489   1
  -2   3  -5 1383.54 74.8813  34
  -2   3  -5 1358.54 84.2065  23
  -2   3  -5 1339.45 132.830  20
  -2   3  -6 11837.1 272.884  37
   2   3   6 11875.2 513.855   1
  -2   3  -6 12341.0 235.268  34
  -2   3  -6 11222.8 416.338  20
  -2   3  -7 57848.1 521.423  34
  -2   3  -7 57305.2 545.682  33
   2   3   7 58091.3 1244.70   8
  -2   3  -8 25801.0 382.912  33
  -2   3  -9 8697.84 217.105  33
  -2   3 -10 5416.23 151.811  33
  -2   3 -11 896.702 51.2823  33
   2   4 -12 1437.37 64.4196  52
   2   4 -12 1250.07 56.9358  50
   2   4 -11 1258.38 89.3476  34
   2   4 -11 1215.29 76.5936  50
  -2   4  11 1341.87 65.8931  24
   2   4 -10 526.042 70.9160  34
  -2   4  10 493.344 48.0504  24
   2   4  -9 23048.6 383.391  34
  -2   4   9 22628.6 568.733  14
   2   4  -8 18928.6 350.540  49
   2   4  -8 18303.0 637.887  20
   2   4  -8 17829.4 329.166  34
  -2   4   8 17584.8 497.943  14
   2   4  -7 6682.59 198.116  49
   2   4  -7 6374.03 352.109  20
   2   4  -7 6645.18 172.888  38
   2   4  -7 6444.71 187.821  34
  -2   4   7 6266.65 285.794  14
   2   4  -6 10595.1 227.951  49
   2   4  -6 11661.5 202.578  26
   2   4  -6 10002.9 397.524  20
   2   4  -6 11008.0 476.870   2
   2   4  -6 11323.8 225.447  38
   2   4  -6 10820.7 219.033  34
  -2   4   6 10366.7 343.358  14
   2   4  -5 6012.70 151.388  26
  -2   4   5 5532.05 124.306  24
   2   4  -5 5630.74 266.191  20
   2   4  -5 5580.26 149.082  49
   2   4  -5 5627.39 328.081   2
   2   4  -5 5733.25 144.024  34
  -2   4   5 5809.66 242.848  14
  -2   4   4 21000.3 414.878  14
   2   4  -4 20716.9 414.697  13
  -2   4   4 20212.8 220.474  24
   2   4  -4 19313.3 442.211  20
   2   4  -4 19570.9 261.929  26
   2   4  -4 20698.2 587.345   2
  -2   4   4 19777.3 437.546  10
   2   4  -3 3770.72 93.5458  28
  -2   4   3 3956.05 94.1658  24
   2   4  -3 4237.02 170.953   7
  -2   4   3 4155.47 182.729  10
  -2   4   2 33619.2 255.987  24
  -2   4   2 35594.6 495.000  21
  -2   4   2 35741.6 265.624  27
   2   4  -2 35302.4 246.500  28
   2   4  -2 34821.1 509.869  11
  -2   4   2 36521.4 507.565  15
  -2   4   2 36263.5 477.170  10
   2   4  -2 38318.8 516.329   7
   2   4  -2 35258.1 670.911   2
   2   4  -1 2160.73 54.7624  28
  -2   4   1 2384.40 66.8273  27
   2   4  -1 2004.59 113.446  11
  -2   4   1 2064.33 125.835  15
   2   4  -1 2036.90 151.619   2
   2   4   0 22338.9 323.711  21
  -2   4   0 21032.4 346.368  21
  -2   4   0 21719.6 203.192  27
   2   4   0 21161.5 368.338  11
  -2   4   0 20881.8 418.972  15
   2   4   0 21738.7 454.436   2
   2   4   1 6211.63 175.004  21
   2   4   1 6396.82 215.343  11
  -2   4  -1 6140.69 251.135  15
  -2   4  -2 44279.9 353.101  23
  -2   4  -2 43253.4 282.252  28
   2   4   2 43623.0 536.776  10
   2   4   3 64732.7 712.670  10
  -2   4  -3 64039.1 468.913  23
  -2   4  -3 65918.6 813.511  20
  -2   4  -4 2560.31 112.481  37
   2   4   4 2488.37 156.798  10
  -2   4  -4 2712.02 101.626  34
  -2   4  -4 2570.21 107.490  23
  -2   4  -4 2504.87 174.525  20
  -2   4  -5 4963.21 168.378  37
   2   4   5 4848.93 230.947  10
  -2   4  -5 4977.41 150.305  34
  -2   4  -5 4797.65 262.218  20
  -2   4  -5 4837.44 158.314  23
   2   4   6 175.859 47.8232  10
  -2   4  -6 405.278 50.3771  34
  -2   4  -6 357.472 56.8842  37
   2   4   6 453.424 65.3949  11
  -2   4  -6 606.598 107.940  20
  -2   4  -7 24652.1 354.186  34
  -2   4  -7 24140.9 353.587  33
  -2   4  -7 24088.6 653.217  20
  -2   4  -8 1186.11 85.5194  33
  -2   4  -8 1218.84 75.7536  34
  -2   4  -9 31830.1 385.414  33
  -2   4 -10 2777.74 99.8790  33
   2   5 -11 2534.41 106.663  34
   2   5 -11 2365.01 89.9338  50
   2   5 -10 3244.40 134.566  34
  -2   5  10 3604.52 101.503  37
  -2   5  10 3468.23 105.002  24
   2   5  -9 3443.14 147.162  34
  -2   5   9 3400.66 109.321  24
   2   5  -8 5750.81 192.513  49
  -2   5   8 5585.10 142.471  24
   2   5  -8 5345.92 346.925  20
   2   5  -8 5428.09 183.347  34
  -2   5   8 5218.08 258.584  14
   2   5  -7 61883.8 608.863  49
  -2   5   7 60612.2 457.299  24
   2   5  -7 61130.3 1100.08  20
  -2   5   7 61301.5 988.190  10
   2   5  -7 62182.3 531.180  38
   2   5  -7 60256.0 581.607  34
  -2   5   7 61888.5 867.856  14
   2   5  -6 24991.6 369.489  49
   2   5  -6 24703.2 652.804  20
  -2   5   6 24506.1 281.627  24
   2   5  -6 26314.7 316.357  26
  -2   5   6 23889.3 588.219  10
   2   5  -6 25545.9 352.292  38
   2   5  -6 25471.4 355.951  34
  -2   5   6 25045.5 523.211  14
  -2   5   5 49110.4 787.923  10
   2   5  -5 48368.9 479.725  49
   2   5  -5 50273.2 462.054  34
  -2   5   5 49837.8 380.591  37
  -2   5   5 50375.5 386.409  24
   2   5  -5 51052.8 856.932  20
  -2   5   4 19061.0 227.070  24
   2   5  -4 18384.2 475.215  20
   2   5  -4 18577.7 274.689  26
   2   5  -4 17716.0 263.866  49
   2   5  -4 18290.0 605.750   2
  -2   5   4 17720.4 433.707  10
   2   5  -4 18663.1 258.158  34
  -2   5   4 18721.5 227.480  37
  -2   5   4 19796.9 415.915  15
   2   5  -3 7350.00 362.962   2
  -2   5   3 7553.56 137.576  24
  -2   5   3 7827.88 273.792  21
  -2   5   3 7432.21 141.568  27
   2   5  -3 6942.12 145.921  28
  -2   5   3 7730.86 263.933  10
  -2   5   3 7630.36 255.403  15
   2   5  -2 24697.1 468.003   7
   2   5  -2 22079.5 588.265   2
  -2   5   2 23807.4 441.823  21
   2   5  -2 22382.4 230.600  28
  -2   5   2 23079.3 239.278  27
   2   5  -2 22658.3 468.670  11
  -2   5   2 24763.8 454.416  15
   2   5  -1 59621.2 893.781   2
  -2   5   1 60909.2 683.802  21
  -2   5   1 59749.3 384.968  27
   2   5  -1 59334.6 341.641  28
  -2   5   0 20164.8 394.016  21
   2   5   0 19558.7 353.774  21
   2   5   0 17727.3 377.677  11
  -2   5   0 21807.8 477.376  15
   2   5   0 19037.7 182.902  28
  -2   5   0 20111.2 222.875  27
   2   5   1 65400.1 645.802  21
  -2   5  -1 66006.5 366.567  28
  -2   5  -1 67379.9 475.993  34
   2   5   1 66984.9 754.597  11
  -2   5  -1 67963.1 900.650  15
   2   5   2 22259.6 384.844  21
  -2   5  -2 22229.9 274.369  23
  -2   5  -2 21603.1 228.062  28
  -2   5  -2 20314.6 288.865  37
  -2   5  -2 21802.2 280.823  34
   2   5   2 20087.7 441.271  11
  -2   5  -3 18029.3 290.841  37
   2   5   3 18795.1 411.551  10
   2   5   3 18366.4 440.803  11
  -2   5  -3 18621.8 272.398  34
  -2   5  -3 17660.0 472.057  20
   2   5   3 18415.2 366.790  21
  -2   5  -3 18648.0 272.247  23
  -2   5  -4 29183.3 396.960  37
   2   5   4 30594.4 550.258  10
   2   5   4 28128.7 562.538  11
  -2   5  -4 30115.2 369.478  34
  -2   5  -4 29751.6 370.907  23
  -2   5  -4 29052.5 640.429  20
  -2   5  -5 11891.6 263.377  37
   2   5   5 11293.8 352.249  11
   2   5   5 12086.8 362.593  10
  -2   5  -5 12074.3 248.525  34
  -2   5  -5 11654.7 433.590  20
  -2   5  -5 11850.6 250.405  23
  -2   5  -6 10464.8 255.335  37
  -2   5  -6 10281.3 236.695  34
  -2   5  -6 9840.02 412.793  20
  -2   5  -7 981.014 75.0022  34
  -2   5  -7 692.824 114.035  20
  -2   5  -8 24618.9 322.509  34
  -2   5  -8 25146.2 340.069  33
  -2   5  -9 13969.0 228.960  33
  -2   5 -10 109.829 19.8618  33
   2   6 -11 1216.77 59.8937  34
   2   6 -10 8134.73 183.414  34
  -2   6  10 9666.70 160.940  27
   2   6  -9 2463.38 114.260  34
  -2   6   9 2631.86 87.4664  24
  -2   6   9 2741.71 94.2670  27
  -2   6   8 8735.71 164.952  24
  -2   6   8 8671.31 348.233  21
   2   6  -8 8345.87 416.448  20
   2   6  -8 8711.89 219.485  34
  -2   6   8 9263.91 176.578  27
   2   6  -8 9113.45 225.581  49
   2   6  -7 265.375 72.4050  20
  -2   6   7 335.594 38.1322  24
  -2   6   7 214.248 64.7109  21
   2   6  -7 340.241 58.1623  49
   2   6  -7 285.317 51.7874  34
  -2   6   7 397.492 45.3485  27
  -2   6   6 25753.6 587.556  10
   2   6  -6 24498.0 671.820  20
  -2   6   6 26155.1 589.412  21
  -2   6   6 24907.5 282.286  24
   2   6  -6 25196.7 379.154  49
   2   6  -6 25845.7 354.876  38
   2   6  -6 25345.8 363.514  34
  -2   6   6 25043.3 294.111  27
  -2   6   5 11207.0 374.755  10
   2   6  -5 11624.3 250.235  49
   2   6  -5 11736.8 235.120  34
  -2   6   5 11237.8 192.962  27
  -2   6   5 11428.2 188.414  24
   2   6  -5 11850.3 444.932  20
  -2   6   5 11428.2 378.190  21
   2   6  -5 12490.9 233.370  26
  -2   6   4 21736.0 502.629  10
   2   6  -4 22701.8 325.887  26
  -2   6   4 22909.8 510.953  21
   2   6  -4 21544.8 563.177  20
   2   6  -4 22937.5 304.062  34
  -2   6   4 22050.7 263.663  27
   2   6  -4 21829.0 324.541  49
   2   6  -3 12012.0 226.069  49
  -2   6   3 12384.6 193.953  27
  -2   6   3 12891.3 365.575  21
   2   6  -3 12725.6 230.292  26
   2   6  -2 21704.9 259.786  28
  -2   6   2 22715.9 259.503  27
  -2   6   2 22279.8 464.821  21
  -2   6   1 30597.5 542.426  21
   2   6  -1 31683.7 589.068  11
  -2   6   1 31023.4 304.634  27
   2   6  -1 30543.3 283.686  28
  -2   6   0 7685.11 176.997  34
   2   6   0 7032.81 261.648  11
   2   6   0 7178.63 129.295  28
  -2   6   0 7618.83 135.599  28
   2   6   1 4114.05 178.730  21
  -2   6  -1 4338.64 127.690  23
  -2   6  -1 4351.85 107.728  28
   2   6   1 4370.54 97.1694  28
  -2   6  -1 4299.39 135.813  34
   2   6   1 4165.87 204.078  11
   2   6   2 15534.7 348.759  21
  -2   6  -2 15911.1 251.339  23
  -2   6  -2 15724.5 219.563  28
  -2   6  -2 15599.2 266.489  37
  -2   6  -2 16475.0 268.406  34
   2   6   2 15885.7 409.701  11
  -2   6  -3 21870.0 328.862  37
   2   6   3 21675.7 493.059  11
  -2   6  -3 22021.8 316.996  34
   2   6   3 21276.6 415.557  21
  -2   6  -3 22065.9 314.640  23
  -2   6  -3 22464.6 574.347  20
  -2   6  -4 19434.7 318.190  37
   2   6   4 18248.9 464.339  11
  -2   6  -4 20087.6 313.781  34
  -2   6  -4 19506.7 311.019  23
  -2   6  -4 18356.8 539.721  20
  -2   6  -5 817.954 72.0897  34
  -2   6  -5 899.167 72.4671  37
  -2   6  -5 745.765 117.377  20
  -2   6  -5 713.182 68.3105  23
  -2   6  -6 12269.8 251.704  34
  -2   6  -6 10938.8 429.627  20
  -2   6  -7 2029.98 99.7916  34
  -2   6  -7 1950.79 94.3305  33
  -2   6  -8 16936.2 241.934  34
  -2   6  -8 17186.3 250.356  33
  -2   6  -9 708.868 44.0752  33
   2   7 -10 2572.80 79.6123  34
   2   7  -9 3131.69 106.788  34
   2   7  -8 667.614 57.4444  34
  -2   7   8 845.793 48.6572  27
   2   7  -7 1076.77 80.2921  49
  -2   7   7 1039.70 108.427  21
   2   7  -7 1158.39 145.677  20
   2   7  -7 993.845 72.6632  34
  -2   7   7 1033.14 56.3551  27
   2   7  -6 2140.59 112.663  49
   2   7  -6 2068.43 94.2123  38
   2   7  -6 1700.94 177.570  20
  -2   7   6 2079.67 157.339  21
   2   7  -6 1974.83 98.6761  34
  -2   7   6 1984.59 79.3207  27
   2   7  -5 21047.5 338.421  49
   2   7  -5 20903.8 318.598  38
   2   7  -5 21184.3 306.537  34
  -2   7   5 21350.7 495.837  21
  -2   7   5 20530.8 253.623  27
  -2   7   4 9842.45 333.970  21
   2   7  -4 9837.74 397.779  20
   2   7  -4 10566.6 221.928  26
   2   7  -4 10073.6 201.852  34
  -2   7   4 9936.58 180.645  27
   2   7  -4 9978.20 229.489  49
   2   7  -3 17229.7 285.286  49
  -2   7   3 17134.4 237.206  27
  -2   7   3 17005.9 433.414  21
   2   7  -3 17446.6 292.876  26
   2   7  -3 17452.8 509.738  20
   2   7  -2 14427.3 231.589  28
  -2   7   2 15314.7 410.497  21
   2   7  -1 38903.0 353.851  28
  -2   7   1 40378.7 328.204  28
   2   7  -1 38836.6 689.238   7
  -2   7   1 39693.6 415.881  34
   2   7  -1 38562.2 731.578  11
  -2   7   0 44958.7 405.178  23
  -2   7   0 46438.8 362.794  28
   2   7   0 45040.0 782.341   7
  -2   7   0 45301.6 447.027  34
   2   7   0 45535.0 742.527  11
   2   7   1 6539.61 129.345  28
  -2   7  -1 6715.70 175.053  34
   2   7   1 6702.42 277.841  11
  -2   7  -1 6689.94 163.232  23
   2   7   2 1483.85 60.8292  28
  -2   7  -2 1512.47 88.3990  34
   2   7   2 1643.26 138.398  11
  -2   7  -2 1466.08 82.0171  23
  -2   7  -3 1560.61 90.9783  34
   2   7   3 1601.51 60.8632  28
  -2   7  -3 1545.29 87.1405  23
  -2   7  -3 1420.07 158.116  20
  -2   7  -4 3108.51 125.597  34
   2   7   4 3100.24 79.4430  28
  -2   7  -4 2895.64 118.028  23
  -2   7  -5 805.496 68.1137  34
  -2   7  -5 770.899 112.105  20
  -2   7  -6 7024.02 175.054  34
  -2   7  -7 4561.06 120.753  33
  -2   7  -7 4710.12 128.497  34
  -2   7  -8 3045.67 82.7108  33
   2   8  -8 1764.39 66.6438  34
   2   8  -7 503.573 48.9657  49
  -2   8   7 527.748 35.0878  34
   2   8  -7 467.097 41.0951  34
   2   8  -6 41.3017 34.0223  49
   2   8  -6 53.8177 21.6500  34
  -2   8   6 66.6393 19.0477  34
  -2   8   6 9.77736 13.2711  27
   2   8  -5 1176.71 69.0927  38
  -2   8   5 1082.60 61.8651  34
   2   8  -5 1097.30 63.5917  34
   2   8  -5 1249.86 83.2659  49
  -2   8   4 346.835 40.5554  34
   2   8  -4 333.353 53.3341  49
   2   8  -4 167.497 54.2554  20
  -2   8   4 219.102 54.0326  21
   2   8  -3 2269.05 106.995  49
  -2   8   3 2379.89 97.6295  34
  -2   8   3 2391.93 80.0918  28
   2   8  -3 2452.65 106.264  26
   2   8  -2 2210.78 102.361  49
  -2   8   2 2173.43 95.4622  34
  -2   8   2 2150.23 78.5412  28
   2   8  -2 2101.39 101.812  26
   2   8  -2 1928.83 162.996  20
   2   8  -1 5327.63 146.795  49
  -2   8   1 5400.59 149.169  34
   2   8  -1 5164.83 134.391  28
  -2   8   1 5534.17 127.594  28
  -2   8   1 5496.37 135.171  23
  -2   8   0 36739.6 342.281  28
  -2   8   0 37006.8 358.227  23
  -2   8  -1 3014.96 114.172  34
   2   8   1 3171.63 95.7038  28
  -2   8  -1 3174.60 108.971  23
  -2   8  -2 12310.1 195.952  49
  -2   8  -2 13267.9 233.656  34
   2   8   2 12984.4 180.140  28
  -2   8  -2 12171.1 214.743  23
  -2   8  -2 13089.1 436.778  20
   2   8   3 87.7225 18.1422  28
  -2   8  -3 93.1246 35.8776  34
  -2   8  -4 8086.12 180.572  34
  -2   8  -5 2999.08 105.855  34
  -2   8  -6 1061.23 52.0184  33
  -2   8  -6 1234.06 62.0297  34
   2   9  -6 5972.98 120.307  49
  -2   9   5 5296.82 98.8341  34
   2   9  -5 5841.87 133.652  49
   2   9  -4 2909.05 100.006  49
  -2   9   4 2977.54 83.2447  34
  -2   9   4 3120.25 77.1478  28
   2   9  -4 2984.28 91.0937  38
   2   9  -3 6859.90 155.720  49
  -2   9   3 7010.58 122.230  28
  -2   9   3 6665.77 132.892  34
   2   9  -2 2813.00 100.977  49
  -2   9   2 2882.82 92.4538  34
  -2   9   2 2867.54 83.9389  28
   2   9  -1 3060.39 103.978  49
  -2   9   1 3226.55 99.0782  34
  -2   9   1 3130.77 90.1927  28
   2   9  -1 3218.87 109.509  26
   2   9   0 2669.83 98.7695  26
   2   9   0 2492.56 90.7497  49
  -2   9   0 2566.31 90.5548  34
  -2   9  -1 3360.78 103.533  34
  -2   9  -1 3139.05 87.6012  49
   2   9   1 3268.11 96.8941  49
  -2   9  -2 4170.59 114.341  34
   2   9   2 3915.08 94.8463  49
  -2   9  -3 1817.31 74.5665  34
   2   9   3 1405.79 47.6583  49
  -2   9  -4 268.469 29.9280  34
  -3  -9   5 1967.59 71.5279  36
   3  -9  -5 1836.24 60.3906  45
  -3  -9   4 3639.52 104.535  36
   3  -9  -4 3343.65 83.8853  45
  -3  -9   3 2257.59 86.0497  36
   3  -9  -3 2060.27 66.0221  45
  -3  -9   2 2614.22 93.2580  36
   3  -9  -2 2433.63 78.4000  42
  -3  -9   1 3094.01 99.7719  36
   3  -9  -1 2879.36 89.7731  42
  -3  -9   0 8013.21 151.154  36
   3  -9   0 7951.69 149.914  42
  -3  -9  -1 23296.0 234.223  36
   3  -9   1 22577.0 249.048  42
   3  -9   2 3333.67 90.1157  42
   3  -9   3 17.2007 11.1891  42
   3  -8  -8 1731.76 60.4733  45
  -3  -8   8 1636.79 58.2539  36
  -3  -8   7 7124.81 128.173  46
   3  -8  -7 7281.19 149.238  45
  -3  -8   7 7290.40 145.635  36
  -3  -8   7 7226.47 141.783  30
  -3  -8   6 2513.26 82.3598  46
  -3  -8   6 2648.34 99.1295  36
  -3  -8   6 2534.02 93.1345  30
   3  -8  -6 2632.18 98.3045  45
  -3  -8   5 335.032 44.8540  36
  -3  -8   5 344.395 40.7471  30
   3  -8  -5 303.774 40.0219  45
  -3  -8   4 490.098 54.9481  36
  -3  -8   4 538.452 49.6561  30
   3  -8  -4 481.114 49.5735  45
  -3  -8   3 3776.89 134.581  36
  -3  -8   3 3529.40 118.407  30
   3  -8  -3 3612.33 125.094  45
  -3  -8   2 3880.54 138.365  36
   3  -8  -2 3896.12 127.191  42
   3  -8  -2 3879.12 127.177  45
  -3  -8   1 4539.08 150.013  36
   3  -8  -1 4191.28 136.578  42
   3  -8  -1 4273.58 126.166  45
  -3  -8   0 2376.03 106.841  36
  -3  -8   0 2410.51 79.8037  35
   3  -8   0 2319.25 103.408  42
  -3  -8  -1 879.825 64.9567  36
  -3  -8  -1 907.827 51.7251  35
   3  -8   1 867.961 66.8907  42
  -3  -8  -2 8507.39 177.820  36
  -3  -8  -2 8238.23 149.670  35
   3  -8   2 8543.27 186.884  42
  -3  -8  -3 4188.18 113.486  36
  -3  -8  -3 4317.47 86.0690  43
   3  -8   3 4255.37 124.883  42
  -3  -8  -4 2287.73 73.0981  36
   3  -8   4 2449.85 84.7384  42
  -3  -8  -4 2475.32 62.3672  43
   3  -8   5 586.975 35.0150  42
  -3  -8  -5 653.213 29.7635  43
  -3  -7  10 2644.03 69.0775  46
   3  -7  -9 183.292 25.0327  45
  -3  -7   9 190.035 24.1033  30
   3  -7  -8 8069.74 173.012  45
  -3  -7   8 7889.36 163.339  30
  -3  -7   7 19805.7 279.985  30
   3  -7  -7 20229.6 302.813  45
  -3  -7   6 3756.59 130.763  30
   3  -7  -6 3806.65 144.338  45
  -3  -7   5 2796.80 117.410  30
   3  -7  -5 2744.06 128.723  45
  -3  -7   4 3815.25 127.811  46
  -3  -7   4 3651.26 133.583  30
   3  -7  -4 3743.27 149.732  45
  -3  -7   3 1991.66 89.8163  46
   3  -7  -3 1905.61 109.104  45
   3  -7  -3 1952.87 97.5044  42
  -3  -7   3 2034.57 110.321  36
  -3  -7   3 2044.77 100.065  30
   3  -7  -2 1309.75 83.9462  42
  -3  -7   2 1255.24 88.5935  36
  -3  -7   2 1240.65 80.4911  30
   3  -7  -2 1146.00 155.787  19
   3  -7  -1 14844.3 564.736  19
   3  -7  -1 14190.6 274.239  42
  -3  -7   1 15032.3 287.911  36
   3  -7   0 2337.22 237.995  19
   3  -7   0 2433.98 116.612  42
  -3  -7   0 2643.17 123.977  36
  -3  -7   0 2600.71 95.2849  35
   3  -7   1 5079.95 340.663  19
   3  -7   1 5363.31 171.907  42
  -3  -7  -1 5394.40 169.276  36
  -3  -7  -1 5380.24 138.484  35
   3  -7   2 3190.15 269.650  19
  -3  -7  -2 3251.09 91.7057  43
   3  -7   2 3375.00 135.929  42
  -3  -7  -2 3148.29 126.280  36
  -3  -7  -2 3152.76 109.196  35
   3  -7   3 5688.64 348.204  19
  -3  -7  -3 5142.11 151.509  36
  -3  -7  -3 5117.63 133.573  35
  -3  -7  -3 5206.58 115.980  43
   3  -7   3 5312.86 162.578  42
  -3  -7  -4 2389.92 96.6502  36
  -3  -7  -4 2472.29 79.6024  43
   3  -7   4 2392.34 102.880  42
  -3  -7  -5 18962.0 243.629  36
   3  -7   5 18476.7 250.691  42
  -3  -7  -6 1742.84 56.9275  43
   3  -7   6 1558.94 59.9540  42
   3  -6 -10 2306.43 62.1688  52
  -3  -6  10 2243.38 63.5948  40
   3  -6  -9 4108.58 124.335  45
   3  -6  -9 3977.94 93.8063  52
  -3  -6   9 3927.23 95.5927  40
  -3  -6   9 3890.87 115.940  30
  -3  -6   8 32507.5 366.751  30
   3  -6  -8 32608.9 370.352  32
   3  -6  -7 18098.9 316.570  45
  -3  -6   7 17965.9 288.010  30
   3  -6  -7 17861.1 283.871  32
   3  -6  -6 3543.02 149.369  45
   3  -6  -6 3712.62 132.888  32
  -3  -6   6 3597.92 136.048  30
   3  -6  -5 17249.9 327.615  45
   3  -6  -5 16732.5 277.022  32
  -3  -6   5 16883.9 287.915  30
   3  -6  -4 26284.3 378.089  39
  -3  -6   4 26995.3 351.011  42
  -3  -6   4 27583.8 367.447  30
   3  -6  -4 28099.0 340.157  32
  -3  -6   3 11547.0 233.784  30
  -3  -6   3 11360.0 229.905  42
   3  -6  -3 11632.0 235.955  42
  -3  -6   2 24273.5 333.297  42
   3  -6  -2 24311.7 351.627  42
   3  -6  -2 25224.4 695.903  19
   3  -6  -2 23437.1 358.369  39
  -3  -6   2 24140.9 315.180  46
  -3  -6   2 23325.9 329.240  30
  -3  -6   1 8653.83 198.628  30
  -3  -6   1 8705.80 196.319  42
   3  -6  -1 8737.60 217.516  42
  -3  -6   1 8890.34 457.556   5
   3  -6  -1 8748.90 220.949  39
  -3  -6   1 8717.77 214.156  36
   3  -6  -1 7899.73 402.760  19
   3  -6   0 27414.5 387.103  42
  -3  -6   0 27091.2 832.397   5
   3  -6   0 26926.4 384.356  39
  -3  -6   0 27346.4 382.641  36
  -3  -6   0 27237.7 306.179  35
   3  -6   0 26210.4 746.132  19
   3  -6   1 5601.22 160.831  29
  -3  -6  -1 5590.56 122.609  43
   3  -6   1 5691.27 179.543  42
  -3  -6  -1 4991.65 370.509   5
   3  -6   1 5403.58 169.830  39
  -3  -6  -1 5525.06 173.186  36
  -3  -6  -1 5453.20 144.224  35
   3  -6   1 5436.26 347.039  19
   3  -6   2 21992.4 333.085  29
  -3  -6  -2 22132.4 252.318  43
   3  -6   2 22658.1 356.865  42
  -3  -6  -2 21289.9 780.262   5
   3  -6   2 22490.0 327.886  39
  -3  -6  -2 21247.0 335.425  36
  -3  -6  -2 20850.9 285.300  35
   3  -6   2 21379.2 689.159  19
   3  -6   3 7515.96 201.339  29
  -3  -6  -3 7289.24 191.075  36
  -3  -6  -3 7381.15 169.149  35
   3  -6   3 7340.48 405.233  19
  -3  -6  -3 7506.22 150.551  43
   3  -6   3 7774.76 208.673  42
   3  -6   4 8474.73 431.997  19
   3  -6   4 8615.57 189.970  47
  -3  -6  -4 8460.03 160.327  43
   3  -6   4 8311.01 207.261  42
  -3  -6  -4 8251.53 196.640  36
  -3  -6  -4 8175.45 177.179  35
   3  -6   4 8612.04 214.164  29
   3  -6   5 9902.66 202.885  47
  -3  -6  -5 9655.71 203.435  36
  -3  -6  -5 9668.42 166.095  43
   3  -6   5 9758.50 209.305  42
   3  -6   5 10007.6 224.692  29
   3  -6   6 3722.19 119.377  47
  -3  -6  -6 3751.29 99.1266  43
   3  -6   6 3688.70 112.264  42
  -3  -6  -6 3892.06 120.511  36
   3  -6   7 3516.38 103.247  47
  -3  -6  -7 3547.19 84.5152  43
   3  -6   8 1780.95 60.8863  47
  -3  -5  11 2300.44 71.9388  40
   3  -5 -11 2237.02 71.0221  52
  -3  -5  10 2203.53 81.0294  40
   3  -5 -10 2433.20 86.1890  45
   3  -5 -10 2181.92 81.8367  52
   3  -5 -10 2249.04 95.9443  32
  -3  -5   9 14500.8 220.493  40
   3  -5  -9 15078.7 257.294  45
   3  -5  -9 15201.7 227.660  52
  -3  -5   9 15295.8 245.747  30
   3  -5  -9 15217.9 267.825  32
  -3  -5   8 19062.0 260.532  40
   3  -5  -8 19488.4 322.735  45
   3  -5  -8 19638.6 264.604  52
   3  -5  -8 19570.8 318.342  32
  -3  -5   8 19332.1 291.096  30
  -3  -5   7 37821.2 362.312  40
   3  -5  -7 36617.4 459.827  45
   3  -5  -7 38090.5 361.405  52
  -3  -5   7 37647.7 421.857  30
   3  -5  -7 37218.0 440.993  32
   3  -5  -6 13904.8 290.485  45
   3  -5  -6 14074.5 269.406  32
  -3  -5   6 14023.4 260.612  30
   3  -5  -6 13650.9 247.522  39
  -3  -5   6 14213.0 216.008  40
  -3  -5   5 10266.1 198.934  42
  -3  -5   5 10458.0 220.695  30
   3  -5  -5 10323.4 225.916  32
   3  -5  -5 10151.1 222.262  39
  -3  -5   4 29336.6 343.298  42
   3  -5  -4 28998.6 377.858  39
  -3  -5   4 30128.8 656.530   5
  -3  -5   4 30446.2 359.643  30
   3  -5  -4 30602.6 365.737  32
  -3  -5   3 14656.8 243.028  42
   3  -5  -3 14274.9 246.157  42
   3  -5  -3 14893.9 465.844  19
   3  -5  -3 13723.9 258.074  39
   3  -5  -3 14390.6 233.464  32
  -3  -5   3 13949.2 240.771  30
  -3  -5   3 13836.2 473.929   5
  -3  -5   2 18001.1 266.413  42
   3  -5  -2 17897.0 281.145  42
  -3  -5   2 17830.0 569.163   5
   3  -5  -2 17733.7 290.626  39
  -3  -5   2 18065.6 274.457  30
   3  -5  -2 18061.5 538.803  19
   3  -5  -1 35134.2 784.700  19
  -3  -5   1 36046.0 361.652  46
   3  -5  -1 37101.3 409.381  42
  -3  -5   1 36291.3 373.202  42
  -3  -5   1 35384.4 380.859  30
   3  -5  -1 37107.5 419.871  39
  -3  -5   1 38118.8 414.454  36
  -3  -5   1 35463.6 837.041   5
  -3  -5   0 25805.4 771.189   5
   3  -5   0 26576.7 356.200  42
   3  -5   0 26354.0 321.999  29
   3  -5   0 26699.3 357.365  39
  -3  -5   0 26375.3 345.890  36
  -3  -5   0 26906.8 288.550  35
   3  -5   0 25130.6 675.287  19
  -3  -5  -1 63272.1 1271.15   5
   3  -5   1 64477.9 540.053  29
   3  -5   1 65511.2 573.596  42
  -3  -5  -1 64233.2 398.595  43
   3  -5   1 65713.6 558.492  39
  -3  -5  -1 65094.5 471.349  35
   3  -5   1 65068.1 1114.32  19
  -3  -5  -2 58483.6 1263.49   5
   3  -5   2 60431.2 556.855  29
   3  -5   2 61306.0 574.177  42
  -3  -5  -2 60811.5 416.973  43
   3  -5   2 60957.1 523.549  22
   3  -5   2 61835.1 532.992  39
  -3  -5  -2 58191.4 536.721  36
  -3  -5  -2 60127.4 468.305  35
   3  -5   2 60744.4 1109.28  19
   3  -5   3 1644.11 99.2134  29
  -3  -5  -3 1698.11 74.3585  43
   3  -5   3 1624.91 97.6399  42
  -3  -5  -3 1684.62 215.255   5
   3  -5   3 1684.30 95.4229  22
  -3  -5  -3 1683.94 93.6678  36
  -3  -5  -3 1659.60 82.5870  35
   3  -5   3 1562.43 188.962  19
   3  -5   4 22268.3 353.783  29
   3  -5   4 21741.0 340.424  42
  -3  -5  -4 22175.7 311.258  41
  -3  -5  -4 21797.4 258.923  43
  -3  -5  -4 21835.8 802.657   5
   3  -5   4 22843.0 347.458  22
  -3  -5  -4 21526.6 326.249  36
  -3  -5  -4 21194.3 286.219  35
   3  -5   4 22228.7 697.858  19
   3  -5   5 13541.0 275.768  29
  -3  -5  -5 13743.2 261.218  36
   3  -5   5 14110.3 549.167  19
  -3  -5  -5 13468.7 205.207  43
   3  -5   5 14005.5 263.942  42
  -3  -5  -5 14082.0 255.256  41
   3  -5   6 15837.9 288.619  29
  -3  -5  -6 15617.2 272.278  36
   3  -5   6 16150.4 559.512  19
  -3  -5  -6 15566.9 214.533  43
   3  -5   6 15801.2 255.644  42
  -3  -5  -6 15685.7 267.822  41
  -3  -5  -7 9646.43 198.393  36
   3  -5   7 9590.71 208.500  29
  -3  -5  -7 9720.80 157.190  43
  -3  -5  -7 9504.43 195.813  41
  -3  -5  -8 22436.0 207.429  43
   3  -5   8 20993.7 267.420  47
   3  -5   9 2806.66 75.0367  48
   3  -5   9 2785.41 78.5834  47
   3  -4 -12 2796.56 84.3100  52
  -3  -4  12 2697.10 75.9807  40
  -3  -4  11 4890.71 120.706  40
   3  -4 -11 4971.98 134.054  52
  -3  -4  11 4837.37 99.9190  44
   3  -4 -11 4895.28 135.028  32
  -3  -4  10 8983.67 178.811  40
   3  -4 -10 9311.46 198.798  52
   3  -4 -10 9142.53 210.384  32
  -3  -4   9 1391.59 77.5326  40
   3  -4  -9 1369.48 81.7937  52
  -3  -4   9 1299.58 77.3564  48
   3  -4  -9 1359.33 78.5664  45
  -3  -4   9 1496.69 77.1242  30
   3  -4  -9 1383.93 92.3036  32
  -3  -4   8 17439.7 262.619  40
  -3  -4   8 17656.3 271.550  48
   3  -4  -8 17528.4 279.030  52
   3  -4  -8 17568.1 300.073  45
  -3  -4   8 17839.9 275.155  30
   3  -4  -8 18017.6 316.829  32
  -3  -4   7 9435.27 190.045  40
  -3  -4   7 9512.08 196.527  48
   3  -4  -7 9887.69 200.522  52
   3  -4  -7 9541.22 227.897  32
  -3  -4   7 9799.77 207.310  30
   3  -4  -7 9722.42 230.017  45
  -3  -4   6 10651.8 195.334  48
  -3  -4   6 10599.3 187.435  40
  -3  -4   6 11228.1 220.262  30
   3  -4  -6 10934.9 234.885  32
  -3  -4   6 10819.6 326.509   5
   3  -4  -5 16741.4 263.804  39
  -3  -4   5 16708.0 222.613  40
  -3  -4   5 16467.5 402.007   5
   3  -4  -5 17235.8 277.010  32
  -3  -4   5 17398.3 266.626  30
   3  -4  -4 3473.86 118.918  39
  -3  -4   4 3403.65 187.853   5
   3  -4  -4 3680.27 121.347  32
  -3  -4   4 3620.34 116.687  30
  -3  -4   4 3456.59 106.710  42
  -3  -4   3 4031.09 118.884  30
   3  -4  -3 4092.07 220.503  19
  -3  -4   3 4321.28 225.813   5
  -3  -4   2 12884.1 207.412  30
   3  -4  -2 12514.5 406.315  19
  -3  -4   2 12467.1 405.158   5
  -3  -4   1 14016.2 214.353  30
   3  -4  -1 13959.5 439.505  19
   3  -4   0 17400.6 229.680  22
   3  -4   0 17101.7 506.984  19
  -3  -4   0 16483.6 540.126   5
   3  -4   1 3323.50 229.403  19
   3  -4   1 3645.30 123.496  42
   3  -4   1 3622.43 115.382  22
   3  -4   1 3515.92 119.056  39
  -3  -4  -1 3353.41 114.367  36
  -3  -4  -1 3542.50 99.8076  35
  -3  -4  -1 3532.50 270.760   5
  -3  -4  -2 33006.9 874.545   5
  -3  -4  -2 34190.5 431.657  31
   3  -4   2 34928.5 406.056  29
   3  -4   2 36908.1 408.477  42
  -3  -4  -2 36641.2 297.856  43
   3  -4   2 34944.8 380.874  22
   3  -4   2 35684.2 377.624  39
  -3  -4  -2 35127.2 381.977  36
  -3  -4  -2 34818.2 324.646  35
   3  -4   2 34934.9 705.991  12
   3  -4   2 34891.8 776.941  19
   3  -4   3 7478.95 375.106  19
   3  -4   3 7514.41 361.854  12
  -3  -4  -3 7713.36 135.121  52
   3  -4   3 7759.66 194.619  42
  -3  -4  -3 7372.89 141.864  43
  -3  -4  -3 7651.23 185.792  41
  -3  -4  -3 7219.46 438.000   5
   3  -4   3 7583.76 190.495  22
  -3  -4  -3 7529.35 183.088  36
  -3  -4  -3 7712.60 162.162  35
   3  -4   3 7175.06 196.610  29
   3  -4   4 4760.50 311.497  12
   3  -4   4 4802.35 312.091  19
  -3  -4  -4 4882.51 112.735  52
   3  -4   4 4875.13 158.578  42
  -3  -4  -4 4810.73 120.432  43
  -3  -4  -4 4782.64 158.932  41
  -3  -4  -4 4264.70 348.629   5
   3  -4   4 4895.34 160.895  22
  -3  -4  -4 4720.71 131.600  35
   3  -4   4 4879.55 166.315  29
   3  -4   5 37794.3 927.311  12
   3  -4   5 37860.0 879.315  19
  -3  -4  -5 36950.6 313.447  52
  -3  -4  -5 38206.3 474.028  41
  -3  -4  -5 36572.4 337.096  43
   3  -4   5 38298.3 433.029  42
  -3  -4  -5 35827.4 1019.10   5
   3  -4   5 38354.5 453.967  22
  -3  -4  -5 37609.9 437.580  36
   3  -4   5 37768.7 466.805  29
   3  -4   6-38.0766 28.8616  19
   3  -4   6 61.5554 34.5234  22
  -3  -4  -6 65.1619 27.5903  43
   3  -4   6 61.3739 25.1346  42
  -3  -4  -6 104.874 40.8106  41
  -3  -4  -6 107.301 35.2413  36
   3  -4   6 50.6629 36.4517  29
  -3  -4  -6 83.5612 21.0450  33
  -3  -4  -7 11469.3 156.135  52
   3  -4   7 11502.0 244.880  22
  -3  -4  -7 11438.0 242.099  36
   3  -4   7 11223.8 242.214  29
  -3  -4  -7 11866.3 261.111  41
  -3  -4  -7 11277.3 180.483  43
  -3  -4  -8 13318.7 239.156  36
  -3  -4  -8 13789.4 179.118  43
  -3  -4  -8 13100.2 248.261  41
   3  -4   8 12622.3 234.002  29
   3  -4   9 5210.79 129.394  47
  -3  -4  -9 5091.10 129.902  41
   3  -4  10 9544.63 131.523  48
   3  -4  10 9471.55 130.257  47
   3  -3 -13 5926.68 115.331  52
  -3  -3  13 5772.45 101.561  40
  -3  -3  12 595.455 38.6696  44
   3  -3 -12 590.262 51.7711  52
   3  -3 -12 600.366 41.3621  32
  -3  -3  12 598.317 43.2820  40
  -3  -3  11 393.357 38.9137  25
   3  -3 -11 400.842 52.2586  52
   3  -3 -11 379.961 45.6079  32
  -3  -3  11 373.236 42.4689  40
  -3  -3  10 6631.26 161.505  25
  -3  -3  10 6680.49 166.117  48
   3  -3 -10 7345.41 200.733  52
   3  -3 -10 6845.03 193.218  32
  -3  -3  10 6869.20 164.690  40
  -3  -3   9 62008.9 504.127  40
  -3  -3   9 61555.9 509.578  48
   3  -3  -9 62697.6 582.409  52
   3  -3  -9 61629.3 592.998  32
  -3  -3   8 1353.13 78.4102  47
   3  -3  -8 1401.71 86.9133  52
  -3  -3   8 1363.96 77.9335  48
   3  -3  -8 1377.74 80.6986  45
  -3  -3   8 1389.03 77.3836  40
   3  -3  -8 1342.30 91.6501  32
  -3  -3   8 1430.14 74.0522  30
   3  -3  -8 1094.55 144.990   6
  -3  -3   8 1450.52 171.557   3
  -3  -3   8 1369.17 72.8575  25
  -3  -3   7 3312.10 104.082  25
  -3  -3   7 3229.13 114.659  47
   3  -3  -7 3137.80 118.392  52
  -3  -3   7 3202.58 112.209  48
  -3  -3   7 3195.73 109.478  40
   3  -3  -7 2973.64 222.601   6
  -3  -3   7 3118.38 232.379   3
   3  -3  -7 3084.04 128.306  32
  -3  -3   7 3132.62 109.758  30
  -3  -3   6 334.327 31.5751  25
  -3  -3   6 328.819 36.8661  47
  -3  -3   6 277.595 32.5982  48
  -3  -3   6 276.898 31.8037  40
   3  -3  -6 280.056 39.3901  32
  -3  -3   6 240.639 33.1605  30
   3  -3  -6 316.872 61.0011   6
  -3  -3   6 153.878 64.3842   3
  -3  -3   5 11288.6 192.750  30
   3  -3  -5 10509.4 328.073   6
  -3  -3   5 11370.2 361.539   3
  -3  -3   5 10894.5 151.156  25
  -3  -3   4 12848.5 342.486   3
   3  -3  -4 12670.9 426.344  16
  -3  -3   4 12864.5 196.979  30
   3  -3  -3 15959.6 381.620   4
  -3  -3   3 16150.9 333.207   3
  -3  -3   3 15415.8 344.570   5
   3  -3  -3 15453.3 449.558  16
   3  -3  -3 14630.8 370.912  19
  -3  -3   3 15529.6 207.556  30
   3  -3  -2 39481.8 698.010  16
  -3  -3   2 40093.7 592.716   5
   3  -3  -1 30011.6 257.531  22
   3  -3  -1 29944.4 593.266  16
  -3  -3   1 29488.8 564.757   5
   3  -3   0 85822.6 485.141  22
  -3  -3   0 86123.3 1066.00   5
   3  -3   1 35536.3 343.809  22
   3  -3   1 37386.1 662.312  12
   3  -3   1 38983.2 650.344  16
  -3  -3  -1 33592.7 720.863   5
   3  -3   2 14606.1 238.862  22
  -3  -3  -2 13475.7 508.737   5
   3  -3   2 14476.3 463.169  12
  -3  -3  -3 875.345 73.2834  31
  -3  -3  -3 926.161 47.3811  43
   3  -3   3 835.960 61.0692  42
  -3  -3  -3 877.479 159.600   5
   3  -3   3 846.173 67.4132  22
  -3  -3  -3 812.280 57.3930  36
  -3  -3  -3 1099.51 56.6888  35
   3  -3   3 755.253 122.784  12
  -3  -3  -4 7594.59 133.526  52
  -3  -3  -4 7546.24 142.630  43
   3  -3   4 7586.75 184.551  42
  -3  -3  -4 7037.91 420.985   5
   3  -3   4 7550.21 195.716  22
  -3  -3  -4 7617.07 184.057  36
   3  -3   4 7722.71 396.553  12
   3  -3   5 7828.99 425.232  12
   3  -3   5 7513.56 372.906  19
  -3  -3  -5 7964.37 142.156  52
  -3  -3  -5 7364.60 149.280  43
   3  -3   5 7756.95 189.280  42
  -3  -3  -5 7645.84 220.937  41
  -3  -3  -5 7140.67 441.616   5
   3  -3   5 7580.60 203.806  22
  -3  -3  -5 7755.54 165.202  33
  -3  -3  -5 7504.67 197.568  36
   3  -3   5 7598.39 208.213  29
  -3  -3  -6 27877.5 296.026  43
  -3  -3  -6 30049.5 455.127  41
   3  -3   6 28257.6 403.819  29
   3  -3   6 28619.4 399.173  22
  -3  -3  -6 28214.6 394.766  36
  -3  -3  -6 29019.5 325.186  33
   3  -3   6 28319.7 839.755  12
   3  -3   6 29097.9 740.004  19
  -3  -3  -7 28698.3 289.430  43
  -3  -3  -7 30367.1 456.813  41
   3  -3   7 29650.0 403.645  29
   3  -3   7 28924.9 396.380  22
  -3  -3  -7 29524.8 329.854  33
  -3  -3  -7 28784.8 405.219  36
   3  -3   7 30291.8 882.759  12
   3  -3   8 13317.3 255.618  22
  -3  -3  -8 13171.0 207.511  33
  -3  -3  -8 13002.6 263.285  36
   3  -3   8 13390.7 252.087  29
  -3  -3  -8 13273.1 281.911  41
  -3  -3  -9 3810.62 98.1108  33
  -3  -3  -9 3742.63 131.050  41
   3  -3   9 3904.06 116.293  29
  -3  -3 -10 4095.94 105.501  41
   3  -3  10 4057.14 102.298  47
  -3  -2  13 1860.96 65.3053  40
   3  -2 -13 1730.85 75.3792  52
  -3  -2  13 1801.90 60.3159  44
  -3  -2  12 2004.90 79.5806  40
   3  -2 -12 1972.87 99.8845  52
  -3  -2  12 2021.20 81.4307  25
   3  -2 -12 1948.38 75.6776  32
  -3  -2  11 5096.42 137.847  40
  -3  -2  11 5225.96 138.586  48
   3  -2 -11 5373.04 179.275  52
  -3  -2  11 5258.15 143.849  25
   3  -2 -11 5343.52 154.266  32
  -3  -2  10 33287.3 366.069  40
  -3  -2  10 32068.3 362.900  48
   3  -2 -10 34772.6 469.371  52
   3  -2 -10 32600.2 424.997  32
  -3  -2  10 33818.5 375.724  25
  -3  -2   9 7340.36 174.876  25
   3  -2  -9 7421.52 214.500  52
  -3  -2   9 7038.74 174.233  48
  -3  -2   9 7289.18 174.190  40
   3  -2  -9 7557.84 210.413  32
  -3  -2   9 7697.67 391.988   3
   3  -2  -9 7102.38 416.981   6
  -3  -2   8 40557.1 868.614   3
   3  -2  -8 39070.1 888.971   6
  -3  -2   8 41223.7 394.705  25
   3  -2  -8 41513.9 467.290  52
  -3  -2   8 40286.4 388.414  47
  -3  -2   8 41468.8 402.592  48
  -3  -2   8 41307.3 400.781  40
  -3  -2   8 40705.3 685.111  14
   3  -2  -8 40162.1 473.668  32
  -3  -2   7 23781.1 616.630   3
   3  -2  -7 23479.6 623.198   6
  -3  -2   7 24101.8 283.849  25
   3  -2  -7 24245.3 326.429  52
  -3  -2   7 24534.3 288.191  47
  -3  -2   7 24527.8 290.043  48
  -3  -2   7 24859.0 290.614  40
   3  -2  -7 24278.5 342.863  32
  -3  -2   7 24999.5 484.733  14
   3  -2  -6 1077.37 121.250   6
  -3  -2   6 1203.14 59.5152  30
  -3  -2   6 1253.72 99.8599  14
  -3  -2   6 1201.60 59.9527  25
  -3  -2   5 79455.6 420.338  25
   3  -2  -5 78722.6 1019.37  16
  -3  -2   5 83600.9 676.380  14
   3  -2  -5 83123.5 913.160   6
   3  -2  -5 80785.5 818.537   4
  -3  -2   5 81713.8 948.207   3
  -3  -2   4 23448.3 200.981  25
   3  -2  -4 25181.3 548.356  16
  -3  -2   4 25125.0 319.803  14
   3  -2  -4 24778.8 428.785   6
   3  -2  -4 23167.0 458.343   4
  -3  -2   4 23980.8 457.459   3
  -3  -2   3 5351.87 85.6986  25
   3  -2  -3 5144.91 215.970   4
   3  -2  -3 5182.82 165.125   6
  -3  -2   3 5391.75 191.421   3
   3  -2  -3 5241.79 236.696  16
   3  -2  -2 88979.9 927.257  16
   3  -2  -2 89106.4 887.190  18
  -3  -2   1 51558.9 617.955   5
   3  -2  -1 50075.3 587.091   9
   3  -2  -1 50734.3 696.609  18
   3  -2   0 22511.6 447.553   9
  -3  -2   0 21436.6 460.274   5
   3  -2   0 20996.3 470.838  18
  -3  -2  -1 2602.84 186.480   5
   3  -2   1 3063.29 185.039   9
   3  -2   1 2906.53 188.818  18
   3  -2   2 8493.44 337.882   9
  -3  -2  -2 8111.82 356.225   5
   3  -2   2 8260.74 260.417  16
   3  -2   2 8192.57 326.712  18
  -3  -2  -3 39413.8 852.507   5
   3  -2   3 42441.6 785.998  18
  -3  -2  -4 30181.0 431.191  31
  -3  -2  -4 29664.8 263.324  43
  -3  -2  -4 30711.9 400.662  41
   3  -2   4 29524.1 338.904  42
  -3  -2  -4 28459.5 774.556   5
   3  -2   4 29387.9 364.021  22
  -3  -2  -4 29857.6 348.802  36
   3  -2   4 30063.5 759.830  12
  -3  -2  -5 36775.8 315.716  43
   3  -2   5 36850.1 392.659  42
  -3  -2  -5 37827.9 490.789  41
  -3  -2  -5 35516.5 925.664   5
   3  -2   5 38119.5 443.251  22
  -3  -2  -5 36857.4 368.789  33
  -3  -2  -5 37905.1 429.489  36
   3  -2   5 36655.9 902.915  12
   3  -2   6 5399.89 174.580  22
   3  -2   6 5284.04 301.888  19
  -3  -2  -6 5559.18 151.544  33
  -3  -2  -6 5600.06 180.490  36
  -3  -2  -6 5568.46 127.819  43
  -3  -2  -6 5469.54 201.482  41
  -3  -2  -7 5467.18 203.131  41
  -3  -2  -7 5788.54 127.711  43
   3  -2   7 5517.19 177.272  29
   3  -2   7 5345.32 174.678  22
  -3  -2  -7 5425.76 153.921  33
  -3  -2  -7 5301.12 181.348  36
   3  -2   7 5847.00 391.958  12
   3  -2   8 40351.9 459.561  22
  -3  -2  -8 40354.2 520.658  41
  -3  -2  -8 39852.9 403.816  33
  -3  -2  -9 3741.63 112.572  33
  -3  -2  -9 3977.72 147.008  41
   3  -2   9 3863.24 129.110  22
  -3  -2 -10 500.406 45.6602  41
  -3  -2 -10 519.144 35.5089  33
   3  -2  10 530.295 42.0724  47
  -3  -1  13 2893.12 83.1724  40
   3  -1 -13 2755.31 103.937  52
  -3  -1  13 2868.47 82.8307  44
  -3  -1  12 4792.97 131.849  25
   3  -1 -12 4687.69 161.585  52
  -3  -1  12 4533.05 120.986  40
  -3  -1  11 932.422 63.0332  40
   3  -1 -11 972.359 87.5202  52
   3  -1 -11 1002.90 68.6244  32
  -3  -1  11 951.764 65.2685  25
  -3  -1  10 35283.8 389.610  25
   3  -1 -10 36068.5 491.390  52
  -3  -1  10 34915.9 368.096  48
  -3  -1  10 34740.5 373.300  40
  -3  -1  10 35618.3 733.854  14
   3  -1 -10 35403.7 433.494  32
  -3  -1   9 52133.2 1021.92   3
   3  -1  -9 51703.3 1155.11   6
  -3  -1   9 50482.8 457.269  25
   3  -1  -9 52776.8 571.397  50
  -3  -1   9 50604.2 444.687  48
  -3  -1   9 51223.5 448.357  40
  -3  -1   9 49564.2 851.251  14
   3  -1  -9 50702.9 537.297  32
   3  -1  -8 82327.0 1334.54   6
  -3  -1   8 84737.5 1238.43   3
  -3  -1   8 81587.4 554.595  25
   3  -1  -8 81027.0 653.785  50
  -3  -1   8 80774.4 534.630  48
  -3  -1   8 81363.9 542.652  40
  -3  -1   8 78244.3 1015.55  14
   3  -1  -8 79951.3 645.646  32
   3  -1  -7 56285.5 983.373   6
  -3  -1   7 57661.1 940.901   3
  -3  -1   7 54412.6 425.270  25
   3  -1  -7 54618.6 484.541  50
  -3  -1   7 54493.7 410.704  48
   3  -1  -7 55367.8 487.426  38
  -3  -1   7 56470.2 421.008  40
   3  -1  -7 55801.3 502.593  32
  -3  -1   7 56055.3 784.328  14
  -3  -1   6 7936.71 149.114  25
  -3  -1   6 7872.80 261.400  14
   3  -1  -6 7921.02 303.705  16
   3  -1  -6 7996.27 330.533   6
   3  -1  -6 8075.31 289.166   2
  -3  -1   6 8127.79 236.343   8
  -3  -1   5 43480.6 309.981  25
  -3  -1   5 44393.5 545.267  14
   3  -1  -5 42212.2 686.169  16
   3  -1  -5 44409.9 674.310   6
   3  -1  -5 43579.6 652.933   4
  -3  -1   5 45217.0 463.024   8
  -3  -1   4 63987.5 333.018  25
  -3  -1   4 64773.7 586.109  14
   3  -1  -4 61721.5 686.697   6
   3  -1  -4 60734.4 765.570   4
  -3  -1   3 124568. 416.489  25
   3  -1  -3 126454. 805.712   6
   3  -1  -2 12248.3 318.852   4
   3  -1  -2 11531.2 182.003   6
  -3  -1   2 12554.5 210.012  15
   3  -1  -2 12372.7 302.249  18
  -3  -1   1 152994. 890.776   5
  -3  -1   1 150486. 796.218  15
   3  -1  -1 152089. 1114.11  18
  -3  -1   0 475101. 1906.55   5
   3  -1   0 472055. 2016.10   9
  -3  -1   0 469205. 1727.22  15
   3  -1   1 23727.2 495.472   9
   3  -1   1 23138.7 484.697  18
  -3  -1  -2 89603.1 1060.18   5
   3  -1   2 89824.4 1062.23   9
   3  -1   3 14309.7 457.546   9
  -3  -1  -3 13773.9 455.727   5
   3  -1   3 14320.8 427.102  18
  -3  -1  -4 19787.0 334.865  31
  -3  -1  -4 19899.2 314.999  41
  -3  -1  -4 20172.4 281.320  36
   3  -1   4 19904.7 534.674  18
   3  -1   4 20620.2 583.983   9
   3  -1   5 107530. 1527.06  12
  -3  -1  -5 108170. 721.077  36
  -3  -1  -5 108783. 635.510  33
  -3  -1  -5 110286. 512.506  43
  -3  -1  -5 108994. 811.769  41
   3  -1   6 17150.5 306.216  22
   3  -1   6 17133.6 653.325  12
  -3  -1  -6 17474.9 277.718  33
  -3  -1  -6 17292.0 319.285  36
  -3  -1  -6 18065.0 358.726  41
  -3  -1  -7 43459.0 570.063  41
   3  -1   7 43208.0 489.349  22
  -3  -1  -7 43263.2 525.501  36
  -3  -1  -7 42745.8 453.716  33
   3  -1   7 43193.2 1077.09  12
  -3  -1  -8 5567.56 163.846  33
  -3  -1  -8 5453.03 198.597  41
   3  -1   8 5822.78 177.002  22
  -3  -1  -9 8045.96 215.734  41
  -3  -1  -9 8022.20 179.221  33
  -3  -1 -10 922.496 61.9719  41
   3  -1  10 1077.00 58.6488  47
  -3  -1 -10 1042.93 55.5968  33
  -3   0  13 2582.45 81.2573  44
   3   0 -13 2186.51 96.9820  52
  -3   0  12 1418.97 65.6579  40
   3   0 -12 1422.14 94.8667  52
  -3   0  12 1452.03 74.4013  25
  -3   0  11 177.066 31.3183  40
   3   0 -11 270.545 57.0320  52
   3   0 -11 150.616 46.4462  50
  -3   0  11 210.200 65.5311  14
  -3   0  11 163.916 33.0404  25
  -3   0  10 1199.03 76.0834  25
   3   0 -10 1332.99 102.985  50
  -3   0  10 1173.39 68.7788  40
  -3   0  10 1249.61 145.280  14
   3   0 -10 1362.97 83.8242  32
   3   0  -9 3979.08 328.800   6
  -3   0   9 3311.08 216.161   8
  -3   0   9 3426.22 264.787   3
  -3   0   9 3667.04 126.202  25
  -3   0   9 3768.00 113.298  48
   3   0  -9 3585.03 154.136  50
  -3   0   9 3646.49 117.325  40
   3   0  -9 3553.62 140.129  38
  -3   0   9 3607.21 237.141  14
   3   0  -9 3517.56 138.048  32
   3   0  -8 13173.5 550.832   6
  -3   0   8 13682.0 496.838   3
  -3   0   8 14308.2 417.272   8
  -3   0   8 13877.5 226.524  25
   3   0  -8 13558.2 270.819  50
  -3   0   8 13325.7 204.754  48
  -3   0   8 13488.1 212.827  40
   3   0  -8 13487.2 260.379  38
  -3   0   8 13569.6 430.751  14
   3   0  -8 13626.9 262.686  32
   3   0  -7 23909.8 672.413   6
  -3   0   7 23542.2 489.142   8
   3   0  -7 24537.2 589.766   2
  -3   0   7 24335.3 278.496  25
   3   0  -7 23825.1 322.939  50
  -3   0   7 23744.7 262.117  40
   3   0  -7 23805.3 326.024  38
   3   0  -7 24269.3 327.938  32
  -3   0   7 23884.7 523.740  14
   3   0  -6 41641.9 788.447   6
   3   0  -6 39662.3 707.325   2
  -3   0   6 40088.7 566.713   8
  -3   0   6 39380.6 609.630  14
   3   0  -6 38106.5 611.168  16
  -3   0   6 38111.6 320.372  25
   3   0  -5 24472.8 521.969   4
  -3   0   5 26102.5 401.340   8
  -3   0   5 25302.5 438.434  14
  -3   0   5 24993.1 235.651  25
  -3   0   4 82872.4 705.247  14
  -3   0   4 83584.4 382.533  25
   3   0  -3 28809.1 237.586  26
  -3   0   3 29737.3 208.183  25
   3   0  -3 28992.3 522.229   4
   3   0  -2 307.030 60.6584   4
   3   0  -2 335.210 51.6287  13
   3   0  -1 49766.6 647.611   4
  -3   0   1 49688.1 476.314  15
  -3   0   0 195183. 1082.45   5
  -3   0   0 201621. 1097.36  15
  -3   0  -1 106359. 972.356  15
   3   0   1 108804. 862.469  13
  -3   0  -2 9466.92 135.349  23
   3   0   2 9229.61 254.865  13
  -3   0  -2 9417.94 311.047   5
   3   0   3 17061.2 449.457  18
   3   0   3 18103.5 350.595  13
  -3   0  -3 17626.8 462.532   5
   3   0   3 17539.1 493.166   9
   3   0   4 50721.5 833.055  18
  -3   0  -4 50275.8 842.077   5
   3   0   4 49468.5 908.295   9
   3   0   5 28370.4 738.831   9
  -3   0  -5 27161.2 325.708  33
  -3   0  -5 27047.9 380.402  37
  -3   0  -5 28375.3 375.492  36
  -3   0  -5 28124.3 404.817  41
   3   0   5 28128.2 646.896  18
  -3   0  -6 845.010 81.5153  41
  -3   0  -6 944.041 69.6864  33
  -3   0  -6 859.073 77.4945  36
   3   0   7 522.156 57.7028  22
   3   0   7 637.209 143.467  12
  -3   0  -7 541.455 58.1794  33
  -3   0  -7 509.310 69.3514  41
  -3   0  -8 1144.67 79.3649  33
   3   0   8 1184.52 81.6813  22
  -3   0  -8 1003.32 88.5131  41
  -3   0  -9 12567.7 228.748  33
  -3   0  -9 12257.6 264.818  41
  -3   0 -10 29.5240 20.9888  33
  -3   0 -10 28.1434 21.3308  41
  -3   0 -11 2617.59 64.8030  33
   3   1 -13 2712.72 106.162  52
  -3   1  13 2933.90 82.1909  44
  -3   1  12 4684.46 125.639  25
   3   1 -12 4469.40 159.803  52
  -3   1  12 4751.38 122.701  44
  -3   1  11 1022.74 65.3938  25
   3   1 -11 1061.53 89.9491  50
   3   1 -10 35840.1 500.891  50
  -3   1  10 36205.5 382.119  25
   3   1 -10 36348.7 415.810  38
  -3   1  10 35547.8 341.636  40
   3   1 -10 34417.8 400.772  32
  -3   1  10 35537.3 760.137  14
  -3   1   9 51202.6 888.635  14
   3   1  -9 50662.4 577.261  50
  -3   1   9 51671.0 448.438  25
   3   1  -9 51813.4 510.084  32
  -3   1   9 51766.3 411.235  40
   3   1  -9 50899.0 522.949  38
   3   1  -9 52621.2 576.036  34
   3   1  -9 52405.8 1214.41   6
  -3   1   9 52161.4 1030.99   3
  -3   1   9 50784.1 863.676   8
   3   1  -8 83319.0 1239.79   2
   3   1  -8 78646.3 1396.24   6
  -3   1   8 78489.7 1020.36   8
  -3   1   8 80286.9 533.081  25
   3   1  -8 80876.0 628.378  32
  -3   1   8 80681.5 495.953  40
   3   1  -8 76642.7 633.770  38
   3   1  -8 82262.4 678.045  34
  -3   1   8 81862.0 1064.72  14
  -3   1   7 55511.1 411.065  25
  -3   1   7 54262.1 799.870  14
   3   1  -7 54116.3 496.413  38
   3   1  -7 55200.1 507.776  34
  -3   1   7 55815.1 789.247   8
   3   1  -7 55171.8 976.446   2
   3   1  -6 8393.00 360.020   2
  -3   1   6 8101.11 275.461   8
  -3   1   6 7958.59 145.622  25
  -3   1   6 8198.38 285.174  14
  -3   1   5 42699.2 309.982  25
   3   1  -5 43596.0 363.805  26
  -3   1   5 43936.6 594.099  14
  -3   1   5 44425.3 563.767   8
  -3   1   4 65420.6 659.449  14
   3   1  -4 64286.1 747.980  13
   3   1  -4 63593.2 851.002   4
   3   1  -4 64919.1 390.977  26
  -3   1   4 62698.1 339.511  25
   3   1  -3 119681. 989.319  13
  -3   1   3 121575. 815.787  14
   3   1  -3 121824. 1126.94   4
  -3   1   3 124545. 391.407  24
   3   1  -3 123679. 494.418  26
  -3   1   3 124457. 441.709  25
  -3   1   2 12023.9 241.332  15
   3   1  -2 12320.5 343.927   4
  -3   1   1 155327. 886.086  15
   3   1  -1 157191. 1210.57   4
  -3   1   0 492506. 1765.00  15
   3   1   0 477594. 1936.35  13
   3   1   0 491841. 2066.38   4
  -3   1   0 472747. 1528.23   5
   3   1   0 485650. 1939.14   7
   3   1   1 22991.1 430.735  13
  -3   1  -1 23540.2 464.570  15
   3   1   1 23739.8 458.579   4
  -3   1  -1 22734.1 378.507   5
   3   1   1 22868.2 423.511   7
  -3   1  -1 24556.1 192.110  23
  -3   1  -2 92440.9 1085.45  15
   3   1   2 90196.0 863.048  13
   3   1   2 96038.5 940.003   4
  -3   1  -2 96670.4 855.991   5
   3   1   2 90854.5 854.102   7
  -3   1  -2 94195.9 444.227  23
   3   1   3 14351.0 348.077  13
   3   1   3 13713.6 345.009   7
  -3   1  -3 14439.1 205.029  23
  -3   1  -4 20455.6 300.343  36
   3   1   4 20011.5 583.857   9
  -3   1  -5 108978. 646.714  33
  -3   1  -5 108043. 781.638  37
  -3   1  -5 107805. 777.751  41
  -3   1  -6 17012.6 337.700  41
   3   1   6 17548.7 620.903   9
  -3   1  -6 17403.5 286.056  33
   3   1   7 45367.2 498.022  22
  -3   1  -7 43513.6 471.505  33
   3   1   7 47001.1 1188.64  12
  -3   1  -7 42662.6 546.177  41
  -3   1  -8 5545.78 190.288  41
  -3   1  -8 5974.49 173.987  33
  -3   1  -9 8134.32 205.861  41
  -3   1  -9 8486.04 191.035  33
  -3   1 -10 917.034 54.1781  41
  -3   1 -10 1056.17 59.2802  33
  -3   1 -11 3256.23 73.0272  33
   3   2 -13 1688.05 79.1638  52
  -3   2  13 1706.27 54.1351  44
  -3   2  12 1939.30 74.1871  25
   3   2 -12 1856.43 100.275  50
  -3   2  12 2052.81 73.7069  44
  -3   2  11 5102.39 131.787  25
  -3   2  11 5074.69 128.311  44
   3   2 -11 5096.16 181.365  50
   3   2 -10 33368.1 477.346  50
  -3   2  10 33384.7 345.570  44
   3   2 -10 32829.8 391.099  38
  -3   2  10 33426.0 724.520  14
   3   2 -10 34043.8 469.166  34
  -3   2  10 32876.3 347.348  25
  -3   2   9 7547.08 338.688   8
  -3   2   9 7370.24 164.776  25
   3   2  -9 7542.85 190.407  32
   3   2  -9 7339.58 200.810  38
   3   2  -9 7524.15 219.396  34
  -3   2   9 7307.96 336.435  14
  -3   2   8 40983.6 370.259  25
  -3   2   8 39915.5 741.520  14
   3   2  -8 40639.6 466.728  38
   3   2  -8 41416.6 488.813  34
   3   2  -8 41180.2 953.605   2
  -3   2   7 24103.0 270.538  25
  -3   2   7 24298.3 541.067  14
   3   2  -7 23839.3 334.470  38
   3   2  -7 24556.4 343.740  34
   3   2  -7 23351.4 687.242   2
  -3   2   7 22924.2 528.566   8
   3   2  -6 1206.81 71.6293  26
  -3   2   6 1239.34 59.6236  25
  -3   2   6 1189.76 119.009  14
   3   2  -6 1230.40 152.387   2
   3   2  -5 80893.2 501.130  26
   3   2  -5 82252.9 906.787  20
   3   2  -5 82737.7 875.603  13
  -3   2   5 82883.6 845.608  14
   3   2  -5 82986.0 1126.36   2
  -3   2   4 24730.9 430.802  14
   3   2  -4 23817.9 465.876  13
  -3   2   4 24167.2 212.349  24
   3   2  -4 24607.2 253.001  26
  -3   2   4 23541.1 217.633  25
   3   2  -4 23793.4 419.375  20
  -3   2   3 5398.40 90.2895  24
   3   2  -3 5162.79 111.456  26
   3   2  -3 5576.59 220.851  13
   3   2  -3 5354.69 253.703   4
   3   2  -2 90144.2 454.533  26
  -3   2   2 91911.8 340.272  24
   3   2  -2 87453.4 875.867  13
  -3   2   2 86550.7 706.791  15
   3   2  -2 91957.1 1010.11   4
  -3   2   2 91063.9 487.743  10
   3   2  -2 92724.4 875.052   7
   3   2  -1 49152.2 315.258  26
  -3   2   1 47799.6 542.335  15
   3   2  -1 51734.1 650.616  13
   3   2  -1 49583.3 714.302   4
  -3   2   1 51170.0 364.044   5
   3   2  -1 48388.4 631.073   7
   3   2   0 20596.1 412.242  13
   3   2   0 21054.2 358.305  11
  -3   2   0 21825.0 406.901  15
   3   2   0 21955.2 469.267   4
   3   2   1 3060.23 162.890  13
  -3   2  -1 2796.23 174.408  15
   3   2   1 3175.49 160.280   7
   3   2   1 2976.92 172.025   4
  -3   2  -2 8087.32 140.065  23
   3   2   2 8387.74 209.058  11
  -3   2  -2 8837.51 345.350  15
   3   2   2 8566.54 267.382   7
   3   2   2 8400.28 291.907   4
  -3   2  -3 43417.3 365.964  23
   3   2   3 45055.5 638.236   7
   3   2   3 43292.6 672.279   4
   3   2   3 43991.5 480.388  11
   3   2   3 42157.6 627.091  13
  -3   2  -4 29757.3 343.262  23
  -3   2  -4 29800.3 387.566  37
   3   2   4 29920.2 543.557   7
  -3   2  -5 37823.1 478.229  37
   3   2   5 39043.2 892.179   9
  -3   2  -6 5219.73 183.863  41
   3   2   6 5308.01 351.949   9
  -3   2  -6 5490.57 198.308  37
  -3   2  -6 5200.66 157.987  33
  -3   2  -7 5545.47 168.337  33
  -3   2  -7 5404.65 187.103  41
  -3   2  -8 39837.0 470.414  41
  -3   2  -8 41751.3 448.271  33
  -3   2  -9 3729.72 125.393  33
  -3   2 -10 539.748 43.1678  33
   3   3 -13 5461.87 122.537  52
   3   3 -12 619.886 57.0396  50
  -3   3  11 364.753 37.4523  24
  -3   3  11 359.075 33.7436  25
  -3   3  11 375.605 33.2478  44
   3   3 -11 447.559 62.5270  50
   3   3 -10 7008.98 217.930  50
  -3   3  10 6852.78 143.118  44
  -3   3  10 6824.16 148.395  25
   3   3 -10 6819.56 207.746  34
  -3   3  10 7472.73 329.919  14
  -3   3   9 60342.2 435.899  44
  -3   3   9 61114.8 449.996  25
   3   3  -9 61807.9 568.388  38
   3   3  -9 60695.8 621.406  34
  -3   3   9 60530.0 946.414  14
  -3   3   8 1432.76 147.787  14
  -3   3   8 1567.74 71.4389  44
  -3   3   8 1267.31 65.9197  25
   3   3  -8 1315.99 86.9103  38
   3   3  -8 1385.77 94.6160  34
   3   3  -8 1368.02 183.422   2
   3   3  -7 3057.83 267.218   2
   3   3  -7 3179.72 128.327  49
  -3   3   7 3238.33 96.7862  44
   3   3  -7 3238.81 236.160  20
  -3   3   7 3327.08 99.9988  25
   3   3  -7 3031.62 124.399  38
   3   3  -7 3254.12 131.458  34
  -3   3   7 3603.97 215.192  14
   3   3  -6 255.079 91.5125   2
   3   3  -6 259.781 38.4654  49
  -3   3   6 277.087 28.9317  44
   3   3  -6 255.635 36.6569  34
  -3   3   6 170.890 62.7569  14
   3   3  -6 414.277 76.5126  20
   3   3  -6 319.707 42.6879  26
  -3   3   6 315.750 32.8260  25
   3   3  -5 11733.1 465.447   2
  -3   3   5 11108.4 324.898  14
   3   3  -5 12034.9 343.113  13
   3   3  -5 10534.0 339.681  20
  -3   3   5 10819.3 164.865  24
   3   3  -5 10923.8 195.160  26
  -3   3   5 11041.1 163.705  25
   3   3  -4 12383.2 450.438   2
   3   3  -4 12397.6 353.515  13
  -3   3   4 12440.0 315.050  14
   3   3  -4 12663.3 325.472  20
  -3   3   4 11982.4 162.125  24
   3   3  -4 12024.4 197.150  26
  -3   3   3 15633.4 290.425  10
   3   3  -3 15235.7 382.087   7
   3   3  -3 15418.0 393.898  13
  -3   3   3 15558.3 169.819  24
   3   3  -3 14851.4 214.151  26
  -3   3   2 40664.9 253.804  27
   3   3  -2 42712.2 615.546   7
   3   3  -2 39344.4 710.375   4
   3   3  -2 41219.1 615.093  13
  -3   3   2 38456.7 379.499  10
  -3   3   2 41275.8 533.529  15
  -3   3   2 38885.5 255.127  24
  -3   3   2 39667.1 426.342  21
   3   3  -2 38107.8 317.686  26
  -3   3   1 30390.7 213.044  27
   3   3  -1 28370.7 587.459   4
   3   3  -1 29708.1 480.191  11
  -3   3   1 30956.3 477.917  15
  -3   3   1 29200.2 335.003  21
  -3   3   0 89247.1 374.461  27
   3   3   0 91763.1 786.415  11
  -3   3   0 91618.1 909.747  15
   3   3   0 92809.2 854.055   7
   3   3   0 88323.7 1006.92   4
  -3   3  -1 35577.5 644.516  15
   3   3   1 37782.8 485.498  11
   3   3   1 37688.0 551.673   7
   3   3   1 36279.0 634.515   4
  -3   3  -2 15071.7 203.113  23
   3   3   2 15016.0 359.867   7
  -3   3  -2 14729.8 473.709  15
   3   3   2 13825.4 296.973  11
   3   3   3 843.769 94.1452   7
   3   3   3 822.990 79.0448  11
  -3   3  -4 7639.45 181.847  23
  -3   3  -4 7509.64 204.985  37
   3   3   4 8050.39 285.640   7
   3   3   4 7116.47 279.301  13
   3   3   4 7613.47 228.186  11
  -3   3  -5 7758.31 223.903  37
  -3   3  -5 7742.73 199.598  23
  -3   3  -5 7267.84 197.678  41
   3   3   5 7598.54 399.541   9
  -3   3  -6 29037.3 452.121  37
  -3   3  -6 28186.2 355.198  33
  -3   3  -6 28673.0 404.640  41
  -3   3  -7 30028.5 378.447  33
  -3   3  -8 13262.0 246.374  33
  -3   3  -9 3907.00 121.909  33
  -3   3 -10 4232.61 103.183  33
   3   4 -12 2561.10 94.5656  50
  -3   4  12 2707.21 69.0975  37
  -3   4  11 4885.93 112.592  24
   3   4 -11 5009.19 159.117  50
   3   4 -11 4953.24 156.020  34
   3   4 -10 9197.68 230.673  34
  -3   4  10 8826.64 167.157  24
  -3   4   9 1365.29 72.2319  24
   3   4  -9 1359.69 97.2806  34
  -3   4   9 1190.57 128.944  14
   3   4  -9 1354.22 83.4615  38
  -3   4   8 17546.3 244.352  24
   3   4  -8 17646.4 307.395  38
   3   4  -8 17651.6 324.902  34
  -3   4   8 17420.8 488.564  14
   3   4  -7 9504.15 227.551  49
  -3   4   7 9699.20 179.047  24
   3   4  -7 10128.1 213.219  26
   3   4  -7 9626.26 410.759  20
   3   4  -7 9899.96 499.591   2
   3   4  -7 9807.26 223.007  38
   3   4  -7 9586.68 227.930  34
  -3   4   7 9821.20 355.469  14
   3   4  -6 10839.7 228.162  49
   3   4  -6 11376.1 409.932  20
  -3   4   6 10940.8 181.928  24
   3   4  -6 11543.7 219.631  26
   3   4  -6 11312.6 522.450   2
   3   4  -6 10756.9 223.147  38
   3   4  -6 10898.4 226.144  34
  -3   4   6 10934.2 355.903  14
   3   4  -5 16231.1 260.644  38
   3   4  -5 17688.4 626.121   2
  -3   4   5 16804.3 407.363  10
   3   4  -5 16479.5 263.778  49
   3   4  -5 17247.0 458.769  20
  -3   4   5 16937.7 213.123  24
   3   4  -5 17129.9 256.520  26
  -3   4   4 3441.51 92.7749  24
   3   4  -4 3505.16 185.421  20
   3   4  -4 3473.64 115.815  26
   3   4  -4 3458.90 112.957  49
  -3   4   4 3369.35 163.185  10
   3   4  -4 3534.21 268.036   2
  -3   4   4 3782.03 98.7865  37
   3   4  -4 3250.75 197.601  13
  -3   4   3 4087.48 95.8893  24
  -3   4   3 4226.41 173.908  21
   3   4  -3 3855.87 121.158  26
  -3   4   3 4160.21 98.1952  27
  -3   4   3 4273.36 162.307  10
  -3   4   3 4262.51 191.532  15
   3   4  -3 4237.58 222.831  13
   3   4  -3 4480.54 290.324   2
   3   4  -3 4160.51 213.052   7
  -3   4   2 13053.2 277.833  21
  -3   4   2 12362.4 161.281  27
   3   4  -2 11717.0 158.504  28
  -3   4   2 13407.8 340.882  15
   3   4  -2 13674.4 377.755   7
   3   4  -2 12484.9 453.374   2
  -3   4   1 13971.0 274.846  21
   3   4  -1 14939.6 370.110   7
   3   4  -1 14023.9 455.025   2
  -3   4   1 14290.5 367.826  15
  -3   4   1 13710.9 168.729  27
   3   4   0 17661.4 381.761  11
  -3   4   0 16416.3 432.138  15
   3   4   0 17642.4 403.358   7
   3   4   0 17533.8 483.231   2
  -3   4  -1 3833.50 119.921  37
  -3   4  -1 3504.53 223.049  15
   3   4   1 3698.44 169.858  11
  -3   4  -2 36326.4 341.883  23
  -3   4  -2 35083.5 540.723  20
   3   4   2 36207.9 615.164   7
  -3   4  -2 35047.7 395.647  37
  -3   4  -2 35278.6 330.913  34
   3   4   2 35756.6 528.623  11
  -3   4  -3 7433.23 274.139  20
  -3   4  -3 7867.32 177.079  23
   3   4   3 7088.51 278.736   7
  -3   4  -3 7497.32 201.046  37
   3   4   3 7803.62 257.939  11
  -3   4  -4 4913.62 153.561  23
   3   4   4 4613.58 226.611   7
  -3   4  -4 4986.21 176.535  37
  -3   4  -4 4804.03 131.448  34
   3   4   4 4551.77 196.674  11
  -3   4  -5 36813.0 491.746  37
  -3   4  -5 37744.0 381.837  34
  -3   4  -5 38256.4 450.550  23
  -3   4  -6 78.3582 46.4261  37
  -3   4  -7 11333.0 226.906  33
  -3   4  -8 13677.3 236.687  33
  -3   4  -9 5392.41 130.866  33
  -3   4 -10 9339.35 131.669  33
   3   5 -11 2315.81 95.0765  50
   3   5 -11 2236.44 93.0213  34
  -3   5  11 2528.99 70.2883  37
  -3   5  10 2310.71 76.7305  37
   3   5 -10 2205.30 106.864  34
  -3   5  10 2302.32 77.6992  24
  -3   5   9 15108.6 209.441  37
   3   5  -9 15467.0 292.093  34
  -3   5   9 14879.8 210.306  24
  -3   5   8 19797.9 250.520  24
   3   5  -8 19689.4 623.560  20
   3   5  -8 20192.4 314.400  38
  -3   5   8 19863.2 249.480  37
   3   5  -8 20287.3 338.759  34
   3   5  -8 20018.7 336.000  49
  -3   5   7 38014.5 348.200  24
   3   5  -7 35919.4 811.304  20
   3   5  -7 38975.1 410.038  26
  -3   5   7 37227.1 691.395  10
   3   5  -7 37955.3 432.466  38
  -3   5   7 37935.1 350.097  37
   3   5  -7 38770.5 458.526  34
   3   5  -7 37285.8 449.955  49
   3   5  -6 14120.9 480.749  20
  -3   5   6 14220.1 209.848  24
   3   5  -6 14341.6 248.834  26
  -3   5   6 13485.3 393.754  10
   3   5  -6 13221.7 586.808   2
   3   5  -6 13844.2 263.680  38
  -3   5   6 14100.4 214.119  37
   3   5  -6 14007.9 261.127  34
   3   5  -6 13663.1 268.391  49
   3   5  -5 9968.65 222.073  49
  -3   5   5 10682.2 175.232  24
   3   5  -5 10658.4 387.481  20
   3   5  -5 11163.7 218.277  26
   3   5  -5 10804.9 521.823   2
  -3   5   5 10622.3 328.154  10
   3   5  -5 9763.61 216.835  38
  -3   5   5 10282.0 182.695  37
  -3   5   5 10941.4 344.276  15
  -3   5   4 29975.6 504.488  10
  -3   5   4 31837.2 578.288  15
   3   5  -4 31584.4 653.191  13
  -3   5   4 30372.8 286.282  24
   3   5  -4 31382.4 609.154  20
  -3   5   4 30165.2 534.013  21
   3   5  -4 30249.7 365.107  26
   3   5  -4 29760.3 362.865  49
   3   5  -4 30605.1 844.844   2
  -3   5   4 30523.4 304.345  37
  -3   5   4 30735.9 292.514  27
   3   5  -3 15942.1 461.557  13
  -3   5   3 14694.6 391.929  15
   3   5  -3 14249.4 235.296  49
  -3   5   3 14572.8 345.244  21
   3   5  -3 13932.3 245.714  26
   3   5  -3 13659.6 540.027   2
   3   5  -3 15770.2 444.383   7
  -3   5   3 14913.9 213.501  37
  -3   5   3 14621.8 195.115  27
   3   5  -2 17973.1 244.174  49
  -3   5   2 18081.4 365.573  21
   3   5  -2 18709.7 598.529   2
  -3   5   2 18443.4 243.394  37
  -3   5   2 18411.8 216.067  27
   3   5  -2 18079.4 219.690  28
  -3   5   2 18992.8 452.041  15
  -3   5   1 37643.2 514.465  21
   3   5  -1 38013.4 652.644   7
  -3   5   1 36798.0 307.315  27
   3   5  -1 37733.7 290.961  28
   3   5  -1 36801.6 649.928  11
  -3   5   1 37947.9 673.807  15
  -3   5   1 37783.4 362.870  37
  -3   5   0 27087.4 328.070  37
   3   5   0 27028.4 554.397   7
   3   5   0 26850.4 523.632  11
  -3   5   0 27419.1 623.421  15
  -3   5  -1 65461.7 468.229  23
   3   5   1 66544.3 885.086   7
  -3   5  -1 64423.5 542.076  37
  -3   5  -1 65445.8 488.376  34
  -3   5  -1 67531.7 1064.35  15
   3   5   1 63810.5 781.763  11
  -3   5  -2 62361.2 486.613  23
   3   5   2 62949.7 872.138   7
  -3   5  -2 60832.9 561.612  37
  -3   5  -2 61231.2 481.198  34
   3   5   2 61122.1 767.861  11
  -3   5  -3 1797.35 94.9952  23
  -3   5  -3 1702.75 143.110  20
   3   5   3 1668.28 145.264   7
  -3   5  -3 1704.55 103.023  37
  -3   5  -3 1753.87 85.2185  34
   3   5   3 1671.38 131.060  11
  -3   5  -4 21907.9 332.640  23
   3   5   4 20752.6 498.236   7
  -3   5  -4 21641.5 368.611  37
  -3   5  -4 22615.7 303.967  34
   3   5   4 21142.7 455.681  11
  -3   5  -5 13414.3 294.369  37
  -3   5  -5 14008.0 274.826  23
  -3   5  -5 14079.3 241.436  34
  -3   5  -6 15554.0 243.230  34
  -3   5  -6 16215.5 317.645  37
  -3   5  -7 9739.02 198.357  33
  -3   5  -8 22171.1 272.580  33
  -3   5  -9 2794.03 81.5370  33
   3   6 -11 3733.83 92.6972  50
  -3   6  10 2692.28 75.0747  27
   3   6 -10 2352.91 92.0905  34
  -3   6   9 4037.22 102.052  27
   3   6  -9 3986.29 133.858  34
  -3   6   9 4214.85 100.128  24
  -3   6   8 32506.4 296.269  24
  -3   6   8 33194.1 594.719  21
   3   6  -8 33182.6 407.772  49
   3   6  -8 31706.7 354.905  38
  -3   6   8 33024.9 299.057  37
   3   6  -8 33147.8 400.419  34
  -3   6   8 33105.8 307.684  27
  -3   6   7 17950.0 227.013  24
  -3   6   7 17863.0 446.130  21
   3   6  -7 17728.0 565.559  20
   3   6  -7 18016.3 309.278  49
   3   6  -7 17775.2 284.626  38
  -3   6   7 18330.3 233.821  37
   3   6  -7 18403.9 300.254  34
  -3   6   7 18159.0 235.049  27
   3   6  -6 3433.69 245.050  20
  -3   6   6 3359.02 196.206  21
   3   6  -6 3579.28 122.951  26
   3   6  -6 3475.24 141.074  49
   3   6  -6 3493.56 132.955  38
   3   6  -6 3486.33 128.738  34
  -3   6   6 3518.93 105.891  37
  -3   6   6 3799.19 111.396  27
  -3   6   5 16391.9 408.690  10
   3   6  -5 16634.3 297.190  49
   3   6  -5 15754.1 284.518  38
   3   6  -5 16573.0 506.360  20
  -3   6   5 16730.6 420.101  21
   3   6  -5 16738.9 273.967  26
  -3   6   5 17041.7 237.283  37
  -3   6   5 16941.6 230.066  27
  -3   6   4 28043.1 526.130  21
   3   6  -4 27015.2 360.224  26
  -3   6   4 27999.6 308.954  37
   3   6  -4 26336.6 365.805  49
  -3   6   4 27311.9 287.893  27
   3   6  -3 10967.3 225.390  49
  -3   6   3 11635.1 330.277  21
   3   6  -3 11398.4 236.031  26
   3   6  -3 10609.8 490.609   2
  -3   6   3 11664.2 204.371  37
   3   6  -3 12519.6 438.441  13
  -3   6   3 11413.4 186.045  27
  -3   6   2 22820.0 453.550  21
   3   6  -2 25073.2 333.947  26
  -3   6   2 24588.0 306.395  37
   3   6  -2 23247.8 305.872  49
   3   6  -2 25044.6 597.474   7
  -3   6   2 24191.1 269.975  27
  -3   6   1 8814.66 193.482  37
   3   6  -1 8891.30 345.345   7
   3   6  -1 8525.51 154.905  28
  -3   6   1 8933.12 133.969  28
  -3   6   0 26070.3 237.764  28
  -3   6   0 27078.4 354.772  37
  -3   6   0 27122.6 335.785  34
   3   6   0 26118.6 580.371  11
  -3   6  -1 5711.61 152.117  23
   3   6   1 5513.16 271.607   7
  -3   6  -1 5439.81 166.950  37
  -3   6  -1 5484.77 153.182  34
   3   6   1 5522.11 258.973  11
  -3   6  -2 21941.6 308.015  23
   3   6   2 22855.9 551.408   7
  -3   6  -2 21787.6 342.305  37
  -3   6  -2 22131.6 306.059  34
   3   6   2 22796.6 509.543  11
  -3   6  -3 7522.67 208.643  37
   3   6   3 7713.79 298.828  11
  -3   6  -3 7725.31 193.892  23
  -3   6  -3 7833.84 183.183  34
  -3   6  -4 8426.86 221.212  37
  -3   6  -4 8365.93 206.697  23
  -3   6  -4 8304.13 190.020  34
  -3   6  -5 10066.4 202.188  34
  -3   6  -5 10142.4 238.770  37
  -3   6  -6 3654.39 113.994  34
  -3   6  -7 3549.79 107.618  33
  -3   6  -8 1754.68 66.5150  33
   3   7  -9 192.041 25.4438  34
   3   7  -8 7561.05 159.844  34
  -3   7   8 8181.79 136.198  27
   3   7  -7 20641.4 301.444  49
   3   7  -7 20042.4 268.318  38
   3   7  -7 20123.5 272.406  34
  -3   7   7 20259.0 226.948  27
   3   7  -6 3749.69 128.976  38
   3   7  -6 3907.27 140.430  49
  -3   7   6 3764.16 188.452  21
  -3   7   6 3664.53 102.904  27
   3   7  -5 2757.82 117.916  38
   3   7  -5 2841.39 123.348  49
  -3   7   5 2869.26 94.0346  27
  -3   7   5 2593.71 159.734  21
   3   7  -5 2776.15 107.520  26
   3   7  -4 3697.48 138.810  49
  -3   7   4 3713.25 108.998  27
  -3   7   4 3723.02 193.290  21
   3   7  -4 3598.24 132.416  26
   3   7  -3 1966.73 99.1910  49
  -3   7   3 1905.36 80.8852  27
  -3   7   3 1795.85 135.960  21
   3   7  -3 1878.64 100.916  26
   3   7  -2 1269.40 145.019  13
   3   7  -2 1310.00 78.8961  49
  -3   7   2 1317.20 80.6494  34
  -3   7   2 1365.39 56.8602  28
   3   7  -2 1345.17 86.0808  26
   3   7  -1 13785.4 230.848  49
   3   7  -1 14557.5 255.518  26
  -3   7   1 14505.9 247.885  34
  -3   7   1 14554.7 182.762  28
  -3   7   0 2472.48 105.528  37
  -3   7   0 2510.36 100.740  23
  -3   7   0 2486.11 106.401  34
   3   7   0 2331.47 81.2383  28
  -3   7   0 2490.33 79.4342  28
  -3   7  -1 5463.94 153.308  34
  -3   7  -1 5288.38 155.980  37
  -3   7  -1 5320.86 149.369  23
  -3   7  -2 3345.07 119.088  34
  -3   7  -2 3199.74 123.361  37
  -3   7  -2 3186.88 119.956  23
  -3   7  -2 3111.83 201.523  20
  -3   7  -3 5494.07 149.469  34
  -3   7  -3 5330.14 157.523  37
  -3   7  -3 5259.92 154.813  23
  -3   7  -4 2383.60 97.5174  34
  -3   7  -4 2422.60 103.656  37
  -3   7  -4 2457.95 105.518  23
  -3   7  -5 18979.3 253.348  34
  -3   7  -6 1792.42 71.5399  33
  -3   7  -6 1600.64 65.1012  34
  -3   7  -7 7080.57 122.291  33
  -3   8   7 7416.92 134.405  34
   3   8  -7 7379.99 152.348  49
  -3   8   6 2523.82 86.4573  34
   3   8  -6 2657.54 99.6080  49
   3   8  -6 2601.88 88.3093  38
   3   8  -5 350.073 45.6989  49
   3   8  -5 311.752 38.9107  38
  -3   8   5 269.464 36.2313  34
  -3   8   5 354.360 28.3137  28
   3   8  -4 508.245 54.2235  49
   3   8  -4 526.535 52.6476  38
  -3   8   4 491.188 47.4157  34
  -3   8   4 512.231 34.1000  28
   3   8  -4 534.290 45.3923  26
   3   8  -3 3494.43 120.978  49
  -3   8   3 3625.22 115.384  34
  -3   8   3 3688.26 87.7088  28
   3   8  -3 3552.01 120.517  26
   3   8  -2 3785.87 122.826  49
  -3   8   2 3879.68 121.362  34
  -3   8   2 3986.09 93.6783  28
  -3   8   2 3917.30 112.402  23
   3   8  -2 3817.44 129.366  26
   3   8  -1 4203.17 125.517  49
  -3   8   1 4408.11 129.560  34
  -3   8   1 4282.07 100.503  28
  -3   8   1 4263.95 120.132  23
   3   8  -1 4478.67 139.622  26
  -3   8   0 2246.83 90.2282  23
   3   8   0 2324.70 100.983  26
   3   8   0 2222.89 88.4126  49
  -3   8   0 2313.82 95.7513  34
  -3   8  -1 888.238 58.4898  23
   3   8   1 883.016 63.9083  26
   3   8   1 839.325 51.6443  49
  -3   8  -1 959.477 64.4399  34
  -3   8  -2 8695.70 173.218  34
   3   8   2 8964.94 179.726  26
  -3   8  -3 4316.27 118.771  34
   3   8   3 4044.07 108.615  26
  -3   8  -4 2500.29 85.9912  34
  -3   8  -5 644.637 39.0616  34
   3   9  -5 1824.74 58.8062  38
   3   9  -5 2039.48 69.8296  49
  -3   9   5 1997.21 61.4475  34
   3   9  -4 3559.62 92.4761  38
   3   9  -4 3468.76 95.6170  49
  -3   9   4 3439.18 86.6540  34
   3   9  -3 2126.96 78.2697  38
   3   9  -3 2084.71 76.8038  49
  -3   9   3 2247.57 74.1387  34
   3   9  -2 2587.55 87.4232  38
  -3   9   2 2600.01 81.4741  34
   3   9  -2 2572.02 85.5960  49
  -3   9   1 3127.10 89.8908  34
   3   9  -1 3062.51 91.1459  49
  -3   9   0 8575.77 148.535  34
   3   9   0 7971.08 134.627  49
  -3   9  -1 24248.7 242.281  34
  -3   9  -2 3567.90 90.7137  34
  -3   9  -3 8.63661 10.9262  34
  -4  -9   4 1005.40 45.7199  36
  -4  -9   3 2095.24 67.9551  36
  -4  -9   2 1195.81 52.0841  36
  -4  -9   1 1089.83 48.3140  36
  -4  -9   0 310.044 25.0748  36
  -4  -8   7 9753.80 142.154  36
   4  -8  -7 10551.1 164.952  45
  -4  -8   6 974.350 54.1908  36
  -4  -8   6 885.293 44.2969  46
   4  -8  -6 914.225 57.6386  45
  -4  -8   5 2306.03 89.1156  36
   4  -8  -5 2414.12 95.5431  45
  -4  -8   4 2104.63 91.1523  36
   4  -8  -4 1990.44 88.5464  45
  -4  -8   3 8566.28 184.780  36
   4  -8  -3 8193.88 177.788  45
  -4  -8   2 7797.79 176.344  36
   4  -8  -2 7481.77 161.470  42
   4  -8  -2 7523.58 165.199  45
  -4  -8   1 6538.53 160.446  36
   4  -8  -1 6474.93 156.752  42
  -4  -8   0 434.529 45.0101  36
   4  -8   0 383.264 42.6785  42
  -4  -8  -1 1959.31 80.4334  36
   4  -8   1 1880.65 82.2408  42
  -4  -8  -2 2172.07 76.7554  36
   4  -8   2 2072.28 80.5516  42
  -4  -8  -3 2032.84 65.7441  36
   4  -8   3 1950.47 69.9702  42
  -4  -7   9 1883.14 64.9106  46
   4  -7  -9 1998.20 67.9298  45
  -4  -7   8 9415.43 154.246  36
  -4  -7   8 9966.44 168.514  46
   4  -7  -8 9667.55 186.975  45
  -4  -7   7 3006.28 103.122  46
  -4  -7   7 3089.20 102.883  36
  -4  -7   7 2871.53 100.239  30
   4  -7  -7 2946.93 117.563  45
  -4  -7   6 8748.31 183.513  46
  -4  -7   6 9179.45 193.209  36
  -4  -7   6 8944.21 187.282  30
   4  -7  -6 9044.65 219.546  45
  -4  -7   5 5180.33 144.634  46
  -4  -7   5 5383.20 156.563  36
  -4  -7   5 5228.22 148.906  30
   4  -7  -5 5431.01 178.785  45
   4  -7  -4 3692.23 149.656  45
  -4  -7   4 3828.53 123.913  46
  -4  -7   4 3801.27 136.648  36
   4  -7  -3 12490.0 235.690  42
  -4  -7   3 12727.8 251.122  36
  -4  -7   3 12079.7 213.650  46
   4  -7  -2 19998.3 320.541  39
  -4  -7   2 20481.4 323.387  36
   4  -7  -2 19417.4 305.944  42
   4  -7  -1 5030.40 161.370  39
  -4  -7   1 5032.51 164.254  36
   4  -7  -1 4865.68 327.647  19
   4  -7  -1 4865.34 155.809  42
  -4  -7   0 18612.5 301.857  36
   4  -7   0 19213.8 639.521  19
   4  -7   0 18450.2 303.155  42
  -4  -7  -1 12210.4 233.930  36
   4  -7   1 12094.6 244.202  42
  -4  -7  -2 3242.58 115.559  36
  -4  -7  -2 3321.28 82.1928  43
   4  -7   2 3299.50 123.964  42
  -4  -7  -3 207.959 33.4347  36
  -4  -7  -3 192.923 22.8919  43
   4  -7   3 175.471 34.3531  42
  -4  -7  -4 2528.32 86.4930  36
   4  -7   4 2572.35 91.2656  42
  -4  -7  -5 419.541 31.3295  36
   4  -7   5 437.712 32.9458  42
  -4  -6  10 5348.61 117.700  46
  -4  -6   9 3226.98 97.8278  30
   4  -6  -9 3402.77 113.737  45
   4  -6  -8 1022.22 74.5984  45
   4  -6  -8 980.118 66.6798  32
  -4  -6   8 942.876 62.0661  30
  -4  -6   8 912.581 57.5636  36
   4  -6  -7 29928.6 422.540  45
  -4  -6   7 29586.1 357.626  30
   4  -6  -7 30149.5 357.616  32
   4  -6  -6 24818.9 405.348  45
  -4  -6   6 24013.1 337.925  30
   4  -6  -6 23890.5 319.114  32
  -4  -6   5 1113.63 77.0853  46
  -4  -6   5 1164.15 80.6117  36
   4  -6  -5 1135.29 69.3494  32
  -4  -6   5 1129.07 80.9691  30
   4  -6  -5 1093.82 82.3401  39
  -4  -6   4 4476.16 148.534  46
   4  -6  -4 4618.61 165.262  39
  -4  -6   4 4611.47 155.742  36
  -4  -6   4 4521.62 150.526  30
  -4  -6   3 932.828 68.5619  46
   4  -6  -3 947.401 71.2479  42
   4  -6  -3 869.522 77.6528  39
  -4  -6   3 967.902 75.8972  36
  -4  -6   3 874.724 70.1065  30
   4  -6  -2 18043.3 312.530  42
   4  -6  -2 18945.7 631.898  19
   4  -6  -2 17900.4 321.922  39
  -4  -6   2 17709.5 305.556  36
  -4  -6   2 18009.4 283.157  46
   4  -6  -1 69886.1 624.433  42
  -4  -6   1 71853.1 546.856  46
   4  -6  -1 71770.4 641.772  39
  -4  -6   1 72208.6 623.650  36
   4  -6  -1 71818.1 1256.44  19
   4  -6   0 8509.43 218.743  39
  -4  -6   0 8198.93 211.832  36
   4  -6   0 8046.67 213.689  42
  -4  -6  -1 9109.21 152.439  43
   4  -6   1 8988.62 227.546  42
   4  -6   1 8999.27 203.943  29
   4  -6   1 9466.18 223.079  39
  -4  -6  -1 9111.62 218.760  36
  -4  -6  -2 6806.11 136.322  43
   4  -6   2 7098.90 199.163  42
   4  -6   2 6933.17 186.130  29
   4  -6   2 7036.88 178.937  39
  -4  -6  -2 6859.62 182.356  36
   4  -6   2 6991.06 404.921  19
   4  -6   3 12477.6 249.386  29
  -4  -6  -3 12179.5 229.577  36
   4  -6   3 12318.8 519.342  19
  -4  -6  -3 12700.7 184.346  43
   4  -6   3 12317.9 250.135  42
  -4  -6  -4 5880.40 152.740  36
   4  -6   4 6265.98 170.532  29
   4  -6   4 6037.85 164.617  42
  -4  -6  -4 6148.12 123.707  43
   4  -6   5 2008.72 78.1183  47
  -4  -6  -5 1883.60 81.6737  36
   4  -6   5 1929.53 89.7818  29
  -4  -6  -5 2017.23 68.0488  43
   4  -6   5 1884.13 81.6135  42
  -4  -6  -6 5555.01 120.128  36
   4  -6   6 5685.93 115.735  47
   4  -5 -11 2266.66 83.0988  32
  -4  -5  11 2238.78 66.9688  40
   4  -5 -10 299.506 41.5053  32
  -4  -5  10 355.962 33.2117  40
  -4  -5   9 13349.0 204.978  40
   4  -5  -9 13792.3 258.527  32
  -4  -5   9 13333.2 215.522  30
   4  -5  -9 13461.7 248.503  45
  -4  -5   8 3365.16 108.693  40
  -4  -5   8 3294.00 118.097  30
   4  -5  -8 3524.23 138.251  32
   4  -5  -8 3492.10 144.605  45
  -4  -5   7 15524.8 233.518  40
   4  -5  -7 15365.4 285.934  32
  -4  -5   7 15301.0 266.865  30
   4  -5  -7 15573.6 320.646  45
  -4  -5   6 12238.8 243.435  30
   4  -5  -6 12011.9 251.964  32
   4  -5  -6 11896.0 252.936  39
  -4  -5   6 12156.7 204.889  40
  -4  -5   5 38001.2 789.039   5
  -4  -5   5 40361.7 438.929  30
   4  -5  -5 40326.1 442.670  32
   4  -5  -5 39508.5 476.576  39
  -4  -5   5 38670.8 359.169  40
  -4  -5   4 8091.88 378.790   5
   4  -5  -4 7807.10 212.739  39
  -4  -5   4 7917.89 197.895  36
   4  -5  -4 7765.77 183.111  32
  -4  -5   4 8057.47 194.638  30
  -4  -5   3 12507.2 243.759  46
   4  -5  -3 13011.1 254.100  42
  -4  -5   3 11977.6 485.070   5
   4  -5  -3 12489.8 268.301  39
  -4  -5   3 12497.9 248.158  36
  -4  -5   3 12341.6 237.477  30
  -4  -5   2 70178.7 564.444  46
   4  -5  -2 71411.0 610.021  42
   4  -5  -2 69947.3 624.194  39
  -4  -5   2 71712.6 598.379  36
   4  -5  -2 71447.4 1190.13  19
  -4  -5   1 12573.5 234.243  46
   4  -5  -1 12514.4 261.802  42
  -4  -5   1 12579.1 535.150   5
   4  -5  -1 12621.5 266.225  39
  -4  -5   1 12654.8 256.668  36
   4  -5  -1 11807.8 498.628  19
   4  -5   0 30766.9 818.065  19
  -4  -5   0 33116.7 916.246   5
  -4  -5   0 31941.4 372.824  46
   4  -5   0 32608.6 425.709  42
  -4  -5   0 31996.8 280.247  43
   4  -5   0 32293.0 423.692  39
  -4  -5   0 31867.7 408.776  36
  -4  -5   0 31630.1 310.443  35
   4  -5   0 32393.6 385.840  29
  -4  -5  -1 6180.44 407.532   5
   4  -5   1 6146.69 179.086  29
  -4  -5  -1 5805.48 127.635  43
   4  -5   1 6115.11 188.341  42
   4  -5   1 6524.35 170.835  22
   4  -5   1 6095.45 182.190  39
  -4  -5  -1 5889.10 174.515  36
   4  -5   1 5995.32 366.830  19
   4  -5   2 11182.9 253.168  29
   4  -5   2 11268.4 255.547  42
  -4  -5  -2 11223.3 184.201  43
   4  -5   2 11394.7 236.509  22
   4  -5   2 11528.5 237.456  39
  -4  -5  -2 10963.7 233.423  36
   4  -5   2 11229.2 508.788  19
   4  -5   3 4730.29 165.017  42
  -4  -5  -3 4770.13 121.332  43
   4  -5   3 5706.89 182.162  29
   4  -5   3 4728.43 158.349  22
  -4  -5  -3 4733.22 153.082  36
   4  -5   3 6000.94 374.765  19
   4  -5   4 13864.2 268.129  42
  -4  -5  -4 13982.1 201.511  43
   4  -5   4 14041.0 279.079  29
   4  -5   4 14329.3 274.305  22
  -4  -5  -4 13855.8 250.344  36
   4  -5   4 14607.6 571.923  19
   4  -5   5 16551.2 288.037  29
  -4  -5  -5 15872.7 261.277  36
   4  -5   5 16178.5 266.260  42
  -4  -5  -5 16255.2 208.595  43
  -4  -5  -5 15895.9 234.080  41
  -4  -5  -6 5319.29 142.492  36
   4  -5   6 5491.61 153.957  29
  -4  -5  -6 5215.07 125.387  41
   4  -5   6 5387.04 130.884  42
   4  -5   7 15481.3 216.509  47
   4  -5   7 15874.7 227.552  29
  -4  -5  -7 15405.8 209.149  36
   4  -5   8 13418.6 159.373  47
  -4  -4  12 488.974 31.5817  46
   4  -4 -12 551.566 38.6251  32
  -4  -4  12 601.246 36.7664  40
   4  -4 -11 1942.99 70.7293  52
   4  -4 -11 1852.96 88.5325  32
  -4  -4  11 1899.82 73.5710  40
   4  -4 -10 15934.3 224.410  52
   4  -4 -10 15281.9 282.189  32
  -4  -4  10 15507.0 225.272  40
  -4  -4   9 21750.5 283.518  40
   4  -4  -9 21798.7 356.632  32
   4  -4  -9 21708.2 322.763  45
  -4  -4   8 15607.3 245.410  40
   4  -4  -8 16011.7 308.497  45
  -4  -4   8 15093.6 249.290  30
   4  -4  -8 15542.5 305.794  32
  -4  -4   7 153.436 32.4131  40
  -4  -4   7 124.270 31.0629  30
   4  -4  -7 157.278 42.1983  32
  -4  -4   7 198.751 48.8544   5
  -4  -4   6 12375.0 215.215  40
   4  -4  -6 12866.9 255.281  39
   4  -4  -6 13086.9 270.831  32
  -4  -4   6 12962.5 239.795  30
  -4  -4   6 12331.4 388.923   5
   4  -4  -5 2852.74 122.867  39
  -4  -4   5 2619.95 96.2326  40
   4  -4  -5 2685.91 118.582  32
  -4  -4   5 2731.61 111.691  30
  -4  -4   5 2836.82 194.042   5
   4  -4  -4 17781.2 303.278  39
  -4  -4   4 18029.6 242.403  40
  -4  -4   4 18170.6 501.459   5
   4  -4  -4 18686.3 286.949  32
  -4  -4   4 18144.0 279.990  30
   4  -4  -3 4295.93 260.755  19
  -4  -4   3 4144.34 132.685  46
   4  -4  -3 4043.60 135.221  42
  -4  -4   3 3992.21 248.349   5
  -4  -4   3 3855.42 111.542  40
   4  -4  -3 4095.71 143.512  39
  -4  -4   3 4013.48 129.140  36
  -4  -4   3 4014.99 129.790  30
   4  -4  -2 3870.88 228.866   4
  -4  -4   2 4040.85 262.661   5
   4  -4  -2 4035.74 136.660  42
  -4  -4   2 4114.95 130.423  46
   4  -4  -2 3955.69 138.238  39
  -4  -4   2 4263.20 134.436  36
   4  -4  -2 3648.28 252.287  19
  -4  -4   1 4755.99 303.430   5
  -4  -4   1 4493.56 135.604  46
   4  -4  -1 4448.16 146.219  42
   4  -4  -1 4561.57 149.093  39
  -4  -4   1 4454.03 140.074  36
   4  -4  -1 4643.19 291.971  19
   4  -4   0 32614.7 779.063  19
  -4  -4   0 33493.2 827.095   5
  -4  -4   0 31979.9 362.297  46
  -4  -4   0 32033.3 271.923  43
   4  -4   0 32998.6 405.740  42
   4  -4   0 33455.7 358.316  22
   4  -4   0 33255.5 402.540  39
  -4  -4   0 32726.8 384.491  36
  -4  -4   0 31576.9 407.637  31
   4  -4   1 3069.98 253.565  19
  -4  -4  -1 3157.20 276.138   5
  -4  -4  -1 2990.13 114.695  46
  -4  -4  -1 2887.99 88.1504  43
   4  -4   1 3230.27 132.837  42
   4  -4   1 2986.72 115.767  22
   4  -4   1 3064.93 123.776  39
  -4  -4  -1 3042.16 120.580  36
  -4  -4  -1 3073.95 138.095  31
  -4  -4  -2 5886.60 390.754   5
  -4  -4  -2 6040.63 207.184  31
  -4  -4  -2 6158.02 134.940  43
   4  -4   2 6146.75 186.124  42
   4  -4   2 6055.24 176.595  22
   4  -4   2 6077.97 169.634  39
  -4  -4  -2 6875.45 180.267  36
   4  -4   2 5972.95 354.710  19
   4  -4   3 12805.5 275.739  29
  -4  -4  -3 12663.1 195.654  43
   4  -4   3 12692.5 265.353  42
  -4  -4  -3 13671.0 253.308  41
  -4  -4  -3 12232.3 579.586   5
   4  -4   3 12476.8 262.333  22
  -4  -4  -3 13337.0 252.972  36
   4  -4   3 13057.1 535.805  19
   4  -4   4 426.521 54.4204  42
  -4  -4  -4 414.722 51.1567  41
  -4  -4  -4 444.141 43.7295  43
   4  -4   4 448.754 63.6840  29
   4  -4   4 426.822 53.8416  22
  -4  -4  -4 426.960 52.5636  36
   4  -4   4 471.631 105.154  19
   4  -4   4 597.365 107.254  12
   4  -4   5 9580.93 214.488  42
  -4  -4  -5 9387.83 166.836  43
  -4  -4  -5 9416.03 222.296  41
   4  -4   5 8999.69 229.977  29
   4  -4   5 9428.94 226.122  22
  -4  -4  -5 9226.46 212.320  36
   4  -4   6 2387.89 110.904  22
  -4  -4  -6 2337.33 106.500  36
   4  -4   6 2548.86 116.739  29
  -4  -4  -6 2344.84 108.245  41
  -4  -4  -6 2392.05 83.8998  43
   4  -4   6 2274.89 93.9165  42
  -4  -4  -7 984.203 65.9620  36
  -4  -4  -7 989.548 64.8530  41
   4  -4   7 960.663 66.8008  29
  -4  -4  -8 3702.88 100.157  41
   4  -4   8 3753.90 107.913  47
   4  -4   8 3736.26 104.297  29
  -4  -3  13 222.488 20.5917  40
  -4  -3  12 856.005 39.9807  44
  -4  -3  12 865.151 48.5161  40
   4  -3 -12 818.718 49.0448  52
   4  -3 -12 782.713 52.4274  32
  -4  -3  11 6974.39 131.247  44
  -4  -3  11 6836.10 136.346  25
  -4  -3  11 7271.79 152.586  40
   4  -3 -11 7181.40 165.296  52
   4  -3 -11 6777.21 182.598  32
  -4  -3  10 10290.5 174.210  44
  -4  -3  10 10145.4 179.015  25
  -4  -3  10 10314.4 195.609  40
   4  -3 -10 10632.0 217.227  52
   4  -3 -10 10181.1 246.678  32
  -4  -3   9 13901.1 208.039  44
  -4  -3   9 13613.0 212.266  25
  -4  -3   9 13590.2 231.496  40
   4  -3  -9 13686.6 250.535  52
   4  -3  -9 13458.1 296.805  32
   4  -3  -8 14162.4 247.658  52
  -4  -3   8 14729.6 211.625  44
   4  -3  -8 14503.4 281.577  45
  -4  -3   8 14774.1 215.561  25
  -4  -3   8 14588.1 239.791  40
   4  -3  -8 14465.7 306.240  32
  -4  -3   8 13951.2 230.314  30
  -4  -3   8 14648.8 517.288   3
  -4  -3   7 131.919 32.0170  40
  -4  -3   7 87.2176 24.8079  30
   4  -3  -7 120.519 37.1549  32
  -4  -3   7 143.307 24.3187  25
  -4  -3   7 95.5293 59.9610   3
   4  -3  -6 18737.3 292.331  39
  -4  -3   6 18809.2 254.511  40
   4  -3  -6 19306.0 322.975  32
  -4  -3   6 18914.4 277.313  30
   4  -3  -5 2760.75 112.929  39
  -4  -3   5 2858.99 96.2041  40
   4  -3  -5 3109.73 121.866  32
  -4  -3   5 2981.57 109.350  30
   4  -3  -5 3064.14 250.423  16
  -4  -3   5 2926.50 175.563   5
   4  -3  -4 19868.0 294.308  39
  -4  -3   4 20524.7 247.752  40
   4  -3  -4 20107.5 290.611  32
  -4  -3   4 19667.1 270.359  30
   4  -3  -4 20383.3 618.524  16
   4  -3  -4 20739.2 525.160   4
  -4  -3   4 20150.6 452.701   5
   4  -3  -3 13620.0 418.753   4
  -4  -3   3 13356.6 383.593   5
   4  -3  -3 13376.0 234.940  39
  -4  -3   3 13750.7 221.967  46
   4  -3  -3 14011.0 488.294  16
   4  -3  -3 12557.3 407.572  19
  -4  -3   3 12821.7 212.476  30
  -4  -3   2 4757.87 129.695  46
   4  -3  -2 4818.18 249.199   4
  -4  -3   2 5215.85 252.791   5
   4  -3  -2 5145.90 291.908  16
   4  -3  -2 4674.47 135.930  39
  -4  -3   1 20793.6 270.694  46
   4  -3  -1 20809.6 288.127  39
   4  -3  -1 21109.7 576.348  16
  -4  -3   1 21818.5 553.911   5
   4  -3   0 43811.3 812.875  16
  -4  -3   0 44646.4 860.618   5
  -4  -3   0 40126.3 387.207  46
  -4  -3   0 41362.0 294.787  43
   4  -3   0 41599.4 418.652  42
   4  -3   0 43295.0 398.665  22
   4  -3   0 42467.0 414.319  39
  -4  -3   0 40963.3 394.686  36
  -4  -3   0 38735.2 421.162  31
   4  -3   1 9248.99 362.858  16
  -4  -3  -1 8429.72 409.505   5
  -4  -3  -1 9043.52 193.036  46
  -4  -3  -1 9143.27 145.703  43
   4  -3   1 9081.01 203.529  42
   4  -3   1 9251.58 200.299  22
   4  -3   1 9160.25 195.655  39
  -4  -3  -1 8799.02 187.319  36
  -4  -3  -1 8799.49 217.874  31
  -4  -3  -2 13460.5 561.351   5
  -4  -3  -2 12934.8 288.363  31
  -4  -3  -2 12862.5 242.939  41
  -4  -3  -2 13275.2 185.415  43
   4  -3   2 13695.0 258.741  42
   4  -3   2 13252.0 255.113  22
   4  -3   2 13437.2 237.382  39
  -4  -3  -2 12919.8 234.810  36
   4  -3   2 13268.2 502.673  12
  -4  -3  -3 15418.7 625.844   5
  -4  -3  -3 15600.0 211.312  43
   4  -3   3 15795.7 286.798  42
  -4  -3  -3 15654.7 288.163  41
  -4  -3  -3 15883.3 346.077  31
   4  -3   3 16151.2 291.456  22
  -4  -3  -3 15076.8 263.045  36
   4  -3   3 15619.1 583.515  12
   4  -3   4 4763.94 337.299  12
  -4  -3  -4 4988.54 124.435  43
   4  -3   4 4982.81 164.016  42
  -4  -3  -4 5061.99 177.529  41
   4  -3   4 5028.53 170.885  22
  -4  -3  -4 4983.51 156.829  36
   4  -3   5 251.309 51.6805  29
  -4  -3  -5 292.771 37.7001  43
   4  -3   5 231.709 38.8999  42
   4  -3   5 259.840 46.4185  22
  -4  -3  -5 236.609 47.5968  41
  -4  -3  -5 225.713 42.8853  36
   4  -3   5 229.356 78.6427  19
   4  -3   5 367.121 102.122  12
  -4  -3  -6 11583.5 266.749  41
   4  -3   6 11546.9 257.325  29
   4  -3   6 11484.2 254.287  22
  -4  -3  -6 11682.0 244.294  36
   4  -3   6 11577.2 478.055  19
   4  -3   7 6069.71 172.944  22
  -4  -3  -7 5811.64 165.599  36
  -4  -3  -7 5687.40 174.492  41
   4  -3   7 5751.74 167.440  29
  -4  -3  -8 542.325 50.5578  41
   4  -3   8 515.111 44.9571  29
   4  -3   9 5228.01 112.640  47
  -4  -3  -9 5168.03 109.909  41
   4  -2 -13 491.413 36.0056  52
  -4  -2  13 486.209 29.0954  44
  -4  -2  13 469.837 32.3872  40
  -4  -2  12 1127.86 54.1206  44
  -4  -2  12 1206.28 59.4562  40
   4  -2 -12 1193.41 71.3001  52
   4  -2 -12 1208.46 68.9299  32
  -4  -2  11 368.851 39.2919  44
  -4  -2  11 357.722 37.0487  25
  -4  -2  11 311.246 39.6672  40
   4  -2 -11 370.052 49.5143  52
   4  -2 -11 313.681 47.7198  32
  -4  -2  10 7255.59 159.917  44
  -4  -2  10 6970.39 162.652  25
  -4  -2  10 7219.33 167.577  40
   4  -2 -10 7348.51 201.123  52
   4  -2 -10 6953.14 211.941  32
  -4  -2   9 26339.8 311.290  44
  -4  -2   9 26295.3 315.405  25
  -4  -2   9 26687.2 327.082  40
   4  -2  -9 26935.3 377.761  52
   4  -2  -9 26720.0 425.220  32
   4  -2  -8 18116.8 295.285  52
  -4  -2   8 18093.2 250.954  44
  -4  -2   8 18333.1 255.017  25
  -4  -2   8 18357.6 268.661  40
  -4  -2   8 18788.3 594.603   3
   4  -2  -8 18143.0 344.237  32
  -4  -2   7 4718.16 121.124  44
  -4  -2   7 4771.63 122.503  25
  -4  -2   7 4675.14 132.077  40
  -4  -2   7 4940.52 291.317   3
   4  -2  -7 4856.92 171.425  32
   4  -2  -6 49897.2 502.500  32
  -4  -2   6 47549.7 393.773  30
  -4  -2   6 47486.7 353.248  44
  -4  -2   6 48977.0 393.022  40
  -4  -2   6 46432.3 349.720  25
  -4  -2   6 50098.4 845.665   3
   4  -2  -6 48279.6 964.155  16
   4  -2  -5 19772.2 294.030  32
  -4  -2   5 19061.3 247.708  30
  -4  -2   5 19043.7 232.181  40
   4  -2  -5 18217.1 511.126   4
  -4  -2   5 19146.8 468.601   3
   4  -2  -5 18591.8 576.466  16
  -4  -2   5 18578.8 204.661  25
  -4  -2   4 45555.8 371.332  30
  -4  -2   4 45305.7 295.916  25
   4  -2  -4 45387.5 862.134  16
   4  -2  -4 44586.7 782.491   4
  -4  -2   4 46307.7 647.536   3
   4  -2  -3 20046.3 538.496  16
   4  -2  -3 20958.3 500.791  18
   4  -2  -3 19956.2 502.205   4
  -4  -2   3 19488.8 394.353   5
   4  -2  -2 16968.8 456.131   4
  -4  -2   2 16580.4 387.972   5
   4  -2  -1 83726.4 1057.39  18
  -4  -2   1 82829.6 948.718   5
   4  -2  -1 85455.1 933.045   9
   4  -2   0 53797.2 879.477  18
   4  -2   0 56071.7 836.959   9
   4  -2   1 50969.9 765.371  16
   4  -2   1 50769.7 891.329  18
   4  -2   1 48116.4 857.134   9
  -4  -2  -1 47693.1 877.975   5
   4  -2   2 10616.1 434.855   9
  -4  -2  -2 10332.6 452.456   5
  -4  -2  -2 10070.4 237.792  31
  -4  -2  -2 10887.2 202.004  36
   4  -2   2 10632.0 428.516  18
  -4  -2  -2 10826.3 159.035  43
  -4  -2  -2 10586.1 217.207  41
  -4  -2  -3 25876.9 769.379   5
  -4  -2  -3 26732.3 262.566  43
  -4  -2  -3 26301.3 376.485  41
  -4  -2  -3 25696.7 417.174  31
  -4  -2  -3 26404.3 335.508  36
   4  -2   3 27093.8 713.736  18
  -4  -2  -4 9743.53 278.357  31
   4  -2   4 10162.4 238.247  22
  -4  -2  -4 10331.5 174.610  43
  -4  -2  -4 9622.31 246.943  41
   4  -2   4 9888.33 219.467  42
  -4  -2  -4 9834.46 219.326  36
   4  -2   4 9583.37 483.732  12
   4  -2   5 51013.2 545.271  22
   4  -2   5 51153.3 493.154  42
  -4  -2  -5 49738.3 581.341  41
  -4  -2  -5 50175.6 516.917  36
   4  -2   5 49651.3 1138.37  12
   4  -2   6 1324.62 91.7000  22
  -4  -2  -6 1322.17 100.524  41
  -4  -2  -6 1345.18 90.6550  36
   4  -2   6 1471.05 173.023  19
   4  -2   6 1172.10 178.668  12
  -4  -2  -7 22161.6 367.251  41
  -4  -2  -7 22296.2 342.598  36
  -4  -2  -7 21483.0 254.497  33
   4  -2   7 22163.7 340.059  29
   4  -2   7 21638.4 337.892  22
  -4  -2  -8 12694.8 246.396  41
   4  -2   8 12567.1 218.636  29
  -4  -2  -8 12089.7 167.361  33
  -4  -2  -9 436.201 40.5788  41
  -4  -1  13 3189.23 82.5063  40
   4  -1 -13 3060.24 98.8640  52
  -4  -1  13 3069.64 78.5065  44
  -4  -1  12 1316.95 62.3544  44
  -4  -1  12 1432.76 66.6144  25
  -4  -1  12 1344.05 65.3741  40
   4  -1 -12 1370.38 84.5901  52
   4  -1 -12 1282.77 71.6278  32
  -4  -1  11 6880.03 152.008  44
  -4  -1  11 6725.50 155.821  25
  -4  -1  11 7006.82 155.142  40
   4  -1 -11 7046.24 201.708  52
   4  -1 -11 6831.39 195.619  32
  -4  -1  10 1971.80 88.5173  44
  -4  -1  10 2002.25 89.6035  25
  -4  -1  10 2034.75 89.6839  40
   4  -1 -10 2159.12 117.455  52
   4  -1 -10 2041.36 118.344  32
   4  -1  -9 76716.7 671.070  50
  -4  -1   9 77820.0 539.729  44
  -4  -1   9 76025.0 538.362  25
  -4  -1   9 76998.5 546.229  40
  -4  -1   9 78199.4 980.755  14
   4  -1  -9 75040.9 712.272  32
   4  -1  -8 15814.7 563.780   6
  -4  -1   8 15683.8 549.738   3
   4  -1  -8 15925.9 293.653  50
  -4  -1   8 16402.6 240.796  44
  -4  -1   8 16331.4 241.573  25
  -4  -1   8 16477.6 248.357  40
   4  -1  -8 16629.8 314.372  38
  -4  -1   8 16667.5 432.238  14
   4  -1  -8 15742.6 319.080  32
   4  -1  -7 1180.80 140.466   6
  -4  -1   7 1319.83 149.992   3
   4  -1  -7 1380.86 82.7116  50
  -4  -1   7 1405.20 68.2791  44
  -4  -1   7 1370.88 68.3645  25
   4  -1  -7 1402.00 87.8295  38
  -4  -1   7 1408.67 70.6251  40
   4  -1  -7 1229.87 147.686  16
  -4  -1   7 1713.30 130.743  14
   4  -1  -7 1455.67 94.3579  32
   4  -1  -6 13400.6 413.862   6
   4  -1  -6 12705.4 448.157   4
   4  -1  -6 13184.1 228.211  50
  -4  -1   6 13549.9 189.188  44
  -4  -1   6 13718.9 202.107  40
   4  -1  -6 13723.1 245.642  38
  -4  -1   6 13142.2 189.604  25
   4  -1  -6 14288.3 266.283  32
   4  -1  -6 13548.9 482.258  16
  -4  -1   6 13694.2 332.485  14
  -4  -1   5 19124.3 212.818  25
   4  -1  -5 18771.7 538.144   4
   4  -1  -5 18515.2 537.191  16
  -4  -1   4 41423.9 295.242  25
   4  -1  -4 42240.6 774.141   4
  -4  -1   3 74633.3 637.497  15
   4  -1  -3 74627.2 894.434  18
  -4  -1   2 25272.9 372.678  15
   4  -1  -2 25494.8 543.262  18
  -4  -1   2 25854.0 426.027   5
  -4  -1   1 88391.0 788.907  15
   4  -1  -1 88342.4 1037.38  18
   4  -1  -1 89746.0 1015.95   4
  -4  -1   1 90088.9 877.182   5
   4  -1  -1 91165.3 976.179   9
  -4  -1   0 55315.3 722.034  15
   4  -1   0 52582.5 825.378  18
  -4  -1   0 54155.7 776.468   5
   4  -1   0 54549.9 827.303   9
   4  -1   1 63343.7 946.650  18
   4  -1   1 62054.1 969.571   9
  -4  -1  -2 21503.9 326.280  31
   4  -1   2 21869.8 607.088   9
  -4  -1  -2 21039.4 591.888   5
  -4  -1  -2 21832.7 278.196  36
   4  -1   2 22464.2 595.646  18
  -4  -1  -3 6296.15 197.853  31
   4  -1   3 6830.71 360.863   9
  -4  -1  -3 5897.99 333.448   5
  -4  -1  -3 6407.35 181.947  41
  -4  -1  -3 6584.50 166.289  36
   4  -1   3 6926.09 342.713  18
  -4  -1  -4 18461.8 368.692  31
  -4  -1  -4 18366.7 337.364  41
  -4  -1  -4 18595.1 617.491   5
   4  -1   4 18694.0 640.743   9
  -4  -1  -4 18733.2 303.778  36
   4  -1   4 18726.5 603.395  18
   4  -1   5 1543.55 99.0714  22
   4  -1   5 1473.12 171.114  18
   4  -1   5 1178.44 189.643  12
  -4  -1  -5 1340.52 91.2890  36
  -4  -1  -5 1344.28 102.254  41
   4  -1   6 3100.01 137.855  22
   4  -1   6 3156.25 294.564  12
  -4  -1  -6 3266.86 139.414  36
  -4  -1  -6 3288.64 113.331  33
  -4  -1  -6 3642.39 161.308  41
   4  -1   7 23497.8 361.624  22
  -4  -1  -7 23623.0 391.696  41
  -4  -1  -7 23854.8 292.949  33
   4  -1   7 24634.4 357.466  29
  -4  -1  -8 743.890 48.9351  33
  -4  -1  -8 772.033 69.6804  41
   4  -1   8 736.538 59.7798  22
  -4  -1  -9 14483.1 227.138  41
  -4  -1  -9 14008.9 166.759  33
   4   0 -13 15114.7 231.680  52
  -4   0  13 15261.3 181.031  44
  -4   0  12 4319.91 112.010  44
  -4   0  12 4536.99 118.617  25
  -4   0  12 4490.54 111.327  40
   4   0 -12 4266.26 149.410  52
  -4   0  11 7583.88 162.675  44
  -4   0  11 7905.45 169.563  25
  -4   0  11 7665.39 160.409  40
   4   0 -11 7539.09 216.208  52
   4   0 -11 7514.86 200.795  32
   4   0 -10 41081.6 506.408  50
  -4   0  10 41010.8 390.525  44
  -4   0  10 41738.0 399.621  25
  -4   0  10 41301.2 385.225  40
  -4   0  10 40222.9 743.030  14
   4   0 -10 40434.9 511.392  32
   4   0  -9 2556.53 258.093   6
  -4   0   9 2159.97 213.791   3
   4   0  -9 2562.54 129.378  50
  -4   0   9 2610.28 100.774  44
  -4   0   9 2516.04 102.705  25
   4   0  -9 3017.08 143.547  38
  -4   0   9 2517.45 98.1306  40
  -4   0   9 2652.29 192.243  14
   4   0  -9 2445.83 131.676  32
   4   0  -8 845.437 138.115   6
   4   0  -8 961.122 78.0209  50
  -4   0   8 982.379 61.8497  44
  -4   0   8 927.311 64.9988  25
   4   0  -8 905.087 78.9284  38
  -4   0   8 882.178 58.7506  40
  -4   0   8 946.615 115.354  14
   4   0  -8 980.729 85.7214  32
   4   0  -7 723.429 116.432   6
   4   0  -7 618.366 119.629   2
   4   0  -7 672.867 60.1342  50
  -4   0   7 687.028 48.9391  44
  -4   0   7 692.554 51.9495  25
   4   0  -7 684.213 65.9565  38
  -4   0   7 720.634 50.5771  40
   4   0  -7 638.082 99.8733  16
  -4   0   7 783.746 102.467  14
   4   0  -7 720.257 67.5988  32
   4   0  -6 24666.9 325.984  51
   4   0  -6 23887.1 307.704  50
  -4   0   6 24967.7 258.589  44
  -4   0   6 24739.5 266.357  40
   4   0  -6 24559.9 321.414  38
  -4   0   6 24290.9 259.622  25
  -4   0   6 23314.5 469.032  14
   4   0  -6 24016.7 594.525   6
  -4   0   5 40566.1 313.744  25
  -4   0   5 38605.5 545.844  14
   4   0  -5 38362.6 798.550   4
  -4   0   4 101485. 473.816  25
   4   0  -4 105420. 1247.09   4
   4   0  -3 23129.3 559.421   4
  -4   0   3 22547.6 374.079  15
   4   0  -2 4385.21 233.415   4
  -4   0   2 4852.36 170.224   5
  -4   0   2 4403.27 163.659  15
   4   0  -1 35491.6 649.825   4
  -4   0   1 35235.3 499.260   5
   4   0  -1 34108.2 578.825  13
   4   0   0 29667.5 592.223   4
  -4   0   0 31879.2 546.487   5
   4   0   0 31113.0 549.869  13
  -4   0   0 31293.4 531.889  15
   4   0   1 7287.84 300.846   4
  -4   0  -1 6455.26 273.070   5
  -4   0  -1 6848.98 291.057  15
   4   0   1 6386.86 250.982  13
   4   0   2 9168.50 393.689   9
  -4   0  -2 9347.60 359.044   5
   4   0   2 9046.53 369.795  18
   4   0   2 9227.16 302.634  13
   4   0   3 129.558 72.9648   9
  -4   0  -3 75.8655 30.1704  31
  -4   0  -3 32.8492 24.0900  36
   4   0   3 58.1669 54.6899  18
   4   0   4 8807.87 440.040   9
  -4   0  -4 8749.27 225.242  41
  -4   0  -4 8583.63 245.525  31
  -4   0  -4 9161.83 212.504  37
  -4   0  -4 9102.33 214.760  36
   4   0   4 9071.23 412.739  18
  -4   0  -5 17873.5 267.558  33
  -4   0  -5 17513.2 340.547  41
   4   0   5 17517.0 645.335   9
  -4   0  -5 17691.4 318.366  36
   4   0   5 17923.1 580.438  18
   4   0   6 17038.7 317.515  22
  -4   0  -6 17863.1 274.099  33
  -4   0  -6 17235.7 343.810  41
  -4   0  -7 4619.95 138.083  33
   4   0   7 4651.47 160.744  22
  -4   0  -7 4369.42 171.718  41
  -4   0  -8 20659.5 264.887  33
   4   0   8 19947.2 298.350  22
  -4   0  -8 20629.1 332.197  41
  -4   0  -9 2089.60 89.3806  41
  -4   0  -9 2160.51 72.5880  33
   4   1 -13 3181.50 108.278  52
  -4   1  13 3264.64 81.5055  44
   4   1 -12 1261.07 86.2923  52
  -4   1  12 1379.06 64.0038  44
  -4   1  12 1444.93 66.6541  25
  -4   1  11 7026.16 154.025  44
  -4   1  11 7085.24 159.628  25
   4   1 -11 6982.80 205.777  50
   4   1 -11 6697.68 182.282  32
   4   1 -10 2231.76 124.279  50
  -4   1  10 2103.50 91.0316  44
  -4   1  10 2063.88 89.8189  25
  -4   1  10 2073.19 83.3039  40
   4   1 -10 1990.83 113.464  38
  -4   1  10 1946.58 167.954  14
   4   1 -10 1928.11 110.453  32
   4   1  -9 74672.5 1423.16   6
   4   1  -9 76864.1 678.337  50
  -4   1   9 77626.9 528.700  44
  -4   1   9 77585.6 539.368  25
   4   1  -9 75493.0 703.783  38
  -4   1   9 76122.0 504.811  40
  -4   1   9 73890.3 1026.15  14
   4   1  -9 74548.5 704.003  32
   4   1  -8 15977.6 616.836   6
   4   1  -8 15866.0 295.542  50
  -4   1   8 15683.5 235.140  44
  -4   1   8 16223.0 240.186  25
  -4   1   8 16017.4 228.721  40
   4   1  -8 15837.5 308.368  38
  -4   1   8 16283.2 462.602  14
   4   1  -8 15775.7 317.948  32
   4   1  -7 1509.26 84.4842  51
  -4   1   7 1495.92 70.7653  44
  -4   1   7 1373.97 70.0355  25
   4   1  -7 1344.05 85.1532  38
  -4   1   7 1482.71 69.0653  40
  -4   1   7 1404.42 134.333  14
   4   1  -6 12771.1 224.836  51
  -4   1   6 13974.2 195.202  44
   4   1  -6 13492.6 235.385  38
  -4   1   6 13253.1 194.814  40
  -4   1   6 12989.1 362.607  14
   4   1  -6 12019.9 505.894   2
  -4   1   6 13597.6 195.503  25
  -4   1   5 19135.3 403.455  14
   4   1  -5 19166.9 590.598   4
  -4   1   5 19343.1 192.420  24
  -4   1   5 19460.8 222.278  25
   4   1  -4 43901.6 847.491   4
  -4   1   4 43691.1 259.606  24
   4   1  -4 42428.0 357.375  26
   4   1  -3 74896.9 883.040  13
  -4   1   3 76029.3 715.441  15
   4   1  -3 77067.4 1067.50   4
  -4   1   3 76673.8 312.368  24
   4   1  -3 74411.6 442.374  26
   4   1  -2 26986.0 535.439  13
  -4   1   2 25121.3 417.391  15
   4   1  -2 26290.9 595.825   4
  -4   1   2 25722.3 358.114   5
   4   1  -2 26510.8 249.145  26
   4   1  -1 90353.7 976.275  13
   4   1  -1 91233.2 1071.89   4
  -4   1   1 89644.0 730.425   5
   4   1  -1 88899.5 435.014  26
  -4   1   0 53874.2 708.101  15
   4   1   0 53636.3 747.570  13
   4   1   0 54583.2 828.220   4
  -4   1   0 54024.6 294.905  23
  -4   1  -1 62473.8 871.706  15
   4   1   1 61073.6 800.586  13
   4   1   1 63104.4 911.643   4
  -4   1  -1 63733.5 356.741  23
   4   1   2 22644.4 555.902   4
  -4   1  -2 22140.8 240.751  23
   4   1   3 6560.70 301.358   4
  -4   1  -3 6200.91 185.298  31
  -4   1  -3 6867.24 148.500  23
  -4   1  -3 6532.50 171.751  37
  -4   1  -3 6786.62 175.470  36
   4   1   3 7205.92 280.198  13
   4   1   4 19589.3 658.781   9
  -4   1  -4 18387.4 315.811  41
  -4   1  -4 18118.7 339.448  31
  -4   1  -4 18184.1 258.784  33
  -4   1  -4 19011.9 318.449  37
  -4   1  -4 20042.4 327.976  36
   4   1   4 19304.2 592.245  18
  -4   1  -5 1337.39 77.1061  33
  -4   1  -5 1301.87 91.1754  37
   4   1   5 1386.19 160.129  18
   4   1   5 1542.98 198.431   9
  -4   1  -6 3094.24 118.985  33
  -4   1  -6 2996.06 144.110  41
  -4   1  -7 23661.0 319.224  33
  -4   1  -7 22690.4 378.656  41
   4   1   7 23379.4 351.840  22
  -4   1  -8 682.431 64.0514  41
  -4   1  -8 723.281 54.7110  33
  -4   1  -9 13719.9 212.350  41
  -4   1  -9 14202.7 188.269  33
   4   2 -13 430.302 40.3459  52
  -4   2  13 431.436 27.4485  44
   4   2 -12 1235.12 78.6644  50
  -4   2  12 1209.28 55.2136  44
  -4   2  11 346.367 35.4482  24
  -4   2  11 328.543 35.8115  25
  -4   2  11 312.661 36.3000  44
   4   2 -11 314.695 56.1473  50
   4   2 -10 6957.43 209.173  50
  -4   2  10 7371.36 158.150  44
  -4   2  10 6953.58 154.218  24
  -4   2  10 7246.83 160.603  25
   4   2 -10 7201.71 207.169  38
  -4   2  10 7425.04 325.241  14
   4   2 -10 6888.77 196.443  32
   4   2  -9 26587.2 400.918  50
  -4   2   9 27195.1 307.774  44
  -4   2   9 27606.6 316.023  25
   4   2  -9 27252.5 416.679  38
   4   2  -9 26746.1 410.379  32
  -4   2   9 27155.9 626.028  14
  -4   2   8 18405.1 500.026  14
  -4   2   8 18238.8 250.999  44
  -4   2   8 18202.6 251.795  25
   4   2  -8 17898.4 323.754  38
   4   2  -8 18378.0 318.484  34
   4   2  -7 4383.42 332.785   2
   4   2  -7 4768.28 144.457  51
  -4   2   7 4561.13 121.885  44
  -4   2   7 4659.22 119.093  24
  -4   2   7 4866.64 126.465  25
   4   2  -7 4644.14 154.544  38
   4   2  -7 4656.93 151.515  34
  -4   2   7 4708.76 243.161  14
   4   2  -6 48515.2 1063.28   2
   4   2  -6 46719.5 421.206  51
  -4   2   6 48243.7 370.254  44
  -4   2   6 47569.2 351.720  24
  -4   2   6 48345.2 376.654  25
   4   2  -6 48158.9 448.177  38
   4   2  -6 48553.6 445.825  26
  -4   2   6 46561.8 706.353  14
   4   2  -5 19139.3 261.157  38
  -4   2   5 18492.4 204.989  24
   4   2  -5 18845.4 255.099  26
  -4   2   5 19219.0 223.349  44
   4   2  -5 18995.9 480.218  13
   4   2  -4 45338.8 909.364   4
  -4   2   4 45336.8 295.429  24
   4   2  -4 43651.9 372.736  26
  -4   2   3 19569.4 172.299  27
   4   2  -3 18689.8 564.326   4
   4   2  -3 20089.0 477.145  13
  -4   2   3 19636.3 391.215  15
  -4   2   3 19597.9 181.087  24
   4   2  -3 19746.4 241.174  26
  -4   2   2 17240.7 151.188  27
   4   2  -2 16846.9 217.594  26
  -4   2   2 16944.0 365.741  15
   4   2  -2 16815.4 439.568  13
   4   2  -2 17236.2 520.726   4
   4   2  -1 79452.2 460.553  26
  -4   2   1 80255.0 828.685  15
   4   2   0 52745.4 366.438  26
  -4   2   0 53430.9 747.095  15
   4   2   0 54509.3 807.486  13
   4   2   0 55421.2 890.344   4
  -4   2  -1 49435.0 335.984  23
   4   2   1 50755.9 853.151   4
  -4   2  -1 49524.1 818.849  15
   4   2   1 48208.8 766.089  13
  -4   2  -2 10438.1 173.069  23
   4   2   2 10717.6 389.759   4
  -4   2  -2 10763.8 208.648  37
  -4   2  -3 27205.4 308.441  23
  -4   2  -3 26672.2 362.770  37
  -4   2  -4 9837.80 238.814  37
  -4   2  -4 10167.1 205.273  23
  -4   2  -5 49291.9 454.144  33
  -4   2  -5 50507.2 559.874  37
   4   2   5 48892.0 931.174  18
  -4   2  -5 49522.6 551.489  41
  -4   2  -6 1575.21 87.2183  33
  -4   2  -6 1417.96 99.1064  41
   4   2   7 20859.1 317.080  22
  -4   2  -7 21110.4 300.491  33
  -4   2  -7 21026.0 348.175  41
  -4   2  -8 11860.6 228.369  41
  -4   2  -8 12302.9 207.019  33
  -4   2  -9 451.109 35.8130  33
   4   3 -13 221.882 26.3592  52
  -4   3  13 194.671 17.1512  37
   4   3 -12 872.131 61.4387  50
  -4   3  12 812.008 38.5590  44
   4   3 -11 6861.42 163.198  38
  -4   3  11 7084.91 137.141  24
   4   3 -11 7098.06 190.171  50
  -4   3  11 6833.48 129.311  44
  -4   3  10 10151.7 172.841  44
  -4   3  10 10037.7 177.348  24
   4   3 -10 10459.9 237.985  38
   4   3 -10 10195.7 244.140  50
   4   3 -10 9605.13 215.424  32
   4   3  -9 13547.9 280.908  32
  -4   3   9 13270.9 207.308  44
  -4   3   9 13118.2 209.489  24
   4   3  -9 13542.4 284.961  38
   4   3  -9 13611.5 281.673  34
  -4   3   9 13186.2 426.135  14
  -4   3   8 14163.4 435.919  14
  -4   3   8 14335.7 217.019  44
  -4   3   8 14438.9 217.245  24
   4   3  -8 14228.6 282.839  38
   4   3  -8 14265.6 281.560  34
   4   3  -8 14214.0 639.471   2
   4   3  -7 202.308 95.0618   2
   4   3  -7 137.686 26.6128  51
  -4   3   7 174.003 28.7755  44
  -4   3   7 222.193 35.8445  24
   4   3  -7 162.760 40.0916  38
   4   3  -7 146.584 33.2910  34
  -4   3   7 128.734 55.0563  14
  -4   3   6 18571.7 238.247  44
  -4   3   6 19140.8 232.567  24
   4   3  -6 19761.9 285.670  26
   4   3  -6 19050.4 289.321  38
   4   3  -6 19370.4 295.788  49
   4   3  -6 18977.4 704.477   2
   4   3  -5 3306.58 285.376   2
   4   3  -5 2984.63 110.413  49
  -4   3   5 3092.24 94.4581  44
  -4   3   5 2959.50 88.1707  24
   4   3  -5 2845.75 106.037  26
   4   3  -5 2939.85 109.168  38
  -4   3   5 2948.14 91.9213  37
   4   3  -5 2942.55 191.179  13
  -4   3   4 19874.2 236.301  44
   4   3  -4 19979.1 272.233  38
   4   3  -4 19149.8 497.541  13
  -4   3   4 20045.6 431.233  15
  -4   3   4 20324.5 226.164  37
  -4   3   4 19466.3 208.292  24
   4   3  -4 20120.3 263.709  26
   4   3  -3 13042.2 214.866  26
  -4   3   3 12932.4 157.382  27
   4   3  -3 13184.1 213.780  38
  -4   3   3 13385.1 179.248  37
   4   3  -2 4727.82 129.651  26
  -4   3   2 4710.50 91.4665  27
  -4   3   2 4797.09 108.493  37
   4   3  -2 4631.43 293.038   4
  -4   3   2 5185.21 217.740  15
   4   3  -2 4777.23 257.692  13
   4   3  -1 19485.1 263.006  26
  -4   3   1 19827.8 185.177  27
  -4   3   1 21894.9 241.733  37
  -4   3   1 21735.5 470.782  15
   4   3  -1 19541.4 514.377  13
   4   3  -1 20632.2 600.372   4
   4   3  -1 20442.7 511.102   7
  -4   3   0 41393.8 361.993  37
  -4   3   0 43500.9 727.682  15
   4   3   0 41239.0 751.646  13
   4   3   0 38848.0 353.572  26
   4   3   0 43356.3 851.282   4
   4   3   0 40052.4 720.187   7
  -4   3  -1 9025.98 187.922  37
  -4   3  -1 9443.50 382.098  15
   4   3   1 8881.68 354.358  13
  -4   3  -1 8700.82 157.027  23
   4   3   1 8728.72 161.799  26
   4   3   1 9590.36 395.966   4
   4   3   1 8605.18 340.450   7
  -4   3  -2 13491.5 248.923  37
   4   3   2 12414.4 420.171  13
  -4   3  -2 13125.7 207.548  23
   4   3   2 12251.2 415.444   7
  -4   3  -3 15474.9 289.994  37
   4   3   3 14076.7 448.017  13
  -4   3  -3 15379.6 243.410  23
   4   3   3 13559.5 438.953   7
  -4   3  -4 4938.20 175.968  37
  -4   3  -4 5116.02 150.177  23
   4   3   4 4557.00 250.104  13
  -4   3  -5 299.694 42.2771  33
  -4   3  -5 254.573 47.4900  41
  -4   3  -5 279.215 56.0277  37
   4   3   5 196.854 57.1585  18
  -4   3  -6 11085.1 220.856  33
  -4   3  -6 10923.2 248.659  41
  -4   3  -7 5559.96 149.916  33
  -4   3  -7 5528.03 161.905  41
  -4   3  -8 541.913 45.6450  33
  -4   3  -9 5392.64 105.765  33
  -4   4  12 553.506 30.2156  37
   4   4 -12 605.029 45.5165  50
  -4   4  11 1817.88 63.3414  37
   4   4 -11 1878.33 92.7558  50
  -4   4  10 15264.2 201.285  24
   4   4 -10 15434.1 263.472  38
  -4   4  10 15109.2 201.275  37
   4   4 -10 15297.7 277.691  50
  -4   4   9 20927.9 239.678  44
  -4   4   9 20925.8 251.785  24
   4   4  -9 21647.3 336.916  38
   4   4  -9 21755.1 339.921  34
   4   4  -9 20580.1 319.310  32
   4   4  -8 15150.4 283.901  38
  -4   4   8 15546.5 220.048  24
   4   4  -8 15572.7 286.724  34
  -4   4   8 15831.4 218.559  44
   4   4  -7 120.450 26.5212  51
   4   4  -7 188.915 44.9493  49
  -4   4   7 115.238 22.6914  44
  -4   4   7 125.941 31.2912  24
   4   4  -7 151.666 38.0406  26
   4   4  -7 117.424 38.0564  38
   4   4  -7 98.8940 29.2883  34
  -4   4   7 103.970 29.9029  37
   4   4  -7 58.0466 43.3215   2
   4   4  -6 13337.8 617.449   2
   4   4  -6 12758.7 250.634  49
  -4   4   6 13306.2 204.300  44
  -4   4   6 13132.6 194.277  24
   4   4  -6 13063.4 236.871  26
   4   4  -6 12795.0 244.646  38
  -4   4   6 12686.6 205.316  37
  -4   4   6 13146.8 390.686  15
   4   4  -5 2481.89 267.410   2
   4   4  -5 2816.83 114.425  49
  -4   4   5 2758.72 93.6105  44
  -4   4   5 2691.54 148.626  21
  -4   4   5 2666.30 86.8979  24
   4   4  -5 2702.58 108.034  26
   4   4  -5 2660.65 112.977  38
  -4   4   5 2771.17 93.9632  37
   4   4  -5 2928.49 197.732  13
  -4   4   5 2659.22 175.813  15
   4   4  -4 16972.9 494.517  13
   4   4  -4 17828.5 674.437   2
   4   4  -4 17862.3 267.356  49
  -4   4   4 18185.7 241.211  44
  -4   4   4 18196.7 351.195  21
   4   4  -4 18246.2 269.880  26
   4   4  -4 17916.4 277.620  38
  -4   4   4 18436.9 232.150  37
  -4   4   4 18253.1 209.794  27
  -4   4   3 4022.91 206.551  15
   4   4  -3 4036.67 255.664  13
   4   4  -3 3824.24 118.015  49
   4   4  -3 4118.47 134.634  26
  -4   4   3 4596.58 102.999  27
  -4   4   3 4005.09 109.827  37
   4   4  -3 3734.13 297.275   2
   4   4  -2 4123.14 129.867  26
  -4   4   2 4008.23 94.7091  27
  -4   4   2 3962.27 111.237  37
  -4   4   2 3977.76 209.404  15
   4   4  -2 4141.73 255.462  13
   4   4  -2 4041.94 304.856   2
   4   4  -2 3836.35 244.341   7
  -4   4   1 4813.62 128.111  37
   4   4  -1 4420.97 134.306  26
  -4   4   1 4912.11 246.254  15
   4   4  -1 4798.41 277.256  13
   4   4  -1 4716.87 264.699   7
  -4   4   0 34211.4 710.036  15
   4   4   0 33632.0 713.793  13
  -4   4   0 32563.0 358.158  37
   4   4   0 32026.4 345.815  26
  -4   4   0 32741.2 308.221  34
   4   4   0 31771.0 681.692   7
  -4   4  -1 3336.52 250.945  15
   4   4   1 2991.23 221.405  13
  -4   4  -1 2863.73 116.660  37
  -4   4  -1 3028.92 101.680  23
   4   4   1 2976.60 105.140  26
  -4   4  -1 3060.42 94.5756  34
   4   4   1 3179.82 222.017   7
  -4   4  -2 6205.33 152.398  23
   4   4   2 6135.47 143.951  26
   4   4   2 6031.15 310.046  13
   4   4   2 5571.79 296.978   7
  -4   4  -3 12574.0 270.979  37
   4   4   3 10908.0 414.495  13
   4   4   3 11490.4 416.833   7
  -4   4  -3 12524.7 229.335  23
  -4   4  -4 404.889 50.0375  23
  -4   4  -4 406.396 61.1010  37
  -4   4  -5 9593.16 244.974  37
  -4   4  -5 9138.39 215.772  41
  -4   4  -6 2574.32 101.981  33
  -4   4  -6 2381.36 121.781  37
  -4   4  -7 991.616 62.5724  33
  -4   4  -8 3798.73 100.261  33
  -4   5  11 2283.62 60.4976  37
   4   5 -11 2450.41 89.1300  50
   4   5 -10 248.122 31.3542  38
  -4   5  10 324.718 29.2161  27
  -4   5  10 307.687 27.5340  24
  -4   5  10 273.474 28.1545  37
   4   5  -9 13599.4 244.095  38
  -4   5   9 13001.7 180.044  24
  -4   5   9 13103.5 346.714  21
   4   5  -9 13632.7 243.433  34
  -4   5   9 13260.7 187.180  37
   4   5  -8 3247.13 123.103  34
  -4   5   8 3484.69 103.106  37
  -4   5   8 3317.46 97.8020  24
  -4   5   8 3202.30 180.645  21
  -4   5   7 14133.0 410.153  15
  -4   5   7 15133.1 208.304  24
  -4   5   7 14737.7 384.431  21
   4   5  -7 15046.8 261.886  26
   4   5  -7 15264.2 283.317  49
   4   5  -7 14791.9 267.378  38
  -4   5   7 15097.6 221.305  37
  -4   5   7 15168.6 210.620  27
  -4   5   6 12449.3 390.053  15
   4   5  -6 11548.9 245.143  49
  -4   5   6 11923.7 185.879  24
  -4   5   6 11867.3 333.217  21
   4   5  -6 11825.8 227.841  26
   4   5  -6 12064.3 240.571  38
  -4   5   6 11787.4 198.026  37
  -4   5   6 11691.5 185.115  27
  -4   5   5 39529.8 695.495  15
   4   5  -5 40111.5 441.263  49
  -4   5   5 39204.3 574.283  21
   4   5  -5 40120.7 418.086  26
   4   5  -5 39026.5 1056.73   2
   4   5  -5 39026.0 438.191  38
  -4   5   5 39531.7 365.962  37
  -4   5   5 39417.0 332.362  27
   4   5  -4 7460.84 185.948  49
  -4   5   4 7913.51 244.201  21
   4   5  -4 7805.39 193.140  26
   4   5  -4 7489.13 453.346   2
   4   5  -4 7449.84 191.788  38
  -4   5   4 7639.90 162.791  37
  -4   5   4 7884.28 307.420  15
   4   5  -4 7943.94 360.316  13
  -4   5   4 7493.95 142.361  27
   4   5  -3 12486.6 227.237  49
  -4   5   3 12119.4 289.071  21
   4   5  -3 12513.0 244.763  26
  -4   5   3 12516.0 211.526  37
  -4   5   3 12541.1 180.977  27
  -4   5   3 12386.4 393.498  15
   4   5  -3 11719.8 458.397  13
   4   5  -2 71860.5 579.414  26
   4   5  -2 70333.2 1305.17   2
   4   5  -2 70009.8 1074.35   7
  -4   5   2 71611.7 519.816  37
  -4   5   2 70147.3 423.387  27
  -4   5   2 67927.0 958.753  15
   4   5  -2 69133.9 1101.11  13
  -4   5   1 12968.0 233.437  37
   4   5  -1 12693.0 455.075   7
   4   5  -1 12339.4 235.038  26
  -4   5   1 12567.5 440.085  15
   4   5  -1 12866.8 473.821  13
   4   5   0 31806.4 367.723  26
   4   5   0 33597.1 741.203   7
  -4   5   0 33389.6 393.985  37
  -4   5   0 32599.8 336.010  34
  -4   5   0 32111.1 754.804  15
   4   5   0 32993.7 751.556  13
  -4   5  -1 6186.24 150.825  23
   4   5   1 6030.71 158.738  26
   4   5   1 6222.32 319.394   7
  -4   5  -1 6028.98 178.113  37
  -4   5  -1 6241.57 145.913  34
   4   5   1 5896.00 324.010  13
  -4   5  -2 11375.8 216.214  23
   4   5   2 11268.6 206.660  26
   4   5   2 11689.7 440.492   7
  -4   5  -2 11025.7 249.833  37
  -4   5  -2 11381.8 192.943  34
   4   5   2 11425.5 443.020  13
  -4   5  -3 4767.84 170.917  37
   4   5   3 4421.57 266.692  13
  -4   5  -3 4697.26 123.241  34
  -4   5  -3 5102.34 151.647  23
  -4   5  -4 13864.5 252.404  23
  -4   5  -4 14267.0 292.025  37
  -4   5  -5 16079.1 300.096  37
  -4   5  -6 5452.86 137.448  33
  -4   5  -7 15503.4 209.783  33
  -4   5  -8 13120.7 155.695  33
  -4   6  10 5031.62 89.2431  37
   4   6 -10 5384.14 127.707  50
  -4   6   9 3355.16 81.5037  27
  -4   6   9 3481.44 86.0763  37
   4   6  -9 3412.54 104.480  38
  -4   6   8 957.812 49.8141  27
   4   6  -8 1061.01 67.8926  38
  -4   6   8 952.862 51.4866  37
   4   6  -7 29713.4 354.078  38
  -4   6   7 29144.4 291.191  37
   4   6  -7 29808.4 376.037  49
   4   6  -7 29067.0 340.013  26
  -4   6   7 29270.3 272.753  27
   4   6  -6 24422.5 333.534  38
  -4   6   6 24002.6 277.190  37
   4   6  -6 24641.9 344.950  49
  -4   6   6 23817.5 254.779  27
  -4   6   6 24103.5 451.871  21
   4   6  -6 23494.7 315.205  26
  -4   6   5 987.476 94.0534  21
   4   6  -5 1182.04 75.8445  26
   4   6  -5 1083.62 78.2704  49
  -4   6   5 1090.63 65.0564  37
   4   6  -5 1149.20 84.1795  38
  -4   6   5 938.834 108.029  15
  -4   6   5 1256.20 63.5648  27
  -4   6   4 4431.15 190.118  21
   4   6  -4 4422.40 145.866  26
   4   6  -4 4364.54 143.685  49
  -4   6   4 4510.77 130.595  37
   4   6  -4 4325.55 151.520  38
  -4   6   4 3837.92 226.705  15
  -4   6   4 4501.95 114.863  27
   4   6  -3 930.744 76.9934  26
   4   6  -3 1031.45 70.6070  49
  -4   6   3 943.375 63.6550  37
   4   6  -3 595.338 114.150  13
  -4   6   3 815.104 107.718  15
  -4   6   3 1241.44 63.4501  27
  -4   6   2 18573.1 280.249  37
   4   6  -2 17366.2 262.780  49
  -4   6   2 18769.1 540.386  15
   4   6  -2 17974.4 580.101  13
   4   6  -2 17713.1 293.764  26
  -4   6   1 72878.7 579.171  37
  -4   6   1 70801.0 1111.24  15
   4   6  -1 73465.4 1176.14  13
  -4   6   1 72147.6 525.039  34
   4   6  -1 70164.5 574.357  26
  -4   6   0 8183.66 203.012  37
   4   6   0 8307.25 394.683  13
  -4   6   0 8336.20 176.981  34
  -4   6   0 8321.79 175.334  23
   4   6   0 8293.00 194.812  26
  -4   6  -1 8892.60 218.036  37
   4   6   1 9204.08 413.215  13
  -4   6  -1 8971.28 180.007  34
  -4   6  -1 9021.17 187.990  23
   4   6   1 8874.76 198.849  26
  -4   6  -2 6958.63 194.615  37
   4   6   2 7011.67 350.585  13
  -4   6  -2 6983.51 154.218  34
  -4   6  -2 7007.19 172.162  23
   4   6   2 6855.95 166.836  26
  -4   6  -3 12273.6 198.725  34
  -4   6  -3 12523.8 258.882  37
  -4   6  -3 12566.9 234.390  23
  -4   6  -4 5925.43 131.331  34
  -4   6  -4 6129.23 176.459  37
  -4   6  -4 6330.92 164.309  23
  -4   6  -5 1883.60 94.8397  37
  -4   6  -6 5820.78 124.821  33
  -4   6  -7 9760.48 136.753  33
  -4   7   8 10216.7 132.738  27
   4   7  -8 9791.69 162.097  38
  -4   7   7 2953.42 78.9044  27
   4   7  -7 3065.91 103.111  38
   4   7  -6 9258.59 186.499  38
  -4   7   6 9148.13 157.002  37
   4   7  -6 8849.15 174.288  26
   4   7  -6 9295.98 193.911  49
  -4   7   6 9159.68 146.874  27
   4   7  -5 5468.27 152.749  38
  -4   7   5 5441.18 129.565  37
   4   7  -5 5308.77 142.377  26
   4   7  -5 5328.29 149.591  49
  -4   7   5 5206.12 116.307  27
  -4   7   4 3852.25 115.111  37
   4   7  -4 3786.16 133.455  38
   4   7  -4 3879.22 127.728  26
   4   7  -4 3689.46 124.737  49
  -4   7   3 12631.9 217.054  37
   4   7  -3 12589.2 233.789  26
  -4   7   3 12506.9 215.623  34
  -4   7   2 20027.2 283.339  37
   4   7  -2 19425.9 294.624  26
  -4   7   2 20223.4 270.983  34
   4   7  -2 19356.9 267.932  49
  -4   7   1 5013.60 135.868  34
  -4   7   1 4871.17 144.186  37
  -4   7   1 4860.17 130.773  23
   4   7  -1 4823.39 148.769  26
  -4   7   0 18494.1 253.291  34
  -4   7   0 18261.7 283.876  37
  -4   7   0 18229.4 256.411  23
   4   7   0 18230.1 286.796  26
  -4   7  -1 12001.2 199.403  34
  -4   7  -1 11873.9 230.603  37
  -4   7  -1 12296.3 216.128  23
   4   7   1 12030.6 225.737  26
  -4   7  -2 3197.29 100.534  34
  -4   7  -2 3087.11 117.901  37
  -4   7  -2 3289.06 113.693  23
   4   7   2 3059.51 106.407  26
  -4   7  -3 194.859 27.8124  34
  -4   7  -3 210.116 33.5606  37
  -4   7  -3 213.504 31.6567  23
  -4   7  -4 2572.63 77.4154  34
  -4   7  -4 2622.54 96.0612  37
  -4   7  -5 456.579 34.2610  33
   4   8  -7 9630.95 134.983  38
  -4   8   7 10496.0 137.117  34
   4   8  -6 972.046 51.0607  38
   4   8  -6 993.225 53.6532  49
  -4   8   6 1094.86 50.4885  34
   4   8  -5 2382.74 83.5116  38
  -4   8   5 2446.77 79.7331  34
   4   8  -5 2405.69 85.9474  49
   4   8  -4 1962.16 81.6791  38
   4   8  -4 2021.59 77.9139  26
  -4   8   4 2012.13 75.5572  34
   4   8  -4 1942.90 78.2115  49
   4   8  -3 8545.26 170.364  38
  -4   8   3 8596.64 151.178  23
   4   8  -3 8617.59 164.614  26
  -4   8   3 8687.40 156.547  34
   4   8  -3 8598.86 160.229  49
   4   8  -2 7610.05 161.381  38
  -4   8   2 7531.08 145.324  23
   4   8  -2 7850.62 164.263  26
   4   8  -2 7477.77 145.829  49
  -4   8   2 7641.81 147.744  34
  -4   8   1 6631.34 136.799  34
  -4   8   1 6543.89 138.700  23
   4   8  -1 6659.35 155.122  26
  -4   8   0 388.635 37.2409  34
   4   8   0 412.244 40.4816  26
  -4   8  -1 1988.62 72.5403  34
   4   8   2 1576.17 52.1145  38
  -4   8  -2 2058.27 70.1926  34
  -4   8  -3 1853.97 59.2559  34
  -4   8  -4 775.174 35.9860  33
   4   9  -4 926.144 40.4407  38
  -4   9   4 952.907 38.0784  34
   4   9  -3 2035.27 62.7415  38
  -4   9   3 2105.21 59.0072  34
   4   9  -2 1187.64 50.0603  38
  -4   9   2 1149.52 45.4176  34
   4   9  -1 1020.19 45.8270  38
  -4   9   1 1055.00 43.4004  34
  -4   9   0 326.949 24.8134  34
   5  -8  -6 2267.93 69.8393  45
   5  -8  -5 57.9211 17.2862  45
  -5  -8   5 30.9165 12.9794  36
   5  -8  -4 163.015 24.8411  45
  -5  -8   4 157.346 23.0841  36
   5  -8  -3 194.787 26.2779  45
  -5  -8   3 162.329 24.8052  36
   5  -8  -2 2525.42 78.1218  45
  -5  -8   2 2634.28 83.4732  36
   5  -8  -1 4557.58 101.923  42
  -5  -8   1 4860.11 109.906  36
   5  -8   0 14230.6 179.750  42
  -5  -8   0 14501.3 179.378  36
   5  -8   1 6412.03 112.763  42
  -5  -8  -1 6750.92 112.560  36
   5  -7  -8 1501.97 63.3960  45
  -5  -7   8 1476.88 56.7911  46
   5  -7  -7 2200.37 92.7460  45
  -5  -7   7 2106.04 76.3494  46
  -5  -7   6 844.817 53.1010  46
   5  -7  -6 851.200 66.7891  45
  -5  -7   6 745.565 48.5818  36
  -5  -7   5 939.221 57.5580  46
   5  -7  -5 967.719 73.7860  45
  -5  -7   5 935.179 59.7365  36
  -5  -7   4 8523.55 168.751  46
  -5  -7   4 8502.16 179.512  36
   5  -7  -4 8647.34 212.517  45
   5  -7  -3 1958.35 95.9788  39
  -5  -7   3 1901.94 89.4595  36
  -5  -7   3 1852.96 77.9866  46
   5  -7  -2 4940.65 147.897  39
   5  -7  -2 4837.63 137.756  42
  -5  -7   2 4928.99 140.826  36
   5  -7  -1 14115.7 240.982  39
  -5  -7   1 14267.8 233.413  36
   5  -7  -1 13952.7 235.995  42
  -5  -7   0 3389.37 110.699  36
   5  -7   0 3216.78 112.925  42
  -5  -7  -1 487.058 44.3525  36
   5  -7   1 475.211 46.1300  42
  -5  -7  -2 8099.11 151.488  36
   5  -7   2 8009.78 159.094  42
  -5  -7  -3 2035.53 69.2660  36
   5  -7   3 2025.37 71.9019  42
  -5  -6  10 2009.46 61.5989  46
  -5  -6   9 3933.88 104.141  46
   5  -6  -9 3941.18 105.875  45
  -5  -6   8 19746.5 255.275  46
   5  -6  -8 19554.4 239.647  32
   5  -6  -8 19652.6 295.387  45
  -5  -6   7 5818.85 150.094  46
   5  -6  -7 5751.16 135.490  32
   5  -6  -7 6001.91 185.451  45
   5  -6  -6 7119.69 217.192  45
  -5  -6   6 6898.90 170.766  46
  -5  -6   6 6927.97 161.369  36
   5  -6  -6 6915.73 147.106  32
   5  -6  -6 6909.70 185.198  39
   5  -6  -5 10453.5 241.445  39
  -5  -6   5 10090.6 211.064  46
  -5  -6   5 10562.4 211.984  36
   5  -6  -4 4522.15 161.922  39
  -5  -6   4 4392.13 142.668  36
  -5  -6   4 4222.59 139.769  46
   5  -6  -3 2498.32 121.932  39
  -5  -6   3 2497.73 108.060  46
  -5  -6   3 2512.29 112.033  36
   5  -6  -3 2417.39 108.911  42
   5  -6  -2 18036.2 315.296  39
  -5  -6   2 18101.2 279.010  46
  -5  -6   2 18348.6 295.771  36
   5  -6  -2 18544.6 310.793  42
   5  -6  -1 10251.7 231.181  42
  -5  -6   1 9909.66 200.381  46
   5  -6  -1 10300.9 234.830  39
  -5  -6   1 10288.1 220.617  36
   5  -6  -1 9915.95 457.934  19
   5  -6   0 10785.1 230.282  39
   5  -6   0 11215.8 487.756  19
  -5  -6   0 10895.1 221.576  36
   5  -6   0 10736.0 234.489  42
   5  -6   1 17092.9 288.421  42
   5  -6   1 16912.2 256.052  29
   5  -6   1 17008.1 270.242  39
  -5  -6  -1 17256.4 267.395  36
   5  -6   1 17343.7 600.666  19
   5  -6   2 3418.44 108.772  39
  -5  -6  -2 3272.86 114.392  36
   5  -6   2 3038.54 119.176  42
   5  -6   2 3436.67 116.563  29
  -5  -6  -3 2695.66 98.0587  36
   5  -6   3 2711.01 104.634  42
   5  -6   3 2693.69 100.402  29
  -5  -6  -4 7139.00 142.792  36
   5  -6   4 7116.27 145.736  42
   5  -6   4 7180.52 150.289  29
  -5  -6  -5 2014.70 66.0643  36
   5  -6   5 1756.51 58.3221  42
   5  -5 -11 4207.61 95.5009  32
  -5  -5  11 3859.18 83.4124  46
  -5  -5  10 6712.77 123.511  40
  -5  -5  10 6769.79 137.736  46
  -5  -5   9 3205.87 96.5044  40
  -5  -5   9 3229.33 108.892  46
   5  -5  -9 3019.13 111.493  45
   5  -5  -9 3361.56 116.901  32
  -5  -5   8 1443.49 70.7478  40
  -5  -5   8 1512.73 84.2783  46
   5  -5  -8 1421.74 93.1984  45
   5  -5  -8 1352.95 80.8999  32
   5  -5  -7 15710.6 269.386  32
  -5  -5   7 15529.0 232.596  40
   5  -5  -7 14951.1 268.010  39
  -5  -5   6 12153.5 241.751  46
  -5  -5   6 11984.7 220.880  36
   5  -5  -6 12401.8 236.451  32
   5  -5  -6 11897.8 262.861  39
  -5  -5   6 12211.3 208.716  40
  -5  -5   5 3649.66 136.522  46
  -5  -5   5 3717.04 129.188  36
   5  -5  -5 3736.09 124.749  32
  -5  -5   5 3677.91 114.746  40
   5  -5  -5 3566.03 150.438  39
   5  -5  -4 7295.87 214.745  39
  -5  -5   4 7194.72 186.099  36
  -5  -5   4 7026.88 189.021  46
   5  -5  -3 2575.05 127.950  39
  -5  -5   3 2565.03 115.490  46
  -5  -5   3 2509.46 113.337  36
   5  -5  -3 2825.70 124.168  42
   5  -5  -2 8829.35 224.920  42
  -5  -5   2 8777.99 210.804  46
   5  -5  -2 8870.88 230.801  39
  -5  -5   2 8587.24 208.885  36
   5  -5  -1 27185.0 395.088  42
  -5  -5   1 26720.4 360.707  46
   5  -5  -1 27550.5 400.376  39
  -5  -5   1 27062.8 365.724  36
   5  -5  -1 27872.0 796.161  19
   5  -5   0 2251.26 231.166  19
   5  -5   0 2276.28 116.918  42
  -5  -5   0 2194.33 103.748  46
   5  -5   0 2190.95 113.675  39
  -5  -5   0 2300.49 109.752  36
   5  -5   0 2264.28 103.318  29
   5  -5   1 2111.16 112.807  42
   5  -5   1 2055.22 104.512  39
  -5  -5  -1 2106.28 103.822  36
   5  -5   1 2265.09 235.060  19
   5  -5   2 25727.2 367.728  29
   5  -5   2 26747.9 375.464  42
   5  -5   2 26174.5 341.632  22
   5  -5   2 27245.2 341.918  39
  -5  -5  -2 26592.4 343.568  36
   5  -5   2 26067.8 767.986  19
   5  -5   3 4350.84 148.258  29
  -5  -5  -3 4294.82 136.164  36
   5  -5   3 4180.14 294.881  19
   5  -5   3 4482.90 148.638  42
  -5  -5  -4 4219.30 126.977  36
   5  -5   4 4338.36 139.619  29
   5  -5   4 4294.04 134.971  42
  -5  -5  -5 5330.38 130.070  36
   5  -5   5 5518.78 143.912  29
   5  -5   5 5386.05 127.966  42
   5  -5   6 379.181 30.5730  47
  -5  -5  -6 373.748 32.0606  36
   5  -5   6 384.870 34.1588  29
  -5  -4  11 775.027 44.5722  46
   5  -4 -11 839.955 57.3691  32
  -5  -4  11 800.100 46.3804  40
  -5  -4  10 7958.93 163.727  46
   5  -4 -10 8444.05 199.118  32
  -5  -4  10 8023.94 155.675  40
   5  -4  -9 2169.05 101.089  45
  -5  -4   9 2227.95 98.6852  46
   5  -4  -9 2242.45 112.387  32
  -5  -4   9 2195.76 89.1172  40
   5  -4  -8 7211.71 212.080  45
  -5  -4   8 7281.03 168.330  40
   5  -4  -8 7277.28 204.439  32
  -5  -4   8 7436.53 188.388  46
  -5  -4   7 13425.3 231.119  40
   5  -4  -7 13398.6 274.383  32
   5  -4  -6 5366.16 180.934  39
  -5  -4   6 5428.85 149.188  40
  -5  -4   6 5691.43 170.891  46
   5  -4  -6 5614.62 173.455  32
   5  -4  -5 22218.8 374.364  39
  -5  -4   5 21486.2 294.936  40
  -5  -4   5 22683.3 601.105   5
  -5  -4   5 22073.4 328.245  46
   5  -4  -5 22334.5 328.637  32
  -5  -4   4 104.821 44.5272   5
  -5  -4   4 121.113 28.7092  40
   5  -4  -4 94.8908 37.4354  39
  -5  -4   4 107.667 27.1696  36
  -5  -4   4 125.749 36.9286  46
   5  -4  -3 1884.38 102.716  42
  -5  -4   3 2125.62 196.243   5
  -5  -4   3 1880.18 87.0145  40
   5  -4  -3 2002.85 111.241  39
  -5  -4   3 1899.01 94.7215  36
  -5  -4   3 1950.11 101.579  46
   5  -4  -2 10643.8 471.231  19
  -5  -4   2 10246.5 227.681  46
   5  -4  -2 10820.7 245.914  42
   5  -4  -2 10664.6 431.987   4
  -5  -4   2 10765.2 466.039   5
   5  -4  -2 10449.8 246.061  39
  -5  -4   2 9889.38 196.649  40
  -5  -4   2 10012.1 218.617  36
  -5  -4   2 10078.3 216.850  31
   5  -4  -1 76710.5 1286.78  19
  -5  -4   1 75070.4 616.859  46
   5  -4  -1 78238.2 663.146  42
   5  -4  -1 77567.4 1191.36   4
  -5  -4   1 78761.8 1267.24   5
   5  -4  -1 76912.5 658.262  39
  -5  -4   1 76111.8 601.794  36
  -5  -4   1 77078.2 634.022  31
  -5  -4   0 17856.8 635.467   5
  -5  -4   0 17610.1 298.534  46
   5  -4   0 17699.6 319.778  42
   5  -4   0 17852.8 314.234  39
  -5  -4   0 17583.4 292.826  36
  -5  -4   0 17806.4 324.079  31
  -5  -4  -1 6793.69 211.543  31
   5  -4   1 6736.20 199.054  42
   5  -4   1 7088.81 183.095  22
   5  -4   1 6767.57 189.744  39
  -5  -4  -1 6868.37 182.227  36
   5  -4   1 6606.10 387.677  19
  -5  -4  -2 1463.21 104.440  31
   5  -4   2 1442.11 94.8183  42
   5  -4   2 1390.05 86.7179  22
   5  -4   2 1623.71 88.8077  39
  -5  -4  -2 1440.69 85.7779  36
   5  -4   2 1386.97 179.322  19
   5  -4   3 4922.24 170.998  29
   5  -4   3 4799.78 159.095  22
   5  -4   3 4873.61 163.528  42
  -5  -4  -3 4763.22 149.985  36
   5  -4   3 5346.78 343.970  19
   5  -4   4 7493.08 203.301  29
   5  -4   4 7627.75 196.186  22
  -5  -4  -4 7366.51 168.517  41
   5  -4   4 7164.76 187.145  42
  -5  -4  -4 7212.38 178.558  36
   5  -4   4 7429.89 398.221  19
  -5  -4  -5 1643.72 76.6871  41
   5  -4   5 1773.79 84.0857  42
  -5  -4  -5 1764.20 86.9093  36
   5  -4   5 1641.34 90.5854  29
   5  -4   5 1769.69 90.5932  22
  -5  -4  -6 6588.04 133.155  41
   5  -4   6 6893.91 160.857  29
  -5  -4  -6 6883.54 150.843  36
  -5  -4  -7 1221.28 45.7017  41
   5  -3 -12 167.783 26.4852  32
  -5  -3  12 175.699 23.7336  40
  -5  -3  11 3137.14 77.4120  44
  -5  -3  11 3154.30 91.8973  46
   5  -3 -11 3094.39 122.963  32
  -5  -3  11 3098.85 94.6472  40
  -5  -3  10 1081.47 51.8191  44
  -5  -3  10 1088.87 64.2354  46
   5  -3 -10 1037.96 84.8540  32
  -5  -3  10 1069.22 65.2795  40
  -5  -3   9 17571.8 215.732  44
  -5  -3   9 17777.8 277.956  46
   5  -3  -9 18351.0 344.428  32
  -5  -3   9 17790.9 261.500  40
  -5  -3   8 558.466 41.2604  44
  -5  -3   8 533.356 52.2765  40
   5  -3  -8 637.619 71.9359  32
  -5  -3   8 523.676 55.6107  46
  -5  -3   7 2020.67 92.6418  40
  -5  -3   7 2068.70 103.357  46
   5  -3  -7 1942.52 112.959  32
  -5  -3   6 106.573 29.2595  40
   5  -3  -6 175.029 39.6256  39
  -5  -3   6 171.870 44.5810   5
  -5  -3   6 122.076 36.0703  46
   5  -3  -6 207.503 42.0377  32
  -5  -3   5 16270.5 276.466  46
   5  -3  -5 16736.5 317.005  39
  -5  -3   5 15798.5 250.790  40
  -5  -3   5 15932.4 461.283   5
   5  -3  -5 17121.8 667.487  16
   5  -3  -5 16203.3 288.522  32
  -5  -3   4 1934.67 99.0114  46
  -5  -3   4 1931.04 166.513   5
   5  -3  -4 2027.69 110.647  39
  -5  -3   4 1913.40 89.2205  40
   5  -3  -4 2118.01 98.8367  32
  -5  -3   4 1819.08 78.2355  31
   5  -3  -4 2221.07 236.494  16
   5  -3  -3 10145.7 470.642  16
  -5  -3   3 9610.92 212.038  46
   5  -3  -3 10663.8 229.868  42
   5  -3  -3 10062.0 414.730   4
  -5  -3   3 10309.7 398.653   5
  -5  -3   3 9640.63 195.573  40
   5  -3  -3 10278.8 234.188  39
  -5  -3   3 10080.2 198.673  36
  -5  -3   3 9602.51 187.765  31
   5  -3  -2 2957.13 251.580  16
  -5  -3   2 2848.99 118.597  46
   5  -3  -2 2841.68 122.528  42
   5  -3  -2 2920.99 233.029   4
  -5  -3   2 3178.55 236.578   5
   5  -3  -2 3076.75 126.925  39
  -5  -3   2 2987.49 108.855  40
  -5  -3   2 3020.84 112.936  36
  -5  -3   2 2895.35 111.747  31
   5  -3  -1 51705.3 1003.23  16
   5  -3  -1 49802.5 942.685   4
  -5  -3   1 52164.9 983.507   5
  -5  -3   1 50256.2 489.959  46
   5  -3  -1 49180.3 506.716  42
   5  -3  -1 50333.4 505.384  39
  -5  -3   1 49241.3 451.331  40
  -5  -3   1 50069.1 454.980  36
  -5  -3   1 50079.5 494.067  31
   5  -3   0 44293.4 904.838  16
  -5  -3   0 43474.1 927.685   5
  -5  -3   0 41652.7 455.735  46
   5  -3   0 43027.6 477.854  42
   5  -3   0 44463.4 442.648  22
   5  -3   0 42949.0 469.010  39
  -5  -3   0 43579.1 436.651  36
  -5  -3   0 42988.9 489.664  31
  -5  -3  -1 20334.7 674.683   5
  -5  -3  -1 19101.3 321.088  46
   5  -3   1 19365.8 325.249  42
   5  -3   1 19240.8 312.529  22
   5  -3   1 19076.1 311.428  39
  -5  -3  -1 18951.0 294.218  36
  -5  -3  -1 19041.8 347.544  31
  -5  -3  -2 2099.71 224.636   5
  -5  -3  -2 2210.36 128.500  31
  -5  -3  -2 2292.67 104.549  41
   5  -3   2 2278.29 115.260  42
   5  -3   2 2226.48 113.733  22
   5  -3   2 2302.99 106.111  39
  -5  -3  -2 2167.44 104.323  36
   5  -3   2 2292.18 228.642  12
  -5  -3  -3 2456.08 138.540  31
   5  -3   3 2292.36 117.967  22
   5  -3   3 2215.08 113.772  42
  -5  -3  -3 2246.01 108.750  41
  -5  -3  -3 2325.81 108.224  36
   5  -3   4 18520.0 326.944  22
   5  -3   4 18314.3 308.100  42
  -5  -3  -4 18509.6 311.528  41
  -5  -3  -4 18199.4 292.457  36
   5  -3   4 18461.4 632.915  19
   5  -3   5 402.582 54.5642  29
   5  -3   5 398.365 48.5631  22
   5  -3   5 404.782 45.4829  42
  -5  -3  -5 399.986 49.5575  41
  -5  -3  -5 400.572 52.7164  36
  -5  -3  -6 2396.53 100.512  41
  -5  -3  -6 2455.53 101.155  36
   5  -3   6 2638.31 109.641  22
   5  -3   6 2386.34 106.096  29
   5  -3   7 2806.38 94.5251  29
  -5  -3  -7 2849.87 92.0684  41
  -5  -2  12 1936.74 61.5731  44
  -5  -2  12 1985.02 71.5036  40
   5  -2 -12 1881.33 65.4361  52
   5  -2 -12 2036.18 88.2972  32
  -5  -2  11 9057.24 153.447  44
  -5  -2  11 9202.44 156.425  25
  -5  -2  11 9317.70 171.166  40
   5  -2 -11 9567.22 175.259  52
   5  -2 -11 9412.55 224.917  32
  -5  -2  10 4434.06 117.818  44
  -5  -2  10 4381.44 117.784  25
  -5  -2  10 4401.23 128.909  40
  -5  -2  10 4319.86 122.331  46
   5  -2 -10 4473.52 173.913  32
  -5  -2   9 2710.28 96.3857  44
  -5  -2   9 2795.50 97.6912  25
  -5  -2   9 2719.84 107.943  40
  -5  -2   9 2872.46 108.940  46
   5  -2  -9 2765.83 143.229  32
  -5  -2   8 26528.0 295.273  44
  -5  -2   8 27190.8 296.986  25
  -5  -2   8 27516.8 335.297  40
  -5  -2   8 27166.6 348.238  46
   5  -2  -8 27508.6 434.027  32
  -5  -2   7 14718.0 260.348  46
  -5  -2   7 14708.9 214.054  44
  -5  -2   7 14523.4 207.252  25
  -5  -2   7 14830.6 241.248  40
   5  -2  -7 14048.1 608.686  16
   5  -2  -7 14674.9 304.954  32
  -5  -2   6 327.462 43.2625  46
  -5  -2   6 489.765 40.9682  44
   5  -2  -6 554.228 57.2663  39
  -5  -2   6 411.645 45.2324  40
   5  -2  -6 455.810 115.968  16
   5  -2  -6 345.808 50.5985  32
  -5  -2   5 19185.7 289.410  46
  -5  -2   5 18323.6 228.133  44
  -5  -2   5 18672.1 458.505   5
   5  -2  -5 18879.4 597.683   4
   5  -2  -5 18878.7 318.888  39
  -5  -2   5 18446.3 267.496  40
   5  -2  -5 19335.3 675.907  16
   5  -2  -5 18822.5 307.352  32
  -5  -2   4 24155.1 319.901  46
  -5  -2   4 22780.2 250.841  44
   5  -2  -4 24287.5 345.471  39
  -5  -2   4 22777.9 292.773  40
   5  -2  -4 23556.8 320.930  32
   5  -2  -4 24192.5 709.417  16
   5  -2  -4 22959.0 638.440   4
  -5  -2   4 23846.7 526.513   5
   5  -2  -3 8936.93 393.458   4
  -5  -2   3 8883.74 335.025   5
  -5  -2   3 9296.27 197.592  46
  -5  -2   3 9270.39 185.275  40
   5  -2  -3 9093.03 203.196  39
   5  -2  -3 9329.08 417.042  16
   5  -2  -3 9832.55 400.082  18
  -5  -2   3 8996.00 165.339  31
   5  -2  -2 14021.4 495.658   4
  -5  -2   2 14613.5 450.171   5
  -5  -2   2 13817.2 242.874  46
   5  -2  -2 14219.0 249.729  39
  -5  -2   2 13820.9 227.742  40
  -5  -2   2 13773.7 218.927  31
   5  -2  -2 13802.5 486.579  16
   5  -2  -2 13795.1 487.365  18
   5  -2  -1 37891.3 796.802  16
   5  -2  -1 39062.1 835.161  18
   5  -2  -1 39909.4 831.012   4
  -5  -2   1 38929.2 784.797   5
  -5  -2   1 38891.3 413.128  46
   5  -2  -1 39412.6 415.946  39
  -5  -2   1 38490.5 392.383  40
  -5  -2   1 38142.3 366.838  36
  -5  -2   1 38840.3 398.362  31
   5  -2   0 54830.8 938.073  16
   5  -2   0 53262.9 1008.02  18
  -5  -2   0 54228.9 507.831  46
  -5  -2   0 53848.8 514.236  31
   5  -2   0 54241.5 495.533  39
  -5  -2   0 53641.2 452.000  36
   5  -2   0 53976.4 963.646   4
  -5  -2   0 53774.8 958.628   5
   5  -2   0 54303.0 955.727   9
  -5  -2  -1 4610.69 305.908   5
  -5  -2  -1 4515.28 142.796  41
  -5  -2  -1 4452.23 161.934  31
   5  -2   1 4549.98 145.474  39
  -5  -2  -1 4456.60 137.418  36
   5  -2   1 4772.60 273.884  16
   5  -2   1 4862.55 319.814  18
  -5  -2  -2 22471.5 698.054   5
  -5  -2  -2 23025.3 384.885  31
  -5  -2  -2 22215.9 336.563  41
   5  -2   2 22595.7 318.631  39
  -5  -2  -2 22028.2 316.571  36
   5  -2   2 23197.7 705.563  18
  -5  -2  -3 5565.24 359.230   5
  -5  -2  -3 6157.55 211.943  31
   5  -2   3 6020.24 188.769  22
  -5  -2  -3 6095.27 187.753  41
  -5  -2  -3 5953.02 170.602  36
   5  -2   3 6187.31 398.474  12
  -5  -2  -4 21090.8 394.721  31
   5  -2   4 20996.6 352.219  22
  -5  -2  -4 20551.7 349.410  41
   5  -2   4 20254.8 328.073  42
  -5  -2  -4 20157.8 315.303  36
  -5  -2  -5 1832.38 99.7711  36
   5  -2   5 1851.31 92.9055  42
  -5  -2  -5 1716.08 102.834  41
   5  -2   5 1738.36 102.336  22
  -5  -2  -6 1641.42 92.7517  41
  -5  -2  -6 1698.16 91.6237  36
   5  -2   6 1749.34 96.2441  22
   5  -2   6 1632.47 92.0783  29
   5  -2   7 21049.4 273.382  29
  -5  -2  -7 22298.9 287.359  41
  -5  -2  -8 5296.54 112.366  41
  -5  -1  13 3454.77 72.0784  44
  -5  -1  12 2209.04 71.2240  44
  -5  -1  12 2223.11 77.2181  40
   5  -1 -12 2275.71 84.1604  52
   5  -1 -12 2105.62 93.9196  32
  -5  -1  11 2661.56 88.7611  44
  -5  -1  11 2637.79 89.8192  25
  -5  -1  11 2574.22 94.0102  40
   5  -1 -11 2616.96 104.963  52
   5  -1 -11 2525.86 122.923  32
  -5  -1  10 1621.85 76.4013  44
  -5  -1  10 1567.59 74.5062  25
  -5  -1  10 1612.97 80.0025  40
   5  -1 -10 1576.95 86.8018  52
   5  -1 -10 1531.98 107.471  32
  -5  -1   9 18646.2 256.578  44
  -5  -1   9 18859.4 258.289  25
  -5  -1   9 18978.6 276.140  40
   5  -1  -9 19171.4 299.599  52
   5  -1  -9 18785.1 368.919  32
  -5  -1   8 12491.6 210.119  44
  -5  -1   8 12006.5 205.091  25
   5  -1  -8 12031.8 270.447  38
  -5  -1   8 12360.1 224.285  40
   5  -1  -8 12758.0 298.080  32
  -5  -1   8 11958.4 475.094   3
  -5  -1   7 53908.6 955.808   3
  -5  -1   7 53663.7 464.680  46
  -5  -1   7 52755.8 419.386  44
  -5  -1   7 51258.9 408.746  25
  -5  -1   7 53681.2 461.371  40
   5  -1  -7 52568.3 541.096  38
   5  -1  -7 53460.5 1135.97  16
   5  -1  -7 52318.6 576.325  32
  -5  -1   6 11496.9 214.804  46
  -5  -1   6 11280.6 186.640  44
   5  -1  -6 10863.0 487.357   4
   5  -1  -6 11491.4 242.174  38
  -5  -1   6 11848.6 212.885  40
   5  -1  -6 11825.0 241.364  39
   5  -1  -6 11439.0 254.999  32
  -5  -1   5 27876.7 330.968  46
  -5  -1   5 27593.6 284.114  44
   5  -1  -5 27303.1 745.702   4
   5  -1  -5 28128.8 354.137  38
   5  -1  -5 28375.3 359.928  39
  -5  -1   5 28002.8 319.636  40
   5  -1  -5 28615.4 751.050  16
  -5  -1   5 29422.2 475.071  15
   5  -1  -5 28628.5 373.510  32
   5  -1  -4 16363.8 267.706  51
  -5  -1   4 15938.2 248.966  46
  -5  -1   4 15535.4 210.275  44
   5  -1  -4 15832.8 540.860   4
  -5  -1   4 15626.0 393.074   5
   5  -1  -4 15141.1 251.260  39
  -5  -1   4 15739.4 236.539  40
   5  -1  -4 15928.8 248.930  38
  -5  -1   4 16123.8 339.979  15
   5  -1  -4 15682.5 258.858  32
  -5  -1   3 13759.8 195.926  44
   5  -1  -3 14133.3 234.865  39
  -5  -1   3 14103.4 222.053  40
   5  -1  -3 14862.4 243.051  51
  -5  -1   3 14458.4 236.763  46
  -5  -1   3 14260.5 328.369  15
   5  -1  -3 14771.0 462.517  18
   5  -1  -3 14774.8 502.930   4
  -5  -1   3 14574.0 384.345   5
   5  -1  -2 25783.4 650.746   4
  -5  -1   2 25615.6 542.895   5
   5  -1  -2 26301.6 313.668  51
  -5  -1   2 26103.8 322.660  46
  -5  -1   2 25038.0 300.024  40
  -5  -1   2 26289.9 477.665  15
   5  -1  -2 26001.3 641.335  18
  -5  -1   2 25112.2 270.704  31
   5  -1  -1 15697.9 510.620   4
  -5  -1   1 16452.4 467.642   5
   5  -1  -1 16238.4 491.750   9
   5  -1  -1 16138.9 241.921  51
  -5  -1   1 16184.8 260.635  46
  -5  -1   1 15804.4 249.017  40
  -5  -1   1 15605.4 233.254  31
  -5  -1   1 16681.5 418.783  15
   5  -1  -1 15835.2 511.536  18
   5  -1   0 77493.5 1171.56  18
   5  -1   0 77995.3 1146.45   4
  -5  -1   0 79519.5 1095.84   5
   5  -1   0 79721.5 1173.22   9
  -5  -1   0 80357.2 609.083  46
  -5  -1   0 76923.1 513.978  36
   5  -1   0 75977.5 545.024  39
  -5  -1   0 77484.8 574.034  31
   5  -1   1 2652.65 218.169   4
   5  -1   1 2262.21 215.327   9
  -5  -1  -1 2707.48 221.318   5
  -5  -1  -1 2529.89 115.511  31
   5  -1   1 2360.15 98.9661  39
  -5  -1  -1 2375.96 97.9780  36
   5  -1   1 2461.33 220.642  18
   5  -1   2 19653.3 608.287   4
   5  -1   2 20031.4 663.022   9
  -5  -1  -2 20595.8 630.484   5
  -5  -1  -2 20156.3 319.623  41
  -5  -1  -2 20659.5 352.936  31
   5  -1   2 20694.7 293.125  39
  -5  -1  -2 20612.0 301.305  36
   5  -1   2 20693.0 648.110  18
  -5  -1  -3 23554.5 401.092  31
   5  -1   3 23110.8 658.412   4
   5  -1   3 22583.2 736.172   9
  -5  -1  -3 22386.8 331.603  36
  -5  -1  -3 23138.7 364.246  41
   5  -1   3 24107.3 718.684  18
  -5  -1  -4 5212.94 178.054  41
  -5  -1  -4 5356.20 201.232  31
  -5  -1  -4 5100.89 163.952  36
   5  -1   4 5546.45 356.443  18
  -5  -1  -5 43183.6 468.385  36
  -5  -1  -5 43437.7 503.945  41
   5  -1   5 42334.8 436.619  42
   5  -1   5 42425.6 505.819  22
  -5  -1  -6 7179.99 196.686  41
   5  -1   6 7040.66 193.378  22
  -5  -1  -7 5590.90 153.990  41
   5  -1   7 5197.51 136.906  29
  -5  -1  -8 3443.73 99.5322  41
   5   0 -13 11784.6 157.046  52
  -5   0  13 12786.2 145.664  44
  -5   0  12 6695.27 126.301  44
  -5   0  12 6760.38 129.303  40
   5   0 -12 6806.84 155.320  52
   5   0 -12 6374.24 159.749  32
  -5   0  11 2085.21 81.1515  44
  -5   0  11 2086.10 82.0928  25
  -5   0  11 2137.16 83.2747  40
   5   0 -11 2104.74 99.5486  52
   5   0 -11 2075.89 111.946  32
  -5   0  10 2958.25 102.749  44
  -5   0  10 2986.06 103.480  25
  -5   0  10 2890.83 103.646  40
   5   0 -10 2991.38 130.700  50
   5   0 -10 3090.25 148.725  32
  -5   0   9 43150.0 391.727  44
  -5   0   9 42986.0 396.261  25
   5   0  -9 42779.6 512.274  38
  -5   0   9 42391.0 405.458  40
   5   0  -9 42711.6 485.414  50
   5   0  -9 41567.9 545.277  32
  -5   0   8 85814.8 548.684  44
  -5   0   8 85660.1 554.316  25
  -5   0   8 86285.3 579.697  40
   5   0  -8 85615.1 706.553  38
   5   0  -8 87287.2 676.834  50
   5   0  -8 85573.3 760.038  32
   5   0  -7 17861.2 674.357   2
   5   0  -7 18497.9 294.226  50
  -5   0   7 18115.5 247.817  44
  -5   0   7 18156.2 246.752  25
  -5   0   7 18332.8 268.010  40
   5   0  -7 18453.3 320.253  38
   5   0  -7 19015.8 644.283  16
   5   0  -7 18413.6 336.015  32
  -5   0   6 6197.97 140.419  44
  -5   0   6 5672.43 145.391  40
   5   0  -6 5959.78 159.841  39
   5   0  -6 6014.77 174.533  38
   5   0  -6 6004.87 176.256  51
   5   0  -6 6148.92 158.296  50
  -5   0   6 5839.64 233.101  15
   5   0  -5 26985.7 343.222  51
  -5   0   5 25795.2 303.286  46
  -5   0   5 25980.9 278.665  44
   5   0  -5 26180.2 754.894   4
  -5   0   5 26147.9 308.583  40
   5   0  -5 27169.4 343.418  38
  -5   0   5 27102.5 249.477  37
  -5   0   5 25197.2 473.860  15
  -5   0   4 318.535 33.6770  44
  -5   0   4 293.036 35.7027  40
   5   0  -4 292.368 37.2667  38
  -5   0   4 293.288 58.1793  15
   5   0  -4 301.270 38.8222  51
  -5   0   4 334.851 36.4464  46
  -5   0   3 32536.4 305.894  44
  -5   0   3 31651.6 329.976  40
   5   0  -3 32947.6 349.074  51
  -5   0   3 30977.7 338.838  46
   5   0  -3 32777.9 674.887  18
  -5   0   3 31737.1 516.174  15
   5   0  -3 33140.7 765.718   4
  -5   0   3 32211.1 530.959   5
  -5   0   2 11101.4 199.452  40
  -5   0   2 11442.6 211.918  46
   5   0  -2 11246.6 198.230  51
   5   0  -2 11230.4 408.498  18
  -5   0   2 11414.6 324.383  15
   5   0  -2 11335.8 433.736   4
  -5   0   2 11666.4 334.818   5
   5   0  -1 4891.75 283.419   4
  -5   0   1 4842.36 234.570   5
   5   0  -1 4673.73 125.397  51
  -5   0   1 4817.59 144.767  46
  -5   0   1 5018.63 141.893  40
   5   0  -1 4726.96 275.842  18
  -5   0   1 4912.88 232.766  15
  -5   0   1 4629.23 121.317  31
  -5   0   0 133.469 41.1120   5
   5   0   0 66.0455 47.7342   4
   5   0   0 9.25643 68.4804  18
  -5   0   0 161.255 63.3437  15
  -5   0   0 84.9729 26.5154  31
   5   0   1 3185.87 244.629   4
   5   0   1 3312.97 267.201   9
  -5   0  -1 3445.93 114.952  36
   5   0   1 3146.37 249.593  18
  -5   0  -1 3255.83 126.579  31
   5   0   2 20057.7 608.017   4
   5   0   2 19233.2 662.209   9
  -5   0  -2 19361.4 334.033  31
  -5   0  -2 19278.9 292.519  36
   5   0   2 19561.4 628.354  18
   5   0   3 39.5750 28.8306   4
   5   0   3 46.3529 54.9509   9
  -5   0  -3 124.095 39.5853  31
  -5   0  -3 27.8593 29.8235  41
  -5   0  -3 32.1537 28.0428  36
  -5   0  -4 28981.2 408.434  41
  -5   0  -4 29343.3 395.349  36
   5   0   4 29219.2 799.700  18
  -5   0  -4 28961.2 454.874  31
   5   0   5 11956.5 492.188  18
  -5   0  -5 12183.2 267.500  41
   5   0   6 4448.98 154.744  22
  -5   0  -6 4470.23 157.913  41
  -5   0  -7 802.393 64.8253  41
  -5   0  -8 14260.7 205.728  41
  -5   1  13 3473.62 66.4482  37
   5   1 -13 3442.65 87.9162  52
  -5   1  12 2268.48 74.7694  44
   5   1 -12 2015.56 84.8005  32
   5   1 -12 2134.31 89.8794  52
  -5   1  11 2705.80 91.1238  44
   5   1 -11 2795.84 116.443  50
   5   1 -11 2703.69 123.144  32
  -5   1  10 1614.54 77.8482  44
  -5   1  10 1609.32 75.9144  25
  -5   1  10 1582.24 72.7567  40
   5   1 -10 1565.96 99.7590  38
   5   1 -10 1644.49 97.9234  50
   5   1 -10 1489.02 102.491  32
  -5   1   9 19163.2 260.751  44
  -5   1   9 19117.3 220.203  24
  -5   1   9 19130.9 261.943  25
   5   1  -9 19307.5 341.818  38
  -5   1   9 19142.2 264.095  40
   5   1  -9 18483.8 320.885  50
   5   1  -9 19167.2 364.440  32
   5   1  -8 12721.6 260.924  50
  -5   1   8 12577.0 212.882  44
  -5   1   8 12485.4 174.642  24
  -5   1   8 11946.6 209.030  25
  -5   1   8 12593.8 218.829  40
   5   1  -8 12597.8 271.386  38
   5   1  -8 12365.9 285.365  32
   5   1  -7 52640.8 521.690  51
   5   1  -7 54729.0 509.484  50
  -5   1   7 53967.1 429.211  44
  -5   1   7 53402.8 342.435  24
  -5   1   7 51582.3 441.061  40
   5   1  -7 53329.6 529.802  38
   5   1  -7 53620.0 1005.94  16
   5   1  -6 11418.8 230.602  51
   5   1  -6 11930.3 222.597  50
  -5   1   6 11337.4 195.428  44
   5   1  -6 12214.9 243.484  38
  -5   1   6 11365.8 205.469  40
  -5   1   6 11271.5 178.990  37
  -5   1   6 11693.1 344.871  15
   5   1  -5 28148.2 342.689  51
  -5   1   5 27796.9 294.283  44
   5   1  -5 27989.3 815.736   4
   5   1  -5 28698.7 350.958  38
  -5   1   5 27706.4 314.809  40
  -5   1   5 27501.5 265.535  37
   5   1  -4 15799.5 245.803  51
  -5   1   4 16133.7 221.070  44
  -5   1   4 15742.2 234.351  40
   5   1  -4 16560.6 250.927  38
  -5   1   4 15855.9 195.420  37
  -5   1   4 15861.1 391.809  15
  -5   1   3 13445.0 354.619  15
   5   1  -3 14308.1 226.391  51
  -5   1   3 13688.7 203.989  44
   5   1  -3 13788.9 216.992  38
  -5   1   3 14279.2 225.022  40
   5   1  -3 14386.4 221.160  26
  -5   1   3 13783.1 180.628  37
   5   1  -3 14670.8 529.860   4
  -5   1   3 14855.2 332.921   5
  -5   1   2 25405.0 325.265  46
   5   1  -2 26073.4 687.920   4
  -5   1   2 24046.5 244.263  37
  -5   1   2 25793.8 313.717  40
   5   1  -2 27359.6 606.413  13
  -5   1   2 25572.5 504.760  15
   5   1  -2 25708.4 279.497  26
   5   1  -1 15469.1 202.927  26
  -5   1   1 14979.5 203.434  37
  -5   1   1 15485.9 218.791  31
   5   1  -1 16366.3 469.463  13
  -5   1   1 15535.1 421.011  15
   5   1  -1 15945.0 530.217   4
   5   1   0 79007.5 1179.88   4
   5   1   0 74735.0 483.941  51
  -5   1   0 74615.9 491.129  37
  -5   1   0 78808.6 547.458  31
  -5   1   0 78029.3 1029.14  15
   5   1   0 78527.8 1026.02  13
  -5   1  -1 2346.99 94.9327  37
  -5   1  -1 2489.50 109.995  31
   5   1   1 2348.47 178.874  13
   5   1   1 2561.47 219.386   4
   5   1   2 20805.7 612.779   4
   5   1   2 19746.0 670.814   9
  -5   1  -2 20530.5 293.841  37
  -5   1  -2 20413.5 339.263  31
  -5   1  -2 21421.2 314.422  36
   5   1   2 21465.6 647.766  18
   5   1   2 20397.7 522.080  13
  -5   1  -3 22994.8 378.016  31
  -5   1  -3 23271.1 330.482  37
   5   1   3 22213.5 730.617   9
   5   1   3 22974.8 691.347  18
  -5   1  -4 5178.07 172.097  41
  -5   1  -4 4950.17 181.234  31
   5   1   4 4635.61 311.757  18
  -5   1  -4 5191.69 160.608  37
   5   1   5 40563.4 872.289  18
  -5   1  -5 42850.2 491.843  41
   5   1   6 6515.73 180.888  22
  -5   1  -6 7031.38 193.162  41
  -5   1  -7 5446.76 152.142  41
  -5   1  -8 3255.62 95.3153  41
  -5   2  12 2033.64 63.5000  37
  -5   2  12 2001.01 65.7815  44
   5   2 -12 2020.00 84.9106  52
  -5   2  11 9473.29 160.134  44
   5   2 -11 9554.38 204.979  50
  -5   2  10 4511.79 121.630  44
  -5   2  10 4433.90 105.739  24
   5   2 -10 4502.52 157.143  38
   5   2 -10 4756.87 157.749  50
   5   2 -10 4425.12 166.280  32
  -5   2   9 2725.15 99.8449  44
  -5   2   9 2660.17 85.6202  24
   5   2  -9 2753.04 129.374  38
   5   2  -9 2688.40 124.036  50
   5   2  -9 2674.42 136.122  32
   5   2  -8 27230.7 387.277  38
  -5   2   8 26715.1 270.423  24
   5   2  -8 27755.2 373.480  51
   5   2  -8 26614.7 377.927  50
  -5   2   8 26420.8 308.501  44
  -5   2   7 14777.6 228.926  44
  -5   2   7 14766.9 193.687  24
   5   2  -7 14609.1 276.736  38
   5   2  -7 14643.3 265.423  51
   5   2  -7 15044.1 672.716   2
   5   2  -6 391.159 112.956   2
   5   2  -6 361.698 45.6550  51
  -5   2   6 442.785 43.7047  44
   5   2  -6 475.489 54.4055  38
  -5   2   6 402.338 40.3474  37
  -5   2   6 284.766 64.5973  15
  -5   2   5 19748.8 459.302  15
   5   2  -5 18432.7 278.200  51
  -5   2   5 19167.4 255.229  44
  -5   2   5 19406.4 199.760  24
  -5   2   5 18307.7 255.988  40
   5   2  -5 19094.6 287.543  38
  -5   2   5 18846.9 232.842  37
   5   2  -5 19405.0 283.335  26
   5   2  -4 24399.3 600.157  13
  -5   2   4 24379.2 508.370  15
  -5   2   4 23638.6 279.173  44
   5   2  -4 23996.7 298.826  26
   5   2  -4 23919.2 304.767  38
  -5   2   4 23348.2 291.123  40
  -5   2   4 23890.9 254.464  37
   5   2  -4 24374.5 754.027   4
  -5   2   3 9086.26 174.402  44
   5   2  -3 9219.56 180.754  38
  -5   2   3 8918.60 155.030  37
  -5   2   3 8764.99 185.455  40
   5   2  -3 9177.11 180.157  26
   5   2  -3 9607.45 458.403   4
   5   2  -3 9675.10 376.105  13
  -5   2   3 8865.75 304.258  15
  -5   2   2 13577.6 195.180  37
   5   2  -2 13836.7 211.596  26
   5   2  -2 13827.0 535.046   4
   5   2  -2 13607.1 446.765  13
  -5   2   2 13902.4 392.683  15
  -5   2   1 38340.5 347.452  31
  -5   2   1 37578.1 341.592  37
   5   2  -1 37759.8 330.972  26
   5   2  -1 38713.2 873.604   4
  -5   2   1 37016.9 677.190  15
  -5   2   0 53567.7 452.262  31
  -5   2   0 53013.9 436.833  37
  -5   2   0 55867.3 368.758  23
   5   2   0 53628.3 1016.75   4
  -5   2   0 53458.2 881.218  15
   5   2   0 54230.7 886.023  13
  -5   2  -1 4604.58 146.951  31
  -5   2  -1 4526.72 138.608  37
  -5   2  -1 4595.17 114.708  23
   5   2   1 4419.95 292.334   4
  -5   2  -1 4364.50 280.928  15
   5   2   1 4435.79 253.349  13
  -5   2  -2 22208.2 321.865  37
  -5   2  -2 22713.8 272.127  23
  -5   2  -2 21881.2 341.272  31
   5   2   2 22155.7 564.238  13
  -5   2  -3 6048.33 149.030  23
  -5   2  -3 5849.71 174.262  37
   5   2   3 5873.78 341.605  18
   5   2   3 5680.23 367.901   9
  -5   2  -4 20544.8 327.385  37
  -5   2  -4 20599.0 270.669  33
  -5   2  -4 20109.0 325.654  41
  -5   2  -5 1736.98 96.9059  37
  -5   2  -5 1737.82 79.9778  33
  -5   2  -5 1708.65 100.327  41
  -5   2  -6 1653.14 92.5545  41
  -5   2  -6 1634.53 73.5514  33
  -5   2  -7 21249.9 283.530  41
  -5   2  -7 21484.3 229.837  33
  -5   2  -8 4949.68 102.674  41
  -5   3  12 94.6175 14.8878  44
  -5   3  12 143.318 19.1928  37
   5   3 -12 148.384 26.8924  50
   5   3 -11 3237.35 114.186  50
  -5   3  11 3179.86 84.7651  44
   5   3 -11 3107.64 109.699  38
  -5   3  11 3355.15 87.3702  37
   5   3 -11 2973.40 104.027  32
   5   3 -10 1068.21 76.1686  50
  -5   3  10 1052.39 56.6680  44
  -5   3  10 1074.95 51.7496  24
   5   3 -10 1064.32 75.6353  38
  -5   3  10 1061.92 58.5452  37
   5   3 -10 1065.99 77.3942  32
   5   3  -9 17717.2 300.602  50
  -5   3   9 17641.4 240.084  44
  -5   3   9 17230.2 214.667  24
   5   3  -9 17725.5 304.998  38
  -5   3   9 17632.3 232.224  37
   5   3  -9 17427.2 319.632  32
   5   3  -8 607.316 54.5824  51
  -5   3   8 506.314 46.4091  44
  -5   3   8 637.046 45.3361  24
   5   3  -8 529.627 64.3981  38
  -5   3   8 559.967 49.7838  37
  -5   3   8 561.463 86.3492  15
   5   3  -7 1936.00 95.6889  51
  -5   3   7 2054.94 87.7604  44
  -5   3   7 1928.15 74.2519  24
   5   3  -7 2016.23 103.912  38
  -5   3   7 2066.15 84.8140  37
  -5   3   7 2024.17 161.339  15
   5   3  -6 335.393 94.6612   2
   5   3  -6 146.760 35.0973  51
  -5   3   6 156.443 31.2717  44
  -5   3   6 162.471 26.6371  24
   5   3  -6 214.749 46.7369  26
   5   3  -6 120.739 40.0997  38
  -5   3   6 334.374 39.7635  37
  -5   3   6 250.440 70.5199  15
   5   3  -5 17032.7 695.863   2
  -5   3   5 16317.0 188.438  27
  -5   3   5 16239.2 240.748  44
   5   3  -5 16213.8 260.525  26
   5   3  -5 16258.8 270.595  38
  -5   3   5 16393.1 226.260  37
   5   3  -5 16235.9 498.866  13
  -5   3   5 16848.5 447.072  15
  -5   3   4 1997.36 64.0233  27
  -5   3   4 2003.59 87.7236  44
   5   3  -4 1943.16 94.1487  38
   5   3  -4 2009.68 187.196  13
  -5   3   4 2067.87 158.035  15
  -5   3   4 1988.13 79.9398  37
   5   3  -4 2020.88 93.9130  26
  -5   3   3 9617.93 135.284  27
   5   3  -3 9889.22 194.101  26
   5   3  -3 9876.47 492.885   4
   5   3  -3 9674.61 394.840  13
  -5   3   3 10063.5 341.660  15
  -5   3   3 9720.26 173.938  37
   5   3  -3 9833.12 196.214  38
   5   3  -2 2890.82 105.041  26
   5   3  -2 3217.02 275.730   4
  -5   3   2 2702.49 188.375  15
   5   3  -2 2891.21 221.011  13
  -5   3   2 2822.89 97.2183  37
   5   3  -2 2921.12 103.509  38
   5   3  -1 49479.9 407.882  26
   5   3  -1 51476.2 1068.35   4
  -5   3   1 49834.9 832.375  15
   5   3  -1 48833.2 884.568  13
  -5   3   1 49549.1 421.752  37
  -5   3   0 42157.1 351.789  23
   5   3   0 43215.1 368.696  26
   5   3   0 44532.7 966.973   4
  -5   3   0 41822.3 414.600  37
  -5   3   0 40058.9 806.080  15
   5   3   0 43243.4 831.226  13
  -5   3  -1 19507.0 299.985  37
  -5   3  -1 18609.7 246.646  23
  -5   3  -1 19840.7 616.484  15
  -5   3  -2 2330.15 110.521  37
  -5   3  -2 2386.28 94.4871  23
  -5   3  -3 2248.18 112.042  37
   5   3   3 1992.92 171.174  13
  -5   3  -3 2134.19 92.5711  23
  -5   3  -4 18590.4 312.795  37
  -5   3  -4 18411.6 256.965  33
  -5   3  -4 17987.8 299.663  41
  -5   3  -5 381.595 52.2283  37
  -5   3  -5 430.047 41.4142  33
  -5   3  -5 355.358 49.0621  41
  -5   3  -6 2509.53 89.0619  33
  -5   3  -6 2366.78 100.420  41
  -5   3  -7 2732.59 87.8079  41
  -5   3  -7 2984.99 82.1868  33
   5   4 -12 6703.80 116.545  50
  -5   4  12 6261.00 85.2591  37
   5   4 -11 757.632 47.0698  38
  -5   4  11 816.031 40.7142  37
   5   4 -11 806.986 53.9118  50
   5   4 -10 8046.76 181.544  50
  -5   4  10 7491.53 125.609  44
  -5   4  10 8111.28 128.762  24
   5   4 -10 7828.04 177.164  38
  -5   4  10 8011.86 136.949  37
  -5   4  10 7619.10 123.551  27
   5   4 -10 7601.24 171.875  32
  -5   4   9 2192.16 77.1100  44
  -5   4   9 2150.82 73.3361  24
   5   4  -9 2403.99 108.312  38
  -5   4   9 2244.97 82.0395  37
   5   4  -9 2108.01 103.082  32
  -5   4   9 2209.42 73.8824  27
   5   4  -8 7124.30 166.139  51
  -5   4   8 6872.69 145.759  44
  -5   4   8 6891.31 135.637  24
   5   4  -8 7036.33 185.564  38
  -5   4   8 7219.05 150.307  37
  -5   4   8 6974.27 134.958  27
  -5   4   7 13732.8 417.155  15
   5   4  -7 13345.5 237.559  51
  -5   4   7 13720.4 214.042  44
   5   4  -7 13702.3 259.382  38
  -5   4   7 13941.1 211.818  37
  -5   4   7 13096.3 185.959  27
  -5   4   6 5661.68 120.184  27
  -5   4   6 5659.92 142.326  44
   5   4  -6 5680.98 161.297  26
   5   4  -6 5567.54 166.917  38
  -5   4   6 6004.48 142.104  37
  -5   4   6 5735.48 272.428  15
   5   4  -5 22768.7 587.975  13
  -5   4   5 21828.1 523.500  15
   5   4  -5 22244.0 304.248  49
   5   4  -5 21785.1 306.898  26
  -5   4   5 22023.2 229.040  27
   5   4  -5 21655.3 317.473  38
  -5   4   5 22047.6 269.590  37
   5   4  -4 87.9765 80.9883   2
   5   4  -4 150.816 42.2777  26
  -5   4   4 141.841 23.8460  27
   5   4  -4 142.281 37.9124  38
  -5   4   4 153.774 32.1843  37
   5   4  -4 112.505 60.1233  13
  -5   4   4 202.285 59.4212  15
  -5   4   3 1911.87 66.6618  27
   5   4  -3 1933.40 94.3252  26
   5   4  -3 2012.24 238.923   2
  -5   4   3 1712.40 153.620  15
   5   4  -3 1848.10 182.240  13
   5   4  -3 1849.39 93.2709  38
  -5   4   3 1812.68 82.2530  37
   5   4  -2 10104.4 204.072  26
   5   4  -2 9510.47 503.647   2
   5   4  -2 9742.13 200.601  38
  -5   4   2 9965.60 192.842  37
  -5   4   2 9653.35 371.305  15
   5   4  -2 9975.16 421.438  13
  -5   4   1 77131.4 557.336  37
   5   4  -1 76906.1 541.435  38
   5   4  -1 77101.0 557.481  26
  -5   4   1 76929.8 1110.98  15
   5   4  -1 76349.4 1178.67  13
  -5   4   0 18134.5 286.185  37
  -5   4   0 17366.9 241.647  23
   5   4   0 17648.3 258.368  26
  -5   4   0 18112.0 570.717  15
   5   4   0 18564.3 580.931  13
  -5   4  -1 6944.04 185.511  37
  -5   4  -1 6793.48 156.381  23
   5   4   1 6871.34 353.696  13
  -5   4  -2 1501.79 93.8575  37
  -5   4  -2 1408.38 76.2263  23
   5   4   2 1345.64 148.884  13
  -5   4  -3 4892.62 163.326  37
  -5   4  -3 4730.36 139.917  23
  -5   4  -4 7383.29 194.734  37
  -5   4  -4 7217.18 157.876  33
  -5   4  -4 6975.17 178.439  41
  -5   4  -5 1734.03 92.7012  37
  -5   4  -5 1589.80 73.1643  33
  -5   4  -5 1703.55 84.4966  41
  -5   4  -6 6676.56 133.361  33
  -5   4  -6 6298.55 136.200  41
  -5   4  -7 1232.94 47.0060  33
   5   5 -11 4211.21 97.2176  50
  -5   5  11 3918.51 69.9252  37
  -5   5  10 6785.78 111.660  37
   5   5 -10 6699.98 139.537  38
  -5   5   9 3056.68 85.4924  37
  -5   5   9 3024.93 76.7844  27
   5   5  -9 2998.87 105.282  32
   5   5  -9 3250.36 111.774  38
  -5   5   8 1404.85 65.1109  37
  -5   5   8 1323.81 56.3866  27
   5   5  -8 1463.34 82.6133  38
   5   5  -7 15863.7 241.704  51
   5   5  -7 16018.2 268.187  38
  -5   5   7 15734.9 219.127  37
  -5   5   7 15470.6 194.244  27
   5   5  -6 12221.1 237.744  38
  -5   5   6 12120.1 199.905  37
  -5   5   6 11706.9 172.055  27
  -5   5   6 12000.1 385.890  15
   5   5  -6 12120.0 229.932  26
   5   5  -5 3870.79 132.254  26
   5   5  -5 3752.77 126.036  49
  -5   5   5 3692.45 115.268  37
   5   5  -5 3777.79 135.982  38
  -5   5   5 3650.11 97.2800  27
  -5   5   5 3501.55 212.377  15
   5   5  -4 7098.99 183.502  38
  -5   5   4 7206.72 163.241  37
   5   5  -4 7331.35 179.834  26
  -5   5   4 7091.17 134.710  27
   5   5  -4 7423.64 355.103  13
  -5   5   4 6794.20 305.474  15
   5   5  -3 2621.01 110.275  26
  -5   5   3 2684.15 198.334  15
   5   5  -3 2804.01 227.304  13
   5   5  -3 2577.92 111.038  38
  -5   5   3 2563.51 102.279  37
   5   5  -2 8605.61 194.222  26
  -5   5   2 8689.59 373.553  15
   5   5  -2 8923.55 407.472  13
   5   5  -2 8416.12 194.970  38
  -5   5   2 8817.35 190.665  37
  -5   5   1 26783.1 296.144  23
   5   5  -1 26997.7 342.232  26
  -5   5   1 27338.8 287.754  34
  -5   5   1 26650.4 686.379  15
   5   5  -1 27856.2 729.048  13
  -5   5   1 27384.9 348.195  37
   5   5  -1 26542.0 329.936  38
  -5   5   0 2170.05 89.2358  23
   5   5   0 2208.40 96.5386  26
  -5   5   0 2244.76 80.3062  34
   5   5   0 1973.15 85.8015  38
  -5   5   0 2205.95 106.217  37
  -5   5   0 2317.43 216.449  15
   5   5   0 2274.95 216.638  13
  -5   5  -1 2095.74 106.855  37
   5   5   1 2119.19 89.0283  26
   5   5   1 2039.06 197.474  13
  -5   5  -2 26602.6 364.403  37
  -5   5  -2 25789.0 318.221  23
  -5   5  -3 4315.59 147.527  37
  -5   5  -3 4079.30 126.641  23
  -5   5  -4 4026.25 111.805  33
  -5   5  -4 4062.38 120.776  41
  -5   5  -5 5738.56 148.284  37
  -5   5  -5 5375.38 120.295  33
  -5   5  -6 349.629 28.1044  33
   5   6 -10 2050.04 65.1408  50
  -5   6   9 3722.50 80.8858  37
   5   6  -9 3825.05 101.646  38
   5   6  -9 3967.79 107.638  50
  -5   6   8 19095.9 206.562  37
  -5   6   8 19659.3 187.843  27
   5   6  -7 5882.91 150.854  38
  -5   6   7 5740.99 124.527  37
   5   6  -7 5775.18 128.859  51
  -5   6   7 5629.31 109.014  27
  -5   6   6 6854.20 126.212  27
   5   6  -6 7164.59 171.435  38
  -5   6   6 7098.69 146.770  37
   5   6  -6 7130.98 167.219  26
  -5   6   5 10319.1 185.238  37
   5   6  -5 10381.7 210.495  38
   5   6  -5 10516.9 204.683  26
   5   6  -5 10223.9 194.817  49
  -5   6   5 9660.69 154.850  27
   5   6  -4 4387.79 139.266  38
  -5   6   4 4430.83 127.445  37
   5   6  -4 4607.07 138.738  26
  -5   6   3 2565.69 101.765  37
   5   6  -3 2552.49 107.507  38
   5   6  -3 2469.05 102.455  26
  -5   6   2 17767.8 237.373  34
  -5   6   2 18208.6 274.770  37
   5   6  -2 17495.4 271.370  38
   5   6  -2 17594.1 270.743  26
  -5   6   1 9918.86 172.051  34
   5   6  -1 9911.62 196.834  38
  -5   6   1 10040.1 209.041  37
  -5   6   1 9959.02 184.228  23
   5   6  -1 10244.1 206.848  26
  -5   6   0 10768.9 171.682  34
   5   6   0 10548.4 189.036  38
  -5   6   0 10701.5 220.250  37
  -5   6   0 10888.2 193.952  23
   5   6   0 10521.4 203.127  26
  -5   6  -1 16661.1 202.748  34
  -5   6  -1 17166.5 278.952  37
  -5   6  -1 16691.2 243.065  23
   5   6   1 16855.7 237.418  26
  -5   6  -2 3357.64 124.038  37
  -5   6  -2 3340.69 110.319  23
  -5   6  -3 2698.75 105.576  37
  -5   6  -3 2806.45 97.8852  23
  -5   6  -4 7216.29 157.687  37
  -5   6  -4 6916.13 128.538  33
  -5   6  -5 1988.32 61.1379  33
   5   7  -8 1453.53 55.9316  38
   5   7  -7 2138.06 77.3203  38
  -5   7   7 2057.46 62.9616  37
   5   7  -6 848.208 47.0249  51
   5   7  -6 805.566 52.9002  38
  -5   7   6 829.400 45.5074  37
  -5   7   5 951.007 52.4197  37
   5   7  -5 968.980 59.8540  38
   5   7  -5 962.612 56.6707  26
  -5   7   5 959.239 52.6097  34
  -5   7   4 8392.90 160.396  37
   5   7  -4 8382.48 168.576  38
   5   7  -4 8467.77 167.316  26
  -5   7   4 8511.21 151.016  34
   5   7  -3 1842.09 82.7885  38
  -5   7   3 1894.90 81.1054  37
  -5   7   3 2022.27 74.8069  23
   5   7  -3 1820.04 79.3629  26
  -5   7   3 1856.54 73.3937  34
   5   7  -2 4854.76 130.674  38
  -5   7   2 4737.50 129.722  37
  -5   7   2 4831.47 116.981  23
   5   7  -2 4905.84 128.978  26
  -5   7   2 4759.79 114.741  34
  -5   7   1 14013.8 224.036  37
   5   7  -1 13797.0 209.410  38
  -5   7   1 14420.5 205.415  23
   5   7  -1 14312.4 218.149  26
  -5   7   1 13713.2 185.942  34
  -5   7   0 3237.32 109.086  37
   5   7   0 3140.16 91.2425  38
  -5   7   0 3381.09 101.137  23
   5   7   0 3204.21 100.082  26
  -5   7   0 3205.39 86.2447  34
  -5   7  -1 449.350 31.8281  34
  -5   7  -1 475.849 44.4697  37
  -5   7  -2 7936.19 157.563  37
  -5   7  -3 2030.74 72.9134  37
  -5   8   6 2295.45 55.1901  34
   5   8  -6 2268.92 63.0677  38
  -5   8   5 35.8019 12.8861  34
   5   8  -5 38.5522 15.1863  38
  -5   8   4 166.088 20.4378  34
   5   8  -4 153.748 23.0888  38
  -5   8   3 180.698 21.6290  34
   5   8  -3 198.794 25.6504  38
  -5   8   2 2560.39 68.3221  34
   5   8  -2 2558.76 76.2649  38
  -5   8   1 4715.25 89.2816  34
   5   8  -1 4758.03 96.1666  38
  -5   8   0 13168.3 139.436  34
   6  -7  -6 1975.64 72.9882  45
  -6  -7   6 1890.93 60.2531  46
   6  -7  -5 1477.72 70.1019  45
  -6  -7   5 1493.73 57.0080  46
  -6  -7   4 1473.29 57.2539  46
   6  -7  -4 1528.38 74.4489  45
  -6  -7   4 1455.39 54.5345  36
   6  -7  -3 20.6768 19.6050  45
  -6  -7   3 0.39645 12.8219  36
   6  -7  -2 9975.60 146.532  42
  -6  -7   2 10697.0 154.850  36
   6  -7  -1 6416.23 122.027  42
  -6  -7   1 6822.12 122.287  36
   6  -7   0 6045.51 116.144  42
  -6  -7   0 6388.98 114.646  36
   6  -7   1 447.343 30.6669  42
  -6  -7  -1 468.688 30.1870  36
  -6  -6   8 10672.3 158.462  46
   6  -6  -8 10841.3 166.303  45
  -6  -6   7 8256.52 154.880  46
   6  -6  -7 8205.19 179.133  45
   6  -6  -6 1398.18 71.9899  39
  -6  -6   6 1393.93 70.1262  46
   6  -6  -6 1433.58 85.7475  45
   6  -6  -5 805.376 62.0834  39
  -6  -6   5 860.528 58.7042  46
  -6  -6   5 846.306 48.5824  36
   6  -6  -4 73.7795 30.2212  39
  -6  -6   4 23.1264 17.1750  36
  -6  -6   4 15.1135 21.9336  46
   6  -6  -3 16745.5 271.067  39
  -6  -6   3 16554.4 245.538  46
  -6  -6   3 16587.5 231.087  36
   6  -6  -3 16430.3 233.519  42
   6  -6  -2 25177.3 327.414  39
  -6  -6   2 24380.0 291.434  46
   6  -6  -2 24478.6 302.352  42
  -6  -6   2 24631.2 282.196  36
   6  -6  -1 10858.4 207.921  39
   6  -6  -1 10221.0 198.268  42
  -6  -6   1 10641.3 184.917  36
   6  -6   0 13460.4 215.900  39
   6  -6   0 13347.3 220.664  42
  -6  -6   0 12991.2 199.641  36
   6  -6   1 6167.75 128.994  39
  -6  -6  -1 6255.21 132.921  36
   6  -6   1 6201.10 143.530  42
  -6  -6  -2 5220.04 114.951  36
   6  -6   2 5064.27 119.701  42
  -6  -6  -3 2597.05 72.6789  36
   6  -6   3 2400.82 71.1003  42
   6  -5 -10 4464.94 89.2865  32
  -6  -5  10 4287.04 88.1620  46
  -6  -5   9 1715.95 59.8275  40
  -6  -5   9 1739.52 69.4853  46
   6  -5  -9 1668.18 65.5166  32
  -6  -5   8 557.035 39.5799  40
  -6  -5   8 586.503 48.3191  46
   6  -5  -8 583.917 52.6375  45
   6  -5  -8 528.522 41.5917  32
  -6  -5   7 3607.50 118.817  46
   6  -5  -7 3659.58 106.719  32
   6  -5  -7 3566.79 119.001  39
  -6  -5   7 3538.53 101.638  40
  -6  -5   6 22843.8 306.596  46
   6  -5  -6 22702.4 334.017  39
  -6  -5   6 22552.9 262.827  40
  -6  -5   5 19236.5 288.186  46
   6  -5  -5 19041.8 318.859  39
  -6  -5   5 18635.2 244.602  40
   6  -5  -4 3302.27 137.433  39
  -6  -5   4 3268.77 108.373  36
  -6  -5   4 3341.79 125.625  46
   6  -5  -3 8365.05 213.839  39
  -6  -5   3 8429.29 196.128  46
  -6  -5   3 8354.81 176.550  36
   6  -5  -3 8365.18 194.551  42
   6  -5  -2 6679.35 190.284  39
  -6  -5   2 6558.32 174.165  46
  -6  -5   2 6382.44 156.979  36
   6  -5  -2 6435.09 178.267  42
   6  -5  -1 23321.5 335.222  42
  -6  -5   1 23100.3 323.861  46
   6  -5  -1 23873.0 346.293  39
  -6  -5   1 23375.7 298.705  36
   6  -5  -1 23823.3 691.417  19
   6  -5   0 8288.54 194.599  39
  -6  -5   0 7839.73 173.095  36
   6  -5   0 8025.12 195.977  42
   6  -5   1 2200.59 93.8198  39
   6  -5   1 2083.30 90.4004  29
   6  -5   1 2076.51 99.3092  42
  -6  -5  -1 2047.57 88.5612  36
   6  -5   2 413.567 42.6659  29
   6  -5   2 402.171 45.1942  42
  -6  -5  -2 399.458 42.1133  36
   6  -5   3 7953.50 160.260  29
  -6  -5  -3 8035.98 154.654  36
   6  -5   3 7959.20 160.559  42
  -6  -5  -4 69.6216 19.3962  36
   6  -5   4 71.5040 16.8334  42
  -6  -4  11 7478.67 111.537  40
   6  -4 -11 7529.57 124.918  32
  -6  -4  10 3507.75 93.8547  40
   6  -4 -10 3502.64 105.842  32
  -6  -4  10 3337.71 90.7030  46
  -6  -4   9 14793.9 212.068  40
  -6  -4   9 14730.7 219.945  46
   6  -4  -9 15029.2 240.283  32
  -6  -4   8 7965.81 166.713  40
  -6  -4   8 7979.48 178.676  46
   6  -4  -8 7934.82 198.607  45
   6  -4  -8 7945.58 185.213  32
   6  -4  -7 18785.3 303.433  39
  -6  -4   7 18800.3 266.312  40
   6  -4  -7 19755.9 294.216  32
  -6  -4   7 19515.3 295.536  46
   6  -4  -6 6513.85 193.998  39
  -6  -4   6 6185.23 157.424  40
   6  -4  -6 6484.35 165.396  32
  -6  -4   6 6382.06 175.840  46
   6  -4  -5 4531.05 166.182  39
  -6  -4   5 4427.93 136.135  40
  -6  -4   5 4288.50 146.462  46
   6  -4  -4 16034.3 308.439  39
  -6  -4   4 15674.7 255.064  40
  -6  -4   4 15249.6 275.269  46
   6  -4  -3 7110.88 192.104  42
  -6  -4   3 7037.91 190.796  46
   6  -4  -3 6946.09 204.086  39
  -6  -4   3 7037.43 173.725  40
  -6  -4   3 7141.30 165.584  36
  -6  -4   3 6951.80 174.170  31
   6  -4  -2 39845.1 912.298  19
   6  -4  -2 40105.8 468.392  42
  -6  -4   2 41318.6 455.211  46
   6  -4  -2 40192.5 479.709  39
  -6  -4   2 40750.4 403.205  36
  -6  -4   2 40355.6 438.181  31
   6  -4  -1 6052.05 364.990  19
   6  -4  -1 6530.40 190.846  42
  -6  -4   1 6625.82 185.318  46
   6  -4  -1 6588.05 192.236  39
  -6  -4   1 6606.13 166.071  36
  -6  -4   1 6485.36 182.931  31
   6  -4   0 36881.0 445.977  42
  -6  -4   0 35917.2 442.408  31
   6  -4   0 36515.8 426.073  29
   6  -4   0 37028.9 437.830  39
  -6  -4   0 36168.2 387.491  36
   6  -4   0 36783.4 898.841  19
   6  -4   1 865.839 74.4480  42
  -6  -4  -1 886.162 74.1419  31
   6  -4   1 859.504 70.1017  29
   6  -4   1 929.009 68.6115  39
  -6  -4  -1 931.417 65.8117  36
   6  -4   2 504.207 45.4858  39
   6  -4   2 487.147 54.1415  29
   6  -4   2 447.029 54.4811  42
  -6  -4  -2 425.695 47.3221  36
   6  -4   3 201.285 37.5511  29
   6  -4   3 233.282 38.9067  42
  -6  -4  -3 181.704 35.2917  36
   6  -4   4 1291.73 72.2556  29
   6  -4   4 1170.32 63.3801  42
  -6  -4  -4 1310.79 66.1506  36
  -6  -4  -5 50.4410 19.3208  36
   6  -4   5 22.7009 10.8870  42
   6  -3 -11 1180.83 62.8132  32
  -6  -3  11 1029.34 51.1651  40
  -6  -3  10 4984.73 116.392  46
   6  -3 -10 5239.06 148.345  32
  -6  -3  10 5117.72 126.526  40
  -6  -3   9 2720.84 99.2743  46
   6  -3  -9 2960.66 122.125  32
  -6  -3   9 2803.44 103.026  40
  -6  -3   8 7298.31 176.385  46
   6  -3  -8 7385.72 199.579  32
  -6  -3   8 7543.21 175.463  40
  -6  -3   7 6388.62 173.432  46
   6  -3  -7 6130.99 182.670  32
  -6  -3   7 6139.69 135.481  31
   6  -3  -7 6172.50 180.707  39
  -6  -3   7 6334.83 164.232  40
  -6  -3   6 9899.85 220.956  46
   6  -3  -6 10149.0 227.261  32
  -6  -3   6 10075.9 183.947  31
   6  -3  -6 9755.57 242.124  39
  -6  -3   6 9791.67 205.783  40
  -6  -3   5 2094.85 106.037  46
   6  -3  -5 2339.73 251.602  16
   6  -3  -5 2293.25 103.544  32
  -6  -3   5 2162.05 91.3368  31
   6  -3  -5 2184.04 118.103  39
  -6  -3   5 2098.40 98.4840  40
  -6  -3   4 9194.92 216.414  46
   6  -3  -4 9219.22 234.984  39
  -6  -3   4 9359.57 205.009  40
   6  -3  -4 9230.99 489.315  16
  -6  -3   4 9224.91 197.033  31
   6  -3  -3 6406.08 185.977  42
  -6  -3   3 6599.27 186.183  46
   6  -3  -3 6381.91 195.527  39
  -6  -3   3 6219.37 171.177  40
  -6  -3   3 6311.91 170.964  31
   6  -3  -3 6382.01 394.277  16
   6  -3  -2 22779.5 721.298  16
   6  -3  -2 22112.1 353.224  42
  -6  -3   2 22920.6 345.062  46
   6  -3  -2 22466.7 357.493  39
  -6  -3   2 22800.0 291.880  36
  -6  -3   2 22530.3 337.708  31
   6  -3  -1 10099.0 469.229  16
  -6  -3   1 10333.7 236.648  46
   6  -3  -1 10115.6 241.677  42
  -6  -3   1 10397.5 204.127  36
  -6  -3   1 10641.2 241.259  31
   6  -3  -1 10383.2 242.224  39
   6  -3   0 38302.9 462.767  42
   6  -3   0 38932.7 456.022  39
  -6  -3   0 38138.7 399.442  36
  -6  -3   0 38731.8 471.577  31
   6  -3   1 7791.45 209.341  42
   6  -3   1 7622.49 194.957  22
   6  -3   1 7692.36 196.771  39
  -6  -3  -1 7536.17 182.110  36
  -6  -3  -1 7876.96 216.803  31
   6  -3   2 9108.94 219.877  42
   6  -3   2 8667.58 209.937  22
   6  -3   2 9087.08 197.074  39
  -6  -3  -2 8840.48 195.840  36
  -6  -3  -2 9013.87 233.579  31
   6  -3   3 5081.03 157.215  22
  -6  -3  -3 5186.66 147.089  36
   6  -3   3 5097.60 157.314  42
  -6  -3  -3 5069.25 137.557  41
   6  -3   3 5263.91 323.644  19
   6  -3   4 839.195 66.2308  29
   6  -3   4 842.900 60.9595  42
  -6  -3  -4 811.008 53.3260  41
  -6  -3  -4 807.571 59.4161  36
   6  -3   5 2414.20 95.2313  29
  -6  -3  -5 2505.42 90.3325  36
   6  -3   5 2243.99 77.0800  42
  -6  -3  -5 2370.54 79.3175  41
   6  -2 -12 368.357 32.4111  32
  -6  -2  12 336.713 26.4774  40
   6  -2 -11 643.491 54.9679  32
  -6  -2  11 609.001 43.5106  40
  -6  -2  11 579.934 34.8167  44
   6  -2 -10 5955.56 173.298  32
  -6  -2  10 5880.01 141.376  40
  -6  -2  10 5707.60 119.268  44
  -6  -2   9 6954.13 166.277  40
  -6  -2   9 6652.66 138.524  44
  -6  -2   9 6756.44 153.546  46
   6  -2  -9 6868.15 198.294  32
  -6  -2   8 14121.7 245.580  40
  -6  -2   8 13810.7 207.036  44
  -6  -2   8 14067.6 239.883  46
   6  -2  -8 14006.9 289.021  32
  -6  -2   7 19677.6 300.650  46
   6  -2  -7 19695.9 321.990  39
  -6  -2   7 20173.4 297.989  40
  -6  -2   7 19314.8 245.667  44
   6  -2  -7 20145.2 749.537  16
   6  -2  -7 20297.9 344.596  32
  -6  -2   6 14527.2 264.077  46
  -6  -2   6 14544.7 214.207  44
   6  -2  -6 15289.0 296.002  39
  -6  -2   6 14625.5 255.613  40
   6  -2  -6 14116.4 620.416  16
   6  -2  -6 15022.5 290.116  32
  -6  -2   5 12853.9 252.098  46
  -6  -2   5 12587.0 200.876  44
   6  -2  -5 12876.8 274.490  39
  -6  -2   5 13021.8 239.767  40
   6  -2  -5 13429.0 259.830  32
  -6  -2   5 12810.0 214.700  31
   6  -2  -5 13040.1 573.837  16
  -6  -2   5 13509.5 443.362   5
   6  -2  -4 16358.5 582.497   4
  -6  -2   4 16869.2 512.598   5
  -6  -2   4 16954.5 289.802  46
   6  -2  -4 16598.4 306.706  39
  -6  -2   4 16770.1 274.188  40
   6  -2  -4 17079.4 638.675  16
  -6  -2   4 17342.0 261.904  31
   6  -2  -3 10866.8 476.135   4
  -6  -2   3 11249.7 437.411   5
  -6  -2   3 11663.5 243.971  46
  -6  -2   3 11773.0 234.285  40
   6  -2  -3 11403.2 251.094  39
   6  -2  -3 11449.2 509.938  16
  -6  -2   3 10976.6 220.014  31
   6  -2  -2 45634.4 970.118   4
  -6  -2   2 45274.7 912.839   5
  -6  -2   2 43460.0 474.751  46
   6  -2  -2 42906.5 480.542  39
  -6  -2   2 42092.2 450.567  31
   6  -2  -2 43483.5 966.754  16
   6  -2  -1 1537.69 173.328  16
   6  -2  -1 1893.81 212.076  18
  -6  -2   1 1691.94 100.239  46
  -6  -2   1 1754.10 100.176  31
   6  -2  -1 1698.87 98.8336  39
  -6  -2   1 1690.55 80.3917  36
   6  -2  -1 1817.66 191.899   4
  -6  -2   1 1506.53 171.346   5
  -6  -2   0 2766.51 128.066  31
   6  -2   0 2904.95 121.691  22
   6  -2   0 2872.86 124.626  39
  -6  -2   0 2904.25 109.173  36
   6  -2   0 3193.72 251.355  16
   6  -2   0 2501.49 244.431  18
  -6  -2  -1 9210.74 202.647  41
   6  -2   1 8745.87 218.194  22
   6  -2   1 9190.39 214.661  39
  -6  -2  -1 8914.27 197.128  36
  -6  -2  -1 9207.03 231.822  31
  -6  -2  -2 1399.82 83.1723  41
   6  -2   2 1452.18 94.4462  42
   6  -2   2 1469.76 93.0355  22
   6  -2   2 1597.80 86.5910  39
  -6  -2  -2 1534.04 85.3149  36
  -6  -2  -2 1461.34 101.219  31
  -6  -2  -3 2812.42 116.400  41
   6  -2   3 2802.87 121.140  42
  -6  -2  -3 2869.57 114.317  36
  -6  -2  -3 2982.60 136.937  31
   6  -2   3 2949.82 128.832  22
  -6  -2  -4 11375.8 217.440  36
   6  -2   4 11972.2 246.179  22
   6  -2   4 11074.5 217.958  42
  -6  -2  -4 11551.4 224.076  41
   6  -2   5 10001.1 173.332  42
  -6  -2  -5 10556.0 195.264  41
   6  -2   5 10452.3 210.531  29
  -6  -2  -6 1826.03 69.6435  41
   6  -2   6 1753.58 70.9845  29
  -6  -1  12 632.870 36.4721  40
  -6  -1  12 607.491 33.1478  44
   6  -1 -12 622.422 44.9841  32
  -6  -1  11 1339.96 63.7276  40
  -6  -1  11 1391.21 58.7458  44
   6  -1 -11 1366.57 80.8478  32
  -6  -1  10 2702.20 98.3008  40
  -6  -1  10 2734.71 90.2284  44
   6  -1 -10 2764.22 125.570  32
  -6  -1   9 1624.97 83.8091  40
  -6  -1   9 1540.65 74.2586  44
   6  -1  -9 1544.66 103.050  32
  -6  -1   8 27836.8 345.961  40
  -6  -1   8 27442.5 308.763  44
   6  -1  -8 27840.6 413.387  32
  -6  -1   7 7863.79 181.307  46
  -6  -1   7 7598.91 165.334  44
  -6  -1   7 7643.32 184.928  40
   6  -1  -7 7659.86 215.169  32
  -6  -1   6 28258.9 355.404  46
  -6  -1   6 27482.1 311.224  44
  -6  -1   6 26444.7 566.244   5
   6  -1  -6 28679.6 381.075  38
   6  -1  -6 28234.5 384.876  39
  -6  -1   6 28458.8 354.512  40
   6  -1  -6 27393.7 829.814  16
   6  -1  -6 29726.2 411.013  32
  -6  -1   5 25880.9 349.002  46
  -6  -1   5 25417.6 298.508  44
   6  -1  -5 26385.9 374.510  39
   6  -1  -5 25964.9 347.333  38
  -6  -1   5 26014.7 338.866  40
  -6  -1   5 25616.0 567.991   5
   6  -1  -5 25322.8 760.565   4
   6  -1  -5 26018.2 769.451  16
   6  -1  -5 26967.6 374.721  32
  -6  -1   4 4476.49 149.508  46
   6  -1  -4 4592.94 156.235  39
  -6  -1   4 4452.98 142.664  40
   6  -1  -4 4495.40 319.001   4
  -6  -1   4 4359.16 248.227   5
   6  -1  -4 4303.92 300.605  16
   6  -1  -4 4617.53 147.279  32
  -6  -1   3 3774.78 141.032  46
  -6  -1   3 4687.88 149.647  40
   6  -1  -3 3785.07 139.830  39
   6  -1  -3 4149.77 299.026   4
  -6  -1   3 3947.48 246.588   5
   6  -1  -3 3898.03 268.889  18
  -6  -1   3 3853.14 124.798  31
  -6  -1   2 18207.8 306.489  46
  -6  -1   2 17770.6 280.017  31
   6  -1  -2 17825.1 604.165   4
  -6  -1   2 18197.4 550.451   5
   6  -1  -2 17581.5 590.461  18
   6  -1  -2 18006.8 300.602  39
  -6  -1   1 16788.3 285.706  31
   6  -1  -1 16847.4 291.158  39
   6  -1  -1 17363.1 598.276  18
   6  -1  -1 16249.8 572.766   4
  -6  -1   1 15990.9 519.791   5
   6  -1   0 3065.00 249.393   4
  -6  -1   0 3262.10 134.912  31
   6  -1   0 3091.19 124.383  39
  -6  -1   0 3127.27 115.954  41
  -6  -1   0 3028.26 108.210  36
   6  -1   0 3152.89 263.797  18
  -6  -1  -1 10064.8 242.279  31
   6  -1   1 10094.9 220.187  39
  -6  -1  -1 10068.3 220.265  41
  -6  -1  -1 10370.7 208.645  36
   6  -1   1 10252.3 477.625  18
  -6  -1  -2 14033.0 288.368  31
  -6  -1  -2 13637.0 266.283  41
   6  -1   2 14492.6 252.241  39
  -6  -1  -2 14101.6 253.198  36
   6  -1   2 13408.9 551.238  18
  -6  -1  -3 13986.7 290.569  31
   6  -1   3 14022.6 287.606  22
  -6  -1  -3 13672.5 264.770  41
  -6  -1  -3 14088.4 253.999  36
   6  -1   3 13692.2 554.957  18
  -6  -1  -4 4063.37 135.386  36
   6  -1   4 4132.24 149.850  22
  -6  -1  -4 4299.74 144.520  41
   6  -1   4 3923.31 132.300  42
   6  -1   5 3341.81 102.504  42
  -6  -1  -5 3719.44 124.018  41
  -6  -1  -6 6889.22 146.148  41
   6  -1   6 6451.83 137.756  29
  -6  -1  -7 14075.0 161.911  41
  -6   0  12 579.121 34.8030  44
   6   0 -12 614.054 45.1826  32
  -6   0  11 3419.76 95.1733  40
  -6   0  11 3399.57 92.7433  44
  -6   0  11 3179.61 71.1154  37
   6   0 -11 3477.73 126.903  32
  -6   0  10 15396.5 226.862  40
  -6   0  10 15424.7 215.350  44
  -6   0  10 15579.7 177.730  37
   6   0 -10 15391.6 290.165  32
  -6   0   9 17.8007 25.2298  40
  -6   0   9 25.8944 27.3796  44
  -6   0   9 33.2001 15.0389  37
   6   0  -9 29.8858 39.2669  32
  -6   0   8 2594.20 106.530  40
  -6   0   8 2645.28 100.685  44
  -6   0   8 2655.80 81.5344  37
   6   0  -8 2600.19 131.220  32
  -6   0   7 49881.6 424.812  44
  -6   0   7 49272.1 463.018  40
   6   0  -7 50758.7 521.823  38
   6   0  -7 50758.7 1091.56  16
   6   0  -7 50286.8 543.892  32
  -6   0   6 15559.2 239.514  44
  -6   0   6 14531.3 403.324   5
   6   0  -6 14977.7 621.497   4
   6   0  -6 15271.9 269.909  39
  -6   0   6 15248.9 259.886  40
   6   0  -6 16095.7 288.674  38
   6   0  -6 14569.9 567.543  16
  -6   0   6 14848.8 390.486  15
   6   0  -6 15628.1 297.220  32
  -6   0   5 3504.98 115.512  44
   6   0  -5 3074.48 124.501  39
  -6   0   5 3113.60 119.554  40
   6   0  -5 3146.67 124.392  38
   6   0  -5 3353.95 134.328  51
  -6   0   5 3356.78 120.691  46
  -6   0   5 3245.59 185.106  15
  -6   0   5 2869.22 183.755   5
   6   0  -5 3416.15 289.408   4
  -6   0   4 11770.9 231.639  40
   6   0  -4 11670.9 220.685  38
  -6   0   4 11684.1 230.523  46
   6   0  -4 11992.5 244.741  51
  -6   0   4 10808.3 345.067  15
   6   0  -4 12132.3 529.119   4
  -6   0   4 11399.4 373.411   5
   6   0  -3 99677.6 1467.94   4
  -6   0   3 96483.3 1131.98   5
   6   0  -3 98669.5 675.904  51
  -6   0   3 98567.1 691.450  46
  -6   0   3 98433.1 678.537  40
  -6   0   3 98977.1 1087.34  15
   6   0  -3 97443.4 1326.12  18
  -6   0   3 98643.1 598.937  31
   6   0  -2 45204.3 971.067   4
  -6   0   2 46574.3 793.359  15
  -6   0   2 46993.1 439.100  31
   6   0  -2 46922.0 450.883  51
   6   0  -1 26906.9 741.548   4
   6   0  -1 25345.9 706.060   9
  -6   0   1 26120.5 631.175  15
   6   0  -1 25646.7 719.753  18
  -6   0   1 25393.7 341.696  31
   6   0  -1 26186.3 327.383  51
  -6   0   0 1605.14 94.9329  31
   6   0   0 1425.99 179.541  18
   6   0   0 1625.84 181.008   4
   6   0   0 1933.39 210.478   9
   6   0   1 42508.6 995.551   9
  -6   0  -1 43203.2 487.730  31
   6   0   1 41226.3 429.623  39
  -6   0  -1 43074.3 419.060  36
   6   0   1 43965.4 974.615  18
  -6   0  -2 8603.44 224.218  31
   6   0   2 8491.69 189.348  39
  -6   0  -2 8579.65 195.103  36
  -6   0  -2 8313.71 206.146  41
   6   0   2 8124.48 421.218  18
  -6   0  -3 4495.70 152.919  41
   6   0   3 4438.10 309.390  18
  -6   0  -3 4294.61 161.328  31
   6   0   4 209.079 65.8326  18
  -6   0  -4 2.64949 31.3644  41
   6   0   5 456.214 48.1002  22
  -6   0  -5 452.359 49.6785  41
   6   0   5 361.960 34.4574  42
  -6   0  -6 1406.16 69.8984  41
   6   0   6 1236.34 59.5285  29
  -6   0  -7 30003.6 247.313  41
  -6   1  12 599.003 27.7792  37
  -6   1  12 657.530 36.4659  44
   6   1 -12 595.743 41.5555  32
  -6   1  11 1423.61 61.6591  44
   6   1 -11 1350.94 62.7080  52
  -6   1  11 1335.77 50.1495  37
   6   1 -11 1343.08 78.1009  32
   6   1 -10 2702.21 112.855  38
  -6   1  10 2701.60 88.3520  40
   6   1 -10 2669.91 120.424  32
  -6   1  10 2716.21 79.9972  37
  -6   1  10 2753.33 92.9669  44
  -6   1   9 1469.15 76.7028  44
   6   1  -9 1589.49 83.7073  50
  -6   1   9 1560.27 74.7345  40
   6   1  -9 1539.62 94.1742  38
  -6   1   9 1640.34 67.6892  37
   6   1  -9 1528.96 98.1795  32
  -6   1   8 27086.2 566.253  15
  -6   1   8 27264.1 316.417  44
   6   1  -8 27620.6 341.392  50
  -6   1   8 27258.7 323.057  40
   6   1  -8 27832.8 385.609  38
  -6   1   8 27566.6 278.166  37
   6   1  -8 27849.2 401.459  32
   6   1  -7 8027.30 208.841  51
  -6   1   7 7961.12 180.185  40
   6   1  -7 8142.12 210.257  38
  -6   1   7 7926.85 174.393  44
  -6   1   7 7821.70 149.463  37
   6   1  -7 7638.88 394.259  16
  -6   1   7 7575.87 298.462  15
   6   1  -6 28216.2 377.983  51
  -6   1   6 28785.9 328.850  44
  -6   1   6 28643.2 348.330  40
   6   1  -6 29278.6 386.982  38
  -6   1   6 27781.9 278.775  37
  -6   1   5 25974.3 313.794  44
  -6   1   5 25428.4 266.080  37
  -6   1   5 25639.2 335.454  40
   6   1  -5 26339.8 351.056  38
   6   1  -5 27817.8 843.824   4
  -6   1   5 24391.2 531.305  15
   6   1  -5 26779.0 363.908  51
  -6   1   4 4358.26 112.307  37
  -6   1   4 4409.55 143.113  40
   6   1  -4 4389.35 135.971  38
   6   1  -4 4516.69 334.815   4
   6   1  -4 4447.15 268.845  18
  -6   1   4 3859.18 217.497  15
   6   1  -4 4497.34 148.930  51
   6   1  -3 3815.75 133.085  51
  -6   1   3 4380.69 115.390  37
   6   1  -3 4245.26 309.954   4
   6   1  -3 3712.26 261.798  18
  -6   1   3 4063.30 230.596  15
  -6   1   3 3850.14 117.887  31
   6   1  -2 17398.4 273.150  51
  -6   1   2 17683.1 241.067  37
   6   1  -2 18716.6 641.578   4
   6   1  -2 17476.4 568.706  18
  -6   1   2 17338.8 501.134  15
  -6   1   2 18188.8 268.653  31
   6   1  -1 16473.9 254.084  51
   6   1  -1 17324.7 610.543   4
  -6   1   1 16604.5 271.753  31
   6   1  -1 15986.9 558.178  18
  -6   1   1 16441.4 514.357  15
  -6   1   1 16825.2 243.322  37
   6   1   0 3143.32 263.247   4
  -6   1   0 3111.47 126.143  31
   6   1   0 2954.43 246.176  18
  -6   1   0 3633.88 118.363  37
   6   1   1 9673.59 482.969   9
  -6   1  -1 9690.46 196.267  37
   6   1   1 9901.06 459.552  18
  -6   1  -1 9737.16 229.075  31
  -6   1  -2 13715.9 236.066  37
  -6   1  -2 14063.4 278.347  31
   6   1   2 13947.9 550.711  18
  -6   1  -3 13827.1 231.488  37
  -6   1  -3 13911.1 264.125  41
   6   1   3 13766.1 530.756  18
  -6   1  -3 14244.3 279.647  31
  -6   1  -4 4006.06 140.162  41
  -6   1  -5 3589.07 122.650  41
  -6   1  -6 6735.36 146.404  41
  -6   1  -7 14016.4 163.435  41
  -6   2  12 350.132 24.9569  44
  -6   2  12 346.875 22.2045  37
   6   2 -11 626.275 51.0404  32
  -6   2  11 608.647 35.3993  37
  -6   2  11 606.587 39.6765  44
  -6   2  10 5753.68 128.090  44
   6   2 -10 5958.00 150.870  50
   6   2 -10 5694.94 156.232  38
  -6   2  10 5654.98 115.859  37
   6   2 -10 5607.44 164.583  32
  -6   2   9 6619.12 148.866  44
   6   2  -9 6722.73 167.161  50
   6   2  -9 6622.38 181.091  38
  -6   2   9 6474.57 134.181  37
   6   2  -9 6656.30 189.096  32
   6   2  -8 14185.4 263.205  51
   6   2  -8 14359.9 245.135  50
   6   2  -8 14115.2 270.141  38
  -6   2   8 14345.8 226.601  44
  -6   2   8 13952.4 202.570  37
  -6   2   8 14615.4 422.276  15
   6   2  -7 19846.8 313.103  51
  -6   2   7 19531.7 267.166  40
   6   2  -7 20436.0 323.159  38
  -6   2   7 19993.3 274.242  44
  -6   2   7 20167.1 246.960  37
  -6   2   7 20416.8 501.466  15
   6   2  -6 15175.0 270.622  51
   6   2  -6 15084.1 274.046  38
  -6   2   6 15219.8 245.636  40
  -6   2   6 15003.9 240.279  44
  -6   2   6 14530.2 212.521  37
  -6   2   6 14699.2 426.436  15
  -6   2   5 12761.1 225.559  44
   6   2  -5 13265.0 248.721  38
  -6   2   5 12938.5 202.225  37
  -6   2   5 13352.9 238.521  40
   6   2  -5 13362.0 252.713  51
  -6   2   4 16393.4 230.902  37
   6   2  -4 16562.5 264.914  38
  -6   2   4 15721.8 455.065  15
   6   2  -4 16445.6 275.839  51
   6   2  -3 11363.7 223.974  51
   6   2  -3 10908.0 202.368  38
  -6   2   3 11362.8 197.060  37
  -6   2   3 10897.9 390.023  15
  -6   2   3 11369.3 199.270  31
   6   2  -2 41232.0 419.315  51
  -6   2   2 42835.3 393.855  37
  -6   2   2 41029.4 793.336  15
  -6   2   2 43124.7 406.484  31
   6   2  -1 1662.12 82.1537  51
  -6   2   1 1721.72 84.8076  37
   6   2  -1 1730.17 171.020  13
  -6   2   1 1433.04 162.196  15
  -6   2   1 1768.11 88.4119  31
   6   2   0 2743.77 100.125  51
  -6   2   0 2786.45 109.571  37
  -6   2   0 2779.16 236.483  15
   6   2   0 3044.75 224.711  13
  -6   2   0 2857.43 116.431  31
  -6   2  -1 8704.51 196.536  37
   6   2   1 8752.72 421.914  18
  -6   2  -1 9040.82 209.950  31
  -6   2  -2 1456.10 82.8811  37
  -6   2  -2 1574.50 88.6103  31
   6   2   2 1303.50 162.915  18
  -6   2  -3 2936.80 113.125  37
   6   2   3 2931.36 239.240  18
  -6   2  -3 2855.15 119.160  41
  -6   2  -4 11352.1 208.549  37
  -6   2  -4 11498.8 225.536  41
  -6   2  -5 10748.0 200.935  41
  -6   2  -6 1787.31 71.1972  41
   6   3 -11 1085.91 54.3219  50
  -6   3  11 1109.11 44.2150  37
   6   3 -11 1041.17 54.4712  32
  -6   3  10 4949.62 110.072  44
   6   3 -10 5147.92 132.217  50
   6   3 -10 5099.43 138.232  38
  -6   3  10 4996.86 104.586  37
   6   3 -10 5197.39 144.153  32
  -6   3   9 2824.47 91.8771  44
   6   3  -9 2908.41 106.814  50
   6   3  -9 2827.28 113.611  38
  -6   3   9 2840.03 87.2452  37
   6   3  -9 2796.71 116.564  32
   6   3  -8 7393.01 187.948  38
   6   3  -8 7624.17 179.707  51
   6   3  -8 7676.28 174.624  50
  -6   3   8 7505.09 147.214  37
  -6   3   8 7412.82 157.762  44
  -6   3   7 5981.87 148.799  44
   6   3  -7 6387.29 178.996  38
   6   3  -7 6252.58 168.995  51
  -6   3   7 6144.15 139.096  37
  -6   3   7 6053.35 274.427  15
   6   3  -6 10143.9 222.637  38
   6   3  -6 10254.2 218.572  51
  -6   3   6 9927.96 179.895  37
  -6   3   6 9986.20 357.346  15
  -6   3   5 2056.21 167.138  15
   6   3  -5 2147.83 103.744  51
   6   3  -5 2171.94 102.711  38
  -6   3   5 2190.81 88.1490  37
   6   3  -4 9141.33 203.854  51
  -6   3   4 9338.42 362.254  15
   6   3  -4 9208.27 199.733  26
   6   3  -4 9245.09 199.988  38
  -6   3   4 9397.58 181.806  37
   6   3  -3 6171.91 158.115  26
   6   3  -3 6675.67 341.113  13
  -6   3   3 5792.76 293.325  15
  -6   3   3 6426.61 145.962  31
   6   3  -3 6328.85 156.315  38
  -6   3   3 6294.81 152.924  37
   6   3  -2 22721.8 286.247  26
  -6   3   2 23278.2 248.651  23
   6   3  -2 22443.8 618.920  13
  -6   3   2 22361.2 284.914  31
  -6   3   2 22613.7 298.217  37
  -6   3   1 10407.4 210.531  37
  -6   3   1 10304.4 170.734  23
  -6   3   1 10540.5 437.990  15
   6   3  -1 10358.3 422.821  13
  -6   3   0 37974.7 407.914  37
  -6   3   0 38482.6 341.749  23
   6   3   0 37550.0 793.551  13
  -6   3  -1 7616.59 187.529  37
   6   3   1 7934.72 353.282  13
  -6   3  -2 8562.98 198.295  37
   6   3   2 7987.45 382.431  18
  -6   3  -3 4901.36 146.627  41
  -6   3  -3 4822.27 145.262  37
  -6   3  -4 821.020 60.7746  41
  -6   3  -4 886.736 61.0607  37
  -6   3  -5 2288.54 86.3281  41
  -6   3  -6 3667.04 85.9912  41
  -6   4  11 7484.55 99.3142  37
  -6   4  10 3533.06 81.4483  37
   6   4 -10 3573.21 103.654  38
   6   4 -10 3583.97 98.0425  50
   6   4 -10 3515.84 102.653  32
   6   4  -9 14996.8 235.984  38
   6   4  -9 15067.9 220.203  50
  -6   4   9 14885.0 185.626  37
   6   4  -9 14613.1 236.192  32
  -6   4   8 8086.73 148.369  37
   6   4  -8 7839.49 165.289  51
   6   4  -8 8134.77 169.703  50
   6   4  -8 7998.98 182.677  38
   6   4  -7 19208.1 281.388  51
   6   4  -7 19980.8 297.373  38
  -6   4   7 19239.9 239.385  37
   6   4  -6 6521.69 168.540  51
   6   4  -6 6567.15 173.005  38
  -6   4   6 6410.79 146.259  37
   6   4  -5 4498.35 142.927  51
   6   4  -5 4348.39 139.700  38
  -6   4   5 4381.69 125.246  37
   6   4  -5 4460.89 141.431  26
  -6   4   5 4337.44 243.371  15
   6   4  -4 15940.0 256.255  26
   6   4  -4 16573.3 531.211  13
  -6   4   4 15106.7 467.284  15
  -6   4   4 15961.2 239.875  37
   6   4  -4 15554.6 254.967  38
   6   4  -3 6917.84 166.618  26
   6   4  -3 7173.79 354.524  13
  -6   4   3 6916.29 329.024  15
   6   4  -3 7062.05 166.111  38
  -6   4   3 6998.77 165.377  37
   6   4  -2 40688.4 388.024  26
  -6   4   2 39461.2 341.824  23
  -6   4   2 40864.1 830.381  15
   6   4  -2 42502.9 858.714  13
  -6   4   2 41258.7 407.339  37
   6   4  -2 39841.1 369.256  38
  -6   4   1 6129.21 138.563  23
   6   4  -1 6324.84 145.956  26
  -6   4   1 6063.84 332.616  15
   6   4  -1 6492.16 339.197  13
  -6   4   1 6517.06 167.612  37
  -6   4   0 36742.0 347.230  23
  -6   4   0 37075.2 402.797  37
  -6   4  -1 885.526 56.6698  23
  -6   4  -1 913.305 68.4279  37
  -6   4  -2 680.179 49.3147  23
  -6   4  -2 455.557 52.5194  37
  -6   4  -3 221.908 38.4630  37
  -6   4  -3 230.368 35.2155  41
  -6   4  -4 1205.90 63.3347  41
  -6   4  -4 1218.04 66.6534  37
  -6   4  -5 27.2906 11.5922  41
  -6   5  10 4372.73 77.5968  37
   6   5 -10 4418.79 93.3978  38
   6   5  -9 1651.76 63.1775  50
   6   5  -9 1724.84 70.3618  32
  -6   5   9 1706.10 58.6783  37
   6   5  -9 1779.10 73.1161  38
   6   5  -8 543.968 39.8166  51
   6   5  -8 523.122 39.9041  50
  -6   5   8 609.973 40.9768  37
   6   5  -8 599.539 50.1854  38
   6   5  -7 3713.27 112.750  51
  -6   5   7 3335.85 76.5070  27
   6   5  -7 3676.53 119.280  38
  -6   5   7 3546.14 100.023  37
   6   5  -6 22794.5 298.824  38
  -6   5   6 22590.0 259.707  37
   6   5  -6 23177.3 294.557  51
   6   5  -5 18654.8 271.421  38
  -6   5   5 19082.5 249.510  37
   6   5  -5 19159.1 274.840  26
   6   5  -4 3151.79 111.358  38
  -6   5   4 3264.78 110.265  37
   6   5  -4 3179.56 112.571  26
  -6   5   3 8381.54 179.625  37
   6   5  -3 8485.89 176.046  38
   6   5  -3 8351.34 178.067  26
   6   5  -2 6477.38 146.432  38
  -6   5   2 6743.24 165.441  37
  -6   5   2 6423.08 140.420  23
   6   5  -2 6440.25 152.866  26
  -6   5   1 23643.0 309.812  37
   6   5  -1 23716.6 277.408  26
  -6   5   0 8099.94 182.657  37
  -6   5   0 7783.43 158.026  23
  -6   5  -1 2067.49 93.9225  37
  -6   5  -1 2180.10 84.0348  23
  -6   5  -2 452.815 47.6939  37
  -6   5  -3 8174.80 162.316  37
  -6   5  -3 7583.83 144.427  41
   6   6  -8 10341.7 152.039  32
  -6   6   8 10256.2 132.757  37
   6   6  -7 8257.46 137.122  51
   6   6  -7 8395.84 154.410  38
  -6   6   7 8088.11 132.525  37
   6   6  -6 1459.87 66.6450  51
   6   6  -6 1446.07 69.2938  38
  -6   6   6 1454.03 62.4580  37
   6   6  -5 908.985 56.7038  51
  -6   6   5 837.227 44.7463  34
   6   6  -5 859.307 55.2178  26
   6   6  -5 850.436 55.3700  38
  -6   6   5 850.131 52.3852  37
   6   6  -4 25.0369 22.0953  38
  -6   6   4 46.3665 15.9840  23
   6   6  -4 29.3967 18.0976  26
  -6   6   4 29.4585 14.9347  34
  -6   6   4 28.1875 23.5525  37
   6   6  -3 16586.4 225.438  38
  -6   6   3 17196.2 237.688  37
  -6   6   3 17202.0 211.429  23
   6   6  -3 16746.2 230.204  26
  -6   6   3 16420.6 183.933  34
   6   6  -2 24942.6 259.829  38
  -6   6   2 25616.8 294.391  37
  -6   6   2 24860.7 257.465  23
   6   6  -2 24893.2 274.240  26
  -6   6   1 10742.2 193.824  37
  -6   6   1 10595.3 171.337  23
   6   6  -1 10185.7 167.358  26
  -6   6   0 13754.2 215.656  37
  -6   6  -1 6308.40 142.458  37
  -6   6  -2 4483.61 95.5188  41
  -6   6  -2 5426.16 123.721  37
  -6   6  -3 2635.14 77.2881  37
   6   7  -6 1936.66 62.4758  38
  -6   7   6 1786.46 53.6330  37
  -6   7   6 1826.44 48.3637  34
   6   7  -5 1517.85 58.6922  38
  -6   7   5 1488.99 54.6424  37
   6   7  -5 1475.37 55.7854  51
  -6   7   5 1384.00 45.0080  34
   6   7  -4 1516.24 59.2300  38
  -6   7   4 1507.82 58.7089  37
   6   7  -4 1489.17 60.3081  51
  -6   7   4 1382.95 45.7658  34
  -6   7   3 23.6937 9.29450  34
  -6   7   3 22.0026 14.8513  37
   6   7  -3 15.2889 12.9527  38
   6   7  -2 10369.6 136.637  38
  -6   7   2 11081.5 164.376  37
  -6   7   1 6895.23 129.206  37
  -6   7   0 6158.61 117.136  37
  -6   7  -1 430.775 29.7669  37
  -7  -6   6 1785.94 58.1450  46
   7  -6  -6 1877.52 66.6461  45
  -7  -6   5 2954.24 79.0250  46
   7  -6  -5 3109.35 93.6507  45
   7  -6  -4 430.159 35.0865  39
   7  -6  -3 160.635 24.2386  39
   7  -6  -2 8877.97 145.943  39
   7  -6  -1 6326.04 111.387  39
  -7  -5   8 75.6502 16.5040  46
  -7  -5   7 3078.69 89.6652  46
   7  -5  -7 3178.70 96.8697  45
   7  -5  -6 2048.22 79.7772  39
  -7  -5   6 2010.69 78.6712  46
   7  -5  -5 785.926 55.5403  39
  -7  -5   5 869.428 56.5870  46
   7  -5  -4 3217.11 110.861  39
  -7  -5   4 3144.21 103.744  46
   7  -5  -3 1058.86 65.4910  39
  -7  -5   3 979.950 60.8763  46
   7  -5  -3 967.549 52.6179  42
   7  -5  -2 4354.71 125.889  39
   7  -5  -2 4197.41 114.538  42
  -7  -5   2 4235.24 97.7730  36
   7  -5  -1 10209.2 182.810  39
   7  -5  -1 10168.1 177.258  42
  -7  -5   1 10141.2 152.269  36
   7  -5   0 2230.37 77.3601  39
  -7  -5   0 2163.01 69.3520  36
   7  -5   0 2264.63 82.3408  42
  -7  -5  -1 2273.38 66.6712  36
   7  -5   1 2278.90 75.8964  42
   7  -5   2 1945.92 60.7339  42
  -7  -4   9 1721.53 58.9721  40
   7  -4  -9 1564.64 54.2365  32
  -7  -4   9 1623.08 57.4681  46
  -7  -4   8 1123.27 54.4726  40
   7  -4  -8 1072.42 49.5110  32
  -7  -4   8 1095.31 56.8855  46
   7  -4  -7 2177.75 83.0348  39
  -7  -4   7 2221.16 82.0621  40
  -7  -4   7 2229.31 88.3032  46
  -7  -4   6 103.280 24.4904  40
   7  -4  -6 119.271 29.4586  39
  -7  -4   6 98.1775 31.3274  46
   7  -4  -5 3652.87 129.592  39
  -7  -4   5 3642.21 120.622  46
   7  -4  -4 319.610 46.5183  39
  -7  -4   4 284.786 43.1683  46
  -7  -4   4 260.667 32.8803  31
   7  -4  -3 3096.49 122.867  39
  -7  -4   3 2985.92 114.448  46
  -7  -4   3 3103.05 106.584  31
   7  -4  -3 3079.87 109.136  42
   7  -4  -2 19800.6 297.711  39
  -7  -4   2 19249.9 272.325  31
   7  -4  -2 18796.6 278.118  42
   7  -4  -1 30265.5 352.362  39
  -7  -4   1 29839.6 342.881  31
  -7  -4   1 30236.3 291.063  36
   7  -4   0 8658.21 177.546  39
  -7  -4   0 8365.89 182.440  31
  -7  -4   0 8432.87 152.489  36
   7  -4   0 8822.79 184.188  42
   7  -4   1 1209.78 59.6624  39
   7  -4   1 1167.81 61.1140  29
   7  -4   1 1161.65 65.6998  42
  -7  -4  -1 1114.25 55.5663  36
   7  -4   2 2076.13 75.8655  29
  -7  -4  -2 2038.22 69.5541  36
   7  -4   2 2084.69 78.2012  42
  -7  -4  -3 8322.75 124.284  36
   7  -4   3 7988.65 127.855  42
  -7  -3  10 253.321 25.9117  40
   7  -3 -10 293.850 28.1707  32
  -7  -3   9 3599.02 99.4207  40
   7  -3  -9 3447.78 102.579  32
  -7  -3   9 3287.75 87.9790  46
  -7  -3   8 9.49717 22.5441  40
   7  -3  -8 6.62352 17.2471  32
  -7  -3   8 35.0850 19.9968  46
   7  -3  -7 1749.40 82.3479  39
  -7  -3   7 1840.99 83.2641  40
  -7  -3   7 1745.16 71.1022  31
   7  -3  -7 1837.19 81.2444  32
  -7  -3   7 1755.87 83.4504  46
   7  -3  -6 20892.4 312.221  39
  -7  -3   6 21256.1 283.468  40
  -7  -3   6 21072.0 265.123  31
  -7  -3   6 21582.8 298.870  46
   7  -3  -5 999.984 74.7949  39
  -7  -3   5 1177.60 72.8135  40
  -7  -3   5 1088.66 66.9390  31
  -7  -3   5 1095.41 74.7554  46
   7  -3  -4 5969.91 177.741  39
  -7  -3   4 6064.68 168.237  46
  -7  -3   4 6165.42 162.215  31
   7  -3  -3 10689.0 235.634  39
  -7  -3   3 10851.0 227.487  46
  -7  -3   3 10491.8 218.009  31
   7  -3  -3 10663.7 218.585  42
   7  -3  -2 1520.96 92.4288  39
  -7  -3   2 1527.26 88.5273  31
   7  -3  -2 1525.09 87.5109  42
   7  -3  -1 37230.4 416.867  39
  -7  -3   1 36935.0 416.664  31
   7  -3  -1 36394.9 411.020  42
   7  -3   0 3060.24 115.406  39
  -7  -3   0 3071.30 122.806  31
  -7  -3   0 3152.32 99.3356  36
   7  -3   0 3009.77 118.825  42
   7  -3   1 11942.9 205.747  39
  -7  -3  -1 12023.8 234.089  31
   7  -3   1 11738.0 219.948  42
  -7  -3  -1 11680.3 189.067  36
   7  -3   2 4542.12 134.143  29
   7  -3   2 4552.98 127.546  42
  -7  -3  -2 4448.46 112.694  36
   7  -3   3 161.076 26.1643  29
  -7  -3  -3 142.367 23.1022  36
   7  -3   3 140.985 24.7029  42
  -7  -2  11 5279.57 94.6799  40
   7  -2 -11 5267.90 105.054  32
  -7  -2  10 908.767 49.4870  40
   7  -2 -10 920.401 55.5182  32
  -7  -2   9 1217.01 63.8746  40
   7  -2  -9 1237.34 72.0518  32
  -7  -2   9 1149.12 51.6268  31
  -7  -2   8 2108.02 89.9422  40
   7  -2  -8 2042.72 95.7345  32
  -7  -2   8 1929.97 74.1871  31
  -7  -2   8 1967.67 79.9804  46
   7  -2  -7 13166.0 233.464  39
  -7  -2   7 13541.6 231.693  40
   7  -2  -7 14002.0 247.466  32
  -7  -2   7 13064.4 205.936  31
  -7  -2   7 13425.6 225.338  46
   7  -2  -6 5319.31 162.677  39
  -7  -2   6 5450.93 152.168  40
   7  -2  -6 5539.99 152.440  32
  -7  -2   6 5232.05 139.341  31
  -7  -2   6 5340.17 152.561  46
   7  -2  -5 10388.0 233.784  39
  -7  -2   5 10458.5 215.455  40
  -7  -2   5 10540.1 220.972  46
  -7  -2   5 10238.5 203.085  31
   7  -2  -4 8262.31 210.320  39
  -7  -2   4 8002.37 197.436  46
  -7  -2   4 8032.19 188.099  31
   7  -2  -4 8131.91 186.743  42
   7  -2  -3 7517.91 190.629  42
  -7  -2   3 7947.47 201.944  46
   7  -2  -3 8091.87 208.232  39
  -7  -2   3 7783.43 191.353  31
   7  -2  -3 7896.50 425.243  16
   7  -2  -2 14268.6 270.165  39
  -7  -2   2 14512.0 268.105  31
   7  -2  -2 14034.6 263.246  42
   7  -2  -1 18377.7 299.236  39
  -7  -2   1 18577.8 306.571  31
   7  -2  -1 18200.5 297.942  42
   7  -2   0 6155.69 167.507  39
  -7  -2   0 6181.17 178.212  31
   7  -2   0 5946.05 170.723  42
   7  -2   1 1544.96 79.8348  39
  -7  -2  -1 1511.90 91.4912  31
   7  -2   1 1531.80 86.9021  42
  -7  -2  -1 1551.63 72.4951  36
  -7  -2  -2 2588.57 111.141  31
   7  -2   2 2486.15 102.161  42
  -7  -2  -2 2475.41 87.0876  41
  -7  -2  -2 2585.05 90.9073  36
   7  -2   3 526.692 43.6625  42
  -7  -2  -3 589.565 40.4686  41
   7  -2   4 2958.44 79.1962  42
  -7  -2  -4 2931.91 74.8215  41
   7  -1 -11 1664.01 66.2264  32
  -7  -1  11 1621.37 55.0280  40
   7  -1 -10 1483.18 74.6132  32
  -7  -1  10 1387.23 53.0444  31
  -7  -1  10 1447.26 63.1480  40
  -7  -1  10 1375.69 55.1854  44
   7  -1  -9 5346.80 151.119  32
  -7  -1   9 5424.48 132.701  40
  -7  -1   9 5296.50 117.673  44
   7  -1  -8 7066.53 183.010  32
  -7  -1   8 7181.42 165.736  40
  -7  -1   8 6819.02 144.451  44
  -7  -1   7 61.7068 22.4676  46
  -7  -1   7 52.6875 26.9703  31
  -7  -1   7 54.3928 32.1015  40
   7  -1  -7 25.5923 18.9148  39
  -7  -1   6 1243.19 73.1477  46
   7  -1  -6 1315.23 80.5499  32
  -7  -1   6 1271.75 71.3893  31
   7  -1  -6 1287.83 80.4650  39
  -7  -1   6 1311.73 81.5927  40
  -7  -1   5 17010.4 278.465  46
   7  -1  -5 17023.6 268.769  32
  -7  -1   5 16849.9 255.019  31
   7  -1  -5 17345.3 298.239  39
  -7  -1   5 17065.3 280.262  40
  -7  -1   4 14281.5 266.622  46
  -7  -1   4 14521.5 248.080  31
   7  -1  -4 15041.5 582.545  16
   7  -1  -4 14419.3 274.610  39
  -7  -1   3 2627.17 113.060  31
   7  -1  -3 2746.93 242.306  16
   7  -1  -3 2756.86 122.411  39
  -7  -1   2 5221.89 163.112  31
   7  -1  -2 4975.63 320.126  16
   7  -1  -2 4662.91 313.248  18
   7  -1  -2 5012.43 160.169  39
  -7  -1   1 2237.44 111.323  31
   7  -1  -1 2069.46 214.718  18
   7  -1  -1 2076.08 103.397  39
  -7  -1   0 9154.55 188.447  41
   7  -1   0 9182.94 202.573  39
  -7  -1   0 9146.26 218.419  31
   7  -1   0 9123.54 437.957  18
   7  -1   1 6316.65 161.117  39
   7  -1   1 6063.76 169.219  22
  -7  -1  -1 6630.42 184.347  31
  -7  -1  -1 6415.62 160.049  41
   7  -1   2 1845.51 77.4267  39
   7  -1   2 1925.13 93.5806  22
  -7  -1  -2 1982.26 88.2541  41
   7  -1   2 1946.28 92.2919  42
  -7  -1  -2 1973.80 99.2975  31
   7  -1   3 3105.96 104.579  42
  -7  -1  -3 3201.91 104.973  41
   7  -1   4 3955.09 95.4312  42
  -7  -1  -4 4647.79 111.123  41
   7   0 -11 8354.86 150.563  32
  -7   0  10 3107.28 85.5461  44
   7   0 -10 3227.49 110.078  32
  -7   0  10 3176.74 89.4274  40
  -7   0   9 49311.0 368.793  44
   7   0  -9 49627.5 464.889  32
  -7   0   9 48419.1 390.347  40
  -7   0   8 2212.08 93.1374  40
   7   0  -8 2306.88 108.442  32
   7   0  -7 1146.95 68.6494  39
  -7   0   7 1237.24 74.9742  40
   7   0  -7 1117.11 78.0030  32
  -7   0   6 74.8645 34.0063  40
   7   0  -6 80.6556 27.5950  38
   7   0  -6 94.9158 29.2055  39
   7   0  -6 140.698 35.6705  32
   7   0  -5 22032.4 325.729  39
  -7   0   5 22695.7 326.171  40
   7   0  -5 22357.9 688.116  16
   7   0  -5 22299.1 317.945  32
  -7   0   5 21855.9 283.712  31
   7   0  -4 2881.65 122.365  39
  -7   0   4 2993.77 112.597  31
   7   0  -3 3546.42 134.888  39
   7   0  -3 3510.21 259.787  18
  -7   0   3 3479.05 126.694  31
   7   0  -2 8557.38 203.296  39
   7   0  -2 8374.63 408.481  18
  -7   0   2 8636.99 203.807  31
   7   0  -1 1484.72 86.2543  39
  -7   0   1 1626.43 94.2024  31
   7   0  -1 1467.68 177.625  18
   7   0   0 479.180 51.7713  39
  -7   0   0 506.592 58.3738  31
  -7   0   0 498.560 50.2131  41
   7   0   0 357.361 87.9130  18
   7   0   1 5835.86 150.498  39
  -7   0  -1 5921.83 171.631  31
  -7   0  -1 5996.08 161.269  41
   7   0   1 5710.91 336.963  18
  -7   0  -2 27971.4 358.436  31
  -7   0  -2 27927.6 335.798  41
  -7   0  -3 1799.40 82.7236  41
   7   0   3 1587.52 74.4046  42
   7   0   4 447.848 33.0315  42
  -7   0  -4 550.255 43.2980  41
  -7   0  -5 7548.90 122.805  41
   7   1 -11 1609.86 65.3957  32
   7   1 -10 1455.13 74.3806  32
  -7   1  10 1402.99 58.9988  44
  -7   1   9 5078.29 97.4356  37
  -7   1   9 5297.81 121.370  40
   7   1  -9 5282.01 149.895  32
  -7   1   9 5399.64 124.319  44
  -7   1   8 6787.68 121.528  37
  -7   1   8 7077.71 155.243  40
   7   1  -8 7348.16 176.951  38
   7   1  -8 7211.25 184.055  32
  -7   1   8 6831.43 150.449  44
  -7   1   7 79.2966 19.2449  37
   7   1  -7 71.9096 32.4791  32
   7   1  -7 71.4511 30.0863  38
   7   1  -7 48.7584 19.5679  39
   7   1  -6 1408.78 85.1039  32
  -7   1   6 1343.98 59.0179  37
   7   1  -6 1299.14 76.6683  39
  -7   1   6 1329.36 79.0122  40
   7   1  -6 1245.82 75.0455  38
   7   1  -5 17434.3 293.076  51
  -7   1   5 17215.9 246.875  31
   7   1  -5 16505.0 272.293  39
   7   1  -5 17183.9 257.457  38
   7   1  -4 14366.2 262.870  51
  -7   1   4 14022.0 233.091  31
   7   1  -3 2590.60 110.474  51
  -7   1   3 2674.32 108.655  31
  -7   1   3 2490.79 199.106  15
   7   1  -3 2646.44 222.377  18
   7   1  -2 4950.82 143.390  51
  -7   1   2 5104.30 154.498  31
  -7   1   2 4649.08 282.415  15
   7   1  -2 4991.43 320.455  18
   7   1  -1 2080.54 88.9324  51
  -7   1   1 2086.34 102.240  31
   7   1  -1 1918.90 199.819  18
   7   1   0 8868.93 188.668  39
   7   1   0 8445.12 412.354  18
  -7   1   0 9059.69 209.053  31
   7   1   1 6244.11 151.521  39
  -7   1  -1 6397.71 171.752  31
   7   1   1 6319.89 348.411  18
  -7   1  -1 6459.26 166.287  41
  -7   1  -2 2077.90 94.4343  41
  -7   1  -2 1981.24 92.6810  31
   7   1   2 1836.88 74.3355  39
  -7   1  -3 3383.51 111.926  41
  -7   1  -4 4486.02 115.263  41
   7   1   4 3593.44 85.2820  42
  -7   1  -5 280.376 25.3699  41
   7   2 -11 5133.57 104.311  32
   7   2 -10 802.981 54.0293  32
  -7   2  10 780.666 35.9246  37
   7   2  -9 1204.64 71.3038  32
  -7   2   9 1203.54 50.1670  37
   7   2  -9 1226.64 69.2694  38
   7   2  -8 2031.84 96.9733  32
  -7   2   8 2009.84 70.4718  37
   7   2  -8 2048.61 92.6752  38
   7   2  -7 13527.0 247.536  32
  -7   2   7 13269.5 187.032  37
   7   2  -7 13552.3 238.355  38
   7   2  -6 5487.37 161.069  51
  -7   2   6 5297.19 122.908  37
   7   2  -6 5155.42 140.750  39
   7   2  -6 5466.56 151.838  38
   7   2  -5 10514.5 220.717  51
  -7   2   5 10348.6 187.969  31
  -7   2   5 10066.7 173.375  37
   7   2  -5 10407.4 203.025  38
   7   2  -4 8180.51 190.276  51
  -7   2   4 8109.75 174.031  31
  -7   2   4 7944.37 159.382  37
   7   2  -3 7730.34 182.027  51
   7   2  -3 7229.09 368.076  18
  -7   2   3 7752.76 177.101  31
  -7   2   3 7870.51 163.406  37
   7   2  -2 13932.9 235.759  51
   7   2  -2 13291.9 505.676  18
  -7   2   2 14102.0 243.872  31
  -7   2   2 13889.8 220.918  37
   7   2  -1 17868.7 248.200  51
  -7   2   1 18348.2 256.096  37
   7   2  -1 18640.6 601.629  18
  -7   2   1 18309.8 278.637  31
  -7   2   0 6157.48 147.866  37
  -7   2   0 6170.61 159.955  31
   7   2   0 6439.33 349.880  18
  -7   2  -1 1474.46 70.7074  37
  -7   2  -1 1553.67 78.0666  31
  -7   2  -1 1537.16 81.5735  41
  -7   2  -2 2515.42 86.1338  37
  -7   2  -2 2636.08 102.584  41
  -7   2  -3 576.147 47.9848  41
  -7   2  -4 3371.68 94.6344  41
  -7   3  10 236.241 20.5207  37
   7   3 -10 234.539 27.7498  32
  -7   3   9 3443.59 81.8611  37
   7   3  -9 3581.69 105.704  38
   7   3  -9 3394.83 107.675  32
  -7   3   8 16.6291 17.8928  37
   7   3  -8 1.82192 24.2008  32
   7   3  -8 4.30978 23.1877  38
   7   3  -7 1760.03 85.6084  51
  -7   3   7 1711.25 69.4551  37
   7   3  -7 1771.49 84.7312  38
  -7   3   6 20956.5 242.144  31
  -7   3   6 20781.4 245.944  37
   7   3  -6 21065.2 285.822  38
   7   3  -5 1041.29 71.9348  51
  -7   3   5 1107.71 60.2642  31
  -7   3   5 1025.20 60.7109  37
   7   3  -5 1008.27 63.5239  38
   7   3  -4 6076.13 160.399  51
  -7   3   4 5963.35 139.859  31
  -7   3   4 5891.44 141.726  37
   7   3  -4 5746.08 138.590  38
   7   3  -3 10491.6 205.265  51
   7   3  -3 10135.3 425.286  18
  -7   3   3 10752.7 191.931  31
  -7   3   3 10394.5 194.237  37
   7   3  -2 1531.51 79.6767  51
  -7   3   2 1453.38 76.8106  37
  -7   3   2 1576.77 75.0677  31
   7   3  -1 36225.5 345.939  51
  -7   3   1 36360.8 368.455  37
  -7   3   0 2921.84 104.374  37
  -7   3  -1 11624.5 198.577  37
  -7   3  -2 4596.77 116.718  37
  -7   3  -2 4794.58 127.634  41
  -7   3  -3 142.236 25.4686  41
  -7   3  -4 4633.75 96.4025  41
   7   4  -9 1753.91 68.3667  32
  -7   4   9 1755.52 54.4297  37
   7   4  -9 1765.43 66.1513  38
   7   4  -8 1184.49 63.4597  32
  -7   4   8 1022.75 41.5243  31
  -7   4   8 1120.82 49.6790  37
   7   4  -8 1112.84 60.0128  38
   7   4  -7 2319.53 87.4838  51
  -7   4   7 2161.16 65.4956  31
  -7   4   7 2254.86 75.7443  37
   7   4  -7 2292.94 87.1616  38
   7   4  -6 84.4912 25.7361  38
   7   4  -6 90.5796 28.2505  51
  -7   4   6 76.6676 24.7669  37
   7   4  -5 3776.18 118.947  51
  -7   4   5 3601.08 105.958  37
   7   4  -5 3695.78 111.319  38
   7   4  -4 313.322 42.5790  51
   7   4  -4 288.823 32.3525  38
  -7   4   4 298.051 38.5960  37
   7   4  -3 3155.85 109.089  51
  -7   4   3 2994.70 103.130  37
   7   4  -2 19409.2 259.276  51
  -7   4   2 19230.0 259.048  37
   7   4  -1 29173.7 289.553  51
  -7   4   1 30271.1 322.310  37
   7   4   0 7909.70 132.903  51
  -7   4   0 8694.66 170.012  37
  -7   4  -1 1191.64 62.2788  37
  -7   4  -2 2145.14 75.4395  37
  -7   4  -2 2121.12 76.7681  41
  -7   4  -3 8319.39 129.116  41
   7   5  -8 62.9198 15.7644  38
   7   5  -8 35.4640 14.2418  32
   7   5  -7 3179.83 86.8116  51
  -7   5   7 3139.52 80.3870  37
   7   5  -7 3135.31 88.6390  38
   7   5  -6 2079.50 77.4765  51
  -7   5   6 2215.94 73.6045  37
   7   5  -6 2080.96 75.2200  38
   7   5  -5 887.136 53.6787  51
   7   5  -5 851.246 49.0621  38
  -7   5   5 923.202 52.2828  37
   7   5  -4 3304.66 101.138  51
   7   5  -4 3055.94 86.8400  38
  -7   5   4 3161.69 95.4872  37
   7   5  -3 988.646 56.9588  51
  -7   5   3 1033.43 58.2432  37
   7   5  -2 4258.18 111.001  51
  -7   5   2 4450.75 116.141  37
   7   5  -1 10207.1 154.415  51
  -7   5   1 10566.4 175.121  37
  -7   5   0 2278.04 80.1872  37
  -7   5  -1 2483.17 76.9695  37
  -7   5  -1 2361.84 72.6494  41
  -7   5  -2 2093.98 62.4267  37
  -7   6   6 1829.95 54.6674  37
   7   6  -5 3096.05 78.5514  51
  -7   6   5 2991.99 75.9756  37
   7   6  -4 436.269 32.8604  51
  -7   6   4 405.558 31.4704  37
   7   6  -3 149.289 21.4160  51
  -7   6   3 179.978 23.8059  37
   7   6  -2 8944.21 130.386  51
  -7   6   2 8900.50 138.887  37
  -7   6   1 6692.57 117.079  37
  -7   6   0 370.993 27.0078  37
   8  -4  -5 4084.48 99.5995  39
   8  -4  -4 5726.58 122.664  39
   8  -4  -3 1835.11 69.8645  39
   8  -4  -2 1592.82 61.8985  39
   8  -4  -1 16789.8 171.628  42
   8  -3  -6 117.060 21.2836  39
  -8  -3   6 144.222 20.2316  31
   8  -3  -5 81.2238 22.3596  39
  -8  -3   5 77.1580 19.3478  31
   8  -3  -4 3229.45 103.436  39
  -8  -3   4 3063.48 94.5517  31
   8  -3  -3 2217.51 85.7790  39
   8  -3  -3 2072.92 72.2251  42
  -8  -3   3 2100.94 80.9264  31
   8  -3  -2 2412.69 86.2231  39
   8  -3  -2 2401.35 81.2486  42
  -8  -3   2 2475.81 87.9736  31
   8  -3  -1 4260.59 106.020  39
   8  -3  -1 4089.92 103.896  42
  -8  -3   1 4381.02 114.496  31
   8  -3   0 6801.95 114.657  39
   8  -3   0 7276.54 129.450  42
   8  -3   1 1255.72 48.1156  42
  -8  -2   8 693.695 37.1885  31
   8  -2  -7 14.5224 11.5195  39
  -8  -2   7 18.7753 14.5367  31
   8  -2  -6 1559.26 71.9859  39
  -8  -2   6 1464.83 67.5169  31
   8  -2  -5 1309.72 70.8994  39
  -8  -2   5 1304.28 67.2832  31
   8  -2  -4 2169.26 91.4162  39
  -8  -2   4 2015.05 86.0202  31
   8  -2  -3 3906.77 120.736  39
   8  -2  -3 3824.63 109.162  42
  -8  -2   3 3778.79 118.830  31
   8  -2  -2 328.032 38.9338  39
   8  -2  -2 337.754 36.0869  42
  -8  -2   2 311.513 38.8530  31
   8  -2  -1 190.614 30.5844  39
   8  -2  -1 195.504 30.4128  42
  -8  -2   1 217.328 34.2475  31
   8  -2   0 4850.27 109.680  39
   8  -2   0 4968.34 118.752  42
   8  -2   1 1185.06 53.2481  42
   8  -1  -9 9770.24 141.412  32
  -8  -1   9 9950.70 130.569  31
   8  -1  -8 4149.96 100.967  32
  -8  -1   8 4178.90 98.1758  31
   8  -1  -7 2839.32 86.1886  39
   8  -1  -7 2670.42 82.9273  32
  -8  -1   7 2800.74 89.2353  31
   8  -1  -6 2975.81 101.770  39
  -8  -1   6 2845.65 96.2560  31
   8  -1  -5 4228.91 127.642  39
  -8  -1   5 4225.47 121.279  31
   8  -1  -4 5387.62 146.065  39
   8  -1  -4 5148.01 124.968  42
  -8  -1   4 5262.13 140.008  31
   8  -1  -3 10229.1 197.512  39
   8  -1  -3 9780.40 182.946  42
  -8  -1   3 10258.1 197.985  31
   8  -1  -2 3826.90 118.947  39
   8  -1  -2 3663.50 113.784  42
  -8  -1   2 3894.30 122.966  31
   8  -1  -1 5367.23 133.082  39
   8  -1  -1 5357.85 134.347  42
  -8  -1   1 5630.10 146.839  31
   8  -1   0 18.2035 14.6978  39
   8  -1   0 39.9808 20.2092  42
  -8  -1   0 27.0026 22.7610  31
   8  -1   1 4124.89 103.768  42
  -8  -1  -1 4576.92 118.903  31
   8  -1   2 1766.66 58.2086  42
   8   0  -9 3014.11 84.9068  32
  -8   0   9 2830.88 73.5209  31
   8   0  -8 23647.2 255.691  32
  -8   0   8 24126.0 238.585  31
   8   0  -7 8610.58 158.975  32
  -8   0   7 8701.01 154.921  31
   8   0  -6 8723.59 171.365  39
   8   0  -6 8602.50 156.844  32
  -8   0   6 8659.05 163.842  31
   8   0  -5 30.6623 24.1798  39
  -8   0   5 77.1027 28.2530  31
   8   0  -4 34.7476 24.3588  39
  -8   0   4 64.1976 27.8200  31
   8   0  -3 451.893 46.1467  39
  -8   0   3 401.087 47.3409  31
   8   0  -2 9809.05 187.205  39
  -8   0   2 9889.73 196.056  31
   8   0  -1 1653.80 75.2389  39
  -8   0   1 1610.23 65.5090  41
  -8   0   1 1635.52 80.4836  31
   8   0   0 16705.5 213.747  39
  -8   0   0 17230.2 206.421  41
   8   0   1 4195.53 90.7587  39
  -8   0  -1 4786.28 103.505  41
   8   0   1 4607.79 110.404  42
  -8   0  -1 5185.37 123.842  31
   8   0   2 512.443 32.7220  42
   8   1  -9 10231.8 155.161  32
  -8   1   9 10314.3 134.413  31
   8   1  -8 4248.03 109.803  32
  -8   1   8 4324.55 99.4709  31
   8   1  -7 2717.20 91.6911  32
  -8   1   7 2831.32 87.0132  31
   8   1  -6 2954.88 97.0041  39
   8   1  -6 2884.71 93.6564  32
  -8   1   6 3017.74 95.7394  31
   8   1  -5 4222.31 123.810  39
  -8   1   5 4054.71 115.896  31
   8   1  -4 5327.31 139.276  39
  -8   1   4 5253.02 135.288  31
   8   1  -3 10315.3 190.758  39
  -8   1   3 10437.6 193.867  31
   8   1  -2 3881.62 115.364  39
  -8   1   2 3627.92 100.496  41
  -8   1   2 3812.69 117.511  31
   8   1  -1 5580.02 131.568  39
  -8   1   1 5149.12 121.976  41
  -8   1   1 5570.00 137.170  31
  -8   1   0 19.7141 15.5278  41
   8   1   0 25.3867 16.3894  39
  -8   1   0 31.5801 17.4698  31
   8   1   1 3684.77 82.3482  39
  -8   1  -1 3993.60 98.5671  41
  -8   1  -2 1903.88 60.3111  41
   8   1   2 1597.32 53.3607  42
   8   2  -9 3574.22 86.6973  32
  -8   2   9 3477.54 71.9457  31
   8   2  -8 695.967 44.5533  32
  -8   2   8 752.926 39.6255  31
   8   2  -7 21.2143 17.5601  32
  -8   2   7 54.0399 18.1841  31
   8   2  -6 1556.03 66.0970  39
   8   2  -6 1497.05 67.2695  32
  -8   2   6 1677.42 67.6585  31
   8   2  -5 1322.04 66.6180  39
   8   2  -5 1270.36 60.2807  32
  -8   2   5 1388.30 65.1879  31
   8   2  -4 2138.22 84.9332  39
  -8   2   4 2064.25 79.9858  31
   8   2  -3 4045.92 115.023  39
  -8   2   3 3870.04 109.280  31
   8   2  -2 309.993 36.5993  39
  -8   2   2 320.010 34.2678  31
   8   2  -1 242.252 30.5653  39
  -8   2   1 212.701 28.9584  41
  -8   2   1 254.255 28.1953  31
   8   2   0 4711.03 103.726  39
  -8   2   0 5227.24 117.919  41
  -8   2  -1 1242.70 54.3222  41
   8   3  -8 6358.72 115.290  32
  -8   3   7 4556.08 89.0111  31
  -8   3   7 4370.95 82.4407  37
  -8   3   6 116.763 17.6998  37
   8   3  -6 146.215 23.5513  32
  -8   3   6 145.348 19.1776  31
   8   3  -6 112.519 18.0931  39
  -8   3   5 50.7957 14.4024  37
   8   3  -5 63.4877 17.6943  32
  -8   3   5 76.8466 16.9662  31
   8   3  -5 67.5672 19.3533  39
   8   3  -4 3132.09 97.7862  51
  -8   3   4 2981.48 79.9927  37
   8   3  -4 3214.97 95.0647  39
  -8   3   3 2107.07 67.9399  37
   8   3  -3 2182.58 79.3802  39
  -8   3   2 2235.02 68.4545  37
   8   3  -2 2393.85 81.0536  39
  -8   3   1 4295.20 101.939  41
   8   3  -1 4286.05 101.095  39
  -8   3   0 7779.68 132.927  41
   8   3   0 7003.57 113.036  39
  -8   3  -1 1401.57 51.7002  41
   8   4  -6 4337.70 91.9557  32
  -8   4   6 4239.34 81.3977  37
   8   4  -5 3890.08 86.9117  32
  -8   4   5 3991.43 84.5071  37
   8   4  -5 3949.58 85.9011  39
   8   4  -4 6098.24 118.214  51
   8   4  -4 5802.86 111.684  39
   8   4  -3 1874.27 63.1810  51
  -8   4   3 1758.19 58.5373  37
   8   4  -3 1863.35 64.5442  39
  -8   4   2 1477.18 52.1494  37
   8   4  -2 1628.18 58.8815  39
   8   4  -1 17591.2 173.315  39
  -8   4   1 18375.4 184.314  41
   9   0  -4 15.1610 10.4208  39
  -9   0   4 18.2418 11.3392  31
   0   0   0    0.00    0.00   0

TITL randres-6rat89-15 in P2(1)
REM P2(1) (#4 in standard setting)
CELL 1.54184   7.284613   8.306444  11.230971  90.0000 107.1156  90.0000
ZERR    2.00   0.000175   0.000166   0.000262   0.0000   0.0025   0.0000
LATT -1
SYMM -x, y+1/2,-z
SFAC C H N O
UNIT 30.00 36.00 4.00 2.00
TREF
HKLF 4
END
;
_shelx_hkl_checksum              48248
_olex2_date_sample_data_collection 2020-03-09
_olex2_submission_special_instructions 'No special instructions were received'
_oxdiff_exptl_absorpt_empirical_details
;
Empirical correction (ABSPACK) includes:
- Absorption correction using spherical harmonics
- Frame scaling
- B-factor correction
;
_oxdiff_exptl_absorpt_empirical_full_max 2.040
_oxdiff_exptl_absorpt_empirical_full_min 0.576
loop_
_space_group_symop_operation_xyz
'x, y, z'
'-x, y+1/2, -z'
loop_
_atom_site_label
_atom_site_type_symbol
_atom_site_fract_x
_atom_site_fract_y
_atom_site_fract_z
_atom_site_U_iso_or_equiv
_atom_site_adp_type
_atom_site_occupancy
_atom_site_site_symmetry_order
_atom_site_calc_flag
_atom_site_refinement_flags_posn
_atom_site_refinement_flags_adp
_atom_site_refinement_flags_occupancy
_atom_site_disorder_assembly
_atom_site_disorder_group
O1 O 0.61237(16) 0.50728(17) 0.57987(11) 0.0384(3) Uani 1 1 d . . . . .
N1 N 0.2319(2) 0.28458(16) 0.53520(13) 0.0286(3) Uani 1 1 d . . . . .
H1 H 0.288(3) 0.248(3) 0.4776(19) 0.033(5) Uiso 1 1 d . . . . .
N2 N 0.16166(19) 0.68493(16) 0.67189(12) 0.0271(3) Uani 1 1 d . . . . .
H2 H 0.069(3) 0.738(3) 0.618(2) 0.041(6) Uiso 1 1 d . . . . .
C1 C 0.1658(2) 0.51258(18) 0.64241(13) 0.0235(3) Uani 1 1 d . . . . .
H1A H 0.035(3) 0.468(2) 0.6163(16) 0.024(4) Uiso 1 1 d . . . . .
C2 C 0.2923(2) 0.44061(17) 0.76599(13) 0.0235(3) Uani 1 1 d . . . . .
C3 C 0.2532(2) 0.25958(19) 0.76197(15) 0.0280(3) Uani 1 1 d . . . . .
H3A H 0.117(3) 0.244(2) 0.7552(18) 0.030(5) Uiso 1 1 d . . . . .
H3B H 0.327(3) 0.204(3) 0.838(2) 0.036(5) Uiso 1 1 d . . . . .
C4 C 0.3042(2) 0.1864(2) 0.65012(15) 0.0299(3) Uani 1 1 d . . . . .
H4A H 0.446(3) 0.170(3) 0.6732(17) 0.030(5) Uiso 1 1 d . . . . .
H4B H 0.246(3) 0.080(3) 0.6309(19) 0.038(5) Uiso 1 1 d . . . . .
C5 C 0.2709(2) 0.46090(19) 0.55018(14) 0.0262(3) Uani 1 1 d . . . . .
C6 C 0.4821(2) 0.48504(18) 0.62441(14) 0.0267(3) Uani 1 1 d . . . . .
C7 C 0.5029(2) 0.47236(19) 0.76251(14) 0.0256(3) Uani 1 1 d . . . . .
H7 H 0.583(3) 0.381(3) 0.7965(19) 0.031(5) Uiso 1 1 d . . . . .
C8 C 0.2159(3) 0.5427(2) 0.42448(15) 0.0339(4) Uani 1 1 d . . . . .
H8A H 0.077(3) 0.520(3) 0.382(2) 0.043(5) Uiso 1 1 d . . . . .
H8B H 0.239(3) 0.669(3) 0.435(2) 0.045(6) Uiso 1 1 d . . . . .
H8C H 0.291(3) 0.489(3) 0.370(2) 0.045(6) Uiso 1 1 d . . . . .
C9 C 0.6083(2) 0.6197(2) 0.83181(17) 0.0344(4) Uani 1 1 d . . . . .
H9A H 0.532(3) 0.717(3) 0.801(2) 0.040(6) Uiso 1 1 d . . . . .
H9B H 0.629(3) 0.611(3) 0.923(2) 0.042(6) Uiso 1 1 d . . . . .
H9C H 0.735(3) 0.622(3) 0.819(2) 0.046(6) Uiso 1 1 d . . . . .
C10 C 0.2363(2) 0.54488(18) 0.85857(14) 0.0250(3) Uani 1 1 d . . . . .
C11 C 0.1629(2) 0.6888(2) 0.79780(14) 0.0258(3) Uani 1 1 d . . . . .
C12 C 0.1103(2) 0.8138(2) 0.86319(16) 0.0311(4) Uani 1 1 d . . . . .
H12 H 0.061(3) 0.914(3) 0.8213(18) 0.029(5) Uiso 1 1 d . . . . .
C13 C 0.1277(2) 0.7900(2) 0.98886(16) 0.0327(4) Uani 1 1 d . . . . .
H13 H 0.089(3) 0.872(3) 1.0329(19) 0.036(5) Uiso 1 1 d . . . . .
C14 C 0.1982(2) 0.6473(2) 1.04863(14) 0.0325(4) Uani 1 1 d . . . . .
H14 H 0.209(3) 0.630(3) 1.1390(17) 0.031(5) Uiso 1 1 d . . . . .
C15 C 0.2562(2) 0.5238(2) 0.98362(14) 0.0299(3) Uani 1 1 d . . . . .
H15 H 0.307(3) 0.422(3) 1.0255(19) 0.031(5) Uiso 1 1 d . . . . .
loop_
_atom_site_aniso_label
_atom_site_aniso_U_11
_atom_site_aniso_U_22
_atom_site_aniso_U_33
_atom_site_aniso_U_23
_atom_site_aniso_U_13
_atom_site_aniso_U_12
O1 0.0300(6) 0.0474(8) 0.0400(6) 0.0054(6) 0.0139(5) -0.0042(5)
N1 0.0290(7) 0.0290(7) 0.0276(6) -0.0060(5) 0.0081(5) -0.0010(5)
N2 0.0300(7) 0.0239(6) 0.0242(7) 0.0005(5) 0.0029(5) 0.0040(5)
C1 0.0227(7) 0.0232(7) 0.0226(7) -0.0016(6) 0.0035(5) -0.0005(6)
C2 0.0249(7) 0.0209(7) 0.0231(7) 0.0002(6) 0.0045(5) -0.0017(5)
C3 0.0324(8) 0.0216(7) 0.0302(8) 0.0007(6) 0.0093(6) -0.0029(6)
C4 0.0318(8) 0.0232(7) 0.0340(8) -0.0027(6) 0.0089(6) -0.0021(7)
C5 0.0251(7) 0.0275(8) 0.0245(7) -0.0002(6) 0.0051(6) -0.0005(6)
C6 0.0266(7) 0.0235(7) 0.0292(8) 0.0021(6) 0.0070(6) -0.0014(6)
C7 0.0233(7) 0.0244(7) 0.0268(7) 0.0011(6) 0.0035(6) 0.0000(6)
C8 0.0350(8) 0.0409(10) 0.0237(7) 0.0021(7) 0.0054(6) 0.0028(7)
C9 0.0284(8) 0.0324(9) 0.0380(9) -0.0049(7) 0.0031(7) -0.0070(7)
C10 0.0245(7) 0.0233(7) 0.0256(7) -0.0025(6) 0.0052(5) -0.0038(5)
C11 0.0230(7) 0.0270(7) 0.0251(7) -0.0026(6) 0.0033(6) -0.0020(6)
C12 0.0284(8) 0.0283(8) 0.0320(8) -0.0050(6) 0.0015(7) 0.0024(6)
C13 0.0274(8) 0.0363(9) 0.0324(8) -0.0126(7) 0.0057(6) -0.0017(7)
C14 0.0337(8) 0.0379(9) 0.0252(7) -0.0052(7) 0.0075(6) -0.0085(7)
C15 0.0337(8) 0.0288(8) 0.0255(7) 0.0003(6) 0.0062(6) -0.0054(7)
loop_
_atom_type_symbol
_atom_type_description
_atom_type_scat_dispersion_real
_atom_type_scat_dispersion_imag
_atom_type_scat_source
C C 0.0181 0.0091 'International Tables Vol C Tables 4.2.6.8 and 6.1.1.4'
H H 0.0000 0.0000 'International Tables Vol C Tables 4.2.6.8 and 6.1.1.4'
N N 0.0311 0.0180 'International Tables Vol C Tables 4.2.6.8 and 6.1.1.4'
O O 0.0492 0.0322 'International Tables Vol C Tables 4.2.6.8 and 6.1.1.4'
loop_
_exptl_crystal_face_index_h
_exptl_crystal_face_index_k
_exptl_crystal_face_index_l
_exptl_crystal_face_perp_dist
1 0 0 0.0577
0 0 -1 0.2616
0 -1 -1 0.3432
0 1 1 0.3262
0 -1 1 0.1711
0 1 -1 0.1711
-1 0 0 0.0577
0 1 0 0.2749
loop_
_geom_angle_atom_site_label_1
_geom_angle_atom_site_label_2
_geom_angle_atom_site_label_3
_geom_angle
_geom_angle_site_symmetry_1
_geom_angle_site_symmetry_3
_geom_angle_publ_flag
C4 N1 H1 108.3(13) . . ?
C4 N1 C5 115.70(12) . . ?
C5 N1 H1 107.4(14) . . ?
C1 N2 H2 113.5(15) . . ?
C11 N2 H2 116.6(14) . . ?
C11 N2 C1 104.66(12) . . ?
N2 C1 H1A 110.4(12) . . ?
N2 C1 C2 102.77(11) . . ?
N2 C1 C5 118.43(12) . . ?
C2 C1 H1A 113.2(11) . . ?
C5 C1 H1A 109.2(11) . . ?
C5 C1 C2 102.52(11) . . ?
C1 C2 C7 103.99(12) . . ?
C3 C2 C1 107.34(12) . . ?
C3 C2 C7 109.86(13) . . ?
C10 C2 C1 100.82(12) . . ?
C10 C2 C3 120.16(13) . . ?
C10 C2 C7 112.83(12) . . ?
C2 C3 H3A 107.8(12) . . ?
C2 C3 H3B 112.7(13) . . ?
C2 C3 C4 109.00(12) . . ?
H3A C3 H3B 106.7(17) . . ?
C4 C3 H3A 111.6(12) . . ?
C4 C3 H3B 109.1(12) . . ?
N1 C4 C3 112.60(13) . . ?
N1 C4 H4A 112.0(11) . . ?
N1 C4 H4B 106.5(12) . . ?
C3 C4 H4A 108.7(11) . . ?
C3 C4 H4B 110.2(12) . . ?
H4A C4 H4B 106.6(17) . . ?
N1 C5 C1 103.71(12) . . ?
N1 C5 C6 108.49(13) . . ?
N1 C5 C8 110.31(13) . . ?
C1 C5 C6 102.63(12) . . ?
C8 C5 C1 117.49(13) . . ?
C8 C5 C6 113.39(13) . . ?
O1 C6 C5 125.40(14) . . ?
O1 C6 C7 125.37(14) . . ?
C7 C6 C5 109.22(12) . . ?
C2 C7 H7 109.9(12) . . ?
C6 C7 C2 103.48(11) . . ?
C6 C7 H7 109.1(12) . . ?
C6 C7 C9 110.40(13) . . ?
C9 C7 C2 118.04(13) . . ?
C9 C7 H7 105.8(13) . . ?
C5 C8 H8A 107.9(13) . . ?
C5 C8 H8B 110.6(12) . . ?
C5 C8 H8C 108.6(13) . . ?
H8A C8 H8B 110.2(19) . . ?
H8A C8 H8C 106.3(18) . . ?
H8B C8 H8C 113.1(19) . . ?
C7 C9 H9A 109.3(13) . . ?
C7 C9 H9B 111.6(14) . . ?
C7 C9 H9C 107.3(15) . . ?
H9A C9 H9B 108.9(18) . . ?
H9A C9 H9C 113(2) . . ?
H9B C9 H9C 106.6(17) . . ?
C11 C10 C2 107.31(12) . . ?
C15 C10 C2 131.59(15) . . ?
C15 C10 C11 120.98(14) . . ?
C10 C11 N2 110.93(13) . . ?
C12 C11 N2 128.69(16) . . ?
C12 C11 C10 120.33(14) . . ?
C11 C12 H12 120.3(11) . . ?
C11 C12 C13 118.16(16) . . ?
C13 C12 H12 121.5(11) . . ?
C12 C13 H13 118.9(13) . . ?
C14 C13 C12 121.55(15) . . ?
C14 C13 H13 119.5(13) . . ?
C13 C14 H14 121.5(13) . . ?
C13 C14 C15 120.15(14) . . ?
C15 C14 H14 118.3(13) . . ?
C10 C15 C14 118.79(16) . . ?
C10 C15 H15 120.5(12) . . ?
C14 C15 H15 120.7(12) . . ?
loop_
_geom_bond_atom_site_label_1
_geom_bond_atom_site_label_2
_geom_bond_distance
_geom_bond_site_symmetry_2
_geom_bond_publ_flag
O1 C6 1.2102(19) . ?
N1 H1 0.91(2) . ?
N1 C4 1.486(2) . ?
N1 C5 1.492(2) . ?
N2 H2 0.88(2) . ?
N2 C1 1.472(2) . ?
N2 C11 1.4119(19) . ?
C1 H1A 0.981(19) . ?
C1 C2 1.543(2) . ?
C1 C5 1.520(2) . ?
C2 C3 1.529(2) . ?
C2 C7 1.568(2) . ?
C2 C10 1.499(2) . ?
C3 H3A 0.98(2) . ?
C3 H3B 0.98(2) . ?
C3 C4 1.536(2) . ?
C4 H4A 0.996(19) . ?
C4 H4B 0.98(2) . ?
C5 C6 1.532(2) . ?
C5 C8 1.511(2) . ?
C6 C7 1.517(2) . ?
C7 H7 0.96(2) . ?
C7 C9 1.530(2) . ?
C8 H8A 1.00(2) . ?
C8 H8B 1.06(3) . ?
C8 H8C 1.03(2) . ?
C9 H9A 0.98(2) . ?
C9 H9B 0.99(2) . ?
C9 H9C 0.97(2) . ?
C10 C11 1.402(2) . ?
C10 C15 1.380(2) . ?
C11 C12 1.389(2) . ?
C12 H12 0.97(2) . ?
C12 C13 1.394(2) . ?
C13 H13 0.93(2) . ?
C13 C14 1.384(3) . ?
C14 H14 1.005(19) . ?
C14 C15 1.395(2) . ?
C15 H15 0.99(2) . ?
loop_
_geom_hbond_atom_site_label_D
_geom_hbond_atom_site_label_H
_geom_hbond_atom_site_label_A
_geom_hbond_distance_DH
_geom_hbond_distance_HA
_geom_hbond_distance_DA
_geom_hbond_angle_DHA
_geom_hbond_site_symmetry_A
_geom_hbond_publ_flag
N1 H1 O1 0.91(2) 2.28(2) 3.0207(19) 137.7(17) 2_646 yes
N2 H2 N1 0.88(2) 2.39(2) 3.2233(19) 159(2) 2_556 yes
loop_
_geom_torsion_atom_site_label_1
_geom_torsion_atom_site_label_2
_geom_torsion_atom_site_label_3
_geom_torsion_atom_site_label_4
_geom_torsion
_geom_torsion_site_symmetry_1
_geom_torsion_site_symmetry_2
_geom_torsion_site_symmetry_3
_geom_torsion_site_symmetry_4
_geom_torsion_publ_flag
O1 C6 C7 C2 -178.93(16) . . . . ?
O1 C6 C7 C9 53.8(2) . . . . ?
N1 C5 C6 O1 94.88(19) . . . . ?
N1 C5 C6 C7 -83.67(14) . . . . ?
N2 C1 C2 C3 161.27(12) . . . . ?
N2 C1 C2 C7 -82.33(13) . . . . ?
N2 C1 C2 C10 34.72(14) . . . . ?
N2 C1 C5 N1 -175.42(12) . . . . ?
N2 C1 C5 C6 71.68(16) . . . . ?
N2 C1 C5 C8 -53.44(19) . . . . ?
N2 C11 C12 C13 -178.72(15) . . . . ?
C1 N2 C11 C10 21.54(16) . . . . ?
C1 N2 C11 C12 -161.22(16) . . . . ?
C1 C2 C3 C4 59.69(16) . . . . ?
C1 C2 C7 C6 -24.79(14) . . . . ?
C1 C2 C7 C9 97.47(15) . . . . ?
C1 C2 C10 C11 -22.65(15) . . . . ?
C1 C2 C10 C15 161.46(16) . . . . ?
C1 C5 C6 O1 -155.78(16) . . . . ?
C1 C5 C6 C7 25.67(15) . . . . ?
C2 C1 C5 N1 72.38(13) . . . . ?
C2 C1 C5 C6 -40.52(14) . . . . ?
C2 C1 C5 C8 -165.63(14) . . . . ?
C2 C3 C4 N1 -44.38(17) . . . . ?
C2 C10 C11 N2 1.63(17) . . . . ?
C2 C10 C11 C12 -175.87(14) . . . . ?
C2 C10 C15 C14 176.75(15) . . . . ?
C3 C2 C7 C6 89.83(14) . . . . ?
C3 C2 C7 C9 -147.91(14) . . . . ?
C3 C2 C10 C11 -140.17(14) . . . . ?
C3 C2 C10 C15 43.9(2) . . . . ?
C4 N1 C5 C1 -61.39(16) . . . . ?
C4 N1 C5 C6 47.20(17) . . . . ?
C4 N1 C5 C8 171.96(13) . . . . ?
C5 N1 C4 C3 47.36(17) . . . . ?
C5 C1 C2 C3 -75.33(14) . . . . ?
C5 C1 C2 C7 41.06(14) . . . . ?
C5 C1 C2 C10 158.11(12) . . . . ?
C5 C6 C7 C2 -0.38(15) . . . . ?
C5 C6 C7 C9 -127.61(14) . . . . ?
C7 C2 C3 C4 -52.77(16) . . . . ?
C7 C2 C10 C11 87.69(15) . . . . ?
C7 C2 C10 C15 -88.2(2) . . . . ?
C8 C5 C6 O1 -28.0(2) . . . . ?
C8 C5 C6 C7 153.42(13) . . . . ?
C10 C2 C3 C4 173.83(13) . . . . ?
C10 C2 C7 C6 -133.14(13) . . . . ?
C10 C2 C7 C9 -10.88(19) . . . . ?
C10 C11 C12 C13 -1.7(2) . . . . ?
C11 N2 C1 C2 -34.84(14) . . . . ?
C11 N2 C1 C5 -146.89(13) . . . . ?
C11 C10 C15 C14 1.3(2) . . . . ?
C11 C12 C13 C14 1.0(2) . . . . ?
C12 C13 C14 C15 0.8(2) . . . . ?
C13 C14 C15 C10 -2.0(2) . . . . ?
C15 C10 C11 N2 178.05(14) . . . . ?
C15 C10 C11 C12 0.6(2) . . . . ?
loop_
_exptl_oxdiff_crystal_face_indexfrac_h
_exptl_oxdiff_crystal_face_indexfrac_k
_exptl_oxdiff_crystal_face_indexfrac_l
_exptl_oxdiff_crystal_face_x
_exptl_oxdiff_crystal_face_y
_exptl_oxdiff_crystal_face_z
1.0000 0.0000 0.0000 0.0071 -0.1808 -0.1275
0.0000 0.0000 -1.0000 -0.0839 -0.0308 0.1123
-0.0000 -1.0000 -1.0000 0.0640 -0.0912 0.2064
0.0000 1.0000 1.0000 -0.0640 0.0912 -0.2064
-0.0000 -1.0000 1.0000 0.2319 -0.0297 -0.0183
0.0000 1.0000 -1.0000 -0.2319 0.0297 0.0183
-1.0000 -0.0000 -0.0000 -0.0071 0.1808 0.1275
0.0002 0.9995 -0.0003 -0.1479 0.0604 -0.0940
