#------------------------------------------------------------------------------
#$Date: 2021-02-04 02:53:14 +0200 (Thu, 04 Feb 2021) $
#$Revision: 261473 $
#$URL: file:///home/coder/svn-repositories/cod/cif/4/13/56/4135608.cif $
#------------------------------------------------------------------------------
#
# This file is available in the Crystallography Open Database (COD),
# http://www.crystallography.net/
#
# All data on this site have been placed in the public domain by the
# contributors.
#
data_4135608
loop_
_publ_author_name
'Benz, Maximilian'
'Klap\"otke, Thomas M'
'Krumm, Burkhard'
'Lommel, Marcus'
'Stierstorfer, J\"org'
_publ_section_title
;
 Nitrocarbamoyl Azide O<sub>2</sub>NN(H)C(O)N<sub>3</sub>: A Stable but
 Highly Energetic Member of the Carbonyl Azide Family.
;
_journal_issue                   3
_journal_name_full               'Journal of the American Chemical Society'
_journal_page_first              1323
_journal_page_last               1327
_journal_paper_doi               10.1021/jacs.0c12507
_journal_volume                  143
_journal_year                    2021
_chemical_formula_moiety         'C2 H4 N2 O4'
_chemical_formula_sum            'C2 H4 N2 O4'
_chemical_formula_weight         120.07
_chemical_name_common            'methyl nitrocarbamate'
_chemical_name_systematic        'methyl nitrocarbamate'
_space_group_IT_number           2
_space_group_name_Hall           '-P 1'
_space_group_name_H-M_alt        'P -1'
_symmetry_cell_setting           triclinic
_symmetry_Int_Tables_number      2
_symmetry_space_group_name_Hall  '-P 1'
_symmetry_space_group_name_H-M   'P -1'
_atom_sites_solution_hydrogens   difmap
_atom_sites_solution_primary     difmap
_audit_creation_date             2020-09-03
_audit_creation_method           SHELXL-2018/3
_audit_update_record             2020-10-01
_cell_angle_alpha                99.142(12)
_cell_angle_beta                 90.045(12)
_cell_angle_gamma                103.622(12)
_cell_formula_units_Z            4
_cell_length_a                   7.6411(10)
_cell_length_b                   7.7969(11)
_cell_length_c                   8.3332(13)
_cell_measurement_reflns_used    801
_cell_measurement_temperature    110(2)
_cell_measurement_theta_max      30.4310
_cell_measurement_theta_min      2.5600
_cell_volume                     475.99(12)
_computing_cell_refinement       'CrysAlisPro 1.171.40.82a (Rigaku OD, 2020)'
_computing_data_collection       'CrysAlisPro 1.171.40.82a (Rigaku OD, 2020)'
_computing_data_reduction        'CrysAlisPro 1.171.40.82a (Rigaku OD, 2020)'
_computing_molecular_graphics    'Diamond 2.1c, Crystal Impact GbR'
_computing_publication_material  'Encifer 1.5.1, CCDC 2014'
_computing_structure_refinement  'SHELXL-2018/3 (Sheldrick, 2018)'
_computing_structure_solution    SIR-92
_diffrn_ambient_temperature      110(2)
_diffrn_detector                 'CCD plate'
_diffrn_detector_area_resol_mean 15.9809
_diffrn_detector_type            Sapphire3
_diffrn_measured_fraction_theta_full 0.998
_diffrn_measured_fraction_theta_max 0.998
_diffrn_measurement_details
;
List of Runs (angles in degrees, time in seconds):

  # Type    Start    End  Width  t~exp~   \w     \q     \k     \f   Frames
--------------------------------------------------------------------------
  1  \w    -41.00  52.00   1.00   47.00    --   29.64 -57.00  30.00   93
  2  \w    -19.00  72.00   1.00   47.00    --   29.64 -99.00 -90.00   91
  3  \w      6.00  99.00   1.00   47.00    --   29.64  57.00-180.00   93
  4  \w     81.00 112.00   1.00   47.00    --   29.64-178.00 120.00   31
  5  \w    -44.00  45.00   1.00   47.00    --   29.64 -37.00 -90.00   89
;
_diffrn_measurement_device       'four-circle diffractometer'
_diffrn_measurement_device_type  'Xcalibur, Sapphire3'
_diffrn_measurement_method       '\w scans'
_diffrn_orient_matrix_UB_11      -0.0533045000
_diffrn_orient_matrix_UB_12      0.0519306000
_diffrn_orient_matrix_UB_13      -0.0302058000
_diffrn_orient_matrix_UB_21      -0.0059700000
_diffrn_orient_matrix_UB_22      0.0445931000
_diffrn_orient_matrix_UB_23      0.0801806000
_diffrn_orient_matrix_UB_31      0.0791227000
_diffrn_orient_matrix_UB_32      0.0657092000
_diffrn_orient_matrix_UB_33      -0.0101498000
_diffrn_radiation_monochromator  graphite
_diffrn_radiation_probe          x-ray
_diffrn_radiation_type           MoK\a
_diffrn_radiation_wavelength     0.71073
_diffrn_reflns_av_R_equivalents  0.0172
_diffrn_reflns_av_sigmaI/netI    0.0381
_diffrn_reflns_av_unetI/netI     0.0314
_diffrn_reflns_Laue_measured_fraction_full 0.998
_diffrn_reflns_Laue_measured_fraction_max 0.998
_diffrn_reflns_limit_h_max       9
_diffrn_reflns_limit_h_min       -9
_diffrn_reflns_limit_k_max       9
_diffrn_reflns_limit_k_min       -6
_diffrn_reflns_limit_l_max       8
_diffrn_reflns_limit_l_min       -10
_diffrn_reflns_number            3157
_diffrn_reflns_point_group_measured_fraction_full 0.998
_diffrn_reflns_point_group_measured_fraction_max 0.998
_diffrn_reflns_theta_full        25.242
_diffrn_reflns_theta_max         26.358
_diffrn_reflns_theta_min         2.725
_diffrn_source                   'fine-focus sealed X-ray tube'
_exptl_absorpt_coefficient_mu    0.164
_exptl_absorpt_correction_T_max  1.00000
_exptl_absorpt_correction_T_min  0.57409
_exptl_absorpt_correction_type   multi-scan
_exptl_absorpt_process_details
;
CrysAlisPro 1.171.40.82a (Rigaku Oxford Diffraction, 2020)
Empirical absorption correction using spherical harmonics,
implemented in SCALE3 ABSPACK scaling algorithm.
;
_exptl_crystal_colour            colorless
_exptl_crystal_density_diffrn    1.676
_exptl_crystal_description       plate
_exptl_crystal_F_000             248
_exptl_crystal_size_max          0.50
_exptl_crystal_size_mid          0.50
_exptl_crystal_size_min          0.05
_refine_diff_density_max         0.314
_refine_diff_density_min         -0.344
_refine_diff_density_rms         0.062
_refine_ls_extinction_method     none
_refine_ls_goodness_of_fit_ref   1.045
_refine_ls_hydrogen_treatment    refall
_refine_ls_matrix_type           full
_refine_ls_number_parameters     177
_refine_ls_number_reflns         1947
_refine_ls_number_restraints     0
_refine_ls_restrained_S_all      1.045
_refine_ls_R_factor_all          0.0667
_refine_ls_R_factor_gt           0.0489
_refine_ls_shift/su_max          0.000
_refine_ls_shift/su_mean         0.000
_refine_ls_structure_factor_coef Fsqd
_refine_ls_weighting_details
'w=1/[\s^2^(Fo^2^)+(0.0888P)^2^+0.0051P] where P=(Fo^2^+2Fc^2^)/3'
_refine_ls_weighting_scheme      calc
_refine_ls_wR_factor_gt          0.1332
_refine_ls_wR_factor_ref         0.1484
_reflns_Friedel_coverage         0.000
_reflns_number_gt                1449
_reflns_number_total             1947
_reflns_threshold_expression     'I > 2\s(I)'
_cod_data_source_file            ja0c12507_si_001.cif
_cod_data_source_block           px309
_cod_database_code               4135608
_shelx_space_group_comment
;
The symmetry employed for this shelxl refinement is uniquely defined
by the following loop, which should always be used as a source of
symmetry information in preference to the above space-group names.
They are only intended as comments.
;
_shelx_estimated_absorpt_t_min   0.960
_shelx_estimated_absorpt_t_max   0.987
_shelx_res_file
;
TITL v1_a.res in P-1
    shelx.res
    created by SHELXL-2018/3 at 11:56:34 on 01-Oct-2020
CELL  0.71073   7.6411   7.7969   8.3332   99.142   90.045  103.622
ZERR     4.00   0.0010   0.0011   0.0013    0.012    0.012    0.012
LATT   1
SFAC  C    H    N    O
UNIT  8 16 8 16
MERG   2
OMIT     0   0   1
MORE -1
SHEL 1000 0.8
FMAP   2   53   53
PLAN   20
SIZE     0.080   0.150   0.250
ACTA
BOND
BOND   $H
CONF
LIST   4
L.S.  15
TEMP  -163.00
WGHT    0.088800    0.005100
FVAR       0.67146
O6    4    0.805980    0.989357    0.294618    11.00000    0.02651    0.02588 =
         0.02734    0.00225    0.00174   -0.00330
O5    4    0.584998    0.814146    0.416160    11.00000    0.02361    0.02205 =
         0.04150    0.00544   -0.00239   -0.00791
O1    4    0.914312    0.631637    0.416243    11.00000    0.02259    0.02739 =
         0.04439    0.01265    0.00362   -0.00520
O2    4    0.696424    0.384365    0.326217    11.00000    0.03160    0.02906 =
         0.02725    0.00112    0.00334   -0.00418
O7    4    0.601341    0.935853    0.735025    11.00000    0.02793    0.03773 =
         0.04038    0.01657    0.00761   -0.00287
O4    4    0.660336    0.552332    0.841470    11.00000    0.04698    0.03917 =
         0.02855    0.00565    0.00081    0.00233
O3    4    0.876634    0.730217    0.735813    11.00000    0.02943    0.02660 =
         0.04987   -0.00567   -0.00680   -0.00766
O8    4    0.813154    1.173485    0.813965    11.00000    0.04601    0.04059 =
         0.03031   -0.00553    0.00771   -0.00655
C1    1    0.786322    0.514884    0.436687    11.00000    0.01812    0.01835 =
         0.03186    0.00794    0.00044    0.00258
C3    1    0.712233    0.939260    0.419445    11.00000    0.01725    0.01913 =
         0.03071    0.00684   -0.00068    0.00145
C4    1    0.748543    0.879509    0.137349    11.00000    0.04155    0.03590 =
         0.02827   -0.00265   -0.00209    0.00213
C2    1    0.756416    0.377876    0.161296    11.00000    0.04230    0.04563 =
         0.02849    0.00759    0.00685    0.00817
N2    3    0.751922    0.599484    0.728420    11.00000    0.02478    0.02493 =
         0.03196    0.00282   -0.00420    0.00362
N4    3    0.728462    1.053140    0.711106    11.00000    0.02288    0.02534 =
         0.03139    0.00749    0.00232    0.00343
N1    3    0.702487    0.490188    0.581810    11.00000    0.02030    0.01965 =
         0.02813    0.00127   -0.00010   -0.00611
N3    3    0.790115    1.058110    0.555426    11.00000    0.01938    0.02123 =
         0.02818    0.00423    0.00146   -0.00500
H4C   2    0.823052    0.941989    0.063946    11.00000    0.07326
H4B   2    0.766669    0.764078    0.124544    11.00000    0.09340
H4A   2    0.636545    0.877435    0.102360    11.00000    0.08229
H1    2    0.611795    0.412531    0.592969    11.00000    0.03333
H3    2    0.877569    1.144402    0.552062    11.00000    0.03435
H2A   2    0.672723    0.283581    0.094565    11.00000    0.09792
H2C   2    0.736913    0.465876    0.114449    11.00000    0.09161
H2B   2    0.869195    0.381079    0.147238    11.00000    0.10657
HKLF    4




REM  v1_a.res in P-1
REM wR2 = 0.1484, GooF = S = 1.045, Restrained GooF = 1.045 for all data
REM R1 = 0.0489 for 1449 Fo > 4sig(Fo) and 0.0667 for all 1947 data
REM 177 parameters refined using 0 restraints

END

WGHT      0.0888      0.0051

REM Highest difference peak  0.314,  deepest hole -0.344,  1-sigma level  0.062
Q1    1   0.8821  0.5007  0.1595  11.00000  0.05    0.31
Q2    1   0.6373  0.7728  0.1527  11.00000  0.05    0.28
Q3    1   0.8283  0.2756  0.1395  11.00000  0.05    0.27
Q4    1   0.7119  0.3627  0.2743  11.00000  0.05    0.25
Q5    1   0.7312  0.5151  0.5226  11.00000  0.05    0.25
Q6    1   0.6427  0.4019  0.0991  11.00000  0.05    0.24
Q7    1   0.6112  0.9646  0.7071  11.00000  0.05    0.23
Q8    1   0.5665  0.7548  0.5138  11.00000  0.05    0.20
Q9    1   0.7816  1.0290  0.6200  11.00000  0.05    0.20
Q10   1   0.8967  0.6763  0.5174  11.00000  0.05    0.20
Q11   1   0.8840  0.5820  0.4434  11.00000  0.05    0.20
Q12   1   0.6620  0.9573  0.0816  11.00000  0.05    0.19
Q13   1   0.8273  1.1246  0.7749  11.00000  0.05    0.19
Q14   1   0.7822  1.1252  0.8983  11.00000  0.05    0.18
Q15   1   0.7201  0.9652  0.0409  11.00000  0.05    0.18
Q16   1   0.6763  1.0367  0.2467  11.00000  0.05    0.18
Q17   1   0.6416  0.5473  0.5004  11.00000  0.05    0.17
Q18   1   0.8420  0.8470  0.0657  11.00000  0.05    0.17
Q19   1   0.6906  0.4556  0.2459  11.00000  0.05    0.17
Q20   1   0.8088  0.5601  0.4174  11.00000  0.05    0.17
;
_shelx_res_checksum              96255
_shelx_hkl_file
;
   0   0  -1    0.00    0.10
   0   0   1   -0.10    0.10
   0   0   2  860.11    8.20
   0   0  -2  856.61    8.60
   0   0  -2  866.61    7.90
   0   0  -3   58.09    1.50
   0   0  -3   55.29    1.80
   0   0   3   54.09    1.60
   0   0  -4   12.90    1.10
   0   0   4   13.10    0.90
   0   0  -4   13.20    0.80
   0   0  -5    2.80    0.60
   0   0  -5    2.40    0.50
   0   0  -6   65.09    2.80
   0   0  -6   62.39    2.30
   0   0  -7  437.06    7.30
   0   0  -7  472.65    8.70
   0   0  -7  458.95    6.90
   0   0  -8   54.69    2.20
   0   0  -8   58.49    3.10
   0   0  -9   12.00    1.60
   0   0 -10    0.20    0.60
   0   0 -11   -0.30    0.60
   0   1 -11    0.70    0.80
   0   1 -10   -0.20    0.70
   0   1  -9   15.40    1.80
   0   1  -8   -0.50    0.40
   0   1  -8    1.40    0.70
   0   1  -7    0.90    0.40
   0   1  -7    1.00    0.60
   0   1  -7    1.80    0.40
   0   1  -6   46.10    1.70
   0   1  -6   45.90    2.00
   0   1  -6   47.30    2.40
   0   1  -5  121.89    3.50
   0   1  -5  115.99    2.90
   0   1  -5  116.79    2.50
   0   1  -4 1059.19   11.10
   0   1  -4 1060.89   10.40
   0   1  -4 1060.69   10.20
   0   1  -4 1076.29   12.10
   0   1  -3  353.76    4.80
   0   1  -3  360.36    4.00
   0   1  -3  356.26    5.30
   0   1  -3  357.06    4.50
   0   1  -2    1.40    0.40
   0   1  -2    1.10    0.30
   0   1  -2    1.60    0.20
   0   1  -1   15.40    0.40
   0   1  -1   14.90    0.70
   0   1   0    4.90    0.40
   0   1   1   17.70    0.80
   0   1   2  241.08    3.80
   0   1   3 1027.00   11.20
   0   1   4   51.79    2.10
   0   1   5   33.20    1.90
   0  -1  -5   36.40    1.60
   0  -1  -6    2.00    0.70
   0  -1  -6    0.70    0.40
   0   1   6    0.70    0.50
   0  -1  -7    2.40    0.60
   0  -1  -7    1.70    0.60
   0  -1  -8    0.20    0.70
   0  -1  -9   18.50    2.00
   0  -1 -10   20.20    2.10
   0  -1 -11    6.40    1.50
   0   2 -11    2.20    0.90
   0   2 -10    1.30    0.90
   0   2  -9    0.30    0.60
   0   2  -8   61.49    3.30
   0   2  -8   53.49    2.50
   0   2  -7   13.00    1.50
   0   2  -7   11.40    0.80
   0   2  -7    9.40    1.10
   0   2  -6   12.10    1.10
   0   2  -6   13.90    0.80
   0   2  -6   16.20    1.50
   0   2  -5    6.90    0.70
   0   2  -5    6.50    0.80
   0   2  -5    7.90    0.50
   0   2  -5    7.30    1.00
   0   2  -4   22.90    1.50
   0   2  -4   22.10    0.80
   0   2  -4   19.40    1.20
   0   2  -4   19.50    1.20
   0   2  -3    8.20    0.90
   0   2  -3    7.90    0.80
   0   2  -3    9.20    0.50
   0   2  -2  105.79    2.70
   0   2  -2  105.09    1.70
   0   2  -2  106.29    2.50
   0   2  -1 3259.67   27.50
   0   2  -1 3253.17   26.70
   0   2  -1 3245.88   27.60
   0   2   0 1265.37   12.10
   0   2   1  503.05    6.50
   0   2   2   47.90    1.90
   0   2   3    9.00    0.90
   0   2   4    8.20    1.00
   0   2   5  113.79    3.90
   0   2   6   65.29    3.10
   0  -2  -7  213.48    5.30
   0  -2  -7  202.68    5.80
   0   2   7  209.18    6.10
   0  -2  -8    1.20    0.80
   0   2   8    0.40    0.60
   0  -2  -9    0.50    0.70
   0  -2 -10   -0.40    0.60
   0  -2 -11    4.00    1.20
   0   3 -11   -0.90    0.70
   0   3 -10    5.50    1.30
   0   3  -9    0.30    0.60
   0   3  -8    0.50    0.70
   0   3  -8    0.50    0.50
   0   3  -7   12.60    1.30
   0   3  -7   14.30    1.60
   0   3  -7   14.00    1.20
   0   3  -6    7.30    0.90
   0   3  -6    6.10    1.10
   0   3  -6    6.80    0.60
   0   3  -6    5.60    0.90
   0   3  -5  561.04    8.50
   0   3  -5  559.04    8.40
   0   3  -5  550.74    9.10
   0   3  -5  559.14    6.20
   0   3  -4  279.87    3.80
   0   3  -4  275.27    5.60
   0   3  -4  291.87    5.50
   0   3  -3   29.00    1.60
   0   3  -3   28.70    1.70
   0   3  -3   30.30    1.10
   0   3  -2    6.30    0.80
   0   3  -2    5.70    0.50
   0   3  -2    6.30    0.80
   0   3  -1    0.20    0.30
   0   3  -1    0.50    0.50
   0   3   0    8.00    0.80
   0   3   1   59.99    2.20
   0   3   2  537.95    8.10
   0   3   3  775.22   11.00
   0   3   4   16.10    1.50
   0   3   5   10.90    1.40
   0   3   6    8.40    1.30
   0   3   7    1.40    0.80
   0   3   8    0.80    0.70
   0  -3  -8    1.00    0.70
   0  -3  -9    6.30    1.30
   0  -3 -10    6.50    1.30
   0   4 -11    1.70    1.00
   0   4 -10    0.40    0.80
   0   4  -9   -1.00    0.90
   0   4  -8    6.20    1.20
   0   4  -8    6.60    1.10
   0   4  -7    2.50    0.80
   0   4  -7    1.80    0.60
   0   4  -7    3.10    0.80
   0   4  -6    0.20    0.50
   0   4  -6    0.50    0.30
   0   4  -6    0.10    0.50
   0   4  -6    1.00    0.70
   0   4  -5    0.50    0.60
   0   4  -5    0.90    0.50
   0   4  -4   16.20    1.00
   0   4  -4   14.40    1.30
   0   4  -4   17.40    1.50
   0   4  -3    0.00    0.40
   0   4  -3    1.10    0.70
   0   4  -3    0.50    0.30
   0   4  -2    1.40    0.60
   0   4  -2    1.80    0.50
   0   4  -1   30.90    1.50
   0   4   0    3.00    0.60
   0   4   1    9.10    1.10
   0   4   2    0.80    0.60
   0   4   3   25.40    2.00
   0   4   4   84.09    3.70
   0   4   5    6.60    1.30
   0   4   6   94.19    4.50
   0   4   7   14.00    1.90
   0   4   8   -0.40    0.70
   0   4   9    0.00    0.70
   0  -4  -9    0.80    0.70
   0  -4 -10    3.10    1.10
   0   5 -11    0.40    0.80
   0   5 -10    0.60    0.70
   0   5  -9   -0.10    0.60
   0   5  -8    0.90    0.70
   0   5  -8   -0.40    0.80
   0   5  -7   15.30    1.70
   0   5  -7   14.10    1.50
   0   5  -7   15.90    1.70
   0   5  -6   59.79    3.10
   0   5  -6   58.49    3.00
   0   5  -6   55.99    3.10
   0   5  -6   55.49    2.30
   0   5  -5   10.90    1.40
   0   5  -5   10.70    1.00
   0   5  -5   11.10    1.40
   0   5  -4   19.80    1.30
   0   5  -4   18.60    1.70
   0   5  -3    0.60    0.50
   0   5  -3    0.50    0.30
   0   5  -2    1.10    0.40
   0   5  -1   17.70    1.40
   0   5   0   48.00    2.30
   0   5   1   26.70    1.90
   0   5   2  223.78    5.80
   0   5   3   63.59    3.30
   0   5   4    5.10    1.20
   0   5   5    0.00    0.70
   0   5   6    1.50    0.90
   0   5   7    3.10    1.10
   0   5   8    8.10    1.60
   0   5   9   15.40    2.30
   0  -5  -9   12.50    1.70
   0   6 -10    4.40    1.20
   0   6  -9   19.40    2.20
   0   6  -8   45.80    3.00
   0   6  -8   39.50    3.00
   0   6  -8   44.20    3.00
   0   6  -7    0.40    0.60
   0   6  -7    0.00    0.70
   0   6  -6    0.00    0.60
   0   6  -5    1.40    0.80
   0   6  -5    1.60    0.50
   0   6  -4    0.50    0.40
   0   6  -4    0.20    0.60
   0   6  -3   48.00    2.70
   0   6  -3   42.00    2.20
   0   6  -2  109.29    3.50
   0   6  -1   38.90    2.10
   0   6   0    0.10    0.60
   0   6   1   -0.70    0.60
   0   6   2    0.10    0.70
   0   6   3    1.80    1.00
   0   6   4   49.40    3.40
   0   6   5   61.39    4.00
   0   6   6    0.90    0.70
   0   6   7    2.70    1.10
   0   6   8    2.70    1.30
   0   6   9    3.80    1.40
   0   7 -10    0.40    0.70
   0   7  -9    2.00    0.90
   0   7  -8    1.60    0.90
   0   7  -8    3.30    1.10
   0   7  -7   36.60    2.80
   0   7  -7   34.20    2.90
   0   7  -6   85.99    4.00
   0   7  -5   79.59    3.80
   0   7  -5   83.29    3.40
   0   7  -4    4.10    1.00
   0   7  -4    3.90    0.80
   0   7  -3    0.70    0.50
   0   7  -2    1.60    0.60
   0   7  -1    0.40    0.50
   0   7   0   40.60    2.50
   0   7   1  252.57    6.70
   0   7   2  150.58    5.40
   0   7   3    0.60    0.90
   0   7   4    1.20    0.80
   0   7   5    1.00    0.90
   0   7   6    4.80    1.40
   0   7   7    2.00    1.10
   0   7   8   14.10    2.40
   0   8  -9    2.70    1.10
   0   8  -8    0.70    0.70
   0   8  -8    0.40    0.70
   0   8  -7    3.60    1.10
   0   8  -7    1.10    0.60
   0   8  -6    0.60    0.70
   0   8  -5    1.70    0.70
   0   8  -4    4.00    0.90
   0   8  -3    4.50    0.90
   0   8  -2    7.90    1.20
   0   8  -1    2.40    0.80
   0   8   0    0.30    0.60
   0   8   1    1.60    0.70
   0   8   2    2.20    0.90
   0   8   3    3.50    1.20
   0   8   4    1.80    0.90
   0   8   5   20.10    2.70
   0   8   6    4.40    1.50
   0   9  -8    2.20    1.00
   0   9  -8    2.50    1.20
   0   9  -7    9.60    1.60
   0   9  -7    5.90    1.50
   0   9  -6   44.30    3.70
   0   9  -4    3.10    1.00
   0   9  -3    1.40    0.80
   0   9  -2    3.20    0.90
   0   9  -1   21.80    2.10
   0   9   0   69.29    3.80
   0   9   1   39.40    3.00
   0   9   2   -0.40    0.70
   0   9   3    0.50    0.70
   0   9   4   -0.30    0.80
   0  10  -7    0.10    0.80
   0  10  -6   -0.60    0.80
   0  10  -3   43.10    3.10
   0  10  -2    8.30    1.50
   0  10  -1    0.90    0.60
   0  10   0   -0.10    0.70
   0  10   1   -1.20    0.90
   0  10   2    2.50    1.00
   0  11  -3    1.70    0.80
   0  11  -2    0.00    0.60
   0  11  -1    0.50    0.60
  -1  11   0    1.70    0.90
  -1  11  -1    0.50    0.60
  -1  11  -2    3.20    1.00
  -1  11  -3    0.90    0.80
  -1  11  -4    2.40    0.90
  -1  10   3   -0.40    0.70
  -1  10   2    4.60    1.40
  -1  10   1   -0.20    0.70
  -1  10   0    0.00    0.60
  -1  10  -1   18.30    2.10
  -1  10  -2    7.20    1.40
  -1  10  -3    1.70    0.70
  -1  10  -4    0.70    0.70
  -1  10  -7    3.40    1.50
  -1  10  -8    0.10    0.70
  -1   9   5   11.50    2.10
  -1   9   4    4.70    1.30
  -1   9   3   30.20    3.00
  -1   9   2    0.00    0.70
  -1   9   1    7.80    1.40
  -1   9   0    0.00    0.60
  -1   9  -1    2.00    0.70
  -1   9  -2    4.10    0.90
  -1   9  -3   29.80    2.40
  -1   9  -4   18.50    1.90
  -1   9  -5    2.40    0.90
  -1   9  -7    1.10    0.90
  -1   9  -8   -0.90    0.80
  -1   9  -8    0.80    0.70
  -1   8   7    1.40    1.20
  -1   8   6    4.20    1.40
  -1   8   5    1.20    0.90
  -1   8   4    3.70    1.10
  -1   8   3   14.60    2.00
  -1   8   2   11.60    1.60
  -1   8   1   69.89    3.70
  -1   8   0   15.30    1.70
  -1   8  -1   19.80    1.80
  -1   8  -2    1.30    0.70
  -1   8  -3   -0.10    0.50
  -1   8  -4    4.70    1.00
  -1   8  -5    0.60    0.80
  -1   8  -5    0.70    0.50
  -1   8  -6   94.69    4.60
  -1   8  -7   41.70    3.10
  -1   8  -8    8.10    1.60
  -1   8  -8    8.40    1.50
  -1   8  -9    3.20    1.00
  -1   7   8    1.30    1.10
  -1   7   7    2.20    1.20
  -1   7   6    6.90    1.70
  -1   7   5    2.70    1.10
  -1   7   4    6.20    1.50
  -1   7   3    1.10    0.70
  -1   7   2    7.30    1.30
  -1   7   1    0.20    0.60
  -1   7   0    1.50    0.70
  -1   7  -1    6.90    1.00
  -1   7  -2   36.60    2.20
  -1   7  -3   16.90    1.60
  -1   7  -4    6.90    1.00
  -1   7  -4    7.10    1.30
  -1   7  -5    0.60    0.60
  -1   7  -5    0.50    0.70
  -1   7  -6    0.30    0.70
  -1   7  -6    0.80    0.60
  -1   7  -7    1.50    0.90
  -1   7  -8   -0.10    0.70
  -1   7  -9    0.20    0.70
  -1   7 -10    0.00    0.70
  -1   6   8    2.60    1.20
  -1   6   7    0.40    0.80
  -1   6   6   -1.40    0.90
  -1   6   5    2.20    1.10
  -1   6   4    0.40    0.70
  -1   6   3   27.40    2.30
  -1   6   2    5.70    1.10
  -1   6   1   15.20    1.50
  -1   6   0   18.60    1.60
  -1   6  -1    1.10    0.50
  -1   6  -2    0.20    0.40
  -1   6  -3    1.80    0.90
  -1   6  -3    0.60    0.40
  -1   6  -4   22.40    1.60
  -1   6  -4   21.40    2.00
  -1   6  -5   22.90    2.00
  -1   6  -5   22.90    1.70
  -1   6  -6  119.29    4.60
  -1   6  -6  122.39    3.90
  -1   6  -7    1.20    0.80
  -1   6  -8   11.70    1.80
  -1   6  -9   -1.00    0.70
  -1   6 -10    0.90    0.80
  -1   5   8    3.30    1.20
  -1   5   7    2.60    1.10
  -1   5   6   10.90    1.70
  -1   5   5    0.80    0.80
  -1   5   4    6.90    1.20
  -1   5   3   11.80    1.40
  -1   5   2    5.40    1.10
  -1   5   1    0.00    0.60
  -1   5   0   40.40    2.10
  -1   5  -1  122.49    3.40
  -1   5  -2  448.86    7.10
  -1   5  -3    0.60    0.60
  -1   5  -3    1.20    0.50
  -1   5  -4   15.10    1.50
  -1   5  -5    0.60    0.70
  -1   5  -5    0.70    0.30
  -1   5  -6   11.50    1.50
  -1   5  -6   10.60    1.00
  -1   5  -7    1.00    0.70
  -1   5  -7    2.00    0.70
  -1   5  -8    0.70    0.70
  -1   5  -9   40.50    3.10
  -1   5 -10    1.70    1.00
  -1   5 -11    0.30    0.70
   1  -4 -10   13.20    1.90
   1  -4  -9    0.70    0.70
  -1   4   8    2.10    0.90
   1  -4  -8    2.20    1.00
  -1   4   7   21.80    2.20
  -1   4   6    0.00    0.60
  -1   4   5    8.80    1.40
  -1   4   4    0.40    0.70
  -1   4   3  192.88    5.20
  -1   4   2  272.07    5.90
  -1   4   1  124.99    3.60
  -1   4   0    0.40    0.40
  -1   4  -1    4.80    0.70
  -1   4  -2    5.90    0.90
  -1   4  -2    7.20    0.70
  -1   4  -3   15.00    1.30
  -1   4  -3   15.80    1.00
  -1   4  -4   79.49    2.20
  -1   4  -4   75.19    3.00
  -1   4  -5    5.50    0.60
  -1   4  -5    4.10    0.90
  -1   4  -5    4.20    0.80
  -1   4  -6    1.00    0.70
  -1   4  -6    1.80    0.60
  -1   4  -6    1.30    0.40
  -1   4  -7    1.20    0.60
  -1   4  -7    1.60    0.50
  -1   4  -7    0.30    0.80
  -1   4  -8    0.30    0.60
  -1   4  -9    0.60    0.70
  -1   4 -10    2.60    1.00
  -1   4 -11    1.70    1.00
   1  -3 -10    0.00    0.70
   1  -3  -9    1.10    0.70
  -1   3   8    6.00    1.30
   1  -3  -8    4.30    1.10
  -1   3   7   -0.80    0.60
  -1   3   6  113.19    4.30
  -1   3   5  194.28    5.40
  -1   3   4    7.60    1.10
  -1   3   3   50.29    2.40
  -1   3   2    3.90    0.70
  -1   3   1    5.10    0.70
  -1   3   0  169.98    3.40
  -1   3  -1   55.89    1.70
  -1   3  -2  112.79    2.30
  -1   3  -2  113.69    3.10
  -1   3  -3   12.20    0.80
  -1   3  -3   11.30    1.10
  -1   3  -4   44.40    2.10
  -1   3  -4   44.10    1.90
  -1   3  -4   45.30    1.50
  -1   3  -5   22.00    1.10
  -1   3  -5   20.60    1.70
  -1   3  -5   21.50    1.40
  -1   3  -6    1.60    0.50
  -1   3  -6    1.50    0.60
  -1   3  -6    1.20    0.50
  -1   3  -6    1.70    0.40
  -1   3  -7  132.69    3.10
  -1   3  -7  135.39    4.90
  -1   3  -7  130.09    3.80
  -1   3  -8    1.80    0.80
  -1   3  -9   44.70    3.20
  -1   3 -10    0.70    0.80
  -1   3 -11    1.00    0.80
   1  -2 -11   20.50    2.50
   1  -2 -10    3.20    1.10
   1  -2  -9   39.20    3.00
   1  -2  -8   -0.60    0.70
   1  -2  -8   -0.50    0.60
  -1   2   7    3.80    0.90
   1  -2  -7    4.90    0.90
   1  -2  -6    3.90    0.80
  -1   2   6    5.00    0.90
  -1   2   5    0.20    0.50
  -1   2   4  192.58    4.50
  -1   2   3    3.50    0.60
  -1   2   2  534.95    7.10
  -1   2   1   12.70    0.90
  -1   2   0   84.49    1.90
  -1   2   0   77.29    1.80
  -1   2  -1    0.40    0.40
  -1   2  -1    0.60    0.30
  -1   2  -2   35.00    1.10
  -1   2  -2   31.10    1.40
  -1   2  -3  189.88    3.90
  -1   2  -3  185.18    3.30
  -1   2  -3  196.38    3.10
  -1   2  -4  185.78    3.50
  -1   2  -4  185.68    3.30
  -1   2  -4  188.18    4.20
  -1   2  -5   17.10    1.40
  -1   2  -5   15.10    1.00
  -1   2  -5   15.50    0.90
  -1   2  -5   15.60    1.00
  -1   2  -6   20.20    1.30
  -1   2  -6   23.80    1.20
  -1   2  -6   27.50    1.90
  -1   2  -6   22.30    1.10
  -1   2  -7   -0.40    0.60
  -1   2  -7   -0.40    0.30
  -1   2  -7   -0.20    0.30
  -1   2  -8   -0.20    0.70
  -1   2  -9    0.00    0.70
  -1   2 -10    7.10    1.40
  -1   2 -11   14.40    2.00
   1  -1 -11    3.50    1.20
   1  -1 -10    2.50    0.90
   1  -1  -9    2.40    0.90
   1  -1  -8    8.10    1.10
   1  -1  -8    7.30    1.20
   1  -1  -7  112.09    3.80
   1  -1  -7  117.89    4.30
  -1   1   7  110.89    3.80
   1  -1  -6    2.60    0.60
  -1   1   6    2.00    0.60
   1  -1  -6    2.80    0.80
   1  -1  -5   10.40    1.00
  -1   1   5   10.90    1.00
   1  -1  -4    6.10    0.70
  -1   1   4    4.20    0.60
  -1   1   3    3.60    0.50
  -1   1   2    5.00    0.50
  -1   1   1    9.00    0.60
  -1   1   0   19.20    0.70
  -1   1  -1    5.20    0.40
  -1   1  -1    5.80    0.40
  -1   1  -2    2.90    0.40
  -1   1  -2    2.50    0.30
  -1   1  -2    2.50    0.50
  -1   1  -3    1.20    0.30
  -1   1  -3    1.90    0.50
  -1   1  -3    1.30    0.40
  -1   1  -4    1.50    0.40
  -1   1  -4    0.40    0.40
  -1   1  -4    0.50    0.20
  -1   1  -4    0.90    0.30
  -1   1  -5    4.50    0.60
  -1   1  -5    4.10    0.50
  -1   1  -5    4.30    0.80
  -1   1  -6    7.70    0.80
  -1   1  -6    6.60    0.70
  -1   1  -6    8.60    1.10
  -1   1  -7   16.90    1.70
  -1   1  -7   14.90    1.10
  -1   1  -7   12.90    1.00
  -1   1  -8   73.59    3.60
  -1   1  -8   79.19    2.80
  -1   1  -9    1.10    0.60
  -1   1 -10    0.70    0.70
  -1   1 -11    1.30    1.00
   1   0 -11    3.30    1.10
   1   0 -10   22.90    2.40
   1   0  -9    3.80    1.10
   1   0  -8   -0.40    0.40
   1   0  -8   -0.10    0.60
   1   0  -7    7.00    1.10
   1   0  -7    7.60    1.00
   1   0  -6    0.30    0.60
   1   0  -6    0.20    0.40
   1   0  -5  121.79    3.60
   1   0  -5  121.59    3.30
   1   0  -4    0.70    0.40
  -1   0   4    1.50    0.30
   1   0  -4    1.40    0.40
   1   0  -3  622.24    7.60
  -1   0   3  614.94    6.30
   1   0  -3  613.94    7.40
   1   0  -2   47.00    1.40
  -1   0   2   45.60    0.90
   1   0  -1   72.39    1.50
   1   0   0   22.70    0.60
  -1   0   0    9.10    0.40
  -1   0  -1   71.39    1.20
  -1   0  -1   72.39    1.40
  -1   0  -2   30.40    1.10
  -1   0  -3  436.96    5.90
  -1   0  -3  442.06    4.50
  -1   0  -4   82.79    1.80
  -1   0  -4   85.09    2.50
  -1   0  -5  105.39    2.40
  -1   0  -5  107.79    3.20
  -1   0  -6    0.80    0.30
  -1   0  -6    1.10    0.40
  -1   0  -6    0.70    0.40
  -1   0  -7    0.00    0.60
  -1   0  -7    0.90    0.50
  -1   0  -8    5.20    0.80
  -1   0  -8    6.00    1.20
  -1   0  -9    1.40    0.80
  -1   0 -10   33.40    2.80
  -1   0 -11    2.80    1.10
   1   1 -11   -0.60    0.80
   1   1 -10    1.00    0.90
   1   1  -9    5.60    1.20
   1   1  -8   96.99    3.70
   1   1  -8  109.29    4.40
   1   1  -7   12.70    1.40
   1   1  -7   12.40    1.30
   1   1  -6  232.18    3.40
   1   1  -6  244.98    5.70
   1   1  -6  228.88    5.10
   1   1  -5   18.40    1.40
   1   1  -5   18.10    1.30
   1   1  -5   16.00    0.70
   1   1  -4   27.50    0.70
   1   1  -4   27.20    1.50
   1   1  -4   27.00    1.40
   1   1  -3   66.29    2.10
   1   1  -3   73.39    2.10
   1   1  -3   67.79    2.10
   1   1  -2  100.49    2.20
   1   1  -2   97.19    2.40
   1   1  -2   99.89    2.30
   1   1  -1  129.39    2.50
   1   1  -1  140.79    2.60
   1   1  -1  138.39    1.90
   1   1  -1  135.79    2.10
   1   1   0  167.78    2.80
   1   1   0  164.38    2.60
   1   1   0  169.48    2.70
   1   1   1  183.98    3.20
   1   1   2   39.30    1.70
   1   1   3    3.30    0.70
   1   1   4   30.20    1.80
  -1  -1  -5   26.10    1.60
   1   1   5   23.70    1.70
  -1  -1  -6  214.28    5.20
   1   1   6  213.38    5.70
  -1  -1  -6  204.98    4.10
  -1  -1  -7   55.59    2.80
  -1  -1  -8    2.70    0.80
  -1  -1  -8    2.30    0.60
  -1  -1  -9    1.20    0.70
  -1  -1  -9    0.50    0.60
  -1  -1 -10    2.10    1.00
  -1  -1 -11    0.30    0.60
   1   2 -11    0.50    0.90
   1   2 -10    9.30    1.60
   1   2  -9    0.90    0.60
   1   2  -9    0.10    0.70
   1   2  -8    0.30    0.50
   1   2  -8   -0.30    0.70
   1   2  -7    4.70    0.80
   1   2  -7    4.20    1.00
   1   2  -6   13.90    1.20
   1   2  -6   13.80    1.40
   1   2  -5    3.70    0.60
   1   2  -5    3.20    0.20
   1   2  -5    3.30    0.80
   1   2  -5    2.50    0.50
   1   2  -4   17.90    1.30
   1   2  -4   16.90    1.30
   1   2  -4   18.20    1.30
   1   2  -3  346.17    3.80
   1   2  -3  326.47    5.80
   1   2  -3  345.87    5.70
   1   2  -2    1.20    0.50
   1   2  -2    0.90    0.20
   1   2  -2    0.60    0.40
   1   2  -2    0.90    0.40
   1   2  -1   48.60    1.80
   1   2  -1   53.29    1.50
   1   2  -1   45.10    1.40
   1   2   0  116.19    2.70
   1   2   0  117.49    2.60
   1   2   1   82.79    2.40
   1   2   2  321.57    5.60
   1   2   3  463.05    7.60
   1   2   4  201.18    5.10
   1   2   5   18.40    1.70
   1   2   6    2.50    0.80
  -1  -2  -7    0.80    0.60
   1   2   7    1.10    0.80
  -1  -2  -8   25.10    2.10
  -1  -2  -9    0.90    0.80
  -1  -2 -10   -0.10    0.60
  -1  -2 -11   19.10    2.20
   1   3 -11    0.10    0.70
   1   3 -10    3.10    1.00
   1   3  -9   21.00    1.90
   1   3  -9   20.80    2.10
   1   3  -8   62.39    3.10
   1   3  -8   65.19    3.40
   1   3  -7    0.60    0.50
   1   3  -7    1.70    0.80
   1   3  -6    1.00    0.60
   1   3  -6    1.00    0.50
   1   3  -6    1.50    0.70
   1   3  -5   19.40    1.60
   1   3  -5   19.20    1.50
   1   3  -5   17.70    1.50
   1   3  -5   19.00    0.80
   1   3  -4    1.20    0.50
   1   3  -4    1.10    0.50
   1   3  -4    1.10    0.30
   1   3  -4    0.90    0.50
   1   3  -3   83.09    2.90
   1   3  -3   77.99    1.90
   1   3  -3   75.99    2.60
   1   3  -3   75.89    2.90
   1   3  -2  100.19    2.30
   1   3  -2  103.09    3.10
   1   3  -2   98.59    2.70
   1   3  -1 1840.62   17.60
   1   3  -1 1830.32   18.70
   1   3  -1 1785.62   17.30
   1   3   0   97.79    2.70
   1   3   1   93.89    2.90
   1   3   2    0.50    0.50
   1   3   3   11.70    1.30
   1   3   4   11.90    1.40
   1   3   5    7.20    1.20
   1   3   6    2.20    0.90
   1   3   7   19.90    2.20
   1   3   8   -0.50    0.70
  -1  -3  -8   -0.20    0.50
  -1  -3  -9    2.00    0.80
  -1  -3 -10    0.70    0.60
   1   4 -11   -0.40    0.80
   1   4 -10    0.50    0.70
   1   4  -9    2.90    0.90
   1   4  -9    0.90    0.90
   1   4  -8   -0.50    0.70
   1   4  -8    1.20    0.70
   1   4  -8    0.30    0.50
   1   4  -7   35.10    2.50
   1   4  -7   34.40    2.30
   1   4  -7   33.90    2.30
   1   4  -6   11.30    1.40
   1   4  -6   11.40    1.40
   1   4  -6   14.00    1.40
   1   4  -5  359.16    7.40
   1   4  -5  350.46    7.50
   1   4  -5  347.17    7.20
   1   4  -5  361.06    5.10
   1   4  -4   -0.40    0.50
   1   4  -4    0.20    0.20
   1   4  -4   -0.10    0.50
   1   4  -4    0.20    0.50
   1   4  -3   39.20    2.30
   1   4  -3   39.90    1.60
   1   4  -3   36.50    2.00
   1   4  -2   26.40    1.40
   1   4  -2   24.20    1.60
   1   4  -2   29.50    1.90
   1   4  -1   15.00    1.10
   1   4   0    3.80    0.70
   1   4   1   34.70    2.00
   1   4   2   71.49    3.10
   1   4   3    0.40    0.60
   1   4   4   30.70    2.50
   1   4   5    0.70    0.70
   1   4   6   -0.20    0.70
   1   4   7    1.60    1.00
  -1  -4  -8    0.30    0.50
   1   4   8    0.70    0.90
  -1  -4  -9    1.40    0.80
   1   4   9   -0.70    0.80
  -1  -4 -10    9.20    1.50
   1   5 -11    2.80    1.10
   1   5 -10    1.50    0.80
   1   5  -9    2.30    0.90
   1   5  -9    1.20    0.60
   1   5  -8    2.50    0.80
   1   5  -8    0.30    0.70
   1   5  -8    1.90    0.80
   1   5  -7   -0.80    0.60
   1   5  -7   -0.60    0.70
   1   5  -7    0.20    0.50
   1   5  -6    0.20    0.50
   1   5  -6    0.00    0.50
   1   5  -6    0.10    0.70
   1   5  -5    0.10    0.60
   1   5  -5    0.80    0.70
   1   5  -5    1.20    0.70
   1   5  -5    1.30    0.40
   1   5  -4    9.00    0.90
   1   5  -4   10.20    1.40
   1   5  -4   10.20    1.20
   1   5  -3    6.20    1.00
   1   5  -3    7.60    0.90
   1   5  -2  164.58    4.00
   1   5  -1   65.49    2.60
   1   5   0   46.20    2.30
   1   5   1    3.70    0.90
   1   5   2    0.30    0.70
   1   5   3    3.60    1.00
   1   5   4    5.10    1.10
   1   5   5    2.30    1.10
   1   5   6   13.60    2.00
   1   5   7    2.20    1.00
   1   5   8    0.80    0.90
  -1  -5  -9    0.30    0.50
   1   5   9    0.30    0.80
   1   6 -10    1.10    0.90
   1   6  -9    1.40    0.80
   1   6  -9    1.90    0.80
   1   6  -8   14.70    1.80
   1   6  -8   14.60    1.80
   1   6  -8   15.90    1.90
   1   6  -7   11.00    1.50
   1   6  -7   10.60    1.60
   1   6  -7    9.60    1.50
   1   6  -6  238.98    6.90
   1   6  -6  218.18    6.30
   1   6  -6  226.68    6.80
   1   6  -5  165.08    5.50
   1   6  -5  146.99    5.40
   1   6  -5  159.88    5.10
   1   6  -5  152.68    4.00
   1   6  -4   32.90    2.30
   1   6  -4   33.40    1.80
   1   6  -3    9.10    1.10
   1   6  -3    8.50    1.20
   1   6  -2   -0.30    0.40
   1   6  -1   14.70    1.40
   1   6   0   42.80    2.40
   1   6   1  134.29    4.70
   1   6   2  109.29    4.40
   1   6   3   83.89    4.20
   1   6   4   11.10    1.80
   1   6   5    7.00    1.60
   1   6   6    2.70    1.20
   1   6   7    3.10    1.30
   1   6   8    1.60    1.20
  -1  -6  -9    1.30    0.70
   1   7 -10   11.50    1.90
   1   7  -9   14.50    1.90
   1   7  -8    7.20    1.40
   1   7  -8    7.20    1.40
   1   7  -7    0.10    0.60
   1   7  -7    0.70    0.80
   1   7  -6    0.60    0.70
   1   7  -6   -0.40    0.70
   1   7  -5   14.10    1.90
   1   7  -5   15.70    1.70
   1   7  -4    1.60    0.80
   1   7  -4    0.20    0.50
   1   7  -3   53.89    2.70
   1   7  -2   62.19    2.90
   1   7  -1    1.80    0.70
   1   7   0    9.20    1.30
   1   7   1    2.60    1.00
   1   7   2    6.30    1.20
   1   7   3   12.00    1.80
   1   7   4   50.29    3.70
   1   7   5    0.20    0.80
   1   7   6   24.80    2.90
   1   7   7    4.80    1.70
   1   8  -9    2.10    1.00
   1   8  -8    0.20    0.60
   1   8  -8    1.10    0.80
   1   8  -7    1.10    0.80
   1   8  -7    3.50    1.20
   1   8  -6    5.50    1.30
   1   8  -6    7.90    1.40
   1   8  -5   22.50    2.50
   1   8  -4   12.10    1.40
   1   8  -3    0.10    0.50
   1   8  -2    0.30    0.50
   1   8  -1   42.80    2.80
   1   8   0   23.00    2.10
   1   8   1    5.40    1.30
   1   8   2    5.40    1.20
   1   8   3    7.90    1.50
   1   8   4    1.00    0.80
   1   8   5    4.60    1.40
   1   8   6    6.30    1.60
   1   9  -8    1.40    0.80
   1   9  -8    1.30    0.80
   1   9  -7    4.20    1.30
   1   9  -7    2.70    1.20
   1   9  -6    2.50    1.10
   1   9  -5   13.20    2.10
   1   9  -3   11.50    1.50
   1   9  -2    1.60    0.60
   1   9  -1   18.20    1.90
   1   9   0   -0.80    0.60
   1   9   1    3.60    1.00
   1   9   2    3.20    1.00
   1   9   3   -0.50    0.80
   1   9   4    1.70    1.10
   1  10  -5    2.30    1.10
   1  10  -4    1.20    0.90
   1  10  -3    0.20    0.50
   1  10  -2   -0.20    0.60
   1  10  -1    4.50    1.10
   1  10   0    2.20    0.90
   1  10   1    2.00    0.90
   1  10   2    0.00    0.60
   1  11  -2    1.30    0.80
  -2  11   0   23.90    2.60
  -2  11  -1   26.70    2.70
  -2  11  -2    5.30    1.30
  -2  11  -3    1.00    0.80
  -2  11  -4    1.50    0.90
  -2  10   3    0.40    0.70
  -2  10   2    0.40    0.80
  -2  10   1   -1.50    0.90
  -2  10   0    1.00    0.70
  -2  10  -1   -0.50    0.80
  -2  10  -2    2.40    0.90
  -2  10  -3    2.80    0.90
  -2  10  -4    1.50    0.80
  -2  10  -5    1.00    0.60
  -2   9   5    1.80    1.20
  -2   9   4    1.20    0.90
  -2   9   3    2.10    1.00
  -2   9   2    2.10    1.00
  -2   9   1   86.99    4.40
  -2   9   0   75.29    4.00
  -2   9  -1   10.20    1.50
  -2   9  -2    0.80    0.70
  -2   9  -3    1.20    0.80
  -2   9  -4    0.20    0.70
  -2   9  -5    6.80    1.30
  -2   9  -6   41.00    3.00
  -2   9  -7   36.80    3.10
  -2   9  -8    9.80    1.70
  -2   8   7    3.50    1.40
  -2   8   6    2.70    1.20
  -2   8   5    3.00    1.20
  -2   8   4   32.10    3.00
  -2   8   3   11.10    1.70
  -2   8   2    0.90    0.70
  -2   8   1    3.70    1.10
  -2   8   0    1.40    0.80
  -2   8  -1   -0.80    0.80
  -2   8  -2   19.20    1.80
  -2   8  -3   45.60    2.80
  -2   8  -4    6.20    1.10
  -2   8  -5    0.80    0.70
  -2   8  -6    1.30    0.90
  -2   8  -6    1.80    0.80
  -2   8  -7    1.40    1.00
  -2   8  -8    1.20    0.80
  -2   8  -9   19.70    2.40
  -2   7   8    3.40    1.30
  -2   7   7    5.60    1.60
  -2   7   6    2.20    1.10
  -2   7   5   -0.40    0.80
  -2   7   4   -0.20    0.70
  -2   7   3    0.60    0.70
  -2   7   2   60.29    3.40
  -2   7   1   50.59    2.90
  -2   7   0   12.70    1.50
  -2   7  -1    3.30    0.80
  -2   7  -2    3.20    0.80
  -2   7  -3    0.20    0.50
  -2   7  -4    1.50    0.60
  -2   7  -5    1.40    0.80
  -2   7  -5    0.30    0.60
  -2   7  -6   11.60    1.40
  -2   7  -6   12.00    1.60
  -2   7  -7   18.70    1.70
  -2   7  -7   20.90    2.20
  -2   7  -8    1.50    0.80
  -2   7  -9    0.10    0.70
  -2   7 -10    0.00    0.70
  -2   6   8   -0.10    0.70
  -2   6   7    1.90    1.20
  -2   6   6   25.40    2.60
  -2   6   5   48.80    3.40
  -2   6   4   24.20    2.30
  -2   6   3    7.80    1.30
  -2   6   2   11.40    1.50
  -2   6   1    3.70    0.80
  -2   6   0    0.30    0.60
  -2   6  -1    0.70    0.50
  -2   6  -2   25.10    1.70
  -2   6  -3    0.60    0.40
  -2   6  -4    1.00    0.60
  -2   6  -4    0.80    0.50
  -2   6  -5    7.30    1.00
  -2   6  -5    3.60    1.00
  -2   6  -6    1.40    0.80
  -2   6  -6    1.50    0.60
  -2   6  -7   -0.10    0.60
  -2   6  -8    1.40    0.90
  -2   6  -9    6.80    1.40
  -2   6 -10   -0.60    0.70
  -2   5   7    1.90    1.00
  -2   5   6    0.40    0.70
  -2   5   5    1.60    0.80
  -2   5   4   16.20    1.80
  -2   5   3    8.60    1.30
  -2   5   2  387.66    7.70
  -2   5   1   87.39    3.30
  -2   5   0   18.00    1.40
  -2   5  -1    3.40    0.70
  -2   5  -2    0.90    0.40
  -2   5  -3    6.10    0.80
  -2   5  -3    4.10    0.90
  -2   5  -4    0.80    0.40
  -2   5  -4    2.20    0.80
  -2   5  -5  140.39    3.60
  -2   5  -5  142.59    4.70
  -2   5  -6  118.99    3.40
  -2   5  -6  119.29    4.60
  -2   5  -7   -0.20    0.30
  -2   5  -7   -0.70    0.90
  -2   5  -8    4.90    1.20
  -2   5  -9    0.80    0.80
  -2   5 -10    1.90    0.90
  -2   5 -11    2.10    1.00
   2  -4 -10    2.20    1.00
   2  -4  -9    0.10    0.70
   2  -4  -9    1.00    0.90
   2  -4  -8    1.20    0.90
  -2   4   7   11.30    1.60
  -2   4   6  214.98    6.40
  -2   4   5    0.70    0.70
  -2   4   4   45.80    2.70
  -2   4   3   50.69    2.60
  -2   4   2    3.60    0.80
  -2   4   1    1.00    0.50
  -2   4   0   33.50    1.70
  -2   4  -1  806.32    9.70
  -2   4  -2  384.36    7.00
  -2   4  -2  395.86    5.90
  -2   4  -3   32.50    1.90
  -2   4  -3   35.20    1.60
  -2   4  -4    2.80    0.60
  -2   4  -4    2.80    0.80
  -2   4  -5    1.40    0.70
  -2   4  -5    0.80    0.40
  -2   4  -6    2.00    0.70
  -2   4  -6    2.90    0.50
  -2   4  -7    1.10    0.80
  -2   4  -7    1.40    0.40
  -2   4  -8   23.10    2.20
  -2   4  -9   27.60    2.50
  -2   4 -10    0.00    0.70
  -2   4 -11    0.80    0.70
   2  -3 -10    2.80    1.20
   2  -3  -9   27.60    2.60
   2  -3  -9   33.90    3.00
   2  -3  -8   14.80    1.80
   2  -3  -7    1.50    0.90
  -2   3   7    0.80    0.50
  -2   3   6    6.50    1.10
  -2   3   5    3.00    0.90
  -2   3   4   19.30    1.50
  -2   3   3  116.09    3.50
  -2   3   2  572.94    8.20
  -2   3   1   55.49    2.10
  -2   3   0   89.29    2.40
  -2   3  -1    3.80    0.50
  -2   3  -2   46.10    1.60
  -2   3  -2   45.10    2.00
  -2   3  -3    2.00    0.60
  -2   3  -3    2.90    0.50
  -2   3  -4  250.97    5.40
  -2   3  -4  243.38    4.30
  -2   3  -5  310.47    5.20
  -2   3  -5  336.27    6.70
  -2   3  -6    7.10    1.10
  -2   3  -6    6.40    0.70
  -2   3  -7   32.20    1.70
  -2   3  -7   31.30    2.30
  -2   3  -8   -0.90    0.70
  -2   3  -8    0.60    0.40
  -2   3  -9   -0.20    0.60
  -2   3 -10    5.20    1.20
  -2   3 -11   -0.10    0.70
   2  -2 -11    6.90    1.60
   2  -2 -10   -0.20    0.70
   2  -2  -9    0.40    0.70
   2  -2  -9   -0.40    0.60
   2  -2  -8    7.60    1.40
   2  -2  -8    7.00    1.30
   2  -2  -7  161.58    5.10
  -2   2   7  165.88    5.00
  -2   2   6  390.96    7.40
   2  -2  -6  382.46    7.60
   2  -2  -5   14.00    1.30
  -2   2   5   15.60    1.30
  -2   2   4   13.70    1.10
  -2   2   3    2.80    0.60
  -2   2   2    1.40    0.40
  -2   2   1  488.75    6.20
  -2   2   0 3597.14   29.90
  -2   2  -1 9941.81   79.29
  -2   2  -1 9999.00   78.59
  -2   2  -2   24.20    1.30
  -2   2  -2   27.40    1.20
  -2   2  -3  253.27    4.20
  -2   2  -3  250.77    4.60
  -2   2  -4    9.10    1.00
  -2   2  -4    9.90    0.80
  -2   2  -5    4.40    0.80
  -2   2  -5    4.00    0.60
  -2   2  -6    2.10    0.40
  -2   2  -6    3.10    0.60
  -2   2  -6    1.70    0.70
  -2   2  -7  109.79    3.30
  -2   2  -7  109.29    4.20
  -2   2  -8  281.07    5.70
  -2   2  -8  279.97    7.20
  -2   2  -9    5.50    1.10
  -2   2 -10    7.80    1.40
  -2   2 -11    1.70    0.90
   2  -1 -11   22.70    2.70
   2  -1 -10    1.10    0.80
   2  -1  -9   -0.10    0.70
   2  -1  -9    1.10    0.80
   2  -1  -8   24.90    2.10
   2  -1  -8   25.10    2.30
   2  -1  -7    1.20    0.80
   2  -1  -7    1.40    0.70
  -2   1   6    1.50    0.50
   2  -1  -6    1.70    0.60
  -2   1   5   16.30    1.10
   2  -1  -5   15.80    1.30
   2  -1  -4  366.06    6.10
  -2   1   4  351.86    5.20
  -2   1   3 1156.78   11.40
   2  -1  -3 1151.68   12.60
  -2   1   2  127.09    2.40
   2  -1  -2  128.89    2.90
  -2   1   1    0.20    0.30
  -2   1   0    2.80    0.40
  -2   1  -1   16.90    0.90
  -2   1  -1   14.40    0.80
  -2   1  -2    2.70    0.40
  -2   1  -2    1.00    0.30
  -2   1  -3  267.87    4.40
  -2   1  -3  273.07    4.60
  -2   1  -4  502.75    7.10
  -2   1  -4  502.15    7.40
  -2   1  -5    1.10    0.50
  -2   1  -5    0.50    0.20
  -2   1  -5    0.60    0.40
  -2   1  -6   10.70    1.10
  -2   1  -6   12.00    1.30
  -2   1  -7    5.10    1.00
  -2   1  -7    4.50    0.80
  -2   1  -8    0.00    0.60
  -2   1  -8    0.70    0.60
  -2   1  -9    3.80    1.00
  -2   1  -9    3.90    0.80
  -2   1 -10   14.40    1.80
  -2   1 -11    7.50    1.50
   2   0 -11    0.30    0.70
   2   0 -10    2.60    1.00
   2   0  -9    0.40    0.70
   2   0  -9    0.00    0.50
   2   0  -8    0.50    0.70
   2   0  -8    1.60    0.80
   2   0  -7   80.89    3.40
   2   0  -7   80.99    3.60
   2   0  -6   -0.50    0.60
   2   0  -6   -0.40    0.60
   2   0  -5   21.90    1.60
   2   0  -5   20.50    1.50
   2   0  -4    3.70    0.60
  -2   0   4    3.30    0.30
   2   0  -4    2.80    0.60
  -2   0   3   29.60    0.70
   2   0  -3   32.30    1.60
   2   0  -3   32.10    1.50
   2   0  -2  193.38    3.70
  -2   0   2  194.68    2.40
   2   0  -1    9.00    0.70
  -2   0   1    9.60    0.50
  -2   0   0 4372.16   35.50
   2   0   0 4450.65   35.70
   2   0   1  105.29    1.80
  -2   0  -1  110.49    2.20
  -2   0  -1  101.79    1.50
  -2   0  -2  294.37    4.50
  -2   0  -2  289.17    3.90
  -2   0  -3   21.80    1.30
  -2   0  -3   19.30    1.10
  -2   0  -4    8.00    0.90
  -2   0  -4    7.40    0.80
  -2   0  -4    5.80    0.30
  -2   0  -5   12.20    0.60
  -2   0  -5   14.90    1.20
  -2   0  -5   14.70    1.20
  -2   0  -6   33.80    2.00
  -2   0  -6   33.00    1.80
  -2   0  -7  120.99    3.80
  -2   0  -7  124.69    4.20
  -2   0  -8   89.89    3.80
  -2   0  -8   92.79    3.50
  -2   0  -9    2.50    0.90
  -2   0  -9    1.40    0.60
  -2   0 -10   -0.50    0.60
  -2   0 -11    0.10    0.70
   2   1 -11    0.30    0.70
   2   1 -10    1.00    0.80
   2   1  -9    7.70    1.20
   2   1  -9    7.40    1.40
   2   1  -8    1.50    0.70
   2   1  -8    1.40    0.80
   2   1  -7    0.80    0.70
   2   1  -7   -0.70    0.70
   2   1  -6   23.30    1.70
   2   1  -6   24.30    1.80
   2   1  -5   74.29    2.90
   2   1  -5   80.39    2.90
   2   1  -4 1048.10   12.50
   2   1  -4 1030.90   12.00
   2   1  -3  117.59    3.20
   2   1  -3  109.99    2.70
   2   1  -2  120.29    3.00
   2   1  -2  119.19    3.10
  -2  -1   2  118.99    1.60
   2   1  -2  116.39    2.40
   2   1  -1    3.30    0.30
   2   1  -1    2.90    0.40
   2   1  -1    2.90    0.60
   2   1  -1    3.40    0.50
  -2  -1   1    2.80    0.30
   2   1   0    2.00    0.50
   2   1   0    2.60    0.50
   2   1   0    2.40    0.50
   2   1   1   25.50    1.20
   2   1   1   29.30    1.40
   2   1   1   31.20    1.20
   2   1   2   16.40    0.90
   2   1   2   21.60    1.40
   2   1   3  976.30   12.00
   2   1   4  327.57    6.50
  -2  -1  -4  322.07    5.40
  -2  -1  -5   62.79    2.50
   2   1   5   63.79    3.00
  -2  -1  -6   -0.30    0.40
  -2  -1  -7    5.10    0.90
  -2  -1  -7    3.80    0.70
  -2  -1  -8    4.40    0.90
  -2  -1  -8    3.20    0.80
  -2  -1  -9    1.70    0.80
  -2  -1  -9    1.00    0.60
  -2  -1 -10   11.30    1.70
  -2  -1 -11    0.90    0.70
   2   2 -11    1.20    0.80
   2   2 -10    2.30    1.00
   2   2  -9    3.80    1.10
   2   2  -9    3.80    1.00
   2   2  -8    0.20    0.60
   2   2  -8    0.70    0.50
   2   2  -7    4.60    1.00
   2   2  -7    3.00    0.70
   2   2  -6   10.70    1.30
   2   2  -6   10.70    1.30
   2   2  -5    0.40    0.50
   2   2  -5    0.70    0.50
   2   2  -4   -0.30    0.40
   2   2  -4    0.10    0.40
   2   2  -4   -0.40    0.60
   2   2  -3   22.30    1.50
   2   2  -3   20.70    0.70
   2   2  -3   22.90    1.30
   2   2  -3   23.60    1.50
   2   2  -2    0.40    0.40
   2   2  -2   -0.60    0.40
   2   2  -2    0.10    0.30
   2   2  -2    0.20    0.20
   2   2  -1   29.20    1.50
   2   2  -1   25.80    1.20
   2   2  -1   28.40    1.60
   2   2  -1   31.40    1.10
   2   2   0    8.00    0.90
   2   2   0    7.90    0.80
   2   2   0    8.80    0.80
   2   2   1    0.70    0.40
   2   2   1    1.30    0.50
   2   2   2   28.90    1.70
   2   2   2   27.80    1.40
   2   2   3   22.50    1.60
   2   2   3   17.60    1.10
   2   2   4    0.40    0.30
   2   2   4    0.40    0.60
   2   2   5   88.79    3.80
  -2  -2  -6    5.10    0.90
   2   2   6    3.30    1.00
  -2  -2  -7   72.59    3.20
  -2  -2  -8    5.70    1.00
  -2  -2  -9   -1.20    0.70
  -2  -2  -9    0.70    0.70
  -2  -2 -10    0.90    0.60
  -2  -2 -10    0.80    0.60
  -2  -2 -11   -0.10    0.60
   2   3 -11   -0.40    0.70
   2   3 -10    0.80    0.60
   2   3  -9    0.00    0.50
   2   3  -9    0.30    0.70
   2   3  -8    2.70    0.90
   2   3  -8    2.10    0.90
   2   3  -7   -0.10    0.50
   2   3  -7    0.80    0.60
   2   3  -6   51.29    2.80
   2   3  -6   51.69    2.70
   2   3  -6   55.99    2.80
   2   3  -5  106.09    3.80
   2   3  -5  107.09    3.80
   2   3  -5  104.79    3.60
   2   3  -4    0.10    0.40
   2   3  -4    0.00    0.20
   2   3  -4   -0.90    0.50
   2   3  -4    0.10    0.50
   2   3  -3   81.19    2.00
   2   3  -3   81.29    3.10
   2   3  -3   77.49    2.60
   2   3  -3   76.09    3.00
   2   3  -2   15.80    1.00
   2   3  -2   14.70    1.40
   2   3  -2   15.00    1.10
   2   3  -2   16.60    1.40
   2   3  -1    1.80    0.50
   2   3  -1    1.20    0.50
   2   3  -1    1.70    0.60
   2   3   0   29.20    1.80
   2   3   0   29.00    1.80
   2   3   0   29.10    1.60
   2   3   1  176.78    4.50
   2   3   2    0.00    0.70
   2   3   3  395.16    8.00
   2   3   4    9.10    0.90
   2   3   4   10.20    1.40
   2   3   5    1.20    0.80
   2   3   6    1.50    0.80
   2   3   7    2.20    1.00
  -2  -3  -7    3.90    0.90
  -2  -3  -8    7.60    1.20
   2   3   8    5.40    1.30
  -2  -3  -9    1.00    0.60
  -2  -3 -10   24.30    2.30
  -2  -3 -10   21.10    2.20
   2   4 -11   -0.40    0.70
   2   4 -10   13.10    2.10
   2   4  -9    3.10    1.00
   2   4  -9    5.40    1.20
   2   4  -8   55.19    3.40
   2   4  -8   65.29    3.50
   2   4  -7   54.89    3.10
   2   4  -7   49.40    3.00
   2   4  -7   55.79    3.10
   2   4  -6    0.40    0.60
   2   4  -6    1.70    0.80
   2   4  -6    1.10    0.60
   2   4  -5    1.80    0.80
   2   4  -5    1.80    0.80
   2   4  -5    1.10    0.60
   2   4  -4    3.30    0.70
   2   4  -4    4.30    1.00
   2   4  -4    4.10    0.90
   2   4  -4    3.20    0.50
   2   4  -3   11.30    1.40
   2   4  -3   11.70    0.90
   2   4  -3    8.70    1.20
   2   4  -3   11.00    1.10
   2   4  -2  158.58    4.60
   2   4  -2  160.58    3.80
   2   4  -2  167.58    4.90
   2   4  -2  155.08    3.90
   2   4  -1  216.48    4.80
   2   4  -1  222.18    5.30
   2   4   0   52.69    2.40
   2   4   1    1.10    0.60
   2   4   2    4.40    1.10
   2   4   3    2.70    0.90
   2   4   4    1.30    0.80
   2   4   5  101.19    4.80
   2   4   6   36.00    3.00
   2   4   7    1.50    0.90
  -2  -4  -8    1.10    0.60
   2   4   8    1.00    1.00
  -2  -4  -9   -1.20    0.60
  -2  -4 -10    1.70    0.80
   2   5 -11   15.30    2.20
   2   5 -10   -1.00    0.80
   2   5  -9    0.10    0.60
   2   5  -9    1.10    0.70
   2   5  -8    4.00    1.00
   2   5  -8    2.80    0.80
   2   5  -8    4.50    1.10
   2   5  -7   21.70    2.10
   2   5  -7   23.10    2.10
   2   5  -7   19.30    1.90
   2   5  -6   91.99    4.10
   2   5  -6   92.09    3.80
   2   5  -6   92.79    4.10
   2   5  -5  166.08    5.50
   2   5  -5  164.78    5.00
   2   5  -5  172.78    5.50
   2   5  -4  116.89    4.60
   2   5  -4  119.49    3.20
   2   5  -4  124.49    4.60
   2   5  -4  114.79    4.00
   2   5  -3    1.30    0.70
   2   5  -3    2.00    0.50
   2   5  -3    2.60    0.70
   2   5  -3    2.40    0.80
   2   5  -2    0.30    0.50
   2   5  -2   -0.60    0.70
   2   5  -1    2.10    0.60
   2   5   0    2.80    0.80
   2   5   1  167.48    5.10
   2   5   2  564.04   10.60
   2   5   3  125.09    5.00
   2   5   4    6.80    1.50
   2   5   5    0.70    0.80
   2   5   6    3.50    1.10
   2   5   7    0.40    0.70
  -2  -5  -8    1.00    0.60
   2   5   8    0.40    0.80
   2   5   9   25.80    3.10
   2   6 -10   20.20    2.30
   2   6  -9   -0.20    0.70
   2   6  -9    0.10    0.70
   2   6  -8    1.70    0.80
   2   6  -8    4.50    1.20
   2   6  -8    3.80    1.10
   2   6  -7    1.60    0.80
   2   6  -7    0.70    0.60
   2   6  -7    1.30    0.90
   2   6  -6   10.70    1.50
   2   6  -6   11.10    1.70
   2   6  -6   10.90    1.40
   2   6  -5    0.90    0.80
   2   6  -5    0.40    0.70
   2   6  -5    2.00    0.80
   2   6  -4    7.30    1.20
   2   6  -4    7.00    0.90
   2   6  -4    9.40    1.50
   2   6  -4    7.30    1.30
   2   6  -3   13.10    1.30
   2   6  -3   12.00    1.60
   2   6  -2   18.40    1.60
   2   6  -1   15.70    1.50
   2   6   0    1.40    0.60
   2   6   1    0.70    0.80
   2   6   2    6.70    1.30
   2   6   3    5.80    1.30
   2   6   4    9.80    1.70
   2   6   5    0.60    0.80
   2   6   6   39.30    3.50
   2   6   7    1.70    0.90
   2   6   8    6.60    1.80
   2   7 -10    1.60    0.80
   2   7  -9    0.00    0.60
   2   7  -9    1.30    0.80
   2   7  -8   -0.10    0.60
   2   7  -8    1.70    1.00
   2   7  -8   -0.40    0.70
   2   7  -7    4.80    1.20
   2   7  -7    5.00    1.40
   2   7  -7    3.40    0.90
   2   7  -6   24.00    2.50
   2   7  -6   22.40    2.10
   2   7  -5  103.29    5.00
   2   7  -5  102.39    4.40
   2   7  -4    6.30    1.40
   2   7  -3   18.70    2.20
   2   7  -3   20.20    1.70
   2   7  -2   10.10    1.30
   2   7  -1    3.60    0.80
   2   7   0   72.29    3.60
   2   7   1  151.28    5.50
   2   7   2   41.90    3.10
   2   7   3    2.20    1.10
   2   7   4    0.30    0.70
   2   7   5    2.50    1.10
   2   7   6    1.60    1.10
   2   7   7    6.80    1.80
   2   8  -9   10.50    1.90
   2   8  -9   16.20    2.20
   2   8  -8    5.30    1.20
   2   8  -8    5.80    1.40
   2   8  -7    0.00    0.70
   2   8  -7   -0.30    0.60
   2   8  -6    3.50    1.20
   2   8  -6    3.40    1.10
   2   8  -5    1.50    0.90
   2   8  -4   27.20    2.80
   2   8  -3   91.19    5.00
   2   8  -3   94.49    4.10
   2   8  -2   87.89    4.00
   2   8  -2   88.99    4.90
   2   8  -1    4.90    1.10
   2   8   0    6.00    1.20
   2   8   1   -0.80    0.80
   2   8   2    0.40    0.70
   2   8   3   10.50    1.80
   2   8   4   16.90    2.40
   2   8   5   32.30    3.30
   2   9  -8    0.60    0.60
   2   9  -7    7.00    1.80
   2   9  -6    1.00    0.90
   2   9  -5    3.20    1.10
   2   9  -4    1.70    1.00
   2   9  -3    0.00    0.90
   2   9  -2    2.10    0.90
   2   9  -2    0.70    0.80
   2   9  -1    2.70    0.90
   2   9  -1    3.90    1.50
   2   9   0   -0.50    0.60
   2   9   1   -0.20    0.70
   2   9   2    4.10    1.20
   2   9   3   -0.40    0.90
   2  10  -3    1.70    1.20
   2  10  -2    6.80    1.40
   2  10  -2   10.10    2.10
   2  10  -1   -0.60    0.80
   2  10  -1    1.20    1.00
   2  10   0    1.60    1.10
   2  10   0    1.00    0.80
   2  10   1    0.90    0.80
   2  10   1    1.70    1.00
   2  10   2    0.00    0.60
  -3  11   0    2.90    1.00
  -3  11  -1   -0.20    0.60
  -3  11  -2    0.60    0.80
  -3  11  -3    2.80    1.10
  -3  11  -4   11.80    1.90
  -3  11  -5    4.20    1.30
  -3  10   3    0.00    0.80
  -3  10   2    7.00    1.60
  -3  10   1    0.00    0.70
  -3  10   0   22.80    2.40
  -3  10  -1    0.90    0.90
  -3  10  -2    4.10    1.10
  -3  10  -3   -0.50    0.60
  -3  10  -4    2.10    1.00
  -3  10  -5    2.30    1.00
  -3  10  -6    3.00    1.00
  -3   9   5    2.70    1.20
  -3   9   4    0.60    0.80
  -3   9   3    4.80    1.40
  -3   9   2   -0.20    0.70
  -3   9   1    7.10    1.50
  -3   9   0   -1.00    0.80
  -3   9  -1   -1.90    1.00
  -3   9  -2    0.00    0.70
  -3   9  -3    6.00    1.30
  -3   9  -4   -0.10    0.60
  -3   9  -5   -0.80    0.70
  -3   9  -6    2.40    0.90
  -3   9  -7    1.20    0.90
  -3   9  -8    1.60    1.00
  -3   8   7   -0.10    0.80
  -3   8   6    2.60    1.20
  -3   8   5   -1.90    1.10
  -3   8   4   -0.60    0.80
  -3   8   3    1.20    0.70
  -3   8   2    7.90    1.50
  -3   8   1    5.60    1.20
  -3   8   0    0.30    0.60
  -3   8  -1    7.50    1.30
  -3   8  -2   -0.40    0.60
  -3   8  -3    0.70    0.60
  -3   8  -4    1.40    0.70
  -3   8  -5    3.80    1.00
  -3   8  -6   22.50    2.20
  -3   8  -6   18.50    2.20
  -3   8  -7   19.60    2.00
  -3   8  -7   25.80    2.60
  -3   8  -8    3.30    1.10
  -3   8  -9    2.00    0.90
  -3   7   7   -0.30    0.70
  -3   7   6    0.50    0.70
  -3   7   5    0.10    0.90
  -3   7   4    2.40    0.80
  -3   7   3    0.30    0.70
  -3   7   2    7.20    1.40
  -3   7   1   -0.10    0.70
  -3   7   0    0.30    0.60
  -3   7  -1    4.00    0.90
  -3   7  -2   54.79    2.90
  -3   7  -3   49.90    2.80
  -3   7  -4    4.50    0.90
  -3   7  -4    5.00    1.00
  -3   7  -5   -0.20    0.60
  -3   7  -5    0.10    0.60
  -3   7  -6    0.60    0.80
  -3   7  -6    0.00    0.50
  -3   7  -7    0.80    0.70
  -3   7  -8    1.10    0.70
  -3   7  -9    2.70    1.00
  -3   7 -10   11.90    1.90
   3  -6  -9    4.90    1.80
  -3   6   7    4.90    1.30
  -3   6   6    8.20    1.60
  -3   6   5    0.10    0.60
  -3   6   4    5.10    1.20
  -3   6   3    5.10    1.10
  -3   6   2   60.59    3.20
  -3   6   1   54.29    2.90
  -3   6   0   17.10    1.70
  -3   6  -1    0.50    0.70
  -3   6  -2   -0.50    0.60
  -3   6  -2    0.40    0.60
  -3   6  -3    0.60    0.60
  -3   6  -4    7.80    1.30
  -3   6  -4   10.30    1.10
  -3   6  -5    8.60    1.00
  -3   6  -5    7.90    1.30
  -3   6  -6    0.30    0.40
  -3   6  -6   -0.10    0.70
  -3   6  -7    0.70    0.70
  -3   6  -7   -0.20    0.40
  -3   6  -8    1.50    0.80
  -3   6  -9    0.40    0.80
  -3   6 -10    0.20    0.60
   3  -5  -9    0.30    0.90
   3  -5  -8    0.70    1.00
  -3   5   7    4.60    1.20
  -3   5   6    9.50    1.60
  -3   5   5   88.09    4.20
  -3   5   4   84.59    3.90
  -3   5   3    1.00    0.70
  -3   5   2   24.70    2.00
  -3   5   1    0.80    0.60
  -3   5   0    0.90    0.50
  -3   5  -1   46.30    2.20
  -3   5  -2   23.90    1.50
  -3   5  -3   30.50    1.70
  -3   5  -3   31.10    2.20
  -3   5  -4   -0.10    0.40
  -3   5  -4    0.00    0.60
  -3   5  -5    8.30    1.30
  -3   5  -5    8.80    1.00
  -3   5  -6    5.80    0.80
  -3   5  -6    5.90    1.30
  -3   5  -7   10.40    1.10
  -3   5  -7   10.90    1.60
  -3   5  -8   27.40    2.50
  -3   5  -9   10.40    1.70
  -3   5 -10   14.20    2.00
  -3   5 -11    0.60    0.70
   3  -4 -10    9.20    1.90
   3  -4  -9   10.50    1.90
   3  -4  -8   17.00    2.20
   3  -4  -7    0.10    0.60
  -3   4   6    4.00    0.90
  -3   4   5    6.20    1.10
  -3   4   4    4.50    1.00
  -3   4   3   55.59    2.80
  -3   4   2   13.20    1.40
  -3   4   1  163.38    4.20
  -3   4   0    2.60    0.60
  -3   4  -1   54.09    2.10
  -3   4  -2    1.90    0.60
  -3   4  -3   -0.10    0.50
  -3   4  -3   -0.10    0.40
  -3   4  -4   90.29    2.80
  -3   4  -4   87.29    3.30
  -3   4  -5   28.30    1.60
  -3   4  -5   26.20    2.00
  -3   4  -6    5.00    1.00
  -3   4  -6    3.90    0.70
  -3   4  -7    3.80    1.00
  -3   4  -7    4.00    0.60
  -3   4  -8    0.30    0.40
  -3   4  -8    0.90    0.90
  -3   4  -9    0.00    0.80
  -3   4 -10   -1.00    0.80
  -3   4 -11    6.70    1.50
   3  -3 -10    0.00    0.80
   3  -3  -9    2.00    1.10
   3  -3  -9    3.20    1.10
   3  -3  -8    3.90    1.10
   3  -3  -7   23.10    2.20
  -3   3   6   71.09    3.20
   3  -3  -6   67.79    3.40
  -3   3   5    0.70    0.50
  -3   3   4    1.50    0.60
  -3   3   3   -0.60    0.50
  -3   3   2    4.30    0.70
  -3   3   1   20.50    1.40
  -3   3   0    1.20    0.50
  -3   3  -1    9.20    0.90
  -3   3  -2    0.70    0.40
  -3   3  -2    1.00    0.50
  -3   3  -3    0.30    0.40
  -3   3  -3    0.20    0.40
  -3   3  -4    0.50    0.40
  -3   3  -4    0.20    0.50
  -3   3  -5    4.10    0.90
  -3   3  -5    2.60    0.60
  -3   3  -6    1.70    0.70
  -3   3  -6    0.40    0.40
  -3   3  -7   -0.30    0.70
  -3   3  -7    0.90    0.50
  -3   3  -8   18.00    1.50
  -3   3  -8   18.70    2.00
  -3   3  -9   20.80    2.20
  -3   3 -10    0.20    0.70
  -3   3 -11    0.10    0.90
   3  -2 -11    1.00    0.80
   3  -2 -10    9.70    1.80
   3  -2 -10    7.40    1.60
   3  -2  -9   14.90    2.10
   3  -2  -9   17.20    2.20
   3  -2  -8    1.70    0.80
   3  -2  -8    3.30    1.00
   3  -2  -7    0.50    0.60
   3  -2  -6   22.70    1.90
  -3   2   6   22.80    1.60
  -3   2   5    6.80    0.90
   3  -2  -5    5.80    0.90
   3  -2  -4   90.19    3.30
  -3   2   4   95.39    2.90
  -3   2   3   36.30    1.70
  -3   2   2  298.17    4.80
  -3   2   2  273.97    5.20
  -3   2   1    9.50    0.80
  -3   2   0  111.59    2.60
  -3   2  -1    6.70    0.70
  -3   2  -2   52.59    1.90
  -3   2  -2   48.30    1.80
  -3   2  -3   67.09    2.20
  -3   2  -3   67.59    2.30
  -3   2  -4   75.79    2.50
  -3   2  -4   79.69    2.80
  -3   2  -5   40.70    1.90
  -3   2  -5   41.60    2.30
  -3   2  -6   24.20    1.60
  -3   2  -6   21.80    1.80
  -3   2  -7   -0.70    0.60
  -3   2  -7    0.00    0.40
  -3   2  -8    0.90    0.70
  -3   2  -8    0.80    0.50
  -3   2  -9    3.50    1.00
  -3   2  -9    3.50    0.80
  -3   2 -10    4.60    1.20
  -3   2 -11   10.70    1.80
   3  -1 -11    0.10    0.70
   3  -1 -10    0.60    0.70
   3  -1 -10    0.70    0.70
   3  -1  -9    0.20    0.80
   3  -1  -9    1.00    0.60
   3  -1  -8   24.50    2.20
   3  -1  -8   22.80    2.20
   3  -1  -7   84.49    3.80
   3  -1  -7   89.49    4.00
   3  -1  -6   72.29    3.30
   3  -1  -6   81.29    3.50
  -3   1   5  133.59    3.00
   3  -1  -5  135.89    4.10
   3  -1  -4   64.99    2.70
  -3   1   4   63.99    1.90
  -3   1   3    6.20    0.60
   3  -1  -3    5.80    0.80
  -3   1   2   13.10    0.90
   3  -1  -2   15.70    1.10
   3  -1  -1   87.59    2.40
  -3   1   1   87.09    2.10
   3  -1   0   23.90    1.10
  -3   1   0   24.40    1.20
   3  -1   1  102.19    2.10
  -3   1  -1   97.39    2.40
   3  -1   2   38.00    1.00
  -3   1  -2   42.10    1.70
  -3   1  -2   43.10    1.50
  -3   1  -3   48.90    2.00
  -3   1  -3   48.20    1.80
  -3   1  -4    0.30    0.40
  -3   1  -4    1.00    0.60
  -3   1  -5    9.70    1.10
  -3   1  -5   10.00    1.10
  -3   1  -6   41.40    2.20
  -3   1  -6   39.70    2.30
  -3   1  -7  114.39    3.80
  -3   1  -7  114.09    4.20
  -3   1  -8   13.40    1.40
  -3   1  -8   11.70    1.50
  -3   1  -9    2.80    0.80
  -3   1  -9    2.20    0.70
  -3   1 -10    0.70    0.70
  -3   1 -11    0.20    0.60
   3   0 -11   23.80    2.80
   3   0 -10   -0.30    0.70
   3   0 -10    0.50    0.70
   3   0  -9   12.50    1.70
   3   0  -9   14.20    1.80
   3   0  -8    1.40    0.70
   3   0  -8    0.80    0.50
   3   0  -7    2.70    0.70
   3   0  -7    3.50    0.90
   3   0  -6    1.80    0.70
   3   0  -6    2.30    0.70
   3   0  -5   39.30    2.20
   3   0  -5   39.70    2.10
   3   0  -4    0.80    0.50
   3   0  -4    0.00    0.50
  -3   0   4    0.10    0.10
   3   0  -3   56.49    2.40
  -3   0   3   62.19    1.50
  -3   0   3   55.99    1.30
   3   0  -3   56.59    2.00
  -3   0   2  276.77    3.70
   3   0  -2  275.77    5.10
   3   0  -1   30.80    1.50
  -3   0   1   29.50    1.10
   3   0   0    0.60    0.40
  -3   0   0   -0.10    0.30
  -3   0  -1   35.40    1.50
   3   0   1   32.60    1.20
  -3   0  -1   33.40    0.70
   3   0   2  106.69    2.10
  -3   0  -2  117.89    3.00
  -3   0  -2  108.09    2.10
  -3   0  -3  182.98    4.10
  -3   0  -3  184.68    3.50
  -3   0  -4  233.48    5.10
  -3   0  -4  235.98    4.60
  -3   0  -5   47.50    2.30
  -3   0  -5   45.70    2.10
  -3   0  -6   13.40    1.30
  -3   0  -6   12.90    1.30
  -3   0  -7    0.20    0.50
  -3   0  -7    1.10    0.50
  -3   0  -8    3.10    0.70
  -3   0  -8    4.00    0.90
  -3   0  -9   13.00    1.60
  -3   0  -9   16.00    1.70
  -3   0 -10    0.80    0.70
  -3   0 -10    0.70    0.60
  -3   0 -11    2.70    0.90
   3   1 -11    1.80    1.10
   3   1 -10    0.20    0.70
   3   1 -10   -0.60    0.60
   3   1  -9    0.50    0.60
   3   1  -9   -0.50    0.70
   3   1  -8   56.69    3.30
   3   1  -8   54.79    3.20
   3   1  -7   38.60    2.50
   3   1  -7   36.00    2.40
   3   1  -6    3.80    0.80
   3   1  -6    2.40    0.80
   3   1  -5   11.50    1.30
   3   1  -5   10.70    1.10
   3   1  -4   13.60    1.30
   3   1  -4   12.50    1.10
   3   1  -3    1.40    0.40
   3   1  -3    1.30    0.50
  -3  -1   3    1.30    0.20
   3   1  -2   51.09    2.10
  -3  -1   2   46.90    1.30
   3   1  -2   45.80    1.50
   3   1  -1  519.55    7.30
  -3  -1   1  515.25    6.20
   3   1  -1  521.05    5.30
   3   1   0 1480.75   14.80
  -3  -1   0 1448.46   14.30
   3   1   1    1.50    0.40
  -3  -1  -1    1.90    0.50
  -3  -1  -2   39.00    1.20
  -3  -1  -3    1.20    0.30
  -3  -1  -4   12.70    1.00
  -3  -1  -5    5.10    0.70
  -3  -1  -5    5.90    0.90
  -3  -1  -6    4.50    0.80
  -3  -1  -6    3.00    0.70
  -3  -1  -7    4.10    0.80
  -3  -1  -7    5.30    0.90
  -3  -1  -8    9.00    1.30
  -3  -1  -8    8.80    1.20
  -3  -1  -9    2.80    0.90
  -3  -1  -9    1.60    0.70
  -3  -1 -10    2.30    0.90
  -3  -1 -10    0.70    0.60
  -3  -1 -11    1.20    0.80
   3   2 -11   13.60    2.00
   3   2 -10    1.20    0.90
   3   2 -10    1.90    0.70
   3   2  -9    4.50    1.10
   3   2  -9    3.50    1.00
   3   2  -8    2.00    0.80
   3   2  -8    0.90    0.50
   3   2  -7    0.00    0.60
   3   2  -7   -0.30    0.50
   3   2  -6   46.40    2.70
   3   2  -6   45.70    2.50
   3   2  -5  120.09    4.20
   3   2  -5  121.89    3.80
   3   2  -4  401.76    7.50
   3   2  -4  399.16    6.70
   3   2  -3   45.40    2.30
  -3  -2   3   46.30    1.10
   3   2  -3   47.90    2.30
   3   2  -3   42.40    1.80
   3   2  -2    2.10    0.40
   3   2  -2    2.50    0.60
   3   2  -2    1.70    0.30
   3   2  -2    1.50    0.50
  -3  -2   2    1.50    0.30
   3   2  -1   41.90    1.60
   3   2  -1   43.70    2.00
   3   2  -1   45.10    2.10
   3   2  -1   41.50    1.30
   3   2   0   82.09    2.70
   3   2   0   81.49    2.80
   3   2   0   77.69    2.50
   3   2   1   16.80    1.20
   3   2   1   13.80    1.20
   3   2   1   16.30    1.20
   3   2   2    5.80    0.90
   3   2   2    5.70    0.70
   3   2   3   70.49    2.30
   3   2   3   74.29    3.20
   3   2   4    9.90    1.40
   3   2   5    7.30    1.30
  -3  -2  -5    9.10    1.00
  -3  -2  -6    2.10    0.60
  -3  -2  -7    0.70    0.50
  -3  -2  -7    0.60    0.50
  -3  -2  -8    0.30    0.50
  -3  -2  -8   -0.20    0.50
  -3  -2  -9    0.40    0.60
  -3  -2  -9    0.20    0.60
  -3  -2 -10    0.30    0.60
   3   3 -11    5.30    1.40
   3   3 -10    0.90    0.70
   3   3 -10   -0.40    0.60
   3   3  -9    2.60    1.00
   3   3  -9    4.80    1.20
   3   3  -8    2.80    0.90
   3   3  -8    3.50    0.90
   3   3  -7    2.70    0.80
   3   3  -7    2.10    0.70
   3   3  -6    0.40    0.70
   3   3  -6    0.10    0.50
   3   3  -5    2.60    0.80
   3   3  -5    2.20    0.80
   3   3  -5    1.30    0.70
   3   3  -4    1.50    0.70
   3   3  -4    1.70    0.80
   3   3  -4    0.70    0.20
   3   3  -4    1.10    0.50
   3   3  -3   53.89    1.70
   3   3  -3   57.19    2.80
   3   3  -3   58.29    2.80
   3   3  -3   58.39    2.20
   3   3  -2    6.00    0.70
   3   3  -2    5.00    0.90
   3   3  -2    5.70    0.70
   3   3  -2    5.60    1.00
   3   3  -1  383.06    7.00
   3   3  -1  378.06    6.30
   3   3  -1  383.06    7.40
   3   3   0   26.40    1.70
   3   3   0   24.10    1.70
   3   3   0   24.40    1.60
   3   3   1   94.59    3.40
   3   3   1   96.09    3.40
   3   3   2    4.10    0.90
   3   3   2    4.20    0.80
   3   3   3    1.30    0.50
   3   3   3    2.50    0.90
   3   3   4    0.00    0.30
   3   3   4    0.80    0.80
   3   3   5    3.90    1.00
  -3  -3  -6    0.30    0.50
   3   3   6    0.30    0.70
  -3  -3  -7   14.30    1.50
   3   3   7   15.00    2.00
  -3  -3  -8    0.50    0.60
  -3  -3  -9    0.60    0.70
  -3  -3 -10   -0.50    0.60
   3   4 -11    2.80    1.10
   3   4 -10    2.70    0.90
   3   4 -10    4.40    1.20
   3   4  -9    0.80    0.80
   3   4  -9   -1.50    0.90
   3   4  -8    1.60    0.70
   3   4  -8    1.20    0.80
   3   4  -7   54.49    3.30
   3   4  -7   47.00    2.90
   3   4  -6    0.00    0.50
   3   4  -6   -0.30    0.60
   3   4  -6    1.40    0.90
   3   4  -5  560.94   10.60
   3   4  -5  562.64   10.50
   3   4  -5  561.04    9.50
   3   4  -4   78.39    3.60
   3   4  -4   77.09    3.60
   3   4  -4   76.79    3.00
   3   4  -3   98.59    3.90
   3   4  -3  100.99    2.90
   3   4  -3  103.99    4.20
   3   4  -3  103.09    3.20
   3   4  -2    6.20    0.80
   3   4  -2    5.50    0.90
   3   4  -2    5.10    1.00
   3   4  -2    5.50    0.80
   3   4  -1    0.30    0.60
   3   4  -1    1.10    0.80
   3   4  -1    0.30    0.50
   3   4   0   73.69    3.10
   3   4   0   77.49    3.40
   3   4   1   25.80    1.90
   3   4   1   26.10    2.00
   3   4   2  353.76    7.40
   3   4   2  366.36    8.00
   3   4   3   31.50    2.10
   3   4   3   36.90    2.60
   3   4   4  122.09    4.00
   3   4   4  141.59    5.40
   3   4   5    1.80    1.00
   3   4   6    4.50    1.30
   3   4   7    1.30    1.00
  -3  -4  -9    0.40    0.60
   3   5 -10    0.60    0.70
   3   5 -10    1.50    0.90
   3   5  -9   27.40    2.70
   3   5  -9   24.10    2.40
   3   5  -8   17.60    1.90
   3   5  -8   20.80    2.20
   3   5  -7    4.70    1.00
   3   5  -7    5.40    1.20
   3   5  -7    5.20    1.10
   3   5  -6    1.10    0.90
   3   5  -6   -0.10    0.70
   3   5  -6    0.30    0.50
   3   5  -5    0.00    0.50
   3   5  -5   -0.50    0.60
   3   5  -5    0.10    0.70
   3   5  -4   16.30    1.70
   3   5  -4   15.40    1.70
   3   5  -4   16.40    1.50
   3   5  -3    0.10    0.50
   3   5  -3    0.00    0.30
   3   5  -3    0.20    0.70
   3   5  -3    0.20    0.70
   3   5  -2  127.29    4.00
   3   5  -2  120.69    4.80
   3   5  -2  123.29    4.50
   3   5  -1   82.49    3.40
   3   5  -1   77.69    3.80
   3   5   0    5.30    1.10
   3   5   0    5.10    1.00
   3   5   1    9.30    1.40
   3   5   1    6.90    1.20
   3   5   2    5.80    1.10
   3   5   2    5.30    1.10
   3   5   3    0.30    0.50
   3   5   3    1.00    0.70
   3   5   4   26.00    2.60
   3   5   5   40.30    3.30
   3   5   6    0.40    0.90
   3   5   7   28.10    3.00
   3   5   8    0.60    0.80
   3   6 -10    0.40    0.70
   3   6 -10   -0.20    0.70
   3   6  -9    2.80    1.10
   3   6  -9    1.20    0.70
   3   6  -8    1.00    0.70
   3   6  -8    2.60    1.10
   3   6  -7    2.70    0.90
   3   6  -7    4.50    1.20
   3   6  -7    3.40    1.10
   3   6  -6   16.60    2.00
   3   6  -6   18.10    2.00
   3   6  -6   19.20    1.80
   3   6  -5    1.60    0.60
   3   6  -5    3.10    1.10
   3   6  -5    1.20    0.70
   3   6  -4   67.09    3.80
   3   6  -4   68.19    3.30
   3   6  -4   69.69    3.80
   3   6  -3    8.30    1.10
   3   6  -3    7.20    1.30
   3   6  -3    8.80    1.60
   3   6  -2    0.20    0.50
   3   6  -2   -0.60    0.90
   3   6  -1    6.20    1.10
   3   6  -1    5.10    1.20
   3   6   0  125.89    4.80
   3   6   0  129.69    5.30
   3   6   1    4.40    1.10
   3   6   1    3.60    0.90
   3   6   2    9.20    1.40
   3   6   2    8.80    1.50
   3   6   3   25.90    2.50
   3   6   3   25.30    2.30
   3   6   4    2.30    0.90
   3   6   5    2.90    1.20
   3   6   6    2.10    1.20
   3   6   7   13.80    2.30
   3   7  -9   -0.20    0.50
   3   7  -9    2.20    1.00
   3   7  -8    0.80    0.80
   3   7  -8    2.70    1.00
   3   7  -8    0.80    0.80
   3   7  -7    5.40    1.20
   3   7  -7    4.00    1.10
   3   7  -7    4.10    1.10
   3   7  -6    3.20    1.00
   3   7  -6    2.40    1.10
   3   7  -6    4.20    1.00
   3   7  -5   10.20    1.40
   3   7  -5    8.20    1.50
   3   7  -4   31.90    2.80
   3   7  -3    1.70    0.90
   3   7  -2   16.20    1.80
   3   7  -2   16.80    2.10
   3   7  -1   29.20    2.30
   3   7  -1   27.50    2.70
   3   7   0   34.10    2.60
   3   7   0   33.70    2.90
   3   7   1    4.10    1.20
   3   7   1    3.40    1.10
   3   7   2    7.10    1.40
   3   7   2    7.80    1.50
   3   7   3    3.00    1.00
   3   7   3    4.60    1.10
   3   7   4    2.00    0.90
   3   7   5   -1.80    1.10
   3   7   6   16.90    2.50
   3   8  -8   -0.50    0.70
   3   8  -8    0.90    0.60
   3   8  -7    4.70    1.30
   3   8  -7    3.90    1.00
   3   8  -6    4.70    1.30
   3   8  -5    0.10    0.70
   3   8  -4    0.00    0.80
   3   8  -3    0.60    0.80
   3   8  -2    1.90    0.70
   3   8  -2    2.30    1.20
   3   8  -1    3.80    1.10
   3   8  -1    3.70    1.20
   3   8   0    2.20    1.10
   3   8   0    1.00    0.60
   3   8   1   12.50    2.00
   3   8   1   12.80    1.80
   3   8   2    3.40    1.20
   3   8   2    2.80    1.00
   3   8   3    0.20    0.90
   3   8   4    2.80    1.20
   3   9  -6    0.20    0.70
   3   9  -5    1.70    1.00
   3   9  -4    0.70    0.90
   3   9  -3    8.50    1.80
   3   9  -2    2.20    1.30
   3   9  -1    7.90    1.50
   3   9  -1    9.40    2.00
   3   9   0   -0.60    0.90
   3   9   0    0.30    0.70
   3   9   1    0.90    0.90
   3   9   1    1.50    0.90
   3   9   2    3.70    1.30
   3   9   2    3.20    1.20
   3  10  -1    3.10    1.10
   3  10   0    9.60    1.70
  -4  11  -1   23.50    2.70
  -4  11  -2    1.30    0.80
  -4  11  -3    0.50    0.70
  -4  11  -4    0.90    0.80
  -4  11  -5   -0.40    0.80
  -4  10   3   10.50    2.00
  -4  10   2    3.70    1.30
  -4  10   1    1.00    0.80
  -4  10   0    1.20    0.90
  -4  10  -1    0.10    0.70
  -4  10  -2    1.70    0.90
  -4  10  -3   11.50    1.90
  -4  10  -4   11.30    1.80
  -4  10  -5    1.30    0.80
  -4  10  -6    0.00    0.60
  -4   9   5   -0.60    0.90
  -4   9   4   -1.20    1.00
  -4   9   3    2.00    0.90
  -4   9   2    1.40    1.00
  -4   9   1   30.10    2.80
  -4   9   0    8.00    1.50
  -4   9  -1    1.80    0.80
  -4   9  -2    1.70    0.90
  -4   9  -3    0.50    0.70
  -4   9  -4    0.50    0.70
  -4   9  -5    0.40    0.80
  -4   9  -6    2.20    0.90
  -4   9  -7    5.90    1.30
  -4   9  -8    2.10    1.00
  -4   8   6   -1.00    0.90
  -4   8   5   17.20    2.40
  -4   8   4    8.50    1.70
  -4   8   3    9.00    1.70
  -4   8   2    1.90    1.00
  -4   8   1    0.20    0.70
  -4   8   0    2.90    1.00
  -4   8  -1    0.10    0.70
  -4   8  -2    4.50    1.10
  -4   8  -3   12.40    1.70
  -4   8  -4    0.60    0.70
  -4   8  -5    1.70    0.80
  -4   8  -6    2.00    1.00
  -4   8  -6    1.80    0.70
  -4   8  -7    2.90    1.10
  -4   8  -7    0.80    0.70
  -4   8  -8   -0.20    0.70
  -4   8  -9    0.80    0.80
   4  -7  -8    4.90    1.70
  -4   7   6    0.80    0.80
  -4   7   5   -0.40    0.90
  -4   7   4   -1.20    0.90
  -4   7   3    1.70    1.00
  -4   7   2   18.70    2.00
  -4   7   1   92.89    4.20
  -4   7   0   13.60    1.70
  -4   7  -1    5.40    1.20
  -4   7  -2    1.50    0.90
  -4   7  -3    2.10    0.80
  -4   7  -4   -0.70    0.70
  -4   7  -5    8.70    1.50
  -4   7  -5    9.30    1.20
  -4   7  -6   42.20    2.60
  -4   7  -6   41.80    3.10
  -4   7  -7   19.20    1.70
  -4   7  -7   22.40    2.30
  -4   7  -8    1.80    1.00
  -4   7  -9    0.80    0.90
  -4   7 -10    1.70    1.00
   4  -6  -9    2.20    1.40
   4  -6  -8    2.20    1.20
  -4   6   6   26.30    2.60
  -4   6   5   90.69    4.60
  -4   6   4    3.70    1.10
  -4   6   3    0.80    0.90
  -4   6   2   19.50    1.90
  -4   6   1    4.90    1.00
  -4   6   0    2.40    0.80
  -4   6  -1    5.90    1.10
  -4   6  -2  257.47    6.10
  -4   6  -3   31.10    2.00
  -4   6  -4    3.60    1.00
  -4   6  -4    4.20    0.80
  -4   6  -5    6.20    1.20
  -4   6  -5    5.30    1.00
  -4   6  -6    1.10    0.80
  -4   6  -6    0.80    0.60
  -4   6  -7    1.40    0.80
  -4   6  -7    0.40    0.40
  -4   6  -8   -1.20    0.70
  -4   6  -8    0.10    0.50
  -4   6  -9   20.30    2.30
  -4   6 -10    5.60    1.30
   4  -5  -9    1.80    1.20
   4  -5  -8   22.90    2.80
   4  -5  -7    3.20    1.30
  -4   5   6    4.60    1.10
  -4   5   5    2.70    0.90
  -4   5   4    4.80    1.10
  -4   5   3    0.20    0.70
  -4   5   2   56.59    3.00
  -4   5   1  143.19    4.50
  -4   5   0    0.10    0.70
  -4   5  -1   49.60    2.50
  -4   5  -2    1.80    0.70
  -4   5  -3   16.00    1.40
  -4   5  -4    7.60    1.00
  -4   5  -4    6.30    1.10
  -4   5  -5   61.49    2.70
  -4   5  -5   64.19    3.30
  -4   5  -6   50.39    2.50
  -4   5  -6   58.19    3.30
  -4   5  -7    0.40    0.70
  -4   5  -7   -0.50    0.50
  -4   5  -8   15.10    1.40
  -4   5  -8   17.00    2.00
  -4   5  -9    1.40    0.90
  -4   5 -10    1.00    0.70
  -4   5 -11    2.40    1.10
   4  -4 -10    4.20    1.40
   4  -4  -9    3.50    1.50
   4  -4  -9    2.00    0.90
   4  -4  -8   -0.10    0.90
   4  -4  -7    2.10    0.90
   4  -4  -6  164.78    5.80
  -4   4   6  157.28    5.20
  -4   4   5  136.29    4.70
  -4   4   4    6.60    1.10
  -4   4   3    6.00    1.00
  -4   4   2   16.20    1.50
  -4   4   1   20.40    1.60
  -4   4   0   12.90    1.30
  -4   4  -1 1459.55   16.00
  -4   4  -2 1289.37   14.60
  -4   4  -3   10.50    1.20
  -4   4  -3   11.40    1.10
  -4   4  -4   28.60    1.70
  -4   4  -4   31.10    2.00
  -4   4  -5    0.70    0.40
  -4   4  -5    0.50    0.60
  -4   4  -6    1.40    0.70
  -4   4  -6    1.80    0.60
  -4   4  -7    5.50    1.20
  -4   4  -7    2.90    0.60
  -4   4  -8   89.99    3.40
  -4   4  -8   97.09    4.50
  -4   4  -9   81.69    3.40
  -4   4  -9   86.59    4.50
  -4   4 -10    0.30    0.70
  -4   4 -11    1.40    0.90
   4  -3 -10   10.70    2.00
   4  -3 -10    7.80    1.80
   4  -3  -9    1.30    0.90
   4  -3  -9    0.80    0.90
   4  -3  -8    3.20    1.10
   4  -3  -7   20.80    2.20
   4  -3  -6    1.70    0.90
  -4   3   5    0.90    0.50
   4  -3  -5    1.80    0.80
  -4   3   4    0.80    0.50
  -4   3   3  283.87    5.90
  -4   3   2  307.47    6.00
  -4   3   1   11.80    1.10
  -4   3   0    9.40    1.00
  -4   3  -1    0.20    0.50
  -4   3  -2   16.40    1.20
  -4   3  -3    7.20    0.90
  -4   3  -3    8.50    1.00
  -4   3  -4  119.79    3.50
  -4   3  -4  125.39    3.80
  -4   3  -5   96.89    3.30
  -4   3  -5  103.79    3.70
  -4   3  -6    2.10    0.70
  -4   3  -6    2.00    0.70
  -4   3  -7   -0.20    0.60
  -4   3  -7    0.80    0.50
  -4   3  -8    1.40    0.80
  -4   3  -8    2.00    0.60
  -4   3  -9    4.70    1.10
  -4   3  -9    6.20    1.10
  -4   3 -10    2.40    0.90
  -4   3 -11    6.90    1.40
   4  -2 -10    0.40    0.80
   4  -2 -10    1.80    1.10
   4  -2  -9    3.20    1.20
   4  -2  -9    3.10    1.00
   4  -2  -8    3.60    1.10
   4  -2  -8    1.00    0.70
   4  -2  -7    8.80    1.40
   4  -2  -6   45.00    2.80
  -4   2   5    2.10    0.50
   4  -2  -5    1.70    0.70
  -4   2   4    7.80    0.90
   4  -2  -4    8.40    1.10
  -4   2   3    2.90    0.60
   4  -2  -3    3.50    0.80
  -4   2   2    0.30    0.40
   4  -2  -2    1.40    0.50
   4  -2  -1  115.19    3.40
  -4   2   1  107.69    3.00
   4  -2   0  174.88    3.80
  -4   2   0  173.48    3.70
   4  -2   1  869.61    9.70
  -4   2  -1  880.81   10.30
  -4   2  -2    0.40    0.30
  -4   2  -2    0.50    0.50
   4  -2   2    0.30    0.20
   4  -2   3   57.69    1.30
  -4   2  -3   71.09    2.60
  -4   2  -3   69.29    2.40
  -4   2  -4    1.50    0.50
  -4   2  -4    0.80    0.50
  -4   2  -5    0.20    0.40
  -4   2  -5    0.60    0.50
  -4   2  -6   21.10    1.60
  -4   2  -6   21.20    1.80
  -4   2  -7    1.00    0.60
  -4   2  -7    0.30    0.50
  -4   2  -8   92.19    3.70
  -4   2  -8   88.79    4.20
  -4   2  -9   15.90    1.60
  -4   2  -9   16.30    2.00
  -4   2 -10    1.60    0.80
  -4   2 -11   -1.40    0.90
   4  -1 -11   12.50    2.10
   4  -1 -10   -0.60    0.70
   4  -1 -10   -1.10    0.80
   4  -1  -9   -0.70    0.80
   4  -1  -9    1.40    0.90
   4  -1  -8    8.00    1.40
   4  -1  -8    7.70    1.40
   4  -1  -7    0.00    0.60
   4  -1  -7    0.50    0.60
   4  -1  -6    1.10    0.70
   4  -1  -6    0.40    0.60
   4  -1  -5    8.30    1.20
   4  -1  -4  173.98    4.90
  -4   1   4  165.28    3.30
   4  -1  -3  597.64    9.20
  -4   1   3  581.44    7.70
  -4   1   2    2.80    0.50
   4  -1  -2    3.50    0.70
   4  -1  -1   40.20    1.90
  -4   1   1   39.20    1.70
   4  -1   0    3.60    0.60
  -4   1   0    3.10    0.50
   4  -1   1    0.30    0.30
  -4   1  -1   -0.30    0.40
   4  -1   2   22.90    1.00
  -4   1  -2   25.20    1.40
  -4   1  -2   23.70    1.00
  -4   1  -3   10.80    1.10
  -4   1  -3   10.40    0.90
  -4   1  -4  478.35    7.90
  -4   1  -4  484.05    7.40
  -4   1  -5   37.90    2.20
  -4   1  -5   35.40    2.00
  -4   1  -6   30.90    2.10
  -4   1  -6   27.30    1.90
  -4   1  -7    1.70    0.60
  -4   1  -7    2.90    0.80
  -4   1  -8    0.90    0.60
  -4   1  -8   -0.10    0.60
  -4   1  -9    1.70    0.70
  -4   1  -9    0.70    0.60
  -4   1 -10    1.60    0.70
  -4   1 -10    2.40    0.80
   4   0 -11    0.50    0.70
   4   0 -11   -0.10    0.70
   4   0 -10    0.00    0.70
   4   0 -10    2.30    1.10
   4   0  -9   -0.90    0.80
   4   0  -9    0.60    0.80
   4   0  -8    2.80    1.00
   4   0  -8    2.50    1.00
   4   0  -7    2.40    0.80
   4   0  -7    3.20    0.80
   4   0  -6    0.60    0.50
   4   0  -6   -0.10    0.70
   4   0  -5    6.30    1.00
   4   0  -5    5.50    1.00
  -4   0   4    0.00    0.10
   4   0  -4    0.80    0.50
   4   0  -4    0.00    0.60
   4   0  -3    0.40    0.40
  -4   0   3   -0.20    0.20
   4   0  -3    0.40    0.50
   4   0  -2    4.00    0.70
  -4   0   2    4.70    0.50
   4   0  -2    5.30    0.50
   4   0  -1    5.60    0.40
   4   0  -1    6.90    0.80
  -4   0   1    4.20    0.60
   4   0   0   15.30    1.10
  -4   0   0   13.40    1.00
   4   0   1    1.10    0.40
  -4   0  -1    1.90    0.60
  -4   0  -2    1.10    0.20
   4   0   2    1.10    0.40
  -4   0  -2    1.10    0.60
  -4   0  -3    1.80    0.40
  -4   0  -3    0.90    0.60
  -4   0  -4    9.40    1.20
  -4   0  -4    9.10    0.90
  -4   0  -5    8.60    1.00
  -4   0  -5    9.00    1.20
  -4   0  -6   25.30    2.00
  -4   0  -6   24.40    1.80
  -4   0  -7   22.60    1.90
  -4   0  -7   21.50    1.80
  -4   0  -8   33.70    2.50
  -4   0  -8   33.80    2.50
  -4   0  -9    2.10    0.80
  -4   0  -9    3.00    0.90
  -4   0 -10    0.10    0.60
   4   1 -11    1.20    0.90
   4   1 -11   -0.60    0.80
   4   1 -10   -0.60    0.70
   4   1 -10    1.00    0.80
   4   1  -9    0.40    0.60
   4   1  -9    1.50    0.80
   4   1  -8    0.00    0.60
   4   1  -8    1.10    0.80
   4   1  -7    5.60    1.10
   4   1  -7    5.90    1.10
   4   1  -6    6.50    1.00
   4   1  -6    6.70    1.20
   4   1  -5   87.99    3.80
   4   1  -5   88.69    3.20
   4   1  -4   84.29    3.50
   4   1  -4   73.99    2.60
   4   1  -3   17.00    1.50
  -4  -1   3   17.10    0.80
   4   1  -3   17.70    1.10
   4   1  -2   37.10    2.00
  -4  -1   2   36.40    1.30
   4   1  -2   35.10    1.30
   4   1  -1   44.60    2.00
  -4  -1   1   44.90    1.70
   4   1  -1   37.90    1.00
   4   1   0    0.00    0.40
  -4  -1   0    0.30    0.40
   4   1   1    1.30    0.50
  -4  -1  -1    3.30    0.70
   4   1   2   86.89    2.60
  -4  -1  -2   87.79    3.00
  -4  -1  -2   78.09    1.60
  -4  -1  -3   49.99    2.50
  -4  -1  -3   47.40    1.60
  -4  -1  -4  200.88    5.20
  -4  -1  -4  182.08    3.90
  -4  -1  -5    0.00    0.30
  -4  -1  -5    0.10    0.50
  -4  -1  -6    0.10    0.40
  -4  -1  -6   -0.40    0.60
  -4  -1  -7    0.80    0.50
  -4  -1  -7   -0.40    0.60
  -4  -1  -8    1.60    0.70
  -4  -1  -9    6.70    1.30
  -4  -1 -10    2.50    0.90
   4   2 -11    2.30    1.10
   4   2 -11    0.60    0.80
   4   2 -10    1.30    0.70
   4   2 -10    1.20    1.00
   4   2  -9   27.60    2.60
   4   2  -9   25.20    2.40
   4   2  -8   -0.50    0.70
   4   2  -8    0.70    0.60
   4   2  -7   97.79    4.40
   4   2  -7   92.09    4.00
   4   2  -6   31.60    2.40
   4   2  -6   29.60    2.10
   4   2  -5    6.80    1.00
   4   2  -5    6.60    1.20
   4   2  -4    3.80    0.70
   4   2  -4    2.20    0.80
   4   2  -3    3.60    0.60
   4   2  -3    3.50    0.80
  -4  -2   3    3.70    0.40
   4   2  -2   33.20    2.00
  -4  -2   2   35.50    1.50
   4   2  -2   32.30    1.30
   4   2  -1  191.28    4.70
  -4  -2   1  189.08    4.00
   4   2   0  166.58    4.30
  -4  -2   0  169.58    4.00
   4   2   1   24.20    1.60
   4   2   1   22.70    1.70
  -4  -2  -2    8.20    0.50
   4   2   2    8.20    1.20
  -4  -2  -3    8.00    0.70
  -4  -2  -4    4.80    0.60
  -4  -2  -5    7.20    0.80
  -4  -2  -5    7.90    1.20
  -4  -2  -6   86.29    3.90
  -4  -2  -7    7.70    1.30
  -4  -2  -8    2.40    0.80
  -4  -2  -9    0.20    0.60
  -4  -2 -10    1.50    0.80
   4   3 -11   15.10    2.30
   4   3 -11   18.30    2.30
   4   3 -10    8.60    1.70
   4   3 -10   12.90    2.00
   4   3  -9    0.20    0.70
   4   3  -9    0.80    0.90
   4   3  -8    3.90    1.10
   4   3  -8    5.10    1.30
   4   3  -7    0.70    0.70
   4   3  -7   -1.00    0.90
   4   3  -6   64.89    3.50
   4   3  -6   59.39    3.10
   4   3  -5  136.09    5.00
   4   3  -5  129.79    4.10
   4   3  -4  207.88    6.00
   4   3  -4  209.78    4.80
   4   3  -3   99.99    3.90
   4   3  -3   94.19    3.90
  -4  -3   3   95.39    2.40
   4   3  -3   97.89    2.90
   4   3  -2    0.60    0.30
   4   3  -2    0.50    0.60
   4   3  -2    0.20    0.30
   4   3  -2    0.10    0.60
  -4  -3   2    0.80    0.30
   4   3  -1    0.20    0.60
   4   3  -1    0.40    0.60
   4   3  -1    0.30    0.40
   4   3   0    0.10    0.50
   4   3   0   -0.30    0.60
   4   3   0    0.30    0.50
   4   3   1   18.10    1.60
   4   3   1   20.50    1.60
   4   3   2  270.97    6.10
   4   3   2  275.27    6.60
   4   3   3  438.86    7.70
   4   3   3  440.66    9.20
   4   3   4   33.00    2.60
   4   3   5    5.50    1.30
  -4  -3  -7    4.10    1.10
  -4  -3  -8    0.70    0.60
  -4  -3  -9    4.90    1.10
   4   4 -11    0.10    0.70
   4   4 -10   25.60    2.70
   4   4 -10   22.70    2.50
   4   4  -9   25.50    2.60
   4   4  -9   22.10    2.30
   4   4  -8   -0.20    0.70
   4   4  -8    1.10    0.70
   4   4  -7    0.80    0.60
   4   4  -7    1.90    0.90
   4   4  -6    8.10    1.20
   4   4  -6    7.80    1.40
   4   4  -5   24.20    2.20
   4   4  -5   23.80    2.20
   4   4  -5   27.40    1.90
   4   4  -4   -0.20    0.40
   4   4  -4    0.20    0.70
   4   4  -4    0.50    0.70
   4   4  -3   33.60    2.50
   4   4  -3   35.80    2.50
   4   4  -3   33.10    1.80
   4   4  -3   32.30    1.60
   4   4  -2   23.30    1.90
   4   4  -2   25.00    1.60
   4   4  -2   21.90    2.00
   4   4  -1   26.00    2.10
   4   4  -1   24.70    1.70
   4   4  -1   27.00    2.20
   4   4   0   17.10    1.50
   4   4   0   16.20    1.60
   4   4   0   17.30    1.60
   4   4   1    3.50    0.80
   4   4   1    3.50    0.90
   4   4   2   -0.10    0.50
   4   4   2    0.10    0.70
   4   4   3   17.60    1.90
   4   4   3   18.50    1.60
   4   4   4    5.20    1.30
   4   4   5   10.50    1.70
   4   4   6    5.90    1.50
  -4  -4  -8    2.00    1.00
   4   5 -10   -0.60    0.70
   4   5 -10    0.40    0.80
   4   5  -9    3.50    1.10
   4   5  -9    3.30    1.10
   4   5  -8    1.30    0.80
   4   5  -8    1.90    1.00
   4   5  -7    2.70    0.80
   4   5  -7    3.30    1.20
   4   5  -6    5.00    1.00
   4   5  -6    3.80    1.00
   4   5  -6    6.10    1.40
   4   5  -5   56.99    3.50
   4   5  -5   56.59    3.50
   4   5  -5   57.99    2.90
   4   5  -4  136.39    5.20
   4   5  -4  135.99    5.40
   4   5  -4  139.49    4.30
   4   5  -3    1.50    0.70
   4   5  -3    1.00    0.70
   4   5  -2   27.50    2.20
   4   5  -2   26.90    1.90
   4   5  -2   22.90    2.20
   4   5  -1   32.40    2.20
   4   5  -1   31.80    2.60
   4   5   0    1.70    0.80
   4   5   0    1.20    0.70
   4   5   1  149.79    5.30
   4   5   1  149.79    5.40
   4   5   2  172.48    6.00
   4   5   2  173.58    5.70
   4   5   3   17.50    2.10
   4   5   3   16.30    1.70
   4   5   4    4.50    1.30
   4   5   5    1.20    1.00
   4   5   6    1.00    0.90
   4   5   7    1.40    1.10
   4   6  -9    8.70    1.50
   4   6  -9    9.10    1.80
   4   6  -8   29.40    2.90
   4   6  -8   28.40    2.50
   4   6  -7    4.80    1.10
   4   6  -7    5.00    1.30
   4   6  -7    2.70    1.00
   4   6  -6    0.90    0.90
   4   6  -6    0.70    0.60
   4   6  -5    8.50    1.40
   4   6  -5    9.20    1.50
   4   6  -4    2.00    0.80
   4   6  -4    1.90    0.90
   4   6  -3   75.69    4.20
   4   6  -3   76.59    4.00
   4   6  -2  162.68    5.20
   4   6  -2  158.68    6.10
   4   6  -1  104.49    4.40
   4   6  -1   97.19    4.80
   4   6   0    0.70    0.70
   4   6   0   -1.10    0.80
   4   6   1   10.70    1.60
   4   6   1    8.00    1.40
   4   6   2   -0.70    0.70
   4   6   2    2.30    1.00
   4   6   3    1.90    1.00
   4   6   4   13.70    2.10
   4   6   5   27.50    3.00
   4   6   6   32.80    3.40
   4   7  -8    4.80    1.30
   4   7  -7   -0.10    0.70
   4   7  -7    0.60    0.60
   4   7  -6   20.80    2.40
   4   7  -6   18.00    2.20
   4   7  -5    2.20    1.00
   4   7  -5    1.20    1.00
   4   7  -4    2.70    1.10
   4   7  -3    4.20    1.20
   4   7  -2    1.00    0.90
   4   7  -2    1.20    0.70
   4   7  -1   -0.20    0.80
   4   7  -1    0.10    0.60
   4   7   0    3.20    1.10
   4   7   0    2.80    0.90
   4   7   1    1.60    0.90
   4   7   1    1.00    0.80
   4   7   2    0.60    0.90
   4   7   2    0.40    0.70
   4   7   3    2.00    1.10
   4   7   4    0.70    0.80
   4   7   5   -0.30    0.70
   4   8  -6   -0.40    0.70
   4   8  -5    1.30    1.00
   4   8  -4   13.80    2.20
   4   8  -3    1.20    1.10
   4   8  -2    4.70    1.30
   4   8  -1    8.20    1.70
   4   8  -1   10.30    1.60
   4   8   0    1.80    1.10
   4   8   0    2.70    1.10
   4   8   1   -0.60    0.70
   4   8   1    0.60    0.80
   4   8   2    3.20    1.20
   4   8   2    1.30    0.90
   4   8   3    1.10    0.90
   4   9  -3   -0.20    0.90
   4   9  -2    1.30    0.80
   4   9  -1    8.30    1.90
   4   9   0    0.40    0.70
   4   9   0    2.30    1.10
   4   9   1   -2.30    1.00
   4   9   1    0.80    0.70
  -5  10   3    0.30    0.90
  -5  10   2    3.60    1.30
  -5  10   1    1.20    1.00
  -5  10   0    3.00    1.20
  -5  10  -1    0.00    0.70
  -5  10  -2    2.60    1.00
  -5  10  -3    0.30    0.70
  -5  10  -4   -0.10    0.80
  -5  10  -5   -0.40    0.70
  -5  10  -6    0.40    0.80
  -5  10  -7    8.40    1.60
  -5   9   5   -1.80    1.20
  -5   9   4    0.30    0.80
  -5   9   3    3.20    1.20
  -5   9   2    2.20    1.20
  -5   9   1    1.30    0.90
  -5   9   0    0.50    0.80
  -5   9  -1   -0.40    0.70
  -5   9  -2   -1.10    0.90
  -5   9  -3    8.80    1.50
  -5   9  -4    1.70    0.90
  -5   9  -5    0.80    0.60
  -5   9  -6    1.40    0.80
  -5   9  -7   -0.50    0.70
  -5   8   6    2.30    1.10
  -5   8   5    2.10    1.10
  -5   8   4    0.40    0.70
  -5   8   3    0.70    0.80
  -5   8   2    5.60    1.40
  -5   8   1    7.10    1.40
  -5   8   0    7.40    1.40
  -5   8  -1    4.90    1.30
  -5   8  -2   -0.10    0.60
  -5   8  -3   -0.70    0.80
  -5   8  -3    0.20    0.70
  -5   8  -4   -0.40    0.60
  -5   8  -5    2.50    0.80
  -5   8  -6    1.00    0.80
  -5   8  -7   -0.50    0.70
  -5   8  -7    0.40    0.60
  -5   8  -8    1.00    0.70
  -5   7   6    0.10    0.70
  -5   7   5   12.90    1.90
  -5   7   4   33.80    3.00
  -5   7   3   22.20    2.40
  -5   7   2    0.90    0.80
  -5   7   1    7.80    1.40
  -5   7   0    0.00    0.70
  -5   7  -1    2.00    0.90
  -5   7  -2    7.80    1.30
  -5   7  -3    9.00    1.30
  -5   7  -4    5.70    1.00
  -5   7  -5    1.50    0.70
  -5   7  -6    2.30    1.00
  -5   7  -6    0.90    0.60
  -5   7  -7   -1.00    0.80
  -5   7  -7    0.50    0.60
  -5   7  -8    4.00    1.30
  -5   7  -8    4.20    0.90
  -5   7  -9    2.80    1.00
   5  -6  -8    9.50    2.00
   5  -6  -7    2.20    1.10
  -5   6   5    5.00    1.30
  -5   6   4    2.80    1.00
  -5   6   3    6.40    1.30
  -5   6   2    2.90    0.90
  -5   6   1   19.30    1.90
  -5   6   0   22.20    2.00
  -5   6   0   22.40    2.00
  -5   6  -1    0.10    0.70
  -5   6  -2   13.10    1.40
  -5   6  -3    1.30    0.70
  -5   6  -4    1.00    0.60
  -5   6  -5   21.60    1.80
  -5   6  -5   23.00    2.20
  -5   6  -6    6.50    1.30
  -5   6  -6    5.50    1.10
  -5   6  -7    2.20    1.00
  -5   6  -7    0.30    0.50
  -5   6  -8    1.00    0.90
  -5   6  -8    1.20    0.50
  -5   6  -9    0.50    0.90
  -5   6 -10   -0.10    0.70
   5  -5  -9    2.60    1.20
   5  -5  -8    1.50    1.00
   5  -5  -7    1.90    0.90
   5  -5  -6   17.30    2.10
  -5   5   5   24.20    2.30
  -5   5   4    0.60    0.50
  -5   5   3   -0.80    0.60
  -5   5   2    0.90    0.80
  -5   5   1    0.30    0.70
  -5   5   0   10.20    1.30
  -5   5  -1    1.00    0.80
  -5   5  -2    2.40    0.80
  -5   5  -3    0.80    0.70
  -5   5  -4    2.60    0.90
  -5   5  -4    0.10    0.60
  -5   5  -5   -0.10    0.50
  -5   5  -5   -0.40    0.50
  -5   5  -6    2.60    0.90
  -5   5  -6    2.90    0.80
  -5   5  -7   -0.30    0.60
  -5   5  -7    0.90    0.60
  -5   5  -8    0.50    0.70
  -5   5  -8    1.10    0.50
  -5   5  -9    9.10    1.70
  -5   5  -9    8.80    1.20
  -5   5 -10    3.80    1.10
   5  -4  -9   12.90    2.40
   5  -4  -9    9.60    1.90
   5  -4  -8    7.10    1.50
   5  -4  -7    2.60    1.20
   5  -4  -6    7.80    1.40
   5  -4  -5   14.60    1.80
  -5   4   5   13.40    1.50
  -5   4   4   19.90    1.80
  -5   4   3   13.40    1.50
  -5   4   2   50.69    2.80
  -5   4   2   47.50    2.50
  -5   4   1   56.39    2.70
  -5   4   0   -0.10    0.60
  -5   4  -1   37.30    2.10
  -5   4  -2    1.70    0.80
  -5   4  -3    8.40    1.10
  -5   4  -4   17.50    1.50
  -5   4  -4   20.60    1.70
  -5   4  -5   17.20    1.60
  -5   4  -5   14.30    1.40
  -5   4  -6   10.60    1.40
  -5   4  -6   11.10    1.30
  -5   4  -7    7.60    1.40
  -5   4  -7    4.20    0.90
  -5   4  -8    0.80    0.70
  -5   4  -8    0.50    0.50
  -5   4  -9    0.10    0.60
  -5   4  -9   -0.20    0.50
  -5   4 -10    0.20    0.70
  -5   4 -11    2.40    1.00
   5  -3 -10   -0.70    0.90
   5  -3 -10   -0.60    0.90
   5  -3  -9   -0.30    0.80
   5  -3  -9    0.60    0.70
   5  -3  -8   -0.10    0.80
   5  -3  -8   -1.30    0.90
   5  -3  -7   26.50    2.50
   5  -3  -6   20.10    2.00
   5  -3  -5   57.39    3.30
   5  -3  -4   18.80    1.80
  -5   3   4   20.90    1.70
   5  -3  -3   37.90    2.40
  -5   3   3   39.00    2.20
  -5   3   2    1.00    0.50
   5  -3  -2    0.10    0.60
  -5   3   1    0.40    0.60
  -5   3   0   15.60    1.30
  -5   3  -1    4.10    0.80
  -5   3  -2   28.50    1.70
  -5   3  -3    1.70    0.50
  -5   3  -3    2.20    0.70
   5  -3   3    2.40    0.40
  -5   3  -4   15.00    1.40
  -5   3  -4   15.90    1.40
  -5   3  -5    0.60    0.50
  -5   3  -5    1.50    0.70
  -5   3  -6    0.00    0.50
  -5   3  -6    0.30    0.60
  -5   3  -7   22.10    1.90
  -5   3  -7   24.20    2.10
  -5   3  -8   34.00    2.40
  -5   3  -8   38.00    2.80
  -5   3  -9    0.30    0.60
  -5   3  -9    2.00    0.80
  -5   3 -10   -0.90    0.80
  -5   3 -10   -0.20    0.50
   5  -2 -10   17.00    2.40
   5  -2 -10   12.60    2.10
   5  -2  -9    2.30    1.10
   5  -2  -9    1.40    0.90
   5  -2  -8    3.40    1.10
   5  -2  -8    2.60    1.10
   5  -2  -7    0.00    0.60
   5  -2  -7   -0.90    0.80
   5  -2  -6   10.50    1.50
   5  -2  -5    1.70    0.60
  -5   2   4   12.20    1.10
   5  -2  -4   11.40    1.40
  -5   2   3    5.30    0.90
   5  -2  -3    5.40    1.00
   5  -2  -2   45.70    2.50
  -5   2   2   45.10    2.00
   5  -2  -1   33.00    2.00
  -5   2   1   35.30    1.80
   5  -2   0   14.00    1.20
  -5   2   0   12.40    1.10
  -5   2  -1    5.60    0.80
   5  -2   1    5.40    0.70
   5  -2   2    0.00    0.30
  -5   2  -2   -0.40    0.50
   5  -2   3   40.60    1.30
  -5   2  -3   49.10    2.40
  -5   2  -3   48.50    1.90
  -5   2  -4   31.20    2.00
  -5   2  -4   34.90    1.80
  -5   2  -5   54.19    2.70
  -5   2  -5   54.79    2.60
  -5   2  -6    7.70    1.10
  -5   2  -6    7.60    1.20
  -5   2  -7    7.90    1.20
  -5   2  -7    6.10    1.00
  -5   2  -8   -1.20    0.70
  -5   2  -8    0.80    0.70
  -5   2  -9    4.00    1.00
  -5   2 -10    2.40    0.80
   5  -1 -11    0.50    0.80
   5  -1 -10    0.50    0.70
   5  -1 -10    0.40    0.90
   5  -1  -9    0.10    0.60
   5  -1  -9   -0.30    0.60
   5  -1  -8    2.70    0.80
   5  -1  -8    0.70    0.70
   5  -1  -7   50.59    3.20
   5  -1  -7   51.39    3.10
   5  -1  -6    8.40    1.20
   5  -1  -6    9.10    1.40
   5  -1  -5    1.30    0.60
   5  -1  -5    1.00    0.70
   5  -1  -4   13.70    1.50
  -5   1   3    5.50    0.70
   5  -1  -3    5.30    1.00
  -5   1   2    3.30    0.60
   5  -1  -2    4.10    0.80
   5  -1  -1    0.60    0.50
  -5   1   1    0.30    0.40
   5  -1   0  342.67    6.00
  -5   1   0  328.57    5.70
   5  -1   1  253.17    4.80
  -5   1  -1  259.57    5.10
   5  -1   2    6.00    0.70
  -5   1  -2    5.80    0.90
  -5   1  -3    3.40    0.50
   5  -1   3    3.00    0.40
  -5   1  -3    3.50    0.70
  -5   1  -4    0.60    0.40
  -5   1  -4   -0.40    0.70
  -5   1  -5    5.10    0.80
  -5   1  -5    5.50    0.90
  -5   1  -6    0.50    0.40
  -5   1  -6    0.90    0.70
  -5   1  -7    0.90    0.60
  -5   1  -8    2.10    0.80
  -5   1  -9    0.80    0.60
  -5   1 -10    1.00    0.70
   5   0 -11   31.40    3.20
   5   0 -10    0.90    0.80
   5   0 -10    3.90    1.30
   5   0  -9    1.10    0.90
   5   0  -9    1.80    0.90
   5   0  -8   10.20    1.50
   5   0  -8   11.80    1.70
   5   0  -7    0.30    0.50
   5   0  -7    0.70    0.80
   5   0  -6    1.70    0.70
   5   0  -6    0.80    0.70
   5   0  -5   13.10    1.50
   5   0  -5   11.90    1.20
   5   0  -4  220.58    6.00
   5   0  -4  217.28    4.80
   5   0  -3  133.59    4.30
  -5   0   3  128.29    2.90
   5   0  -3  125.09    3.10
   5   0  -2   42.10    2.30
  -5   0   2   43.00    1.70
   5   0  -2   37.60    1.40
   5   0  -1   13.00    1.20
  -5   0   1   10.60    0.90
   5   0  -1    9.50    0.50
   5   0   0    2.40    0.60
  -5   0   0    1.60    0.40
   5   0   1   37.10    1.90
  -5   0  -1   45.00    2.10
   5   0   2   12.80    1.00
  -5   0  -2   17.10    1.50
   5   0   3    3.70    0.50
  -5   0  -3    4.50    1.00
  -5   0  -4   33.10    2.30
  -5   0  -5   17.10    1.80
  -5   0  -6    0.50    0.70
  -5   0  -7    0.50    0.60
  -5   0  -8    1.40    0.70
  -5   0  -9    1.50    0.80
  -5   0 -10    0.40    0.60
   5   1 -11    0.60    0.70
   5   1 -11   -0.50    1.00
   5   1 -10    2.90    1.10
   5   1 -10    4.10    1.20
   5   1  -9    1.90    0.90
   5   1  -9    1.80    0.90
   5   1  -8    2.00    0.80
   5   1  -8    1.30    0.80
   5   1  -7    3.90    0.90
   5   1  -7    3.10    1.10
   5   1  -6    1.80    0.70
   5   1  -6    2.40    0.90
   5   1  -5    2.90    0.70
   5   1  -5    5.20    1.20
   5   1  -4    1.80    0.50
   5   1  -4    2.10    0.80
   5   1  -3   18.10    1.70
  -5  -1   3   17.40    1.00
   5   1  -3   17.90    1.10
   5   1  -2   44.80    2.50
  -5  -1   2   44.60    1.70
   5   1  -2   50.49    1.60
   5   1  -1   37.50    2.10
  -5  -1   1   36.40    1.70
   5   1   0  197.68    4.80
  -5  -1   0  207.18    4.70
   5   1   1    0.40    0.40
  -5  -1  -1   -0.10    0.60
   5   1   2   63.59    2.40
  -5  -1  -2   64.89    2.90
  -5  -1  -3   -0.20    0.70
  -5  -1  -4   10.30    1.40
  -5  -1  -5    1.40    0.70
  -5  -1  -6    1.40    0.70
  -5  -1  -7    1.40    0.80
  -5  -1  -8    6.30    1.30
  -5  -1  -9    0.10    0.60
  -5  -1 -10    0.50    0.70
   5   2 -11   10.30    1.70
   5   2 -10    1.40    0.80
   5   2 -10    3.70    1.30
   5   2  -9    3.10    1.00
   5   2  -9    4.10    1.30
   5   2  -8    0.20    0.60
   5   2  -8   -0.30    0.60
   5   2  -7    0.50    0.50
   5   2  -7    1.00    0.80
   5   2  -6   61.79    3.50
   5   2  -6   60.19    3.00
   5   2  -5   46.30    3.00
   5   2  -5   54.19    2.50
   5   2  -4  505.15    9.80
   5   2  -4  472.95    7.70
   5   2  -3    2.80    0.50
   5   2  -3    2.90    0.80
  -5  -2   3    2.70    0.40
   5   2  -2   75.99    3.30
  -5  -2   2   81.89    2.50
   5   2  -1    3.00    0.80
  -5  -2   1    2.80    0.70
   5   2   0    0.30    0.60
  -5  -2   0    0.50    0.50
   5   2   1  102.39    3.50
  -5  -2  -1  104.79    3.60
  -5  -2  -2    2.60    0.80
  -5  -2  -3  323.97    7.30
  -5  -2  -4   -0.50    0.70
  -5  -2  -5   87.09    4.00
  -5  -2  -6    0.70    0.60
  -5  -2  -7   -0.30    0.80
  -5  -2  -8    0.50    0.70
  -5  -2  -9    1.20    0.80
   5   3 -10    2.60    1.00
   5   3 -10    4.60    1.30
   5   3  -9    6.00    1.30
   5   3  -9   10.50    1.90
   5   3  -8   30.50    2.80
   5   3  -8   21.10    2.20
   5   3  -7   11.40    1.70
   5   3  -7   11.70    1.60
   5   3  -6    2.00    0.60
   5   3  -6    1.60    0.60
   5   3  -5    0.90    0.50
   5   3  -5    0.70    0.70
   5   3  -4    0.70    0.60
   5   3  -3    9.40    1.30
   5   3  -2    5.40    1.00
  -5  -3   2    4.60    0.70
   5   3  -1  149.19    4.70
  -5  -3   1  153.68    4.20
   5   3   0   31.60    2.10
  -5  -3   0   34.20    2.00
  -5  -3  -1   15.80    1.50
   5   3   1   15.20    1.50
  -5  -3  -2    3.20    0.80
  -5  -3  -3   -0.80    0.90
  -5  -3  -4    0.50    0.70
  -5  -3  -5   24.40    2.20
  -5  -3  -6   20.80    2.10
  -5  -3  -7    6.30    1.30
  -5  -3  -8   20.30    2.30
   5   4 -10    1.10    1.00
   5   4  -9    0.40    0.90
   5   4  -8    2.20    1.00
   5   4  -7    3.60    1.10
   5   4  -6    0.40    0.80
   5   4  -5   34.80    2.80
   5   4  -4    3.70    1.00
   5   4  -3   80.19    3.90
   5   4  -2    4.00    1.10
   5   4  -2    2.80    0.90
   5   4  -2    2.50    0.60
  -5  -4   2    2.90    0.70
   5   4  -1    0.30    0.60
   5   4  -1    0.40    0.60
   5   4  -1   -0.40    0.40
  -5  -4   1   -0.90    0.60
   5   4   0   47.70    2.90
   5   4   0   45.30    2.60
   5   4   0   45.20    2.70
   5   4   1  111.49    4.40
   5   4   1  101.19    4.20
   5   4   2    4.40    1.00
   5   4   2    4.70    1.00
   5   4   3    0.20    0.70
   5   4   4   25.30    2.60
  -5  -4  -6    2.30    0.80
  -5  -4  -7    2.30    1.00
   5   5  -9    8.90    1.80
   5   5  -8    1.00    0.90
   5   5  -7    6.30    1.60
   5   5  -6    4.00    1.10
   5   5  -5    1.30    0.80
   5   5  -4   18.90    2.10
   5   5  -4   17.20    2.00
   5   5  -3   36.60    2.70
   5   5  -3   38.30    2.90
   5   5  -2   11.70    1.50
   5   5  -2   10.90    1.60
   5   5  -2    9.60    1.20
   5   5  -1    6.40    1.20
   5   5  -1    7.00    1.40
   5   5  -1    6.10    1.00
   5   5   0   64.89    3.50
   5   5   0   71.09    3.80
   5   5   1   14.50    1.70
   5   5   1   15.60    1.80
   5   5   2   12.10    1.60
   5   5   2    8.30    1.50
   5   5   3    4.90    1.30
   5   5   4    5.80    1.50
   5   5   5    1.00    0.90
   5   6  -8    1.70    1.00
   5   6  -7    3.30    1.10
   5   6  -6   11.00    1.80
   5   6  -5    2.30    0.90
   5   6  -5    3.50    1.10
   5   6  -4   -0.80    0.80
   5   6  -4    0.70    0.70
   5   6  -3    1.70    0.80
   5   6  -3    3.00    0.90
   5   6  -2    0.50    0.70
   5   6  -1    0.80    0.60
   5   6  -1    1.30    0.70
   5   6   0    6.00    1.40
   5   6   0    5.50    1.20
   5   6   1    3.10    1.00
   5   6   1    0.90    0.90
   5   6   2   14.50    1.80
   5   6   2   14.50    2.00
   5   6   3    0.60    0.70
   5   6   4    1.80    1.10
   5   6   5    3.10    1.30
   5   7  -6    1.90    1.00
   5   7  -6   -0.40    0.90
   5   7  -5    2.00    1.00
   5   7  -5    3.00    1.20
   5   7  -4    1.30    0.70
   5   7  -3    1.60    0.90
   5   7  -2    8.70    1.70
   5   7  -1    2.60    1.10
   5   7  -1    1.80    0.80
   5   7   0    5.80    1.50
   5   7   0    6.30    1.30
   5   7   1    1.10    0.80
   5   7   1   -0.60    0.70
   5   7   2   -0.30    0.70
   5   7   3   12.20    2.00
   5   7   4   12.60    2.00
   5   8  -4    1.40    0.90
   5   8  -3    2.20    1.10
   5   8  -2    0.60    0.70
   5   8  -1    0.60    0.80
   5   8   0   10.80    2.00
   5   8   0   11.40    1.80
   5   8   1   18.60    2.30
   5   8   1   15.70    2.30
   5   8   2    0.30    0.60
  -6  10   2    5.90    1.70
  -6  10   1    0.50    0.80
  -6  10   0    0.70    1.00
  -6  10  -1    0.60    0.70
  -6  10  -2   -0.60    0.80
  -6  10  -3    4.00    1.40
  -6  10  -4    1.70    0.90
  -6  10  -5   -0.60    0.70
  -6   9   5   -1.60    1.10
  -6   9   4   -0.80    0.80
  -6   9   3   -0.50    0.90
  -6   9   2    0.50    0.80
  -6   9   1   11.30    2.00
  -6   9   0   22.80    2.60
  -6   9  -1    1.00    0.80
  -6   9  -2    3.10    1.00
  -6   9  -3    0.00    0.70
  -6   9  -4    0.50    0.70
  -6   9  -5    0.20    0.70
  -6   9  -6    5.60    1.30
  -6   9  -7    7.50    1.40
  -6   8   5   16.10    2.30
  -6   8   4   20.00    2.60
  -6   8   3    4.20    1.40
  -6   8   2    0.90    0.80
  -6   8   1    2.40    1.00
  -6   8   0    3.40    1.10
  -6   8  -1    1.60    0.90
  -6   8  -2   17.60    2.10
  -6   8  -2   17.30    2.10
  -6   8  -3   61.19    3.60
  -6   8  -4    2.30    0.90
  -6   8  -5    0.10    0.70
  -6   8  -6   -0.50    0.60
  -6   8  -7    1.90    0.90
  -6   8  -8   -1.10    0.70
  -6   8  -8   -0.10    0.70
   6  -7  -6    2.20    1.10
  -6   7   5    3.30    1.20
  -6   7   4    2.00    1.00
  -6   7   3    3.50    1.10
  -6   7   2    0.20    0.70
  -6   7   1   19.70    2.20
  -6   7   0   23.60    2.40
  -6   7  -1    3.20    1.00
  -6   7  -2   14.70    1.70
  -6   7  -3    4.30    1.10
  -6   7  -4    2.10    0.80
  -6   7  -5    3.50    0.90
  -6   7  -6   11.60    1.50
  -6   7  -7    7.90    1.60
  -6   7  -7    5.90    1.10
  -6   7  -8    0.90    0.80
  -6   7  -8    1.60    0.70
  -6   7  -9    2.80    1.00
   6  -6  -7   -0.30    0.90
   6  -6  -6    3.00    1.20
  -6   6   5   84.19    4.50
  -6   6   4   32.30    2.80
  -6   6   3    1.40    0.90
  -6   6   2    0.30    0.60
  -6   6   1    3.40    1.00
  -6   6   0    7.10    1.30
  -6   6  -1   13.30    1.70
  -6   6  -2  370.16    8.00
  -6   6  -3  129.29    4.50
  -6   6  -4    6.50    1.10
  -6   6  -5    3.20    0.90
  -6   6  -6    0.60    0.80
  -6   6  -6    0.10    0.70
  -6   6  -7    2.00    0.70
  -6   6  -7   -1.20    0.60
  -6   6  -8    5.90    1.40
  -6   6  -8    4.20    0.90
  -6   6  -9   33.10    2.50
  -6   6  -9   43.20    3.50
  -6   6 -10   11.60    1.90
   6  -5  -8    0.50    0.80
   6  -5  -7    5.50    1.40
   6  -5  -6    8.70    1.60
   6  -5  -5    1.60    0.90
  -6   5   4    1.20    0.80
   6  -5  -4    0.60    0.70
  -6   5   3   11.00    1.50
  -6   5   2   76.19    3.70
  -6   5   1   33.30    2.50
  -6   5   0    1.30    0.80
  -6   5  -1    7.60    1.20
  -6   5  -2    1.60    0.60
  -6   5  -3    9.60    1.20
  -6   5  -4    3.50    0.80
  -6   5  -5   37.60    2.30
  -6   5  -5   40.00    2.60
  -6   5  -6   11.80    1.60
  -6   5  -6   10.60    1.40
  -6   5  -7    2.50    0.90
  -6   5  -7    0.60    0.50
  -6   5  -8    1.30    0.70
  -6   5  -8    0.70    0.60
  -6   5  -9    1.80    0.90
  -6   5  -9   -0.90    0.60
   6  -4  -9    1.30    1.10
   6  -4  -9    3.00    1.30
   6  -4  -8   -0.50    0.70
   6  -4  -7    1.00    0.80
   6  -4  -6   10.50    1.70
   6  -4  -5   15.30    2.00
  -6   4   4    1.40    0.60
   6  -4  -4    2.70    1.00
  -6   4   3    3.50    0.90
   6  -4  -3    2.50    0.80
  -6   4   2    2.30    0.90
   6  -4  -2    2.10    0.80
  -6   4   1    7.90    1.20
  -6   4   0   13.80    1.40
  -6   4  -1   99.39    3.60
  -6   4  -2  127.89    4.10
  -6   4  -3    4.50    1.00
  -6   4  -4    8.50    1.10
  -6   4  -5    0.70    0.50
  -6   4  -5   -0.90    0.70
  -6   4  -6    3.00    0.80
  -6   4  -6    3.70    0.80
  -6   4  -7    6.40    1.20
  -6   4  -7    5.20    1.00
  -6   4  -8    8.60    1.30
  -6   4  -9   30.90    2.40
  -6   4 -10    1.40    0.70
   6  -3  -9   -0.20    0.80
   6  -3  -9    3.60    1.50
   6  -3  -8    0.30    0.80
   6  -3  -8    0.50    0.70
   6  -3  -7    3.30    1.10
   6  -3  -6   -0.40    0.90
   6  -3  -5   -0.30    0.70
  -6   3   4    0.70    0.50
   6  -3  -4    0.20    0.60
   6  -3  -3   92.89    4.00
  -6   3   3  101.39    3.90
   6  -3  -2  104.89    4.10
  -6   3   2  109.19    3.80
  -6   3   1    0.40    0.50
   6  -3  -1    0.20    0.50
  -6   3   0    3.70    0.80
   6  -3   0    4.00    0.80
  -6   3  -1   -0.30    0.60
   6  -3   1    1.10    0.50
  -6   3  -2   -1.30    0.80
   6  -3   2   -0.10    0.30
  -6   3  -3    5.00    1.00
  -6   3  -4   30.70    2.10
  -6   3  -4   27.40    1.70
  -6   3  -5  117.79    4.20
  -6   3  -5  118.99    3.80
  -6   3  -6    0.30    0.50
  -6   3  -7    3.00    0.90
  -6   3  -8    1.00    0.60
  -6   3  -9    0.60    0.70
  -6   3 -10    0.20    0.50
   6  -2 -10    0.80    0.90
   6  -2  -9    0.50    0.80
   6  -2  -9    0.80    1.10
   6  -2  -8    0.00    0.70
   6  -2  -8    2.00    1.00
   6  -2  -7    0.40    0.70
   6  -2  -7   -2.20    1.10
   6  -2  -6    2.60    0.80
   6  -2  -5    0.00    0.70
   6  -2  -4    0.90    0.80
  -6   2   3   -0.30    0.50
   6  -2  -3    0.20    0.70
  -6   2   2    0.30    0.50
   6  -2  -2   -0.40    0.60
  -6   2   1    0.80    0.50
   6  -2  -1    0.10    0.50
  -6   2   0    7.10    0.90
   6  -2   0    7.50    1.00
   6  -2   1    7.40    0.90
  -6   2  -1    8.10    1.10
   6  -2   2    1.10    0.40
  -6   2  -2    0.10    0.60
  -6   2  -3    0.20    0.60
  -6   2  -4    0.50    0.70
  -6   2  -5    0.60    0.60
  -6   2  -6    8.50    1.20
  -6   2  -7    0.30    0.60
  -6   2  -8   15.20    1.70
  -6   2  -9    9.30    1.50
  -6   2 -10   -0.90    0.60
   6  -1 -10    0.90    0.80
   6  -1 -10    0.10    0.80
   6  -1  -9    0.40    0.60
   6  -1  -9   -2.40    1.20
   6  -1  -8    1.70    0.70
   6  -1  -8   -1.30    1.00
   6  -1  -7    4.40    1.10
   6  -1  -7    3.30    1.10
   6  -1  -6    3.40    0.90
   6  -1  -6    2.60    0.90
   6  -1  -5   15.70    1.80
   6  -1  -5   17.20    1.50
   6  -1  -4   67.59    3.50
   6  -1  -4   67.19    2.80
   6  -1  -3   19.00    1.80
  -6   1   3   16.90    1.30
   6  -1  -2    8.20    1.20
  -6   1   2    8.10    0.90
   6  -1  -1    2.20    0.70
  -6   1   1    1.20    0.50
   6  -1   0   17.00    1.40
  -6   1   0   17.50    1.40
   6  -1   1    0.90    0.50
  -6   1  -1    0.40    0.50
   6  -1   2    0.50    0.40
  -6   1  -2    0.20    0.60
  -6   1  -3    3.50    0.90
  -6   1  -4   60.19    3.10
  -6   1  -5   46.70    2.80
  -6   1  -6    0.10    0.60
  -6   1  -7   -0.90    0.60
  -6   1  -8   -0.50    0.60
  -6   1  -9   -0.60    0.70
  -6   1 -10    1.30    0.80
   6   0 -10    1.70    0.90
   6   0 -10    3.70    1.30
   6   0  -9    4.70    1.10
   6   0  -9    3.50    1.10
   6   0  -8   17.50    2.20
   6   0  -8   17.70    1.90
   6   0  -7    8.00    1.30
   6   0  -7    8.60    1.50
   6   0  -6   58.79    3.60
   6   0  -6   62.19    3.00
   6   0  -5    6.30    1.00
   6   0  -5    7.30    1.30
   6   0  -4   11.50    1.50
   6   0  -4   10.70    1.00
   6   0  -3    1.80    0.40
   6   0  -3    1.20    0.70
  -6   0   3    0.80    0.40
   6   0  -2    3.30    0.90
  -6   0   2    2.00    0.50
   6   0  -1   24.50    1.80
  -6   0   1   23.10    1.50
   6   0   0   91.99    3.40
  -6   0   0   89.99    3.10
   6   0   1   50.09    2.30
  -6   0  -1   48.90    2.40
   6   0   2    2.90    0.60
  -6   0  -2    2.20    0.70
  -6   0  -3   10.20    1.30
  -6   0  -4    3.40    1.00
  -6   0  -5    3.80    1.00
  -6   0  -6   13.20    1.70
  -6   0  -7   39.20    2.90
  -6   0  -8    1.30    0.70
  -6   0  -9   -0.80    0.60
   6   1 -10   24.50    2.80
   6   1 -10   17.80    2.20
   6   1  -9    2.90    1.00
   6   1  -9    3.80    1.30
   6   1  -8    0.70    0.60
   6   1  -8    2.00    0.90
   6   1  -7    9.60    1.40
   6   1  -7   10.10    1.60
   6   1  -6    3.40    0.90
   6   1  -6    4.30    1.20
   6   1  -5   83.09    4.20
   6   1  -4  104.69    4.50
   6   1  -3  129.19    4.80
   6   1  -2   40.30    2.50
  -6  -1   2   38.60    1.80
   6   1  -1    0.30    0.50
  -6  -1   1   -0.40    0.50
   6   1   0    1.10    0.60
  -6  -1   0    0.10    0.50
   6   1   1    1.80    0.60
  -6  -1  -1    4.40    1.00
   6   1   2   53.29    2.40
  -6  -1  -2   54.79    3.00
  -6  -1  -3  266.77    7.00
  -6  -1  -4  231.78    6.70
  -6  -1  -5    8.80    1.40
  -6  -1  -6    5.40    1.30
  -6  -1  -7    5.30    1.40
  -6  -1  -8    2.40    1.00
  -6  -1  -9    2.30    0.90
   6   2  -9   33.70    3.10
   6   2  -8   13.50    2.00
   6   2  -7    0.30    0.80
   6   2  -6    1.00    0.80
   6   2  -5   15.20    1.90
   6   2  -4   24.20    2.20
   6   2  -3    7.60    1.20
   6   2  -2   60.79    3.20
  -6  -2   2   54.99    2.30
   6   2  -1   18.10    1.80
  -6  -2   1   18.00    1.50
   6   2   0   18.10    1.70
  -6  -2   0   18.10    1.70
   6   2   1   15.60    1.50
  -6  -2  -1   14.80    1.50
   6   2   2    4.90    0.90
  -6  -2  -2    4.70    1.00
  -6  -2  -3    0.40    0.70
  -6  -2  -4   26.90    2.30
  -6  -2  -5    1.70    0.80
  -6  -2  -6    5.90    1.30
  -6  -2  -7   13.20    1.80
  -6  -2  -8   14.70    2.10
   6   3  -9    4.50    1.40
   6   3  -8    3.30    1.10
   6   3  -7   -1.40    0.90
   6   3  -6    2.80    1.00
   6   3  -5    4.00    1.00
   6   3  -4   87.39    4.40
   6   3  -3   79.99    4.00
   6   3  -2   22.20    2.00
   6   3  -1    8.90    1.30
  -6  -3   1   10.90    1.30
   6   3   0   38.70    2.50
  -6  -3   0   38.10    2.30
   6   3   1    3.80    1.00
  -6  -3  -1    3.20    0.90
  -6  -3  -2  165.48    5.40
  -6  -3  -3  114.19    4.70
  -6  -3  -4    2.40    0.80
  -6  -3  -5    5.80    1.20
  -6  -3  -6    0.40    0.60
  -6  -3  -7    1.00    0.90
   6   4  -8   13.40    2.00
   6   4  -7   29.60    2.90
   6   4  -6    0.80    0.70
   6   4  -5    0.50    0.70
   6   4  -4   10.20    1.70
   6   4  -3   17.40    1.90
   6   4  -2  111.69    4.80
   6   4  -1  150.18    5.50
  -6  -4   1  160.98    4.80
   6   4   0   66.19    3.50
  -6  -4   0   65.69    3.20
  -6  -4  -1    4.60    0.90
  -6  -4  -2    4.80    1.10
  -6  -4  -3    0.30    0.60
  -6  -4  -4    7.60    1.50
  -6  -4  -5   14.80    2.00
  -6  -4  -6   33.20    3.00
   6   5  -8    1.30    0.90
   6   5  -7    4.20    1.30
   6   5  -6    8.80    1.70
   6   5  -5   15.00    2.10
   6   5  -4    3.20    1.00
   6   5  -3   -0.60    0.70
   6   5  -2    4.20    1.00
   6   5  -1    3.50    1.10
  -6  -5   0   -0.50    0.60
   6   5   1    1.20    0.80
  -6  -5  -1    1.70    0.80
  -6  -5  -2    1.50    0.70
  -6  -5  -3    0.70    0.80
  -6  -5  -4    2.30    0.90
  -6  -5  -5    0.30    0.70
   6   6  -6    3.40    1.20
   6   6  -5    1.60    1.00
   6   6  -4    3.30    1.00
   6   6  -3   13.70    1.90
   6   6  -2   -0.10    0.90
   6   6  -1   13.30    1.90
   6   6   0    3.60    1.20
   6   6   0    2.80    1.00
  -6  -6   0    2.70    0.70
   6   6   1    3.50    1.20
   6   6   1    1.70    0.70
   6   6   2    4.30    1.30
   6   6   3    0.90    0.90
  -6  -6  -3   -0.30    0.80
  -6  -6  -4    2.00    0.90
   6   7  -5    3.90    1.20
   6   7  -3    2.50    1.20
   6   7  -2    0.50    0.90
   6   7  -1    9.60    1.70
   6   7   0    6.10    1.50
   6   7   1    0.40    0.80
   6   7   1    0.20    0.70
   6   7   2    0.90    0.60
  -7   9   4    5.40    1.60
  -7   9   3   11.60    2.20
  -7   9   2    4.30    1.40
  -7   9   1    1.10    0.90
  -7   9   0    1.80    1.00
  -7   9  -1   -0.70    0.80
  -7   9  -2    2.00    1.10
  -7   9  -3    3.10    1.20
  -7   9  -3    4.20    1.30
  -7   9  -4    0.80    0.70
  -7   9  -5   -0.30    0.70
  -7   9  -6    0.50    0.60
  -7   8   4    3.50    1.20
  -7   8   3   -0.80    0.90
  -7   8   2    2.40    1.10
  -7   8   1   -0.10    0.70
  -7   8   0    6.60    1.60
  -7   8  -1    2.10    0.90
  -7   8  -2    2.20    1.10
  -7   8  -3    4.80    1.20
  -7   8  -4   -0.10    0.60
  -7   8  -5    2.10    0.80
  -7   8  -6    7.00    1.30
  -7   8  -7    0.80    0.60
   7  -7  -5    5.00    1.40
  -7   7   4    5.30    1.40
  -7   7   3    0.40    0.70
  -7   7   2    0.00    0.80
  -7   7   1    2.00    1.00
  -7   7   0    0.50    0.60
  -7   7   0    1.10    1.00
  -7   7  -1    1.90    0.80
  -7   7  -2    0.40    0.80
  -7   7  -3    1.20    0.70
  -7   7  -4   -1.40    0.80
  -7   7  -5    1.60    0.70
  -7   7  -6    1.00    0.70
  -7   7  -7    0.60    0.60
  -7   7  -8    0.50    0.60
   7  -6  -6    2.20    1.10
   7  -6  -5    7.60    1.60
  -7   6   4    3.30    1.10
   7  -6  -4    2.90    1.10
  -7   6   3   12.10    1.80
  -7   6   2   -0.50    0.70
  -7   6   1   24.20    2.40
  -7   6   1   22.00    2.20
  -7   6   0    5.40    1.30
  -7   6  -1   -1.10    0.70
  -7   6  -2   11.00    1.50
  -7   6  -3   -0.60    0.60
  -7   6  -4    1.90    0.70
  -7   6  -5    5.60    1.10
  -7   6  -6    2.30    0.80
  -7   6  -7    2.70    0.90
  -7   6  -8    2.10    0.80
  -7   6  -9    0.10    0.50
   7  -5  -7    0.10    0.80
   7  -5  -6   13.30    2.00
   7  -5  -5    2.30    1.10
   7  -5  -4   16.80    2.10
   7  -5  -3    1.00    0.70
  -7   5   3    2.20    0.90
  -7   5   2    9.50    1.40
  -7   5   2    7.80    1.50
   7  -5  -2    8.70    1.50
  -7   5   1    0.20    0.70
   7  -5  -1    0.00    0.60
  -7   5   0    0.80    0.60
  -7   5  -1    2.00    0.90
  -7   5  -2    2.60    0.80
   7  -5   2    2.90    0.80
  -7   5  -3    2.90    0.80
  -7   5  -4    0.30    0.60
  -7   5  -5    3.40    0.90
  -7   5  -6    0.60    0.60
  -7   5  -7    0.10    0.60
  -7   5  -8    8.20    1.40
  -7   5  -9    4.50    1.10
   7  -4  -8    4.90    1.50
   7  -4  -8    0.60    0.80
   7  -4  -7    0.50    0.80
   7  -4  -6    0.90    0.70
   7  -4  -5    7.00    1.30
   7  -4  -4    4.70    1.10
  -7   4   3    2.40    0.90
  -7   4   3    1.40    0.70
   7  -4  -3    1.60    0.90
  -7   4   2    5.40    1.10
   7  -4  -2    5.00    1.20
  -7   4   1   12.50    1.50
   7  -4  -1   10.70    1.60
  -7   4   0    1.20    0.80
   7  -4   0    1.30    0.80
  -7   4  -1    1.50    0.70
   7  -4   1    1.80    0.70
  -7   4  -2    4.30    0.90
  -7   4  -3    2.70    0.70
  -7   4  -4    8.70    1.20
  -7   4  -5    0.00    0.70
  -7   4  -6    8.80    1.30
  -7   4  -7    0.40    0.60
  -7   4  -8    1.60    0.80
  -7   4  -9   -0.20    0.50
   7  -3  -9   -2.40    1.10
   7  -3  -8   -0.30    0.70
   7  -3  -8    0.10    0.80
   7  -3  -7    4.50    1.20
   7  -3  -7    2.60    0.90
   7  -3  -6   18.50    2.20
   7  -3  -5    1.30    0.80
   7  -3  -4   -0.20    0.70
  -7   3   3    4.30    1.00
   7  -3  -3    5.90    1.20
  -7   3   2    3.20    0.80
   7  -3  -2    3.60    1.00
  -7   3   1    1.10    0.60
   7  -3  -1    1.50    0.70
  -7   3   0    5.60    1.00
   7  -3   0    6.50    1.00
   7  -3   1   61.69    2.80
  -7   3  -1   61.79    2.90
  -7   3  -2   22.80    1.90
  -7   3  -3    2.40    0.90
  -7   3  -4    1.00    0.80
  -7   3  -5    0.60    0.70
  -7   3  -6    1.50    0.80
  -7   3  -7   -0.10    0.70
  -7   3  -8    1.60    0.90
  -7   3  -9    0.60    0.60
   7  -2  -9    1.60    0.90
   7  -2  -9    0.20    0.70
   7  -2  -8    0.60    0.60
   7  -2  -8   -1.10    0.90
   7  -2  -7    6.10    1.20
   7  -2  -7    6.90    1.40
   7  -2  -6    0.70    0.60
   7  -2  -6    1.60    1.00
   7  -2  -5    1.40    0.70
   7  -2  -4   -0.10    0.60
   7  -2  -3  123.49    5.00
  -7   2   3  123.49    4.00
  -7   2   2   12.50    1.30
   7  -2  -2   12.80    1.60
  -7   2   1    7.40    1.00
   7  -2  -1    7.40    1.10
   7  -2   0   10.20    1.20
  -7   2   0    9.40    1.20
   7  -2   1    2.50    0.60
  -7   2  -1    2.60    0.80
  -7   2  -2    5.40    1.00
  -7   2  -3    3.90    0.90
  -7   2  -4   11.50    1.50
  -7   2  -5    3.50    1.00
  -7   2  -6    7.70    1.30
  -7   2  -7    0.20    0.60
  -7   2  -8   -0.50    0.60
  -7   2  -9    0.10    0.60
   7  -1  -9    1.20    0.70
   7  -1  -8    0.90    0.80
   7  -1  -7    0.50    0.80
   7  -1  -6    3.00    1.00
   7  -1  -5   -0.70    0.80
   7  -1  -4    4.30    1.10
  -7   1   3    0.00    0.40
   7  -1  -3   -0.60    0.80
   7  -1  -2   20.40    1.90
  -7   1   2   19.10    1.50
   7  -1  -1    8.90    1.30
  -7   1   1    7.70    1.00
   7  -1   0   17.10    1.60
  -7   1   0   18.80    1.60
   7  -1   1   28.10    1.90
  -7   1  -1   30.20    2.00
  -7   1  -2    3.70    0.90
  -7   1  -3   21.40    1.90
  -7   1  -4    2.40    0.80
  -7   1  -5    9.30    1.40
  -7   1  -6   -0.50    0.70
  -7   1  -7   -0.90    0.80
  -7   1  -8    1.10    0.80
  -7   1  -9    0.00    0.60
   7   0  -9    2.30    1.10
   7   0  -8    3.20    1.10
   7   0  -7    2.60    1.00
   7   0  -6    2.10    0.90
   7   0  -5   21.60    2.30
   7   0  -4   98.39    4.50
   7   0  -3  198.78    6.30
   7   0  -2    5.10    1.00
  -7   0   2    4.90    0.80
   7   0  -1   23.60    2.00
  -7   0   1   20.70    1.60
   7   0   0   -0.30    0.50
  -7   0   0    0.90    0.50
   7   0   1    3.70    0.80
  -7   0  -1    5.40    1.00
  -7   0  -2   48.70    2.80
  -7   0  -3   28.90    2.30
  -7   0  -4   94.79    4.20
  -7   0  -5   15.80    1.90
  -7   0  -6   24.50    2.30
  -7   0  -7   -0.50    0.80
  -7   0  -8    0.10    0.60
   7   1  -9    1.30    0.80
   7   1  -8   14.90    2.20
   7   1  -7   15.60    2.10
   7   1  -6    4.40    1.20
   7   1  -5    2.50    1.10
   7   1  -4   -0.30    0.60
   7   1  -3    1.50    0.80
   7   1  -2    1.80    0.60
  -7  -1   2    2.10    0.60
   7   1  -1   14.70    1.60
  -7  -1   1   13.70    1.30
   7   1   0   86.89    3.70
  -7  -1   0   83.19    3.40
   7   1   1    3.20    0.80
  -7  -1  -1    2.80    0.80
  -7  -1  -2    5.70    1.10
  -7  -1  -3    0.70    0.70
  -7  -1  -4    1.40    1.00
  -7  -1  -5    3.90    1.30
  -7  -1  -6   14.40    1.90
  -7  -1  -7    6.70    1.50
  -7  -1  -8    9.30    1.60
   7   2  -8    1.20    0.90
   7   2  -7   -1.30    1.00
   7   2  -6    7.40    1.50
   7   2  -5    1.00    0.70
   7   2  -4   21.60    2.30
   7   2  -3   14.00    1.80
   7   2  -2   40.40    2.80
   7   2  -1    0.60    0.60
  -7  -2   1    1.00    0.60
   7   2   0    4.90    1.10
  -7  -2   0    4.30    0.80
   7   2   1   83.19    3.70
  -7  -2  -1   86.59    4.00
  -7  -2  -2   36.30    2.70
  -7  -2  -3   12.70    1.70
  -7  -2  -4    2.10    1.00
  -7  -2  -5   16.90    2.10
  -7  -2  -6    1.90    1.00
  -7  -2  -7    3.50    1.10
   7   3  -8    5.60    1.60
   7   3  -7    0.60    0.80
   7   3  -6    2.70    1.10
   7   3  -5    5.00    1.20
   7   3  -4    0.60    0.80
   7   3  -3   28.40    2.50
   7   3  -2   16.30    1.90
   7   3  -1   25.40    2.30
  -7  -3   1   25.00    2.00
   7   3   0    0.40    0.60
  -7  -3   0    0.90    0.80
   7   3   1   63.89    3.40
  -7  -3  -1   70.79    3.80
  -7  -3  -2    1.90    0.90
  -7  -3  -3   10.40    1.60
  -7  -3  -4    9.40    1.70
  -7  -3  -5    6.60    1.40
  -7  -3  -6    0.50    0.90
   7   4  -7   -1.40    1.00
   7   4  -6    5.60    1.40
   7   4  -5   14.90    2.10
   7   4  -4    0.50    0.80
   7   4  -3    0.30    0.70
   7   4  -2    2.80    1.00
   7   4  -1    1.20    0.80
   7   4   0    0.80    0.70
  -7  -4   0    1.80    0.80
  -7  -4  -1    2.40    0.90
  -7  -4  -2    9.20    1.50
  -7  -4  -3    8.40    1.50
  -7  -4  -4    1.70    0.90
  -7  -4  -5    0.20    0.80
   7   5  -6    0.20    1.00
   7   5  -5    0.70    1.00
   7   5  -4    1.40    0.80
   7   5  -3    0.60    1.00
   7   5  -2    6.70    1.30
   7   5  -1    6.10    1.40
  -7  -5  -1    2.00    0.70
  -7  -5  -2    0.40    0.70
  -7  -5  -3    3.10    1.10
  -7  -5  -4    9.60    1.70
   7   6  -5   12.80    2.00
   7   6  -4    6.70    1.60
   7   6  -3   -0.40    0.80
  -7  -6  -1   18.90    2.10
  -7  -6  -2   13.30    1.90
  -8   9   2    1.00    0.90
  -8   9   1   -0.10    0.80
  -8   9   0    8.80    1.90
  -8   9  -1    3.70    1.30
  -8   9  -2    4.40    1.40
  -8   9  -3    3.50    1.30
  -8   9  -3    2.80    1.20
  -8   8   3    7.10    1.60
  -8   8   2    1.00    0.80
  -8   8   1    1.30    1.00
  -8   8   0    1.90    1.00
  -8   8  -1   -0.40    0.80
  -8   8  -1    0.30    0.70
  -8   8  -2   17.60    2.20
  -8   8  -3   78.59    4.40
  -8   8  -4    9.40    1.50
  -8   8  -5    0.70    0.60
  -8   8  -6   -0.20    0.60
   8  -7  -4    1.40    0.80
  -8   7   3    2.20    1.00
   8  -7  -3    2.70    1.30
  -8   7   2    9.90    1.70
   8  -7  -2    8.10    1.60
  -8   7   1   15.40    2.10
  -8   7   0    3.30    1.20
  -8   7  -1    2.40    0.90
  -8   7  -2    2.80    1.10
  -8   7  -3    1.90    0.80
  -8   7  -4    3.70    1.10
  -8   7  -5    3.70    1.00
  -8   7  -6    7.60    1.40
  -8   7  -7   -0.10    0.60
   8  -6  -5    9.20    1.70
   8  -6  -4    1.40    0.80
  -8   6   3    2.00    1.00
   8  -6  -3    1.50    1.00
   8  -6  -2    1.40    0.90
  -8   6   2    2.10    0.90
  -8   6   1    0.80    1.00
   8  -6  -1    0.50    0.60
  -8   6   0    4.50    1.20
   8  -6   0    3.30    1.10
  -8   6  -1    1.70    0.90
   8  -6   1    0.90    0.70
  -8   6  -2   37.30    2.80
  -8   6  -3   18.10    1.90
  -8   6  -4    2.60    0.90
  -8   6  -5    1.60    0.70
  -8   6  -6    0.20    0.60
  -8   6  -7    2.90    0.90
   8  -5  -6    1.30    1.10
   8  -5  -5    0.10    0.90
   8  -5  -4    2.40    1.10
   8  -5  -3    1.90    0.90
   8  -5  -2   27.80    2.60
  -8   5   2   29.50    2.70
  -8   5   1   12.40    1.60
   8  -5  -1   12.80    1.80
  -8   5   0   -0.30    0.70
   8  -5   0    0.90    0.80
  -8   5  -1    0.00    0.70
   8  -5   1    0.50    0.50
  -8   5  -2    0.00    0.70
  -8   5  -3    0.00    0.60
  -8   5  -4   -0.50    0.60
  -8   5  -5   18.70    2.00
  -8   5  -6   17.30    1.90
  -8   5  -7    0.30    0.70
  -8   5  -8    0.90    0.90
   8  -4  -7    2.20    1.20
   8  -4  -6    0.60    0.80
   8  -4  -5    2.80    1.00
   8  -4  -4    1.10    0.90
  -8   4   3    1.00    0.80
   8  -4  -3    0.10    0.80
  -8   4   2   -0.20    0.60
   8  -4  -2   -0.30    0.70
  -8   4   1    0.70    0.70
   8  -4  -1   -0.60    0.70
  -8   4   0   -0.40    0.60
   8  -4   0    0.30    0.60
  -8   4  -1    5.50    1.10
  -8   4  -2    4.20    1.00
  -8   4  -3   -0.10    0.60
  -8   4  -4    0.00    0.70
  -8   4  -5    2.40    0.80
  -8   4  -6   -0.90    0.70
  -8   4  -7    0.70    0.60
  -8   4  -8    2.10    0.80
   8  -3  -7    0.10    0.70
   8  -3  -6    3.40    1.20
   8  -3  -5   -0.10    0.80
   8  -3  -4   17.20    2.10
   8  -3  -3   24.60    2.40
  -8   3   3   27.10    2.20
  -8   3   2    3.80    1.00
   8  -3  -2    6.00    1.30
  -8   3   1    1.30    0.70
   8  -3  -1    0.70    0.60
  -8   3   0   -0.50    0.50
   8  -3   0    0.30    0.50
  -8   3  -1    4.30    0.90
  -8   3  -2   -0.20    0.70
  -8   3  -3   -0.10    0.70
  -8   3  -4    1.70    0.70
  -8   3  -5   25.10    2.20
  -8   3  -6    8.60    1.40
  -8   3  -7    0.80    0.80
  -8   3  -8    1.90    0.80
   8  -2  -7    4.10    1.20
   8  -2  -6   11.20    1.90
   8  -2  -5   17.30    2.30
   8  -2  -4   -0.60    0.90
   8  -2  -3    6.00    1.20
  -8   2   2    0.70    0.60
   8  -2  -2   -0.70    0.90
   8  -2  -1    0.50    0.60
  -8   2   1    1.80    0.70
   8  -2   0    9.40    1.30
  -8   2   0    8.50    1.20
  -8   2  -1   26.40    2.00
  -8   2  -2    6.00    1.10
  -8   2  -3   -0.10    0.60
  -8   2  -4    5.00    1.10
  -8   2  -5   -0.40    0.70
  -8   2  -6    2.20    0.90
  -8   2  -7    7.30    1.40
  -8   2  -8    8.30    1.50
   8  -1  -8   -1.80    1.10
   8  -1  -7    1.10    1.00
   8  -1  -6    2.30    0.90
   8  -1  -5   10.30    1.80
   8  -1  -4   47.30    3.50
   8  -1  -3   50.29    3.30
   8  -1  -2   48.20    3.10
  -8   1   2   40.70    2.30
   8  -1  -1   10.60    1.50
  -8   1   1    6.80    1.00
   8  -1   0   -0.10    0.50
  -8   1   0    0.70    0.60
  -8   1  -1    0.70    0.60
  -8   1  -2    6.30    1.20
  -8   1  -3   42.60    2.90
  -8   1  -4  105.79    4.70
  -8   1  -5   49.30    3.30
  -8   1  -6   -0.20    0.70
  -8   1  -7    1.90    1.00
   8   0  -8   27.40    3.00
   8   0  -7    1.20    0.90
   8   0  -6    1.50    1.00
   8   0  -5    0.70    0.80
   8   0  -4   17.50    2.10
   8   0  -3   11.40    1.70
   8   0  -2   23.70    2.20
   8   0  -1   36.20    2.60
  -8   0   1   35.20    2.20
   8   0   0    3.50    0.90
  -8   0   0    5.30    1.10
  -8   0  -1    7.30    1.20
  -8   0  -2    6.70    1.30
  -8   0  -3    3.00    1.00
  -8   0  -4    0.70    0.70
  -8   0  -5   18.90    2.10
  -8   0  -6   -0.20    0.70
  -8   0  -7    1.00    0.70
   8   1  -7    0.30    0.90
   8   1  -6   -0.10    0.80
   8   1  -5    0.80    0.70
   8   1  -4    8.70    1.60
   8   1  -3   62.39    3.70
   8   1  -2   16.50    2.00
   8   1  -1   19.30    2.00
  -8  -1   1   19.80    1.80
   8   1   0    1.20    0.70
  -8  -1   0    0.20    0.60
  -8  -1  -1   16.50    1.80
  -8  -1  -2   11.70    1.60
  -8  -1  -3   92.59    4.50
  -8  -1  -4   40.90    3.10
  -8  -1  -5   -0.20    0.90
  -8  -1  -6    2.60    1.00
   8   2  -7   15.80    2.20
   8   2  -6   15.50    2.20
   8   2  -5    0.60    0.80
   8   2  -4    2.50    1.00
   8   2  -3    0.70    0.80
   8   2  -2   39.40    3.00
   8   2  -1   73.89    4.00
   8   2   0   89.49    4.20
  -8  -2   0   87.69    4.00
  -8  -2  -1   19.10    2.00
  -8  -2  -2    7.10    1.30
  -8  -2  -3    0.60    0.80
  -8  -2  -4    0.70    0.90
  -8  -2  -5   11.30    1.90
  -8  -2  -6    9.90    1.80
   8   3  -6    0.80    0.90
   8   3  -5   11.30    1.90
   8   3  -4    4.30    1.30
   8   3  -3    3.90    1.10
   8   3  -2    0.90    0.80
   8   3  -1    1.40    0.90
   8   3   0    3.90    1.10
  -8  -3   0    2.80    0.80
  -8  -3  -1    1.00    0.90
  -8  -3  -2    2.50    1.20
  -8  -3  -3    0.40    0.80
  -8  -3  -4   -0.80    0.80
  -8  -3  -5    3.60    1.20
   8   4  -5    1.00    1.00
   8   4  -4    2.20    1.20
   8   4  -3    6.60    1.40
   8   4  -2    6.70    1.40
   8   4  -1    2.30    1.10
  -8  -4  -1    0.30    0.80
  -8  -4  -2    0.10    0.70
  -8  -4  -3    5.60    1.30
  -8  -4  -4    0.80    0.70
   8   5  -4    2.80    1.10
   8   5  -3    6.40    1.50
   8   5  -2    1.00    1.00
   8   5  -1    3.80    1.10
  -8  -5  -2   -0.70    0.70
  -9   8   2    2.40    1.10
   9  -8  -2    2.50    1.20
  -9   8   1    1.20    0.90
   9  -8  -1    1.80    1.10
  -9   8   0    6.70    1.50
  -9   8  -1    1.80    1.00
  -9   8  -2    2.80    1.10
  -9   8  -3    2.70    1.10
   9  -7  -3    1.70    1.20
  -9   7   2    1.20    0.90
   9  -7  -2    1.00    0.90
  -9   7   1    2.00    1.00
  -9   7   1    2.20    1.00
   9  -7  -1    2.60    1.10
  -9   7   0    1.20    1.00
  -9   7  -1    0.70    1.00
  -9   7  -2   -0.20    0.60
  -9   7  -3    1.20    0.60
  -9   7  -4   -0.60    0.60
   9  -6  -4    0.10    0.80
   9  -6  -3    2.70    1.10
  -9   6   2    0.80    0.80
  -9   6   2    1.00    0.90
   9  -6  -2   -0.10    0.70
  -9   6   1    0.20    0.90
   9  -6  -1    1.00    0.80
  -9   6   0    2.40    0.90
  -9   6  -1   -0.30    0.70
  -9   6  -2    1.10    0.80
  -9   6  -3    0.60    0.80
  -9   6  -4    2.70    0.90
  -9   6  -5    0.70    0.70
   9  -5  -5    4.00    1.40
   9  -5  -4   -1.60    1.20
   9  -5  -3    1.20    0.90
  -9   5   2    2.70    1.00
   9  -5  -2    0.80    0.80
  -9   5   1    1.00    0.80
   9  -5  -1    2.00    1.00
  -9   5   0   -0.40    0.60
  -9   5  -1    3.30    1.00
  -9   5  -2    8.40    1.40
  -9   5  -3    1.70    0.80
  -9   5  -4    0.00    0.70
  -9   5  -5    0.80    0.90
  -9   5  -6    0.50    0.60
   9  -4  -6    1.00    0.90
   9  -4  -5    0.70    0.80
   9  -4  -4    2.30    1.00
   9  -4  -3    5.30    1.40
   9  -4  -2   37.90    3.30
  -9   4   2   36.60    2.80
  -9   4   1    1.30    0.70
   9  -4  -1    0.30    0.70
  -9   4   0   -0.50    0.60
  -9   4  -1    1.80    0.80
  -9   4  -2    1.30    0.80
  -9   4  -3    0.10    0.70
  -9   4  -4    1.20    0.90
  -9   4  -5    5.20    1.20
  -9   4  -6    0.30    0.70
   9  -3  -6   -0.90    1.00
   9  -3  -5    0.70    1.10
   9  -3  -4   -0.80    1.00
   9  -3  -3    1.70    0.90
  -9   3   2    2.40    0.70
   9  -3  -2    0.50    0.70
  -9   3   1    7.30    1.20
   9  -3  -1    8.50    1.40
  -9   3   0    1.00    0.80
  -9   3  -1    3.10    0.90
  -9   3  -2    4.10    1.10
  -9   3  -3    1.40    0.70
  -9   3  -4    2.40    1.00
  -9   3  -5    3.00    1.00
  -9   3  -6    3.30    1.10
   9  -2  -6    2.40    1.20
   9  -2  -5    4.30    1.30
   9  -2  -4    2.70    1.10
   9  -2  -3   52.89    3.70
   9  -2  -2   35.40    2.80
   9  -2  -1    3.60    1.10
  -9   2   1    3.30    0.90
  -9   2   0    3.50    0.90
  -9   2  -1   -0.10    0.60
  -9   2  -2    4.80    1.00
  -9   2  -3    5.70    1.10
  -9   2  -4   20.40    2.20
  -9   2  -5   13.50    1.90
  -9   2  -6    8.50    1.60
   9  -1  -6    6.30    1.60
   9  -1  -5    2.10    0.70
   9  -1  -4    0.70    0.90
   9  -1  -3    0.70    0.70
   9  -1  -2    1.70    1.10
   9  -1  -1    0.10    0.60
  -9   1   1    0.00    0.50
  -9   1   0   11.80    1.50
  -9   1  -1   17.90    1.90
  -9   1  -2    0.00    0.60
  -9   1  -3    0.60    0.80
  -9   1  -4    0.70    0.70
  -9   1  -5    2.80    1.10
  -9   1  -6    1.30    0.90
   9   0  -6   -1.70    1.10
   9   0  -5    3.80    1.30
   9   0  -4    4.60    1.20
   9   0  -3    6.00    1.30
   9   0  -2   10.90    1.60
   9   0  -1   10.30    1.50
  -9   0   0    0.20    0.60
  -9   0  -1   11.80    1.60
  -9   0  -2   39.90    3.00
  -9   0  -3    0.90    0.80
  -9   0  -4    4.60    1.30
  -9   0  -5    2.50    1.00
   9   1  -6   -0.70    0.90
   9   1  -5    2.20    1.00
   9   1  -4    2.00    1.00
   9   1  -3   -0.50    0.90
   9   1  -2   15.10    2.00
   9   1  -1    1.50    0.80
  -9  -1   0   12.00    1.60
  -9  -1  -1    3.70    0.90
  -9  -1  -2   23.40    2.30
  -9  -1  -3   -0.70    0.80
  -9  -1  -4    2.50    1.10
  -9  -1  -5    5.50    1.40
   9   2  -5    6.60    1.60
   9   2  -4    6.00    1.60
   9   2  -3    0.80    0.90
   9   2  -2    1.00    0.80
   9   2  -1    0.40    0.70
  -9  -2  -1    2.90    0.90
  -9  -2  -2   -0.10    0.70
  -9  -2  -3    7.10    1.40
  -9  -2  -4    1.90    1.00
   9   3  -5    0.10    0.70
   9   3  -4    1.00    1.00
   9   3  -3    0.20    0.70
   9   3  -2    0.20    0.80
  -9  -3  -1    2.90    0.90
  -9  -3  -2    1.20    0.70
  -9  -3  -3   -0.90    0.80
   9   4  -3    2.10    1.10
   9   4  -2    0.90    0.80
  -9  -4  -2   15.00    2.10
  10  -7  -2    1.50    0.90
 -10   7   1    7.10    1.60
 -10   7   1    3.70    1.20
 -10   7   0    4.00    1.30
 -10   7  -1    2.10    0.90
  10  -6  -3   -0.40    0.80
 -10   6   2   -0.30    0.70
  10  -6  -2    0.80    1.10
 -10   6   1    0.40    0.70
 -10   6   0    0.40    0.90
 -10   6  -1    1.40    0.80
 -10   6  -2    4.70    1.20
 -10   6  -3    0.60    0.80
  10  -5  -4   -1.80    1.20
  10  -5  -3    6.50    1.50
 -10   5   2    7.10    1.50
  10  -5  -2    8.50    1.80
 -10   5   1    0.40    0.60
 -10   5   0    0.10    0.80
 -10   5  -1    2.70    1.00
 -10   5  -2    1.10    0.80
 -10   5  -3    0.20    0.70
 -10   5  -4    1.30    0.80
  10  -4  -4    2.50    1.10
  10  -4  -3    0.30    0.90
  10  -4  -2    1.30    0.70
 -10   4   1    0.00    0.70
 -10   4   0    0.90    0.70
 -10   4  -1    4.40    1.10
 -10   4  -2    5.60    1.20
 -10   4  -3    0.40    0.70
 -10   4  -4    0.50    0.70
  10  -3  -5    0.10    1.00
  10  -3  -4   10.70    2.00
  10  -3  -3   22.10    2.60
  10  -3  -2   16.40    2.20
 -10   3   1    8.80    1.40
 -10   3   0    1.10    0.70
 -10   3  -1    0.30    0.50
 -10   3  -2    0.50    0.70
 -10   3  -3    7.70    1.50
 -10   3  -4   20.90    2.30
  10  -2  -5    0.50    0.90
  10  -2  -4   -0.80    1.00
  10  -2  -3    8.70    1.60
  10  -2  -2    1.30    1.00
 -10   2   0    9.80    1.50
 -10   2  -1    0.90    0.70
 -10   2  -2    2.40    1.00
 -10   2  -3    4.40    1.20
 -10   2  -4    1.80    1.00
  10  -1  -5    1.90    1.10
  10  -1  -4    1.10    1.10
  10  -1  -3    7.10    1.50
  10  -1  -2   18.00    2.20
 -10   1   0    4.40    1.00
 -10   1  -1    0.50    0.60
 -10   1  -2    2.10    1.00
 -10   1  -3    8.10    1.60
 -10   1  -4   34.80    3.10
  10   0  -5    3.30    1.40
  10   0  -4   -0.90    1.00
  10   0  -3    2.80    1.00
  10   0  -2    2.70    0.90
 -10   0  -1   25.80    2.40
 -10   0  -2    4.30    1.20
 -10   0  -3    3.30    1.10
  10   1  -4    3.70    1.20
  10   1  -3    0.00    0.80
  10   1  -2    1.90    1.10
 -10  -1  -1    1.90    0.90
 -10  -1  -2    0.10    0.70
 -10  -1  -3    2.40    1.00
  10   2  -3   -0.10    0.70
 -10  -2  -2   -1.60    0.90
 -11   5   1    1.40    0.90
 -11   5   0    2.90    1.00
  11  -4  -3    0.80    0.90
 -11   4   0    1.30    0.80
 -11   4  -1    1.30    0.80
  11  -3  -3   -0.40    0.70
 -11   3   0   -1.60    0.80
 -11   3  -1    5.40    1.40
 -11   3  -2    1.90    0.90
  11  -2  -3    3.30    1.30
 -11   2  -1   -0.10    0.70
 -11   2  -2    7.70    1.50
 -11   1  -1    0.90    0.70
   0   0   0    0.00    0.00

_computing_structure_solution     'SHELXT 2018/2 (Sheldrick, 2018)'
;
_shelx_hkl_checksum              35835
loop_
_space_group_symop_operation_xyz
'x, y, z'
'-x, -y, -z'
loop_
_atom_site_label
_atom_site_type_symbol
_atom_site_fract_x
_atom_site_fract_y
_atom_site_fract_z
_atom_site_U_iso_or_equiv
_atom_site_adp_type
_atom_site_occupancy
_atom_site_site_symmetry_order
_atom_site_calc_flag
_atom_site_refinement_flags_posn
_atom_site_refinement_flags_adp
_atom_site_refinement_flags_occupancy
_atom_site_disorder_assembly
_atom_site_disorder_group
O6 O 0.80598(17) 0.98936(18) 0.29462(16) 0.0284(4) Uani 1 1 d . . . . .
O5 O 0.58500(17) 0.81415(18) 0.41616(18) 0.0313(4) Uani 1 1 d . . . . .
O1 O 0.91431(17) 0.63164(19) 0.41624(17) 0.0326(4) Uani 1 1 d . . . . .
O2 O 0.69642(18) 0.38436(19) 0.32622(16) 0.0316(4) Uani 1 1 d . . . . .
O7 O 0.60134(18) 0.9359(2) 0.73502(17) 0.0360(4) Uani 1 1 d . . . . .
O4 O 0.6603(2) 0.5523(2) 0.84147(18) 0.0396(4) Uani 1 1 d . . . . .
O3 O 0.87663(19) 0.7302(2) 0.73581(19) 0.0391(4) Uani 1 1 d . . . . .
O8 O 0.8132(2) 1.1735(2) 0.81397(19) 0.0431(4) Uani 1 1 d . . . . .
C1 C 0.7863(2) 0.5149(2) 0.4367(2) 0.0226(4) Uani 1 1 d . . . . .
C3 C 0.7122(2) 0.9393(2) 0.4194(2) 0.0225(4) Uani 1 1 d . . . . .
C4 C 0.7485(4) 0.8795(4) 0.1373(3) 0.0373(6) Uani 1 1 d . . . . .
C2 C 0.7564(4) 0.3779(4) 0.1613(3) 0.0390(6) Uani 1 1 d . . . . .
N2 N 0.7519(2) 0.5995(2) 0.7284(2) 0.0278(4) Uani 1 1 d . . . . .
N4 N 0.7285(2) 1.0531(2) 0.7111(2) 0.0266(4) Uani 1 1 d . . . . .
N1 N 0.7025(2) 0.4902(2) 0.58181(19) 0.0248(4) Uani 1 1 d . . . . .
N3 N 0.7901(2) 1.0581(2) 0.55543(19) 0.0246(4) Uani 1 1 d . . . . .
H4C H 0.823(4) 0.942(4) 0.064(4) 0.073(9) Uiso 1 1 d . . . . .
H4B H 0.767(5) 0.764(5) 0.125(4) 0.093(12) Uiso 1 1 d . . . . .
H4A H 0.637(5) 0.877(4) 0.102(4) 0.082(10) Uiso 1 1 d . . . . .
H1 H 0.612(3) 0.413(3) 0.593(3) 0.033(6) Uiso 1 1 d . . . . .
H3 H 0.878(3) 1.144(3) 0.552(3) 0.034(6) Uiso 1 1 d . . . . .
H2A H 0.673(5) 0.284(5) 0.095(4) 0.098(12) Uiso 1 1 d . . . . .
H2C H 0.737(5) 0.466(5) 0.114(4) 0.092(12) Uiso 1 1 d . . . . .
H2B H 0.869(5) 0.381(5) 0.147(4) 0.107(13) Uiso 1 1 d . . . . .
loop_
_atom_site_aniso_label
_atom_site_aniso_U_11
_atom_site_aniso_U_22
_atom_site_aniso_U_33
_atom_site_aniso_U_23
_atom_site_aniso_U_13
_atom_site_aniso_U_12
O6 0.0265(7) 0.0259(8) 0.0273(7) 0.0022(6) 0.0017(6) -0.0033(6)
O5 0.0236(7) 0.0220(8) 0.0415(8) 0.0054(6) -0.0024(6) -0.0079(6)
O1 0.0226(7) 0.0274(8) 0.0444(9) 0.0126(7) 0.0036(6) -0.0052(6)
O2 0.0316(8) 0.0291(8) 0.0273(7) 0.0011(6) 0.0033(6) -0.0042(6)
O7 0.0279(8) 0.0377(9) 0.0404(9) 0.0166(7) 0.0076(6) -0.0029(7)
O4 0.0470(9) 0.0392(10) 0.0286(8) 0.0057(7) 0.0008(7) 0.0023(7)
O3 0.0294(8) 0.0266(8) 0.0499(9) -0.0057(7) -0.0068(6) -0.0077(7)
O8 0.0460(9) 0.0406(10) 0.0303(8) -0.0055(7) 0.0077(7) -0.0066(8)
C1 0.0181(9) 0.0184(10) 0.0319(10) 0.0079(8) 0.0004(7) 0.0026(7)
C3 0.0172(8) 0.0191(10) 0.0307(10) 0.0068(8) -0.0007(7) 0.0015(7)
C4 0.0415(13) 0.0359(14) 0.0283(11) -0.0026(10) -0.0021(9) 0.0021(11)
C2 0.0423(14) 0.0456(15) 0.0285(11) 0.0076(11) 0.0068(10) 0.0082(12)
N2 0.0248(8) 0.0249(9) 0.0320(9) 0.0028(7) -0.0042(7) 0.0036(7)
N4 0.0229(8) 0.0253(9) 0.0314(9) 0.0075(7) 0.0023(7) 0.0034(7)
N1 0.0203(8) 0.0197(9) 0.0281(9) 0.0013(7) -0.0001(7) -0.0061(7)
N3 0.0194(8) 0.0212(9) 0.0282(9) 0.0042(7) 0.0015(6) -0.0050(7)
loop_
_atom_type_symbol
_atom_type_description
_atom_type_scat_dispersion_real
_atom_type_scat_dispersion_imag
_atom_type_scat_source
C C 0.0033 0.0016 'International Tables Vol C Tables 4.2.6.8 and 6.1.1.4'
H H 0.0000 0.0000 'International Tables Vol C Tables 4.2.6.8 and 6.1.1.4'
N N 0.0061 0.0033 'International Tables Vol C Tables 4.2.6.8 and 6.1.1.4'
O O 0.0106 0.0060 'International Tables Vol C Tables 4.2.6.8 and 6.1.1.4'
loop_
_geom_angle_atom_site_label_1
_geom_angle_atom_site_label_2
_geom_angle_atom_site_label_3
_geom_angle
_geom_angle_site_symmetry_1
_geom_angle_site_symmetry_3
_geom_angle_publ_flag
C3 O6 C4 115.94(16) . . ?
C1 O2 C2 117.36(16) . . ?
O1 C1 O2 127.14(18) . . ?
O1 C1 N1 127.14(19) . . ?
O2 C1 N1 105.73(14) . . ?
O5 C3 O6 127.01(18) . . ?
O5 C3 N3 126.45(18) . . ?
O6 C3 N3 106.54(15) . . ?
O6 C4 H4C 103(2) . . ?
O6 C4 H4B 116(2) . . ?
H4C C4 H4B 108(3) . . ?
O6 C4 H4A 115(2) . . ?
H4C C4 H4A 103(3) . . ?
H4B C4 H4A 111(3) . . ?
O2 C2 H2A 108(2) . . ?
O2 C2 H2C 113(2) . . ?
H2A C2 H2C 97(3) . . ?
O2 C2 H2B 117(2) . . ?
H2A C2 H2B 116(3) . . ?
H2C C2 H2B 104(3) . . ?
O3 N2 O4 126.39(18) . . ?
O3 N2 N1 119.33(16) . . ?
O4 N2 N1 114.28(16) . . ?
O7 N4 O8 125.96(17) . . ?
O7 N4 N3 119.85(17) . . ?
O8 N4 N3 114.18(15) . . ?
N2 N1 C1 124.99(15) . . ?
N2 N1 H1 108.9(16) . . ?
C1 N1 H1 126.0(16) . . ?
C3 N3 N4 124.38(15) . . ?
C3 N3 H3 123.3(16) . . ?
N4 N3 H3 112.2(16) . . ?
loop_
_geom_bond_atom_site_label_1
_geom_bond_atom_site_label_2
_geom_bond_distance
_geom_bond_site_symmetry_2
_geom_bond_publ_flag
O6 C3 1.321(2) . ?
O6 C4 1.452(3) . ?
O5 C3 1.201(2) . ?
O1 C1 1.202(2) . ?
O2 C1 1.314(2) . ?
O2 C2 1.446(3) . ?
O7 N4 1.208(2) . ?
O4 N2 1.226(2) . ?
O3 N2 1.214(2) . ?
O8 N4 1.221(2) . ?
C1 N1 1.388(2) . ?
C3 N3 1.379(3) . ?
C4 H4C 0.95(3) . ?
C4 H4B 0.93(4) . ?
C4 H4A 0.90(3) . ?
C2 H2A 0.95(4) . ?
C2 H2C 0.88(4) . ?
C2 H2B 0.86(4) . ?
N2 N1 1.371(2) . ?
N4 N3 1.384(2) . ?
N1 H1 0.82(2) . ?
N3 H3 0.83(3) . ?
loop_
_geom_contact_atom_site_label_1
_geom_contact_atom_site_label_2
_geom_contact_distance
_geom_contact_site_symmetry_1
_geom_contact_site_symmetry_2
_geom_contact_publ_flag
? ? ? ? ? ?
loop_
_geom_hbond_atom_site_label_D
_geom_hbond_atom_site_label_H
_geom_hbond_atom_site_label_A
_geom_hbond_distance_DH
_geom_hbond_distance_HA
_geom_hbond_distance_DA
_geom_hbond_angle_DHA
_geom_hbond_site_symmetry_A
? ? ? ? ? ? ? ?
loop_
_geom_torsion_atom_site_label_1
_geom_torsion_atom_site_label_2
_geom_torsion_atom_site_label_3
_geom_torsion_atom_site_label_4
_geom_torsion
_geom_torsion_site_symmetry_1
_geom_torsion_site_symmetry_2
_geom_torsion_site_symmetry_3
_geom_torsion_site_symmetry_4
_geom_torsion_publ_flag
C2 O2 C1 O1 0.2(3) . . . . ?
C2 O2 C1 N1 -179.92(17) . . . . ?
C4 O6 C3 O5 -0.5(3) . . . . ?
C4 O6 C3 N3 178.97(17) . . . . ?
O3 N2 N1 C1 0.9(3) . . . . ?
O4 N2 N1 C1 -179.51(17) . . . . ?
O1 C1 N1 N2 1.1(3) . . . . ?
O2 C1 N1 N2 -178.78(16) . . . . ?
O5 C3 N3 N4 -1.8(3) . . . . ?
O6 C3 N3 N4 178.69(16) . . . . ?
O7 N4 N3 C3 2.2(3) . . . . ?
O8 N4 N3 C3 -177.98(18) . . . . ?
