#------------------------------------------------------------------------------
#$Date: 2021-02-04 02:53:14 +0200 (Thu, 04 Feb 2021) $
#$Revision: 261473 $
#$URL: file:///home/coder/svn-repositories/cod/cif/4/13/56/4135607.cif $
#------------------------------------------------------------------------------
#
# This file is available in the Crystallography Open Database (COD),
# http://www.crystallography.net/
#
# All data on this site have been placed in the public domain by the
# contributors.
#
data_4135607
loop_
_publ_author_name
'Benz, Maximilian'
'Klap\"otke, Thomas M'
'Krumm, Burkhard'
'Lommel, Marcus'
'Stierstorfer, J\"org'
_publ_section_title
;
 Nitrocarbamoyl Azide O<sub>2</sub>NN(H)C(O)N<sub>3</sub>: A Stable but
 Highly Energetic Member of the Carbonyl Azide Family.
;
_journal_issue                   3
_journal_name_full               'Journal of the American Chemical Society'
_journal_page_first              1323
_journal_page_last               1327
_journal_paper_doi               10.1021/jacs.0c12507
_journal_volume                  143
_journal_year                    2021
_chemical_formula_moiety         'C H N5 O3'
_chemical_formula_sum            'C H N5 O3'
_chemical_formula_weight         131.07
_chemical_name_common            nitramino-carbonyl-azide
_chemical_name_systematic        azido-nitramino-carbonyl
_space_group_IT_number           14
_space_group_name_Hall           '-P 2ybc'
_space_group_name_H-M_alt        'P 1 21/c 1'
_symmetry_cell_setting           monoclinic
_symmetry_Int_Tables_number      14
_symmetry_space_group_name_Hall  '-P 2ybc'
_symmetry_space_group_name_H-M   'P 1 21/c 1'
_atom_sites_solution_hydrogens   difmap
_atom_sites_solution_primary     difmap
_audit_creation_date             2020-07-08
_audit_creation_method           SHELXL-2018/3
_audit_update_record             2020-07-08
_cell_angle_alpha                90
_cell_angle_beta                 109.477(5)
_cell_angle_gamma                90
_cell_formula_units_Z            4
_cell_length_a                   6.1997(9)
_cell_length_b                   10.2689(13)
_cell_length_c                   8.2547(11)
_cell_measurement_reflns_used    4442
_cell_measurement_temperature    107(2)
_cell_measurement_theta_max      27.4686
_cell_measurement_theta_min      4.1064
_cell_volume                     495.45(12)
_computing_cell_refinement       'APEX2 v2012.4-3 (Bruker AXS)'
_computing_data_collection       'Bruker Instrument Service v3.0.21'
_computing_data_reduction        'SAINT V8.18C (Bruker AXS Inc., 2011)'
_computing_molecular_graphics    'Diamond 2.1c, Crystal Impact GbR'
_computing_publication_material  'Encifer 1.5.1, CCDC 2014'
_computing_structure_refinement  'SHELXL-2018/3 (Sheldrick, 2018)'
_computing_structure_solution    SIR-92
_diffrn_ambient_temperature      107(2)
_diffrn_detector_area_resol_mean 7.3910
_diffrn_measured_fraction_theta_full 1.000
_diffrn_measured_fraction_theta_max 1.000
_diffrn_measurement_device_type  'D8 Venture'
_diffrn_measurement_method       'mix of omega and phi scans'
_diffrn_radiation_type           MoK\a
_diffrn_radiation_wavelength     0.71073
_diffrn_reflns_av_R_equivalents  0.0350
_diffrn_reflns_av_unetI/netI     0.0180
_diffrn_reflns_Laue_measured_fraction_full 1.000
_diffrn_reflns_Laue_measured_fraction_max 1.000
_diffrn_reflns_limit_h_max       7
_diffrn_reflns_limit_h_min       -7
_diffrn_reflns_limit_k_max       12
_diffrn_reflns_limit_k_min       -12
_diffrn_reflns_limit_l_max       10
_diffrn_reflns_limit_l_min       -10
_diffrn_reflns_number            9036
_diffrn_reflns_point_group_measured_fraction_full 1.000
_diffrn_reflns_point_group_measured_fraction_max 1.000
_diffrn_reflns_theta_full        25.242
_diffrn_reflns_theta_max         26.361
_diffrn_reflns_theta_min         3.285
_diffrn_source                   'rotating anode generator'
_exptl_absorpt_coefficient_mu    0.168
_exptl_absorpt_correction_T_max  0.9705
_exptl_absorpt_correction_T_min  0.9282
_exptl_absorpt_correction_type   multi-scan
_exptl_absorpt_process_details
;
 SADABS 2016/2: Krause, L., Herbst-Irmer, R., Sheldrick G.M. & Stalke D.,
 J. Appl. Cryst. 48 (2015) 3-10
;
_exptl_crystal_colour            colourless
_exptl_crystal_density_diffrn    1.757
_exptl_crystal_density_method    'not measured'
_exptl_crystal_description       platelet
_exptl_crystal_F_000             264
_exptl_crystal_size_max          0.070
_exptl_crystal_size_mid          0.060
_exptl_crystal_size_min          0.020
_refine_diff_density_max         0.147
_refine_diff_density_min         -0.235
_refine_diff_density_rms         0.047
_refine_ls_extinction_method     none
_refine_ls_goodness_of_fit_ref   1.117
_refine_ls_hydrogen_treatment    refall
_refine_ls_matrix_type           full
_refine_ls_number_parameters     86
_refine_ls_number_reflns         1015
_refine_ls_number_restraints     0
_refine_ls_restrained_S_all      1.117
_refine_ls_R_factor_all          0.0341
_refine_ls_R_factor_gt           0.0290
_refine_ls_shift/su_max          0.000
_refine_ls_shift/su_mean         0.000
_refine_ls_structure_factor_coef Fsqd
_refine_ls_weighting_details
'w=1/[\s^2^(Fo^2^)+(0.0339P)^2^+0.2438P] where P=(Fo^2^+2Fc^2^)/3'
_refine_ls_weighting_scheme      calc
_refine_ls_wR_factor_gt          0.0776
_refine_ls_wR_factor_ref         0.0822
_reflns_Friedel_coverage         0.000
_reflns_number_gt                914
_reflns_number_total             1015
_reflns_threshold_expression     'I > 2\s(I)'
_cod_data_source_file            ja0c12507_si_001.cif
_cod_data_source_block           yv373
_cod_original_sg_symbol_H-M      'P 21/c'
_cod_database_code               4135607
_shelx_space_group_comment
;
The symmetry employed for this shelxl refinement is uniquely defined
by the following loop, which should always be used as a source of
symmetry information in preference to the above space-group names.
They are only intended as comments.
;
_shelx_estimated_absorpt_t_min   0.988
_shelx_estimated_absorpt_t_max   0.997
_shelx_res_file
;
TITL v1_a.res in P2(1)/c
    shelx.res
    created by SHELXL-2018/3 at 10:45:19 on 08-Jul-2020
CELL  0.71073   6.1997  10.2689   8.2547   90.000  109.477   90.000
ZERR     4.00   0.0009   0.0013   0.0011    0.000    0.005    0.000
LATT   1
SYMM  - X, 1/2 + Y, 1/2 - Z
SFAC  C    H    N    O
UNIT  4 4 20 12
MERG   2
SHEL 1000 0.8
FMAP   2
PLAN   20
ACTA
SIZE 0.020  0.060  0.070
BOND   $H
CONF
LIST   4
L.S.   4
TEMP  -166
WGHT    0.033900    0.243800
FVAR       0.89779
O1    4    0.599674    0.619977    0.406479    11.00000    0.03094    0.02220 =
         0.01667   -0.00059    0.00940    0.00126
O2    4    0.323011    0.828239    0.299569    11.00000    0.03161    0.03061 =
         0.01507    0.00059    0.00619    0.00428
O3    4    0.271089    0.938363    0.508502    11.00000    0.03504    0.02737 =
         0.02663   -0.00189    0.01237    0.00999
N5    3    0.365144    0.854450    0.450418    11.00000    0.02373    0.02011 =
         0.01994    0.00198    0.00911    0.00030
N4    3    0.537847    0.788421    0.573502    11.00000    0.02966    0.02242 =
         0.01405    0.00055    0.00560    0.00421
N1    3    0.772398    0.626924    0.703726    11.00000    0.02758    0.01994 =
         0.01860    0.00004    0.00441    0.00254
N2    3    0.861686    0.518807    0.686991    11.00000    0.02183    0.02467 =
         0.01910    0.00167    0.00530   -0.00233
N3    3    0.948365    0.423984    0.687128    11.00000    0.02915    0.02563 =
         0.03673    0.00297    0.01036    0.00365
C1    1    0.631405    0.672694    0.543650    11.00000    0.01994    0.01969 =
         0.01751    0.00246    0.00804   -0.00245
H4    2    0.550189    0.812316    0.680551    11.00000    0.03330
HKLF    4




REM  v1_a.res in P2(1)/c
REM wR2 = 0.0822, GooF = S = 1.117, Restrained GooF = 1.117 for all data
REM R1 = 0.0290 for 914 Fo > 4sig(Fo) and 0.0341 for all 1015 data
REM 86 parameters refined using 0 restraints

END

WGHT      0.0339      0.2439

REM Highest difference peak  0.147,  deepest hole -0.235,  1-sigma level  0.047
Q1    1   0.6889  0.6320  0.6222  11.00000  0.05    0.15
Q2    1   0.3789  0.6364  0.3584  11.00000  0.05    0.14
Q3    1   0.4684  0.7093  0.3225  11.00000  0.05    0.14
Q4    1   0.7048  0.8012  0.6042  11.00000  0.05    0.14
Q5    1   0.4673  0.9443  0.5296  11.00000  0.05    0.13
Q6    1   0.5646  0.7248  0.5546  11.00000  0.05    0.13
Q7    1   0.3618  1.0400  0.4843  11.00000  0.05    0.13
Q8    1   0.4067  0.9971  0.5947  11.00000  0.05    0.12
Q9    1   1.0267  0.6906  0.8264  11.00000  0.05    0.12
Q10   1   0.9930  0.6728  0.7237  11.00000  0.05    0.12
Q11   1   0.0958  0.9453  0.4485  11.00000  0.05    0.12
Q12   1   0.8464  0.6827  0.8023  11.00000  0.05    0.12
Q13   1   0.8641  0.6758  0.7305  11.00000  0.05    0.12
Q14   1   0.7998  0.6012  0.8487  11.00000  0.05    0.12
Q15   1   0.5091  0.8152  0.3394  11.00000  0.05    0.12
Q16   1   0.6453  0.5341  0.6832  11.00000  0.05    0.11
Q17   1   0.5828  0.9750  0.6533  11.00000  0.05    0.11
Q18   1   1.0511  0.3154  0.7187  11.00000  0.05    0.11
Q19   1   0.2952  0.7038  0.3729  11.00000  0.05    0.11
Q20   1   0.1212  0.8416  0.2502  11.00000  0.05    0.11
;
_shelx_res_checksum              75410
_shelx_hkl_file
;
   1   0   0 2299.64   59.01
  -2   0   0  313.23    7.77
  -2   0   0  311.09    8.09
   2   0   0  315.45    8.17
   2   0   0  314.00    8.61
   2   0   0  313.06    7.76
  -3   0   0  513.36   12.75
  -3   0   0  522.08   13.27
   3   0   0  536.33   14.51
   3   0   0  532.98   14.14
   3   0   0  525.44   12.81
   4   0   0  131.61    5.60
  -4   0   0  126.74    5.26
   4   0   0  131.23    4.86
   4   0   0  129.73    6.05
  -4   0   0  133.56    4.87
   5   0   0    6.87    1.74
  -5   0   0    6.72    1.50
  -5   0   0    5.94    1.57
   5   0   0   10.04    2.40
   6   0   0    2.17    1.75
  -6   0   0   -0.20    1.14
   6   0   0    1.60    1.57
   6   0   0    1.90    1.13
   6   0   0    1.46    1.69
   7   0   0    9.80    2.70
   7   0   0    8.99    1.64
  -7   0   0    6.66    1.79
   7   0   0    9.19    2.42
  -1  -1   0    0.23    0.51
   1  -1   0    0.27    0.30
  -1  -1   0   -0.03    0.45
  -1  -1   0    0.68    0.60
   1  -1   0    0.66    0.40
   1  -1   0    0.57    0.67
  -1   1   0    0.48    0.39
   1   1   0    0.80    0.58
   1   1   0    0.04    0.53
   1   1   0    0.81    0.65
   2  -1   0   15.43    1.80
  -2  -1   0   16.60    1.55
  -2  -1   0   15.98    1.68
  -2  -1   0   16.54    1.76
   2  -1   0   15.03    1.46
   2  -1   0   12.99    1.06
   2   1   0   16.89    1.58
   2   1   0   14.11    1.68
  -2   1   0   14.19    1.33
   2   1   0   15.84    1.75
  -2   1   0   13.29    1.10
   3  -1   0  178.73    6.61
   3  -1   0  173.52    5.10
  -3  -1   0  177.47    6.07
   3  -1   0  180.33    5.83
  -3  -1   0  172.00    5.68
  -3   1   0  168.10    5.47
   3   1   0  175.73    6.14
  -3   1   0  171.18    5.09
   3   1   0  176.65    6.37
   3   1   0  171.22    5.72
  -4  -1   0  745.02   18.18
   4  -1   0  736.58   19.87
  -4  -1   0  699.08   18.59
   4  -1   0  721.74   17.29
   4  -1   0  725.55   19.68
   4  -1   0  747.52   18.58
   4   1   0  736.85   19.44
  -4   1   0  768.64   17.37
  -4   1   0  717.58   18.00
   4   1   0  725.61   18.93
   4   1   0  735.18   18.09
   5  -1   0   47.78    3.66
   5  -1   0   47.05    2.85
   5  -1   0   50.53    4.47
  -5  -1   0   44.33    3.18
  -5  -1   0   45.41    3.57
   5  -1   0   48.22    4.24
  -5   1   0   48.04    2.81
   5   1   0   49.47    4.01
   5   1   0   47.10    4.15
   5   1   0   52.31    3.35
  -5   1   0   46.47    3.26
   6  -1   0    1.23    1.41
  -6  -1   0    0.43    1.03
  -6  -1   0    0.03    1.32
   6  -1   0   -0.04    1.76
   6  -1   0    0.26    1.56
  -6   1   0   -0.32    0.86
   6   1   0    1.18    1.57
   6   1   0    0.62    1.08
   6   1   0    0.51    1.33
   6   1   0   -0.83    1.47
  -7  -1   0   12.45    2.30
   7  -1   0    5.26    2.50
   7  -1   0   16.42    1.95
   7  -1   0    7.65    2.30
   7   1   0    8.25    2.57
   7   1   0   17.21    3.57
   7   1   0   12.88    2.04
   0  -2   0    3.58    0.62
   0  -2   0    4.06    0.67
   0  -2   0    4.11    0.67
   0  -2   0    4.99    0.84
   0   2   0    4.01    0.62
   0   2   0    3.38    0.80
   0   2   0    4.59    0.75
   0   2   0    4.65    0.67
   1  -2   0 2650.64   64.60
  -1  -2   0 2664.82   75.35
  -1   2   0 2719.47   65.08
   1   2   0 2695.31   75.56
   2  -2   0  166.01    4.73
   2  -2   0  160.75    4.51
  -2  -2   0  170.42    5.59
   2  -2   0  170.82    5.92
  -2  -2   0  159.96    5.44
  -2  -2   0  171.37    5.36
   2   2   0  175.19    5.53
   2   2   0  166.86    5.61
  -2   2   0  166.90    4.53
   2   2   0  170.56    5.38
  -3  -2   0   45.29    2.89
  -3  -2   0   47.84    3.02
   3  -2   0   41.17    3.12
   3  -2   0   43.61    3.29
   3  -2   0   42.46    2.48
  -3  -2   0   46.24    3.01
   3  -2   0   43.12    2.06
   3   2   0   44.54    2.97
   3   2   0   45.11    2.91
  -3   2   0   46.48    2.32
   3   2   0   45.91    3.10
  -4  -2   0    1.22    1.07
   4  -2   0    0.48    1.34
   4  -2   0    1.24    0.91
  -4  -2   0    1.83    1.10
   4  -2   0    1.59    0.68
   4  -2   0    0.70    1.51
   4   2   0    1.56    1.15
   4   2   0    3.60    1.54
   4   2   0    2.62    1.20
  -4   2   0    2.11    0.89
   5  -2   0    7.36    1.75
   5  -2   0    6.18    1.16
  -5  -2   0    6.00    1.63
   5  -2   0    8.43    2.44
   5  -2   0    4.81    2.08
  -5  -2   0    3.24    1.52
   5   2   0    4.78    1.67
   5   2   0    6.91    1.74
  -5   2   0    5.38    1.41
   5   2   0    5.37    1.91
   6  -2   0   16.42    3.41
  -6  -2   0   13.02    2.52
   6  -2   0   17.09    2.84
  -6  -2   0   13.00    2.33
   6  -2   0   16.66    1.71
   6   2   0   24.14    3.90
   6   2   0   13.85    3.08
   6   2   0   22.35    2.80
   7  -2   0   33.53    3.78
   7  -2   0   32.97    2.11
  -7  -2   0   35.38    3.62
   7  -2   0   36.45    4.94
   7   2   0   36.30    4.36
   7   2   0   36.16    3.40
   7   2   0   42.17    4.78
   0  -3   0   -0.36    0.82
   0  -3   0    0.56    0.60
   0  -3   0    1.48    0.67
   0  -3   0    0.08    0.54
   0   3   0   -0.05    0.59
   0   3   0    0.83    0.55
   0   3   0   -0.10    0.80
   0   3   0    0.83    0.65
  -1  -3   0   30.37    2.02
   1  -3   0   28.83    2.08
   1  -3   0   28.92    1.76
   1  -3   0   29.40    1.46
  -1  -3   0   28.01    1.65
  -1  -3   0   31.07    2.23
  -1   3   0   30.12    1.84
   1   3   0   30.73    2.08
   1   3   0   29.03    2.25
   1   3   0   28.06    1.68
  -1   3   0   27.59    2.11
  -2  -3   0    1.25    0.79
   2  -3   0    0.53    1.18
  -2  -3   0    0.33    0.83
   2  -3   0   -0.55    0.52
  -2  -3   0   -0.39    0.96
   2  -3   0    0.17    0.57
   2   3   0   -0.23    1.06
   2   3   0   -0.76    0.94
   2   3   0    0.41    0.82
  -3  -3   0    4.41    1.32
  -3  -3   0    3.18    1.31
   3  -3   0    3.94    0.81
   3  -3   0    2.34    1.48
   3  -3   0    3.89    1.33
   3  -3   0    2.74    0.85
   3  -3   0    2.64    0.74
  -3  -3   0    2.90    1.25
   3   3   0    3.40    1.19
   3   3   0    1.83    1.17
   3   3   0    3.23    1.30
   4  -3   0  152.93    7.04
  -4  -3   0  171.91    6.70
   4  -3   0  156.97    5.78
  -4  -3   0  157.20    6.70
   4  -3   0  152.41    4.87
  -4  -3   0  165.19    6.71
   4  -3   0  161.09    4.93
   4  -3   0  159.93    7.40
   4   3   0  164.98    6.61
   4   3   0  161.62    6.66
   4   3   0  156.02    6.79
  -4   3   0  162.62    5.22
  -5  -3   0   92.40    5.09
   5  -3   0   86.91    4.60
  -5  -3   0   87.17    5.24
   5  -3   0   86.17    6.17
   5  -3   0   78.24    3.30
   5  -3   0   84.09    3.34
   5  -3   0   87.51    6.02
   5   3   0   83.60    5.19
   5   3   0   91.49    5.09
  -5   3   0   80.97    3.83
   5   3   0   80.57    5.30
  -6  -3   0    2.51    1.55
   6  -3   0    3.46    0.83
  -6  -3   0    1.74    1.53
   6  -3   0    3.57    0.83
   6  -3   0    1.50    1.42
   6  -3   0   -0.02    2.13
   6   3   0    2.77    1.98
   6   3   0    3.10    1.53
   7  -3   0   17.20    3.38
   7  -3   0   24.37    1.45
   7  -3   0   23.40    4.82
   7   3   0   17.92    3.20
   7   3   0   23.15    3.94
   7   3   0   26.12    3.26
   0  -4   0 1757.84   38.24
   0   4   0 1733.09   38.01
   0   4   0 1772.25   38.89
   0   4   0 1779.72   38.19
  -1  -4   0  459.51   11.74
   1  -4   0  437.08   10.48
   1  -4   0  449.54   11.62
  -1  -4   0  437.34   11.88
  -1  -4   0  438.39   10.80
   1  -4   0  443.53   11.18
  -1   4   0  428.92   11.53
   1   4   0  445.87   11.47
  -1   4   0  445.28   11.27
   1   4   0  455.73   11.98
   1   4   0  430.68   10.77
   1   4   0  448.05   11.45
   2  -4   0  174.70    5.43
  -2  -4   0  175.26    5.64
   2  -4   0  192.61    7.67
  -2  -4   0  180.76    6.40
  -2  -4   0  181.67    6.67
   2   4   0  184.40    5.79
   2   4   0  185.44    6.74
   2   4   0  171.95    6.36
  -3  -4   0  561.27   15.45
   3  -4   0  554.45   13.47
   3  -4   0  581.94   16.04
  -3  -4   0  554.95   14.56
   3  -4   0  557.78   13.60
   3  -4   0  563.28   13.51
  -3  -4   0  576.39   15.47
   3   4   0  560.46   14.65
   3   4   0  571.95   15.54
   3   4   0  548.47   15.38
  -4  -4   0   25.21    2.99
   4  -4   0   29.92    2.39
  -4  -4   0   30.42    2.87
   4  -4   0   24.38    3.03
  -4  -4   0   27.76    3.09
   4  -4   0   26.86    3.55
   4  -4   0   26.80    1.84
   4  -4   0   27.25    1.85
   4   4   0   28.26    3.14
   4   4   0   32.02    2.93
   4   4   0   32.54    3.26
   5  -4   0  164.66    5.10
  -5  -4   0  164.14    7.44
   5  -4   0  163.88    8.19
   5  -4   0  156.48    5.02
  -5  -4   0  163.69    7.66
   5   4   0  166.20    7.47
   5   4   0  170.50    7.57
   5   4   0  176.01    8.06
  -6  -4   0   29.88    3.89
   6  -4   0   30.47    1.70
   6  -4   0   29.83    3.15
   6  -4   0   25.48    1.53
   6  -4   0   25.53    4.52
  -6  -4   0   27.12    3.64
   6   4   0   35.17    3.68
   6   4   0   22.20    4.32
   6   4   0   30.99    5.44
   7  -4   0   66.76    5.93
  -7  -4   0   79.16    5.81
   7  -4   0   70.03    6.84
   7   4   0   88.07    6.72
   7   4   0   65.93    5.06
   7   4   0   72.56    5.96
   0  -5   0    0.35    0.70
   0  -5   0    0.61    0.81
   0  -5   0   -0.96    0.95
   0   5   0    0.25    0.64
   0   5   0    0.83    0.80
   0   5   0    0.00    0.69
   0   5   0    0.59    1.03
   1  -5   0  129.03    5.07
   1  -5   0  129.06    4.22
  -1  -5   0  130.49    5.94
  -1  -5   0  141.90    4.61
  -1  -5   0  122.40    5.35
   1  -5   0  127.14    4.89
   1   5   0  118.10    4.81
  -1   5   0  134.14    5.13
   1   5   0  154.67    5.81
  -1   5   0  127.15    4.98
   1   5   0  126.54    4.42
   2  -5   0    7.48    1.25
  -2  -5   0    8.48    1.37
  -2  -5   0    8.24    1.77
   2  -5   0    7.97    1.81
  -2  -5   0    8.97    1.91
   2   5   0    7.23    1.76
   2   5   0    6.57    1.32
   2   5   0    8.94    1.77
   2   5   0   10.34    1.95
  -2   5   0    7.45    1.33
   3  -5   0   53.19    2.77
   3  -5   0   53.33    4.01
   3  -5   0   47.39    2.63
   3  -5   0   52.35    2.62
  -3  -5   0   51.67    3.10
  -3  -5   0   46.89    3.77
  -3  -5   0   50.58    3.69
   3   5   0   45.43    3.64
   3   5   0   53.14    3.24
   3   5   0   53.84    3.84
  -4  -5   0    0.79    1.09
   4  -5   0    1.83    1.44
   4  -5   0    0.78    0.64
  -4  -5   0    0.07    1.33
   4  -5   0    0.31    0.72
   4  -5   0    0.88    1.41
  -4  -5   0   -0.54    0.94
   4  -5   0    1.40    0.76
   4   5   0    0.75    1.16
   4   5   0    0.93    1.46
   4   5   0    2.02    1.39
   5  -5   0  177.16    9.09
  -5  -5   0  181.57    8.49
   5  -5   0  186.78    6.85
   5  -5   0  185.75    5.54
   5  -5   0  182.48    8.95
   5  -5   0  175.89    5.43
  -5  -5   0  191.98    8.45
   5   5   0  183.62    7.90
   5   5   0  183.53    8.59
   5   5   0  189.89    8.37
   6  -5   0   30.59    4.90
  -6  -5   0   32.37    4.06
   6  -5   0   34.90    3.15
   6  -5   0   24.00    1.48
  -6  -5   0   25.21    3.82
   6   5   0   32.30    3.85
   6   5   0   21.76    3.54
   7  -5   0   18.32    3.99
   7  -5   0   16.30    2.58
   7   5   0   20.37    3.73
   7   5   0   20.03    3.45
   7   5   0   11.44    3.05
   7   5   0   13.52    3.47
   0  -6   0  230.35    7.87
   0  -6   0  232.88    7.04
   0  -6   0  227.54    7.14
   0   6   0  223.28    7.00
   0   6   0  218.33    6.74
   0   6   0  222.98    6.88
   0   6   0  222.24    7.84
   1  -6   0  212.70    7.59
   1  -6   0  217.78    6.43
  -1  -6   0  215.63    7.90
  -1  -6   0  216.56    6.66
  -1  -6   0  212.43    7.25
   1  -6   0  218.61    7.37
  -1   6   0  213.31    5.94
  -1   6   0  211.04    7.29
  -1   6   0  220.35    7.44
   1   6   0  211.09    7.89
   1   6   0  228.37    7.57
   1   6   0  213.37    6.54
  -1   6   0  217.19    6.08
  -2  -6   0   80.92    3.68
   2  -6   0   88.31    4.78
   2  -6   0   87.63    3.39
  -2  -6   0   87.07    4.60
   2  -6   0   82.63    3.91
  -2  -6   0   85.12    4.93
   2   6   0   83.28    4.48
   2   6   0   81.50    3.71
  -2   6   0   84.57    4.04
   2   6   0   85.16    4.50
   2   6   0   78.80    4.71
  -3  -6   0   58.35    4.13
  -3  -6   0   54.47    4.25
   3  -6   0   57.39    4.32
  -3  -6   0   58.82    3.41
   3  -6   0   52.75    3.03
   3   6   0   57.74    3.41
   3   6   0   61.67    4.30
   3   6   0   55.99    4.11
   3   6   0   57.89    4.38
  -4  -6   0  334.61   11.84
   4  -6   0  327.06   12.03
   4  -6   0  337.14    9.39
   4  -6   0  341.76    9.36
  -4  -6   0  332.50   11.94
   4  -6   0  326.51    9.21
   4  -6   0  323.12   12.25
  -4  -6   0  316.07   10.34
   4   6   0  327.36   11.70
   4   6   0  330.43   10.62
   4   6   0  327.83   11.80
   4   6   0  322.67   11.65
  -5  -6   0   -0.83    1.61
   5  -6   0    0.57    0.97
  -5  -6   0   -1.82    1.62
   5  -6   0    0.54    1.63
   5  -6   0    0.74    0.68
   5  -6   0   -0.31    0.57
   5   6   0   -1.66    1.25
   5   6   0   -1.35    1.27
   5   6   0    1.40    1.38
  -6  -6   0   77.23    6.20
   6  -6   0   65.15    6.17
   6  -6   0   87.51    4.69
   6   6   0   91.39    6.30
   6   6   0   84.24    6.47
   6   6   0   98.49    9.54
   6   6   0   76.15    6.19
   0  -7   0    0.71    0.87
   0  -7   0    1.07    1.16
   0  -7   0    1.40    0.95
   0   7   0    0.75    0.87
   0   7   0    0.51    0.67
   0   7   0    0.91    1.17
   0   7   0    0.63    0.85
  -1  -7   0  151.66    6.04
  -1  -7   0  146.16    6.68
  -1  -7   0  149.84    5.43
   1  -7   0  144.84    5.20
   1  -7   0  150.62    6.22
   1  -7   0  155.59    6.16
  -1   7   0  151.43    6.07
  -1   7   0  139.78    4.67
   1   7   0  150.08    5.36
  -1   7   0  148.51    6.22
   1   7   0  143.33    6.01
   1   7   0  147.13    5.88
   1   7   0  145.39    6.63
  -2  -7   0  166.24    7.09
  -2  -7   0  177.44    7.81
  -2  -7   0  175.00    6.10
   2  -7   0  184.51    7.52
   2  -7   0  189.84    5.81
   2  -7   0  179.93    6.69
  -2   7   0  178.50    6.78
   2   7   0  179.73    7.80
   2   7   0  176.68    6.11
   2   7   0  178.33    7.17
   2   7   0  174.23    7.11
  -3  -7   0   59.50    4.47
   3  -7   0   60.68    4.72
  -3  -7   0   63.41    4.97
   3  -7   0   64.18    3.62
   3   7   0   66.17    4.84
   3   7   0   61.65    4.51
   3   7   0   61.02    3.55
   3   7   0   60.85    4.39
   4  -7   0    8.41    4.21
  -4  -7   0    6.04    2.46
   4  -7   0    9.37    2.59
   4  -7   0    9.15    1.49
  -4  -7   0    5.56    1.72
  -4  -7   0   11.85    2.61
   4   7   0    8.87    1.87
   4   7   0    5.77    1.98
   4   7   0    6.27    2.52
   4   7   0    7.17    2.25
   5  -7   0   22.09    2.22
   5  -7   0   16.49    3.54
  -5  -7   0   16.28    2.74
   5  -7   0   21.46    1.87
   5  -7   0   18.03    1.86
  -5  -7   0   20.83    3.15
   5   7   0   16.64    3.50
   5   7   0   20.15    2.82
   5   7   0   26.32    4.20
   5   7   0   18.11    3.38
  -6  -7   0    0.73    2.31
   6  -7   0    1.58    1.81
   6   7   0   -0.42    1.77
   6   7   0   -0.23    1.52
   6   7   0   -1.20    1.63
   0  -8   0   10.05    1.80
   0  -8   0   12.95    2.09
   0  -8   0    9.06    2.15
   0   8   0   11.28    2.22
   0   8   0    9.17    1.69
   0   8   0    9.96    1.79
   0   8   0    8.61    1.56
  -1  -8   0    2.18    1.27
  -1  -8   0    1.74    1.47
   1  -8   0    0.13    1.26
   1  -8   0    2.39    1.02
   1  -8   0    0.53    1.02
  -1  -8   0   -0.25    0.81
  -1   8   0    1.42    0.77
  -1   8   0    2.47    0.93
  -1   8   0    1.99    1.36
  -1   8   0    0.06    1.18
   1   8   0    0.30    0.90
   1   8   0    1.42    1.54
   1   8   0    0.98    1.02
  -2  -8   0   -0.52    0.89
   2  -8   0   -1.29    0.98
   2  -8   0    1.30    0.73
   2  -8   0    0.51    1.30
  -2  -8   0    0.15    0.78
  -2  -8   0   -0.90    1.18
  -2   8   0    1.14    1.14
   2   8   0    0.86    0.87
   2   8   0    1.02    1.41
   2   8   0   -1.78    0.74
   2   8   0    0.17    1.06
   3  -8   0   93.81    5.91
   3  -8   0   90.73    4.76
  -3  -8   0   91.25    4.40
  -3  -8   0   94.43    5.78
  -3  -8   0   90.38    6.53
   3   8   0   78.82    6.54
   3   8   0   93.04    4.49
   3   8   0   85.76    5.49
   3   8   0   92.10    5.64
  -4  -8   0   41.43    4.33
   4  -8   0   48.43    3.24
   4  -8   0   40.29    4.55
  -4  -8   0   48.22    3.39
  -4  -8   0   42.83    4.83
   4  -8   0   44.24    4.55
   4   8   0   51.21    4.90
   4   8   0   49.20    4.49
   4   8   0   49.33    3.40
  -5  -8   0   65.73    5.53
   5  -8   0   72.13    3.62
  -5  -8   0   75.19    4.64
   5  -8   0   70.18    6.01
   5   8   0   72.21    6.00
   5   8   0   67.70    4.52
   5   8   0   82.78    6.18
   5   8   0   64.46    8.26
   6  -8   0    3.05    1.23
   6  -8   0    4.17    2.72
   6   8   0    3.62    2.44
   6   8   0    7.46    2.31
   6   8   0    4.81    2.29
   0  -9   0    2.92    1.18
   0  -9   0    0.02    1.35
   0   9   0    1.85    1.03
   0   9   0    0.98    1.03
   0   9   0    0.43    0.88
   0   9   0    0.59    1.43
  -1  -9   0   79.91    4.22
  -1  -9   0   76.25    5.32
   1  -9   0   86.40    4.90
  -1  -9   0   82.02    4.82
   1  -9   0   76.35    4.99
   1   9   0   77.14    4.50
   1   9   0   93.78    4.34
   1   9   0   79.54    4.61
   1   9   0   81.07    5.58
  -1   9   0   77.41    5.00
  -1   9   0   80.02    4.70
  -2  -9   0  139.46    7.63
  -2  -9   0  126.12    6.63
   2  -9   0  151.84    7.15
   2  -9   0  130.79    6.47
  -2   9   0  146.93    6.79
   2   9   0  146.51    5.64
   2   9   0  142.38    6.96
   3  -9   0    9.99    2.02
  -3  -9   0   12.87    2.10
  -3  -9   0   10.89    3.02
  -3  -9   0    7.29    2.16
   3  -9   0   11.64    2.74
   3   9   0   10.01    2.71
   3   9   0   14.08    2.98
   3   9   0    9.24    2.25
   3   9   0   12.27    1.88
  -4  -9   0    1.74    1.13
   4  -9   0    5.46    2.38
   4  -9   0    0.14    1.03
  -4  -9   0    1.58    1.72
   4  -9   0   -0.13    1.10
   4   9   0    3.60    1.29
   4   9   0    1.77    1.61
   4   9   0    0.72    1.59
   4   9   0    0.39    1.56
  -5  -9   0   12.70    2.95
   5  -9   0   18.67    2.20
   5  -9   0   12.92    3.42
   5   9   0   17.48    3.51
   5   9   0   17.87    3.51
   5   9   0   22.21    2.78
   0 -10   0   15.48    2.40
   0  10   0   17.43    2.45
   0  10   0   14.21    2.20
   0  10   0   17.53    2.70
   0  10   0   12.30    2.72
  -1 -10   0    2.25    1.13
   1 -10   0    1.55    1.56
  -1 -10   0   -0.06    1.24
   1 -10   0    1.54    1.24
   1  10   0   -0.45    1.11
   1  10   0    2.46    1.29
   1  10   0   -0.10    1.52
  -1  10   0    2.38    1.43
  -1  10   0    1.33    1.53
   1  10   0    0.95    1.10
   2 -10   0   81.04    5.22
  -2 -10   0   63.21    4.78
   2 -10   0   62.06    4.75
  -2 -10   0   73.36    3.91
   2  10   0   67.56    4.81
   2  10   0   63.36    3.71
   2  10   0   69.26    5.66
  -2  10   0   64.56    4.79
  -3 -10   0   81.22    5.68
   3 -10   0   79.28    5.66
   3 -10   0   69.27    4.69
  -3 -10   0   74.80    4.04
   3  10   0   78.84    6.18
   3  10   0   73.46    5.36
   3  10   0   82.31    4.22
  -4 -10   0    0.63    1.03
   4 -10   0    1.82    1.65
  -4 -10   0    2.14    1.89
   4 -10   0    1.91    1.41
   4 -10   0    0.43    1.43
   4  10   0    3.95    1.34
   4  10   0   -0.06    1.51
   4  10   0   -0.26    1.71
   5 -10   0   -0.35    1.10
  -5 -10   0   -0.17    1.85
   5  10   0    1.96    1.40
   5  10   0    0.93    1.91
   0 -11   0    0.80    1.89
   0 -11   0    4.84    1.47
   0  11   0    3.50    1.49
   0  11   0    3.31    2.00
   0  11   0    4.26    1.54
  -1 -11   0  250.19    8.65
  -1 -11   0  244.97    9.76
   1 -11   0  224.36   10.06
   1 -11   0  249.10    9.66
  -1  11   0  234.50   10.21
   1  11   0  252.05    9.23
   1  11   0  229.67    8.27
   1  11   0  248.01   11.04
   2 -11   0    7.00    2.18
  -2 -11   0    4.33    2.17
   2 -11   0    5.72    2.07
  -2 -11   0    8.34    1.64
   2  11   0    5.34    2.23
   2  11   0    3.85    3.03
   2  11   0    3.22    1.69
   3 -11   0    9.69    2.36
   3 -11   0   21.95    3.75
  -3 -11   0   18.18    3.54
  -3 -11   0   15.91    2.07
   3  11   0   21.68    3.68
   3  11   0   13.99    2.89
   4 -11   0    2.21    1.33
   4 -11   0    1.65    1.54
  -4 -11   0    2.21    1.97
  -4 -11   0    1.47    1.16
   4  11   0   -0.87    1.52
   4  11   0    2.31    1.39
   0 -12   0    9.90    2.02
   0  12   0    7.03    1.78
   0  12   0    7.27    2.44
   0  12   0    4.83    1.76
   1 -12   0   34.15    3.44
  -1 -12   0   30.71    2.81
   1  12   0   27.18    3.39
   1  12   0   23.87    2.93
   1  12   0   33.98    4.32
  -1  12   0   31.16    4.07
  -2 -12   0    0.57    1.06
   2 -12   0    2.13    1.43
  -2 -12   0    2.20    1.60
   2  12   0   -1.39    1.47
   2  12   0    0.63    1.56
  -2  12   0    0.68    1.49
   2  12   0   -1.66    1.33
   3 -12   0   34.41    4.36
   3 -12   0   55.90    5.00
  -3 -12   0   49.37    5.14
  -3 -12   0   49.03    3.22
   3  12   0   58.26    5.71
   0 -13   0    6.04    1.65
   0  13   0    2.98    2.07
   0  13   0    1.50    1.86
  -1 -13   0    6.01    1.56
   1  13   0    1.69    3.56
   1  13   0    1.04    3.34
  -1  13   0    9.84    2.29
   1  13   0    4.50    1.91
   7   0  -1   -1.21    0.96
  -7   0   1   -1.24    1.20
   7   0  -1    1.53    1.75
   7   0  -1   -1.89    0.95
   6   0  -1    2.08    1.46
  -6   0   1   -0.09    1.02
   6   0  -1    1.16    1.29
  -6   0   1    0.22    1.12
  -5   0   1    0.10    0.97
   5   0  -1    1.85    1.43
   5   0  -1    0.63    1.08
   5   0  -1    0.09    1.06
  -5   0   1    0.81    0.96
  -4   0   1   -0.40    0.72
   4   0  -1   -0.75    1.04
  -4   0   1   -0.29    0.76
  -4   0   1    1.52    1.33
   4   0  -1   -0.45    0.85
   4   0  -1    1.03    0.94
   3   0  -1   -1.36    0.75
   3   0  -1    0.32    1.00
   3   0  -1    0.16    0.69
  -3   0   1   -0.30    0.67
  -3   0   1   -0.62    0.69
  -2   0   1    0.10    0.81
   2   0  -1   -0.42    0.59
   2   0  -1    0.07    0.59
  -2   0   1    0.05    0.56
  -2   0   1    0.24    0.68
   2   0  -1   -0.60    0.71
  -1   0   1    1.46    0.64
  -1   0   1   -0.29    0.49
   1   0  -1   -0.12    0.53
   1   0  -1   -0.12    0.38
   1   0  -1   -0.03    0.45
   1   0  -1   -0.05    0.36
   0   0   1    0.07    0.31
   0   0  -1   -0.06    0.28
   0   0   1   -0.05    0.23
   0   0  -1    0.10    0.27
   0   0  -1   -0.03    0.26
   0   0   1   -0.07    0.30
  -1   0  -1    0.28    0.63
  -1   0  -1    0.19    0.39
  -1   0  -1    0.36    0.68
   1   0   1    0.16    0.61
   1   0   1    0.62    0.70
   1   0   1   -0.11    0.35
  -2   0  -1   -0.49    0.68
  -2   0  -1    0.18    0.46
   2   0   1    0.17    0.49
   2   0   1    1.24    0.85
   2   0   1   -0.20    0.93
   3   0   1    0.70    1.06
   3   0   1    0.23    0.84
  -3   0  -1    0.20    0.78
  -3   0  -1   -0.03    0.51
   3   0   1    0.26    0.86
   3   0   1    0.55    0.61
  -4   0  -1    0.39    0.87
   4   0   1    0.13    1.24
   4   0   1   -0.22    0.60
   4   0   1    1.73    1.22
   4   0   1    0.67    1.07
  -4   0  -1   -0.42    0.58
  -5   0  -1   -0.12    0.75
   5   0   1    2.94    1.90
   5   0   1    1.88    1.39
   5   0   1    1.54    0.87
  -5   0  -1    2.21    1.15
   5   0   1    4.01    1.69
   6   0   1   -0.58    1.60
   6   0   1    1.62    1.05
   6   0   1   -1.74    1.16
   6   0   1   -0.28    1.76
  -6   0  -1   -0.40    0.79
   7   0   1   -0.99    1.43
   7   0   1    1.16    2.12
  -7  -1   1   -1.67    1.33
   7  -1  -1    1.20    1.45
   7  -1  -1    0.72    1.11
   7  -1  -1   -0.30    1.80
   7   1  -1   -0.89    1.11
   7   1  -1    0.85    1.72
  -7   1   1    0.23    1.06
   6  -1  -1    4.24    1.99
   6  -1  -1    3.33    1.58
  -6  -1   1    3.47    1.58
  -6  -1   1    6.55    1.74
   6  -1  -1    3.49    1.48
   6   1  -1    7.28    2.47
   6   1  -1    4.33    1.67
   6   1  -1    5.75    2.13
  -6   1   1    3.37    1.36
  -6   1   1    3.45    1.32
  -5  -1   1   18.83    2.66
   5  -1  -1   17.32    2.96
   5  -1  -1   21.00    2.50
  -5  -1   1   20.48    2.49
   5  -1  -1   17.83    2.22
   5   1  -1   15.26    2.51
   5   1  -1   16.55    2.71
  -5   1   1   16.42    2.02
   5   1  -1   13.68    2.23
  -5   1   1   22.08    2.18
  -4  -1   1  156.29    6.03
  -4  -1   1  157.74    6.70
   4  -1  -1  166.72    5.79
  -4  -1   1  158.06    6.07
   4  -1  -1  155.20    6.84
   4  -1  -1  159.07    5.61
  -4   1   1  161.06    5.65
  -4   1   1  151.86    5.37
   4   1  -1  155.98    6.08
   4   1  -1  163.99    6.79
   4   1  -1  166.32    6.30
  -3  -1   1   49.21    2.95
   3  -1  -1   49.28    2.59
  -3  -1   1   54.72    3.00
  -3  -1   1   55.24    3.50
   3  -1  -1   52.70    3.40
   3  -1  -1   53.71    2.73
  -3   1   1   46.34    2.39
  -3   1   1   52.54    3.48
   3   1  -1   51.37    3.02
   3   1  -1   65.03    3.33
   3   1  -1   50.10    3.28
  -3   1   1   49.29    2.63
  -2  -1   1  496.23   12.64
  -2  -1   1  498.67   12.23
   2  -1  -1  519.36   12.77
   2  -1  -1  516.95   11.53
   2  -1  -1  486.92   12.05
  -2  -1   1  508.72   12.45
  -2   1   1  499.82   12.05
   2   1  -1  497.68   12.64
  -2   1   1  514.24   12.76
   2   1  -1  508.22   12.48
  -2   1   1  510.57   11.38
   2   1  -1  496.68   12.24
  -1  -1   1   23.70    1.62
  -1  -1   1   24.46    1.48
  -1  -1   1   24.89    1.63
   1  -1  -1   25.80    1.51
  -1  -1   1   24.86    1.49
   1  -1  -1   23.49    1.44
  -1   1   1   23.16    1.51
   1   1  -1   30.65    1.97
   1   1  -1   24.70    1.51
   1   1  -1   25.08    1.65
   1   1  -1   25.19    1.60
  -1   1   1   25.00    1.55
   0  -1  -1    1.63    0.48
   0  -1   1    1.74    0.44
   0  -1   1    0.88    0.58
   0  -1   1    1.14    0.54
   0  -1  -1    1.44    0.55
   0  -1  -1    0.82    0.25
   0   1   1    2.01    0.60
   0   1  -1    0.81    0.42
   0   1  -1    1.43    0.43
   0   1  -1    1.08    0.60
   0   1   1    1.37    0.29
  -1  -1  -1  699.77   16.12
   1  -1   1  693.64   15.95
  -1  -1  -1  727.38   15.77
   1  -1   1  696.08   16.35
   1   1   1  731.19   15.81
   1   1   1  677.31   16.14
  -1   1  -1  686.60   15.86
  -1   1  -1  704.47   16.35
   1   1   1  698.91   15.63
   2  -1   1 3063.29   90.33
   2   1   1 3186.41   96.13
   2   1   1 3152.08   95.70
   3  -1   1   47.29    1.89
   3  -1   1   49.33    3.34
  -3  -1  -1   46.83    3.09
   3  -1   1   45.15    3.00
  -3  -1  -1   51.33    2.67
   3  -1   1   52.69    3.67
  -3   1  -1   47.64    3.53
   3   1   1   48.36    3.18
   3   1   1   54.88    5.32
  -3   1  -1   51.94    1.94
   3   1   1   47.93    2.62
   4  -1   1  100.64    5.71
   4  -1   1  110.77    5.70
  -4  -1  -1  100.29    4.27
   4  -1   1  109.47    5.19
   4  -1   1  102.28    3.48
  -4  -1  -1  109.66    5.25
  -4   1  -1  108.03    4.89
   4   1   1  108.40    5.41
  -4   1  -1  111.17    3.55
   4   1   1  107.01    4.36
   4   1   1  111.35    5.58
   4   1   1  112.50    5.54
  -5  -1  -1  108.52    4.75
   5  -1   1  108.83    6.30
   5  -1   1  109.93    5.83
  -5  -1  -1   99.55    5.57
   5  -1   1  106.13    3.77
   5  -1   1  113.00    6.66
  -5   1  -1  110.30    3.80
   5   1   1  106.45    6.00
   5   1   1  107.47    6.01
  -5   1  -1  104.35    5.77
   5   1   1  115.28    4.83
   5   1   1  114.15    6.39
   6  -1   1   -0.59    1.31
   6  -1   1    0.78    0.71
   6  -1   1    1.59    2.35
   6   1   1    1.02    1.56
   6   1   1    0.66    1.81
   6   1   1   -0.04    0.93
   6   1   1    2.33    1.66
   7  -1   1   -0.90    1.81
   7  -1   1   -0.08    1.74
  -7  -1  -1   -1.31    1.19
   7  -1   1    2.10    0.54
   7   1   1    0.52    1.07
   7   1   1    1.43    1.96
   7   1   1   -0.87    2.16
   7  -2  -1  105.65    6.04
   7  -2  -1  113.71    7.75
  -7  -2   1  108.24    6.18
   7  -2  -1   98.50    4.89
   7   2  -1  118.86    7.15
   7   2  -1  120.13    6.29
   6  -2  -1  170.15    7.23
   6  -2  -1  178.02    8.78
   6  -2  -1  173.46    6.51
  -6  -2   1  162.02    7.58
  -6  -2   1  179.23    7.67
   6  -2  -1  159.65    8.65
   6   2  -1  173.86    7.46
   6   2  -1  171.05    8.44
  -6   2   1  157.10    6.12
  -5  -2   1  132.66    6.05
  -5  -2   1  120.42    5.88
   5  -2  -1  119.36    6.58
  -5  -2   1  117.56    6.43
   5  -2  -1  120.68    5.39
   5   2  -1  132.08    6.12
   5   2  -1  134.21    6.35
   5   2  -1  126.18    6.54
  -5   2   1  132.24    5.13
  -5   2   1  122.13    4.79
  -4  -2   1    7.84    1.77
   4  -2  -1    7.53    1.35
   4  -2  -1    8.07    1.87
  -4  -2   1    9.68    1.88
  -4  -2   1    8.90    2.11
   4  -2  -1    6.18    1.25
   4   2  -1    7.23    1.74
   4   2  -1    8.78    1.98
   4   2  -1    9.08    1.97
  -4   2   1    7.62    1.31
  -4   2   1    7.70    1.20
  -3  -2   1   39.71    2.84
  -3  -2   1   36.46    2.73
   3  -2  -1   38.18    3.05
   3  -2  -1   36.15    2.04
   3  -2  -1   36.89    2.32
  -3  -2   1   39.83    2.92
   3   2  -1   38.16    2.90
   3   2  -1   36.31    2.76
   3   2  -1   39.54    2.97
  -3   2   1   37.38    2.31
   2  -2  -1 6851.65  152.97
   2  -2  -1 7026.14  153.31
   2   2  -1 6983.11  175.12
  -1  -2   1 2625.56   74.49
   1   2  -1 2598.92   74.17
   0  -2  -1  320.22    7.39
   0  -2   1  292.70    7.88
   0  -2   1  298.16    7.64
   0  -2  -1  297.73    6.54
   0  -2  -1  316.23    7.89
   0  -2  -1  301.84    6.54
   0   2   1  314.61    7.91
   0   2  -1  300.69    7.65
   0   2   1  314.75    7.37
   0   2  -1  304.28    7.49
   0   2  -1  295.31    7.86
   1  -2   1 3317.40   85.69
   1   2   1 3366.68   89.96
  -1   2  -1 2691.82   83.15
   1   2   1 3384.39   90.85
  -2  -2  -1    3.97    1.14
  -2  -2  -1    2.71    1.08
   2  -2   1    1.61    1.16
   2  -2   1    2.16    0.93
  -2   2  -1    3.86    1.00
   2   2   1    2.88    1.10
  -2   2  -1    1.68    1.18
   2   2   1    4.47    1.19
   2   2   1    3.47    0.99
   3  -2   1    1.61    1.23
   3  -2   1   -0.09    0.81
  -3  -2  -1   -0.18    0.80
  -3  -2  -1    0.25    0.95
   3   2   1    0.36    1.03
   3   2   1    1.41    0.95
  -3   2  -1    0.63    0.70
   3   2   1    1.27    0.93
   4  -2   1    2.47    1.49
   4  -2   1    3.12    1.34
   4  -2   1    3.03    0.50
   4  -2   1    3.50    1.75
  -4  -2  -1    4.46    1.36
  -4  -2  -1    1.50    1.24
  -4   2  -1    2.15    1.08
   4   2   1    3.33    1.55
   4   2   1    2.12    1.20
   4   2   1    2.31    1.24
   5  -2   1   43.50    5.04
   5  -2   1   39.32    3.61
   5  -2   1   37.14    4.25
  -5  -2  -1   40.32    3.70
   5  -2   1   37.29    1.56
  -5  -2  -1   41.16    3.22
   5   2   1   39.30    3.75
   5   2   1   42.54    4.15
   5   2   1   42.05    3.20
   5   2   1   41.78    3.99
  -5   2  -1   39.57    3.72
   6  -2   1    2.67    1.72
  -6  -2  -1    6.46    1.68
   6  -2   1    5.56    2.55
   6   2   1    6.41    1.55
   6   2   1    3.28    1.69
   6   2   1    2.23    1.93
   6   2   1    6.40    2.19
  -7  -2  -1   15.59    2.49
   7  -2   1   15.76    4.44
   7   2   1    8.95    2.79
   7   2   1   22.85    2.77
   7   2   1   10.54    2.81
   7  -3  -1    5.80    2.73
   7  -3  -1    9.92    2.31
  -7  -3   1   10.61    2.62
   7  -3  -1    7.24    1.53
   7   3  -1    6.98    2.57
   7   3  -1    6.12    2.12
   7   3  -1    8.48    2.57
  -6  -3   1  149.23    7.47
   6  -3  -1  143.21    8.44
  -6  -3   1  160.44    7.46
   6  -3  -1  151.20    5.86
   6  -3  -1  155.15    6.59
   6   3  -1  155.20    8.11
   6   3  -1  151.53    7.21
   6   3  -1  152.58    7.99
  -5  -3   1   10.97    2.49
   5  -3  -1    8.61    1.68
  -5  -3   1   12.23    2.25
   5  -3  -1   13.52    2.74
  -5  -3   1   11.32    2.23
   5  -3  -1   15.20    3.23
   5  -3  -1   10.10    1.65
   5   3  -1   13.17    2.33
   5   3  -1    9.94    2.15
   5   3  -1   10.85    2.28
   4  -3  -1   51.70    4.09
   4  -3  -1   48.37    3.88
  -4  -3   1   52.58    3.69
  -4  -3   1   52.39    3.70
   4  -3  -1   51.24    2.78
   4  -3  -1   51.31    2.91
  -4  -3   1   52.55    3.74
   4   3  -1   50.25    3.61
   4   3  -1   51.77    3.78
   4   3  -1   50.48    3.69
   3  -3  -1  529.28   15.10
  -3  -3   1  562.51   14.94
  -3  -3   1  574.27   15.12
  -3  -3   1  572.06   16.19
   3  -3  -1  588.87   14.05
   3   3  -1  578.41   15.03
   3   3  -1  545.69   14.81
   3   3  -1  558.71   14.95
   3   3  -1  548.76   15.04
  -2  -3   1  485.15   12.75
   2  -3  -1  501.83   12.39
   2  -3  -1  479.74   12.32
   2  -3  -1  510.18   13.08
   2  -3  -1  517.94   13.04
  -2  -3   1  505.01   12.97
  -2  -3   1  496.91   13.15
   2   3  -1  505.66   13.01
   2   3  -1  496.36   13.19
   2   3  -1  495.57   12.84
   2   3  -1  510.86   12.99
   1  -3  -1  565.04   13.22
   1  -3  -1  545.95   13.49
  -1  -3   1  558.54   13.59
  -1  -3   1  561.34   13.62
  -1  -3   1  572.25   13.89
  -1  -3   1  562.46   13.63
   1   3  -1  563.58   13.60
   1   3  -1  541.52   13.54
   1   3  -1  575.28   13.94
  -1   3   1  565.40   13.59
   1   3  -1  539.36   13.53
   0  -3   1    8.81    1.24
   0  -3  -1    7.21    0.71
   0  -3   1   10.43    1.30
   0  -3  -1    9.52    1.22
   0  -3  -1   12.05    1.61
   0  -3   1   11.98    1.68
   0   3  -1    9.41    1.22
   0   3  -1    8.77    1.42
   0   3   1    9.31    1.41
   0   3  -1    9.98    1.29
   1  -3   1  523.60   11.72
   1  -3   1  518.64   12.25
  -1  -3  -1  525.68   12.98
  -1  -3  -1  506.84   12.66
   1  -3   1  508.63   13.13
  -1  -3  -1  477.96   11.20
   1   3   1  520.78   12.98
   1   3   1  505.40   12.62
  -1   3  -1  503.05   12.06
   1   3   1  490.54   11.26
  -1   3  -1  517.67   13.10
  -1   3  -1  497.99   11.66
  -2  -3  -1    7.14    1.55
  -2  -3  -1    5.63    1.39
   2  -3   1    5.89    0.69
   2  -3   1    6.35    0.77
   2  -3   1    5.68    1.14
   2  -3   1    5.21    1.56
   2   3   1    9.07    1.74
  -2   3  -1    5.77    1.58
   2   3   1    5.85    1.11
   2   3   1    4.39    1.32
  -2   3  -1    8.42    1.26
  -3  -3  -1   88.94    4.41
   3  -3   1   89.39    4.03
   3  -3   1   90.38    4.97
  -3  -3  -1   82.44    4.46
  -3   3  -1   88.27    3.64
   3   3   1   90.28    4.71
   3   3   1   85.91    4.28
   3   3   1   84.57    4.01
  -4  -3  -1   14.52    2.22
   4  -3   1   13.23    2.62
  -4  -3  -1   16.41    2.66
   4  -3   1   13.30    2.12
   4  -3   1   18.53    3.18
   4   3   1   15.42    2.23
   4   3   1   17.59    2.73
   4   3   1   17.60    2.36
  -4   3  -1   15.21    1.83
   5  -3   1  155.83    9.14
   5  -3   1  175.29    8.43
  -5  -3  -1  178.42    7.22
   5  -3   1  147.45    8.01
  -5  -3  -1  169.84    7.88
   5   3   1  173.07    7.58
   5   3   1  169.91    7.02
   5   3   1  172.83    8.26
   5   3   1  165.66    7.58
  -5   3  -1  168.80    6.41
   6  -3   1    0.59    2.00
   6  -3   1   -0.79    1.16
  -6  -3  -1   -2.96    1.09
   6   3   1    2.62    1.49
   6   3   1    0.41    1.97
   6   3   1    0.91    1.71
   6   3   1    3.13    1.80
  -7  -3  -1   12.33    2.63
   7  -3   1   10.46    2.98
   7  -3   1    7.90    2.22
   7   3   1   11.50    2.99
   7   3   1   13.75    2.50
   7   3   1    9.04    2.77
   7  -4  -1   22.42    4.76
  -7  -4   1   17.12    5.16
   7  -4  -1   11.42    2.05
   7   4  -1   15.66    3.21
   7   4  -1   14.65    3.53
   7   4  -1   17.04    3.16
   6  -4  -1  155.58    8.93
   6  -4  -1  158.76    6.53
   6  -4  -1  171.53    6.81
   6  -4  -1  168.98    6.07
  -6  -4   1  166.02    8.16
  -6  -4   1  158.27    9.11
   6   4  -1  172.15    8.04
   6   4  -1  174.28    8.57
   6   4  -1  165.08    8.31
  -5  -4   1  178.27    7.76
  -5  -4   1  177.05    7.74
  -5  -4   1  168.60    7.67
   5  -4  -1  161.76    7.06
   5  -4  -1  162.87    5.97
   5  -4  -1  162.60    5.94
   5  -4  -1  149.37    9.10
   5  -4  -1  162.88    8.34
   5   4  -1  172.27    7.69
   5   4  -1  174.66    7.88
   5   4  -1  156.36    7.55
   5   4  -1  167.41    7.62
   4  -4  -1   34.64    2.49
  -4  -4   1   36.35    3.24
   4  -4  -1   31.87    3.50
   4  -4  -1   32.45    2.42
   4  -4  -1   33.56    3.40
  -4  -4   1   36.21    3.34
  -4  -4   1   34.20    3.19
   4   4  -1   34.27    3.13
   4   4  -1   33.17    3.26
   4   4  -1   26.18    3.07
   4   4  -1   33.05    3.38
  -3  -4   1 1214.34   29.73
   3  -4  -1 1194.85   27.47
  -3  -4   1 1191.09   28.96
   3  -4  -1 1225.74   29.02
   3  -4  -1 1203.64   29.11
   3  -4  -1 1185.33   27.44
   3   4  -1 1196.27   28.93
   3   4  -1 1225.46   28.81
   3   4  -1 1205.74   28.78
   3   4  -1 1177.58   28.32
   2  -4  -1  136.99    5.32
   2  -4  -1  133.11    4.84
  -2  -4   1  140.68    5.65
  -2  -4   1  126.03    4.96
   2  -4  -1  132.01    5.15
  -2  -4   1  130.85    5.25
   2   4  -1  132.76    5.56
   2   4  -1  122.70    4.96
   2   4  -1  135.55    5.31
   2   4  -1  134.94    5.28
   1  -4  -1    1.24    0.73
  -1  -4   1    1.53    0.92
   1  -4  -1    1.33    0.89
  -1  -4   1    1.14    0.93
  -1  -4   1    1.34    1.11
  -1  -4   1    1.99    0.98
   1   4  -1    0.87    1.10
  -1   4   1    1.06    0.97
   1   4  -1    1.39    0.95
   1   4  -1    2.14    0.92
   1   4  -1    1.98    0.99
   0  -4  -1  562.43   14.37
   0  -4  -1  546.30   12.80
   0  -4   1  540.35   14.19
   0  -4  -1  604.60   13.57
   0  -4   1  573.28   14.07
   0  -4   1  542.25   13.74
   0   4  -1  554.72   14.20
   0   4   1  592.01   13.42
   0   4  -1  542.73   13.75
   0   4  -1  601.58   13.78
   0   4   1  566.48   13.36
   0   4  -1  583.12   14.09
   0   4   1  581.99   14.55
   0   4   1  570.58   12.78
   1  -4   1   58.90    2.76
   1  -4   1   51.95    2.53
   1  -4   1   57.13    3.43
  -1  -4  -1   55.51    3.44
  -1  -4  -1   59.75    3.53
  -1  -4  -1   53.62    1.92
  -1   4  -1   55.41    2.61
  -1   4  -1   52.27    2.51
  -1   4  -1   51.17    3.23
   1   4   1   54.30    2.97
   1   4   1   55.91    3.35
   1   4   1   52.82    1.95
   2  -4   1    2.93    0.92
  -2  -4  -1    3.03    0.87
  -2  -4  -1    3.53    1.14
   2  -4   1    3.41    0.72
  -2  -4  -1    0.87    1.14
   2  -4   1    5.03    1.66
   2   4   1    2.36    1.04
  -2   4  -1    3.10    1.39
  -2   4  -1    5.16    0.98
   2   4   1    3.37    0.87
   2   4   1    4.32    1.41
   3  -4   1   94.55    2.79
  -3  -4  -1   91.94    4.81
   3  -4   1   86.80    2.70
   3  -4   1   94.32    4.12
   3  -4   1   88.63    5.20
  -3  -4  -1   97.42    4.96
   3   4   1   92.76    4.12
   3   4   1   91.30    4.92
   3   4   1   95.15    4.77
  -3   4  -1   92.06    3.66
   4  -4   1   54.86    4.41
  -4  -4  -1   53.46    4.03
  -4  -4  -1   59.21    4.35
   4  -4   1   53.54    3.50
   4  -4   1   55.29    4.52
   4   4   1   66.21    5.57
  -4   4  -1   56.71    3.06
   4   4   1   56.61    4.01
   4   4   1   50.09    4.29
   5  -4   1   83.08    5.94
   5  -4   1   88.65    6.32
  -5  -4  -1   85.12    5.18
   5  -4   1   81.03    4.86
  -5  -4  -1   84.36    5.54
  -5   4  -1   83.06    4.03
   5   4   1   86.85    6.02
   5   4   1   87.22    5.27
   5   4   1   95.85    5.50
   6  -4   1   78.58    5.13
  -6  -4  -1   84.94    5.65
   6  -4   1   77.92    6.53
   6   4   1   91.46    5.56
   6   4   1   80.41    6.65
   6   4   1   94.14    6.12
   6   4   1   82.56    8.39
   7  -5  -1    8.24    2.41
   7  -5  -1    9.55    3.39
   7   5  -1   12.72    2.75
   7   5  -1   12.10    3.43
   7   5  -1    9.97    2.79
   6  -5  -1   12.99    1.81
   6  -5  -1   12.52    3.25
   6  -5  -1   14.58    2.18
  -6  -5   1   14.52    3.15
  -6  -5   1    8.74    2.55
   6  -5  -1   14.13    2.23
   6   5  -1   13.31    2.84
   6   5  -1   12.70    2.74
   6   5  -1   16.63    3.28
   5  -5  -1   76.33    6.53
  -5  -5   1   66.20    4.91
   5  -5  -1   70.77    4.33
  -5  -5   1   71.95    5.20
   5  -5  -1   84.31    5.77
  -5  -5   1   70.31    4.86
   5  -5  -1   69.26    3.65
   5   5  -1   60.76    4.92
   5   5  -1   77.87    5.06
   5   5  -1   69.22    5.18
   5   5  -1   74.17    5.35
  -4  -5   1   15.24    2.69
  -4  -5   1   15.78    2.54
   4  -5  -1    8.38    2.52
   4  -5  -1   13.86    2.76
  -4  -5   1   15.26    2.74
   4  -5  -1   12.75    1.87
   4   5  -1   10.74    2.35
   4   5  -1    7.51    1.89
   4   5  -1   13.21    2.33
   4   5  -1   12.59    2.56
  -3  -5   1   22.38    2.93
   3  -5  -1   23.52    2.18
   3  -5  -1   22.86    2.16
  -3  -5   1   24.14    3.13
   3  -5  -1   22.70    2.66
   3  -5  -1   25.05    2.94
  -3  -5   1   25.62    2.47
   3   5  -1   20.37    2.61
   3   5  -1   19.73    2.54
   3   5  -1   21.89    2.40
   3   5  -1   20.77    2.70
  -2  -5   1  334.29   10.36
  -2  -5   1  330.12    9.81
  -2  -5   1  317.15    9.32
   2  -5  -1  311.40    9.22
   2   5  -1  311.64   10.07
   2   5  -1  319.41    9.39
   2   5  -1  296.79    9.60
   2   5  -1  313.79    9.68
   1  -5  -1  437.37   11.88
   1  -5  -1  423.58   11.14
  -1  -5   1  405.73   11.58
   1  -5  -1  458.64   10.38
  -1  -5   1  448.79   11.81
  -1  -5   1  444.97   12.27
  -1  -5   1  430.91   11.69
   1   5  -1  428.35   11.55
   1   5  -1  416.81   11.50
   1   5  -1  431.45   12.19
   1   5  -1  419.79   11.62
  -1   5   1  424.62   11.88
   0  -5   1  169.36    6.09
   0  -5   1  171.98    5.85
   0  -5   1  167.87    6.06
   0  -5  -1  172.96    5.45
   0  -5  -1  163.00    4.86
   0  -5  -1  165.38    6.27
   0   5  -1  162.88    5.95
   0   5   1  172.06    5.31
   0   5  -1  167.60    6.01
   0   5   1  174.40    4.88
   0   5  -1  171.39    5.70
   0   5   1  178.55    5.34
   0   5   1  170.64    6.43
  -1  -5  -1   30.87    2.82
   1  -5   1   30.28    2.23
   1  -5   1   28.91    2.72
  -1  -5  -1   30.10    2.56
   1  -5   1   28.62    2.13
  -1  -5  -1   29.81    1.51
  -1   5  -1   29.11    1.93
   1   5   1   27.84    1.46
  -1   5  -1   30.35    2.68
  -1   5  -1   27.24    2.15
   1   5   1   28.54    2.70
  -1   5  -1   30.34    2.00
  -2  -5  -1  106.25    5.27
   2  -5   1  105.53    3.85
  -2  -5  -1  109.49    5.08
   2  -5   1  108.10    4.24
   2  -5   1  102.06    5.34
  -2  -5  -1  107.55    3.70
   2   5   1  106.90    3.76
  -2   5  -1  109.81    5.40
   2   5   1  109.91    5.34
  -2   5  -1  105.90    3.89
   2   5   1  104.30    4.95
  -2   5  -1  102.67    3.77
   3  -5   1   98.75    3.30
  -3  -5  -1   92.72    5.18
  -3  -5  -1   89.45    5.05
   3  -5   1   90.05    5.45
   3  -5   1   96.42    4.24
   3  -5   1   96.18    3.29
   3   5   1   98.90    5.32
   3   5   1   98.07    5.31
   3   5   1   93.89    4.13
   4  -5   1   94.14    6.07
   4  -5   1   87.92    4.45
  -4  -5  -1   84.32    5.38
  -4  -5  -1   90.40    5.41
   4   5   1   85.05    4.93
   4   5   1  100.95    5.94
   4   5   1   96.15    5.55
   5  -5   1   94.37    6.71
  -5  -5  -1   87.81    5.74
  -5  -5  -1   90.00    5.94
   5  -5   1   86.02    4.86
   5   5   1   94.52    6.31
   5   5   1  104.43    6.05
   5   5   1   95.28    5.37
   6  -5   1   -2.76    1.51
  -6  -5  -1   -3.26    1.57
   6  -5   1    0.12    1.18
   6   5   1   -4.00    2.92
   6   5   1   -1.25    1.36
   6   5   1   -1.38    1.25
   7  -6  -1   21.04    4.38
   6  -6  -1    7.41    1.39
  -6  -6   1    9.86    3.29
   6  -6  -1    7.33    1.47
  -6  -6   1    5.07    2.14
   6  -6  -1    3.36    2.22
   6  -6  -1    4.86    1.36
   6   6  -1    9.68    2.64
   6   6  -1    1.48    1.88
   6   6  -1   13.60    3.15
   6   6  -1    9.69    2.60
   5  -6  -1    8.18    2.51
   5  -6  -1    7.93    1.60
  -5  -6   1    9.64    2.27
  -5  -6   1   10.75    2.72
   5  -6  -1    9.23    3.00
   5  -6  -1    6.54    1.40
  -5  -6   1    8.99    2.56
   5   6  -1    9.20    2.67
   5   6  -1    9.56    2.55
   5   6  -1    8.87    2.59
   5   6  -1   10.66    3.60
   4  -6  -1    5.06    1.45
   4  -6  -1    4.63    1.93
   4  -6  -1    6.64    2.09
   4  -6  -1    4.24    1.31
  -4  -6   1    4.94    1.76
  -4  -6   1    9.28    2.50
  -4  -6   1    7.54    2.02
   4   6  -1    4.41    1.83
   4   6  -1    4.31    1.56
   4   6  -1    3.97    1.83
   4   6  -1    4.09    1.83
  -3  -6   1  192.42    8.04
   3  -6  -1  179.52    6.66
  -3  -6   1  183.84    6.97
   3  -6  -1  182.14    7.52
   3  -6  -1  185.69    7.64
  -3  -6   1  184.16    7.60
   3   6  -1  184.23    8.00
   3   6  -1  189.22    7.09
   3   6  -1  195.29    7.77
   3   6  -1  204.71    8.34
  -2  -6   1  273.82    9.65
   2  -6  -1  275.93    8.74
   2  -6  -1  274.30    8.93
  -2  -6   1  260.65    8.97
  -2  -6   1  278.00    8.64
   2   6  -1  267.09    8.57
   2   6  -1  277.04    9.66
   2   6  -1  266.33    9.00
  -2   6   1  280.90    8.93
  -1  -6   1   20.10    2.27
  -1  -6   1   15.56    2.31
   1  -6  -1   16.95    2.29
   1  -6  -1   18.09    1.87
  -1  -6   1   17.81    2.16
   1  -6  -1   21.41    1.66
  -1  -6   1   16.67    2.02
   1   6  -1   15.92    2.33
   1   6  -1   18.34    2.05
  -1   6   1   17.94    2.26
   0  -6  -1   19.40    2.54
   0  -6  -1   18.13    1.87
   0  -6   1   22.95    2.46
   0  -6  -1   22.47    1.66
   0  -6   1   21.91    2.07
   0  -6   1   22.12    2.81
   0   6  -1   16.87    2.16
   0   6   1   21.05    2.49
   0   6   1   18.37    1.79
   0   6  -1   21.97    1.99
   0   6   1   20.80    1.61
   0   6  -1   19.49    2.35
   0   6   1   18.53    1.74
   0   6  -1   15.21    1.83
  -1  -6  -1   14.54    1.22
  -1  -6  -1   18.45    2.66
   1  -6   1   16.97    2.60
  -1  -6  -1   14.47    2.03
   1  -6   1   13.52    1.87
   1  -6   1   13.38    1.72
  -1   6  -1   15.23    1.61
   1   6   1   10.97    2.16
   1   6   1   14.69    1.99
  -1   6  -1   13.68    1.58
   1   6   1   14.56    1.24
  -1   6  -1   13.27    1.87
  -1   6  -1   14.96    2.46
  -2  -6  -1  111.37    5.68
  -2  -6  -1  111.40    3.85
  -2  -6  -1  115.66    5.43
   2  -6   1  113.96    5.87
   2  -6   1  116.36    4.50
   2  -6   1  111.28    4.53
  -2   6  -1  111.37    4.47
   2   6   1  114.42    3.95
   2   6   1  116.16    5.44
  -2   6  -1  116.65    5.78
   2   6   1  112.54    5.73
   3  -6   1  245.45    6.95
  -3  -6  -1  235.76    9.28
   3  -6   1  240.60    9.70
  -3  -6  -1  239.98    7.34
  -3  -6  -1  249.39    9.27
   3  -6   1  237.58    7.70
   3   6   1  236.85    9.11
   3   6   1  238.03    9.35
   3   6   1  237.90    7.42
  -4  -6  -1  336.88   12.10
   4  -6   1  362.66   17.83
   4  -6   1  340.64    8.28
   4  -6   1  325.10    8.14
   4   6   1  337.79   12.10
   4   6   1  332.92   12.23
   4   6   1  339.18   10.43
   5  -6   1    0.59    1.89
  -5  -6  -1   -2.67    1.25
   5  -6   1   -0.49    0.95
   5   6   1    0.12    1.56
   5   6   1   -1.18    1.36
   5   6   1   -0.52    1.11
   6  -6   1   20.09    4.02
   6  -6   1   30.90    3.11
   6   6   1   38.57    4.32
   6   6   1   28.92    3.74
   6   6   1   29.01    3.67
   6   6   1   24.51    5.64
  -6  -7   1    3.14    2.08
   6  -7  -1    0.50    1.46
  -6  -7   1    1.59    1.79
   6  -7  -1    2.33    2.07
   6  -7  -1    2.45    1.05
   6   7  -1    1.80    1.78
   6   7  -1    7.08    2.36
   6   7  -1    3.62    1.88
   6   7  -1    2.81    1.75
   5  -7  -1    4.13    2.06
   5  -7  -1    5.43    1.47
  -5  -7   1    3.76    2.76
   5  -7  -1    4.61    1.37
  -5  -7   1    4.31    1.83
  -5  -7   1    6.90    1.98
   5   7  -1    4.46    2.19
   5   7  -1    6.15    2.04
   5   7  -1    5.70    1.79
   5   7  -1    4.67    1.86
   4  -7  -1  285.36   10.94
  -4  -7   1  296.58   12.91
  -4  -7   1  271.72    9.70
  -4  -7   1  260.15   10.54
   4  -7  -1  276.60    9.20
   4  -7  -1  272.26   11.01
   4  -7  -1  303.64    9.48
   4   7  -1  277.95   12.16
   4   7  -1  284.09    9.94
   4   7  -1  272.21   10.78
   4   7  -1  286.22   10.95
   3  -7  -1    2.13    1.39
  -3  -7   1    1.75    1.21
   3  -7  -1    0.94    1.10
  -3  -7   1    1.87    1.57
   3  -7  -1    2.05    1.39
  -3  -7   1    2.11    1.22
   3   7  -1    0.16    1.17
   3   7  -1    2.00    1.64
   3   7  -1    0.70    1.15
  -2  -7   1  116.90    5.62
   2  -7  -1  109.12    5.31
   2  -7  -1  114.13    5.34
  -2  -7   1  113.60    5.16
  -2  -7   1  117.81    6.17
   2   7  -1  116.28    6.03
   2   7  -1  117.77    5.63
   2   7  -1  109.94    5.47
  -2   7   1  117.52    5.54
   2   7  -1  117.67    5.15
  -1  -7   1  109.48    7.58
   1  -7  -1  107.22    5.29
   1  -7  -1  104.03    4.59
  -1  -7   1  115.26    5.12
   1  -7  -1  103.82    4.10
  -1  -7   1  112.31    5.63
   1   7  -1  100.82    5.41
  -1   7   1  109.44    5.43
   1   7  -1  110.00    4.92
   1   7  -1  107.35    5.02
   0  -7   1  222.79    8.18
   0  -7  -1  228.39    7.37
   0  -7  -1  229.28    6.87
   0  -7   1  220.97    7.55
   0  -7   1  236.19    8.18
   0  -7  -1  217.08    8.37
   0   7   1  227.70    8.60
   0   7  -1  228.75    8.22
   0   7  -1  220.47    7.24
   0   7  -1  221.99    7.86
   0   7   1  229.35    7.06
   0   7   1  221.56    7.00
   0   7   1  223.41    6.67
   0   7  -1  230.38    7.53
  -1  -7  -1   30.20    3.15
   1  -7   1   30.17    3.05
  -1  -7  -1   31.16    1.87
   1  -7   1   30.54    2.47
   1  -7   1   30.44    2.69
  -1  -7  -1   29.16    2.67
  -1   7  -1   26.83    2.67
   1   7   1   30.32    2.68
   1   7   1   31.53    2.72
  -1   7  -1   27.80    2.91
  -1   7  -1   31.68    2.27
  -1   7  -1   31.79    2.23
   1   7   1   30.79    1.86
   1   7   1   31.08    3.21
  -2  -7  -1   12.71    2.64
   2  -7   1   15.25    1.79
   2  -7   1   15.19    2.69
   2  -7   1   13.02    1.90
  -2  -7  -1   14.67    2.51
  -2  -7  -1   13.55    1.36
   2   7   1   16.16    2.89
  -2   7  -1   13.55    2.39
   2   7   1    7.34    1.78
   2   7   1   13.21    1.37
  -2   7  -1   11.65    2.32
   2   7   1   13.77    2.42
   3  -7   1  191.89    6.76
  -3  -7  -1  195.38    8.67
  -3  -7  -1  185.56    8.11
   3  -7   1  176.48    8.51
   3  -7   1  187.80    6.29
  -3  -7  -1  181.57    6.09
   3   7   1  199.19    8.67
   3   7   1  200.10    8.32
   3   7   1  192.37    6.29
   4  -7   1    2.74    0.81
   4  -7   1    1.74    1.15
   4  -7   1    4.04    2.14
  -4  -7  -1    2.65    1.85
   4  -7   1    1.17    0.77
  -4  -7  -1   -2.24    1.44
   4   7   1    0.50    1.43
   4   7   1    1.97    1.04
   5  -7   1    5.43    2.46
   5  -7   1    3.64    1.46
  -5  -7  -1    1.33    1.67
   5   7   1    4.31    2.26
   5   7   1    3.57    1.85
   5   7   1    4.18    1.53
   6  -7   1   54.95    4.06
   6  -7   1   59.56    6.27
   6   7   1   57.81    4.68
   6   7   1   64.63    5.01
   6   7   1   55.87    6.69
   6   7   1   57.11    5.21
   6   7   1   55.02    5.65
   6  -8  -1    7.81    1.53
  -6  -8   1    8.21    2.48
   6  -8  -1   11.98    2.30
   6   8  -1   12.18    2.63
   6   8  -1    2.59    2.13
   6   8  -1    5.78    2.52
   6   8  -1    7.49    2.57
  -5  -8   1   30.37    3.34
  -5  -8   1   29.22    3.82
   5  -8  -1   16.62    3.55
   5  -8  -1   27.67    2.69
   5  -8  -1   26.47    2.81
   5   8  -1   27.40    4.30
   5   8  -1   29.54    3.20
   5   8  -1   18.99    3.74
   5   8  -1   32.33    4.63
  -4  -8   1    4.33    2.22
   4  -8  -1    9.11    3.61
   4  -8  -1   11.57    2.03
   4  -8  -1    6.39    1.65
  -4  -8   1    9.36    2.23
   4  -8  -1    4.41    1.97
  -4  -8   1    8.36    2.73
   4   8  -1    5.35    2.24
   4   8  -1    6.80    2.03
   4   8  -1    6.78    2.35
   4   8  -1    9.60    2.05
  -3  -8   1   78.82    4.55
   3  -8  -1   82.00    5.28
  -3  -8   1   76.48    5.20
   3  -8  -1   73.47    4.53
   3  -8  -1   79.42    5.08
   3   8  -1   85.77    4.69
   3   8  -1   90.20    5.96
   3   8  -1   78.80    5.26
   3   8  -1   83.74    5.40
  -2  -8   1   56.32    4.60
   2  -8  -1   57.17    4.06
  -2  -8   1   59.91    3.81
   2  -8  -1   60.06    4.07
  -2  -8   1   57.76    4.19
   2   8  -1   60.45    4.20
  -2   8   1   58.76    4.18
   2   8  -1   58.72    4.63
   2   8  -1   61.53    4.24
   2   8  -1   61.09    3.79
  -1  -8   1   97.13    5.69
   1  -8  -1   88.58    5.31
  -1  -8   1  103.31    5.12
   1  -8  -1  105.01    4.33
  -1  -8   1   87.54    4.86
   1  -8  -1  104.00    4.74
   1   8  -1   99.79    4.95
  -1   8   1   95.74    5.40
   1   8  -1   98.55    4.87
   1   8  -1   97.13    5.59
   1   8  -1   97.56    4.94
   0  -8  -1  457.79   11.92
   0  -8  -1  432.69   12.40
   0  -8   1  419.56   12.66
   0  -8   1  455.01   13.42
   0  -8  -1  438.35   13.87
   0  -8   1  458.19   13.77
   0   8   1  434.56   11.60
   0   8  -1  469.95   12.76
   0   8  -1  433.84   13.51
   0   8   1  445.76   14.10
   0   8  -1  430.91   12.26
   0   8   1  456.37   12.14
   0   8  -1  439.93   13.10
   0   8   1  438.81   11.95
   1  -8   1  146.29    6.72
  -1  -8  -1  140.22    4.66
  -1  -8  -1  134.77    6.85
   1  -8   1  140.94    6.23
  -1  -8  -1  130.58    6.04
   1  -8   1  133.62    5.56
   1   8   1  130.95    5.79
  -1   8  -1  138.99    5.25
  -1   8  -1  146.77    5.17
   1   8   1  138.45    5.90
   1   8   1  126.93    6.78
  -1   8  -1  142.48    6.31
   1   8   1  138.53    4.58
  -1   8  -1  129.17    6.33
   2  -8   1   73.83    3.87
   2  -8   1   71.81    5.04
  -2  -8  -1   73.74    4.72
   2  -8   1   74.07    4.27
  -2  -8  -1   68.03    2.97
  -2  -8  -1   74.82    5.30
   2   8   1   68.66    4.52
   2   8   1   69.50    5.21
   2   8   1   75.01    4.66
  -2   8  -1   75.64    4.26
  -2   8  -1   70.00    4.87
   2   8   1   72.47    3.05
  -3  -8  -1   20.25    2.95
  -3  -8  -1   25.18    1.99
  -3  -8  -1   21.56    3.61
   3  -8   1   22.24    2.39
   3  -8   1   29.60    2.60
   3  -8   1   25.64    4.16
   3   8   1   26.94    4.54
   3   8   1   24.33    2.01
   3   8   1   20.74    3.18
   3   8   1   29.40    3.39
   4  -8   1   40.04    3.02
   4  -8   1   30.29    2.21
   4  -8   1   37.07    4.64
   4  -8   1   27.59    2.24
  -4  -8  -1   35.35    3.86
   4   8   1   35.94    6.99
   4   8   1   33.89    2.69
   4   8   1   37.45    4.53
   5  -8   1   -0.85    1.78
  -5  -8  -1   -1.77    1.60
   5  -8   1    1.51    1.02
   5   8   1    1.80    1.69
   5   8   1    1.60    2.14
   5   8   1    2.34    1.24
   5   8   1    3.78    2.33
   5  -9  -1   10.79    2.04
   5  -9  -1    5.42    1.65
  -5  -9   1   10.60    2.37
  -5  -9   1    3.39    2.03
   5  -9  -1    9.22    2.94
   5   9  -1    7.31    2.10
   5   9  -1    3.96    1.99
   5   9  -1    6.96    1.95
   5   9  -1   10.75    2.99
   4  -9  -1    7.60    2.64
   4  -9  -1    6.74    1.83
   4  -9  -1    5.97    1.78
   4  -9  -1    1.59    1.75
  -4  -9   1    4.60    1.54
  -4  -9   1    5.67    2.05
   4   9  -1    7.52    1.89
   4   9  -1    5.55    2.36
   4   9  -1    5.52    2.13
   4   9  -1    2.34    1.81
  -3  -9   1  103.55    5.38
   3  -9  -1  113.66    6.34
  -3  -9   1  106.37    6.91
   3  -9  -1  104.29    5.66
   3  -9  -1  119.69    6.38
  -3  -9   1  113.70    6.56
   3   9  -1  100.01    6.65
   3   9  -1  116.60    9.54
   3   9  -1  112.69    5.48
   3   9  -1  106.12    6.27
  -2  -9   1  117.68    7.11
   2  -9  -1  125.60    6.08
   2  -9  -1  124.17    6.34
  -2  -9   1  123.05    5.76
  -2  -9   1  113.26    6.26
   2   9  -1  118.34    5.59
   2   9  -1  117.09    6.14
   2   9  -1  123.75    7.88
  -2   9   1  122.60    6.40
   2   9  -1  118.33    6.23
  -1  -9   1   39.29    4.01
  -1  -9   1   43.43    3.46
   1  -9  -1   37.98    3.10
   1  -9  -1   39.42    3.89
   1   9  -1   37.85    3.28
   1   9  -1   37.69    3.94
  -1   9   1   42.45    4.05
   1   9  -1   37.46    3.38
   1   9  -1   40.99    3.24
   0  -9   1   60.19    4.64
   0  -9  -1   52.17    4.49
   0  -9   1   59.48    4.27
   0  -9   1   54.31    3.92
   0  -9  -1   65.89    3.88
   0  -9  -1   56.92    3.24
   0   9  -1   54.17    3.55
   0   9  -1   55.91    4.05
   0   9  -1   54.09    3.53
   0   9   1   51.70    3.33
   0   9   1   52.43    4.52
   0   9  -1   53.37    4.44
   0   9   1   57.94    3.20
   0   9   1   57.92    3.46
  -1  -9  -1   30.46    5.45
   1  -9   1   39.92    3.73
  -1  -9  -1   37.70    3.45
   1  -9   1   37.70    3.12
  -1  -9  -1   38.66    2.35
   1  -9   1   39.77    3.79
   1   9   1   38.89    4.24
  -1   9  -1   36.31    3.16
  -1   9  -1   41.59    3.69
   1   9   1   40.63    3.28
  -1   9  -1   34.59    3.57
   1   9   1   36.68    3.84
   1   9   1   34.82    2.26
  -1   9  -1   35.01    2.62
  -2  -9  -1   37.81    4.25
   2  -9   1   43.31    3.60
  -2  -9  -1   39.51    3.85
   2  -9   1   41.31    3.10
  -2  -9  -1   44.96    2.36
   2  -9   1   43.39    4.16
   2   9   1   37.50    4.12
   2   9   1   31.53    4.05
  -2   9  -1   40.91    3.47
  -2   9  -1   43.85    4.17
   2   9   1   40.02    2.28
   3  -9   1   13.10    3.18
  -3  -9  -1    9.84    2.49
  -3  -9  -1    8.19    1.33
   3  -9   1    9.56    1.80
   3  -9   1    4.91    1.67
   3   9   1    4.67    1.96
   3   9   1    8.07    1.30
   3   9   1    9.52    2.26
   3   9   1   10.36    2.77
   4  -9   1    7.24    2.68
  -4  -9  -1    3.30    1.79
   4  -9   1    7.75    1.61
   4  -9   1    6.37    1.37
   4  -9   1    3.71    1.38
   4   9   1    8.19    1.52
   4   9   1    7.32    2.42
   4   9   1    5.85    2.36
   4   9   1    4.80    2.42
  -5  -9  -1    8.31    2.18
   5  -9   1   13.58    5.16
   5   9   1    9.59    2.01
   5   9   1   12.27    3.01
   5   9   1    6.41    2.79
   5 -10  -1   -0.74    1.15
   5 -10  -1    1.08    1.69
  -5 -10   1    0.69    1.46
  -5 -10   1   -2.36    1.74
   5 -10  -1   -2.56    1.14
   5  10  -1    1.33    2.13
   5  10  -1    0.23    1.64
   5  10  -1    1.54    2.35
  -4 -10   1   -0.27    1.66
   4 -10  -1   -0.12    1.20
  -4 -10   1    1.61    1.40
   4 -10  -1   -0.02    1.10
   4 -10  -1    2.10    1.79
   4  10  -1    2.31    1.93
   4  10  -1    1.41    1.41
   4  10  -1    3.41    2.19
   3 -10  -1    6.06    1.97
   3 -10  -1    3.34    1.50
  -3 -10   1    4.59    1.52
  -3 -10   1    2.45    1.84
   3 -10  -1    4.30    2.10
   3  10  -1    2.73    2.07
   3  10  -1    6.11    2.17
   3  10  -1    3.22    1.83
   3  10  -1    4.11    1.48
  -2 -10   1    8.21    2.96
   2 -10  -1   10.68    2.22
  -2 -10   1    9.37    1.99
   2 -10  -1    4.12    1.80
  -2 -10   1    5.87    1.91
   2  10  -1    9.70    2.54
   2  10  -1    6.48    2.50
  -2  10   1    6.04    2.03
   2  10  -1   11.08    2.15
  -1 -10   1  124.09    7.26
  -1 -10   1  129.18    6.23
   1 -10  -1  134.01    5.96
  -1  10   1  124.58    7.05
   1  10  -1  120.60    7.19
   1  10  -1  119.11    5.99
   1  10  -1  121.77    5.97
   1  10  -1  130.09    6.33
   0 -10  -1    9.35    2.26
   0 -10  -1    5.54    2.07
   0 -10  -1   10.92    2.17
   0 -10   1   12.47    2.31
   0 -10   1    7.91    2.41
   0  10  -1    7.18    2.02
   0  10  -1    6.26    1.59
   0  10   1    6.61    1.64
   0  10   1   10.44    2.69
   0  10   1    9.52    1.99
   0  10  -1    7.59    2.14
   0  10  -1    7.69    1.77
  -1 -10  -1  189.14    8.03
   1 -10   1  186.36    7.54
  -1 -10  -1  216.74    6.44
  -1 -10  -1  175.81    8.86
   1 -10   1  181.68    8.34
   1 -10   1  213.57    8.91
   1  10   1  188.94    6.13
   1  10   1  196.94    9.50
   1  10   1  186.27    7.65
  -1  10  -1  194.62    8.55
  -1  10  -1  193.90    6.87
   1  10   1  193.31    7.77
  -1  10  -1  189.73    8.35
  -1  10  -1  190.53    8.72
  -2 -10  -1   27.74    3.89
   2 -10   1   26.58    2.69
   2 -10   1   24.99    4.63
  -2 -10  -1   24.19    1.73
   2 -10   1   19.28    2.84
  -2  10  -1   15.42    3.84
   2  10   1   25.49    4.13
   2  10   1   33.31    4.24
  -2  10  -1   21.52    2.86
   2  10   1   24.13    1.85
   3 -10   1   88.65    5.07
   3 -10   1  105.81    6.93
   3 -10   1   95.01    4.72
  -3 -10  -1   89.24    6.18
   3  10   1   94.22    3.59
   3  10   1   89.17    6.03
   3  10   1   87.11    6.57
   4 -10   1   24.46    4.30
   4 -10   1   20.97    2.39
  -4 -10  -1   21.76    4.02
   4  10   1   26.37    2.09
   4  10   1   23.02    4.19
   4  10   1   21.66    3.90
  -4 -11   1    9.93    2.72
   4 -11  -1    7.28    1.99
   4 -11  -1    3.53    1.80
  -4 -11   1    7.54    1.85
   4 -11  -1    3.70    1.91
   4  11  -1    8.50    3.15
   4  11  -1    5.66    2.42
   4  11  -1    1.37    1.66
   3 -11  -1    7.39    2.37
   3 -11  -1   10.46    2.47
   3 -11  -1    9.54    2.74
  -3 -11   1   13.23    3.01
  -3 -11   1   12.50    2.31
   3  11  -1    8.67    2.63
   3  11  -1   15.52    3.26
   3  11  -1   13.03    2.25
  -2 -11   1    2.27    1.37
   2 -11  -1   -2.76    1.24
   2 -11  -1    2.49    1.43
  -2 -11   1    1.17    1.10
   2  11  -1    0.89    1.64
  -2  11   1    0.11    1.45
   2  11  -1    0.88    1.38
   2  11  -1   -1.42    1.27
   1 -11  -1    2.35    1.13
  -1 -11   1    0.98    1.06
   1 -11  -1   -1.78    1.63
   1  11  -1    2.56    1.50
   1  11  -1    4.39    2.08
   1  11  -1    0.71    1.35
  -1  11   1    0.31    1.68
   0 -11  -1   59.22    3.56
   0 -11   1   57.62    4.50
   0 -11  -1   55.13    4.13
   0 -11   1   37.34    4.60
   0  11  -1   45.68    4.10
   0  11  -1   55.25    4.99
   0  11   1   52.55    5.04
   0  11   1   41.91    4.09
   0  11  -1   49.06    3.69
  -1 -11  -1   34.95    2.34
  -1 -11  -1   27.88    3.29
   1 -11   1   18.29    3.08
   1 -11   1   39.89    3.88
   1  11   1   21.61    3.66
  -1  11  -1   26.00    3.54
   1  11   1   27.62    3.22
  -1  11  -1   30.89    2.71
  -2 -11  -1    3.40    1.68
   2 -11   1   -0.44    1.04
   2 -11   1   -2.38    1.42
  -2 -11  -1    1.04    0.66
   2 -11   1    2.07    1.66
   2  11   1    3.60    2.38
  -2  11  -1    1.73    1.36
   2  11   1   -0.44    0.74
   2  11   1   -0.11    1.41
   3 -11   1   93.65    4.86
  -3 -11  -1   82.68    6.17
   3 -11   1   87.34    5.55
   3 -11   1   99.04    6.83
   3  11   1  105.87    7.33
   3  11   1  100.04    6.57
   3  11   1   88.85    3.11
  -3 -12   1    7.99    2.20
   3 -12  -1   11.10    2.50
  -3 -12   1    7.20    1.84
   3  12  -1    4.72    2.02
   3  12  -1    4.79    2.43
   3  12  -1    1.21    2.25
   2 -12  -1    7.83    1.95
   2 -12  -1    9.83    2.38
  -2 -12   1   12.80    2.35
   2  12  -1    7.97    2.50
  -2  12   1    9.59    2.46
   2  12  -1    6.07    1.99
   2  12  -1    5.59    2.07
  -1 -12   1    1.30    1.21
   1 -12  -1    3.35    1.36
   1  12  -1   -0.12    1.41
   1  12  -1    0.46    1.44
  -1  12   1   -0.01    1.66
   1  12  -1   -0.15    1.50
   0 -12   1   22.18    2.90
   0 -12  -1   22.93    2.44
   0  12   1   14.27    2.34
   0  12  -1   16.60    3.18
   0  12   1   17.50    3.37
   0  12  -1   15.32    2.90
   1 -12   1   49.32    4.42
  -1 -12  -1   45.58    4.22
  -1 -12  -1   44.00    2.64
   1  12   1   38.02    3.88
  -1  12  -1   43.64    4.50
  -1  12  -1   39.55    4.38
   1  12   1   41.61    4.83
  -2 -12  -1    4.52    0.85
  -2 -12  -1    5.12    1.97
   2 -12   1    7.22    2.09
  -2  12  -1    6.28    1.84
   2  12   1    4.20    2.05
   2  12   1    8.53    3.68
   3 -12   1   13.86    2.95
  -1 -13   1   28.41    3.36
   1 -13  -1   24.34    3.06
   1 -13  -1   30.77    3.18
   1  13  -1   23.60    4.51
   1  13  -1   15.72    3.07
  -1  13   1   19.25    3.62
   1  13  -1   18.41    3.49
   0 -13   1   28.14    3.42
   0 -13  -1   33.11    2.81
   0  13  -1   24.06    3.25
   0  13   1   22.18    4.60
   0  13  -1   23.78    3.89
   0  13  -1   17.23    3.03
   0  13   1   22.32    3.03
  -1 -13  -1   15.37    2.91
   1 -13   1   14.32    2.86
  -1 -13  -1   15.11    1.74
   1  13   1    5.68    3.68
   1  13   1   15.22    3.20
  -1  13  -1   16.38    3.12
  -7   0   2   48.92    4.10
   7   0  -2   46.80    4.26
   7   0  -2   55.20    4.33
   7   0  -2   52.90    4.45
  -6   0   2   11.37    2.16
   6   0  -2   12.09    2.30
   6   0  -2   10.30    2.18
  -6   0   2   14.25    2.24
   6   0  -2    9.83    2.73
   5   0  -2   60.14    3.82
  -5   0   2   54.53    3.36
  -5   0   2   57.85    3.86
   5   0  -2   52.90    4.36
   5   0  -2   56.41    3.87
  -5   0   2   54.09    4.45
  -4   0   2  155.43    6.16
   4   0  -2  157.03    6.78
  -4   0   2  156.23    5.56
   4   0  -2  151.84    6.05
  -4   0   2  159.44    6.81
   4   0  -2  151.11    5.68
   3   0  -2   37.52    2.36
   3   0  -2   37.35    2.98
   3   0  -2   41.97    2.80
  -3   0   2   40.30    2.77
   3   0  -2   34.69    2.94
  -3   0   2   41.12    3.14
   2   0  -2    6.81    1.08
  -2   0   2    7.28    1.47
   2   0  -2    7.09    1.06
  -2   0   2    9.01    1.48
   2   0  -2   10.41    1.73
   2   0  -2    8.52    1.40
   1   0  -2 9999.00  226.01
  -1   0   2 9948.18  225.58
   0   0   2   70.75    2.85
   0   0  -2   72.71    2.69
   0   0  -2   78.41    2.92
   0   0   2   72.03    2.95
   0   0  -2   69.98    2.88
   1   0   2  143.14    4.77
  -1   0  -2  141.84    4.71
   1   0   2  145.13    4.96
  -1   0  -2  137.15    4.81
  -1   0  -2  140.52    3.99
   2   0   2  109.50    4.57
   2   0   2   99.76    4.42
  -2   0  -2   93.90    3.12
  -2   0  -2  100.30    4.38
   2   0   2   98.68    3.17
   3   0   2  174.13    5.00
  -3   0  -2  166.63    4.93
   3   0   2  180.28    6.91
  -3   0  -2  181.33    7.63
   3   0   2  177.54    6.83
   4   0   2    2.33    1.51
   4   0   2    3.34    1.49
  -4   0  -2    5.70    1.44
   4   0   2    3.74    1.58
   4   0   2    4.09    0.92
  -4   0  -2    5.74    0.98
   5   0   2    3.48    1.87
   5   0   2    4.27    2.06
   5   0   2    5.03    0.99
   5   0   2    2.12    1.63
  -5   0  -2    5.22    0.97
  -5   0  -2    2.94    1.46
   6   0   2    4.71    2.04
  -6   0  -2    7.30    1.10
   6   0   2   11.78    1.34
   6   0   2    6.59    2.38
   7  -1  -2   19.05    2.89
  -7  -1   2   26.19    3.57
   7  -1  -2   30.44    3.42
   7   1  -2   28.32    3.49
   7   1  -2   28.60    3.71
   7   1  -2   20.88    3.22
  -7   1   2   30.54    3.23
  -6  -1   2    0.69    1.20
   6  -1  -2    3.41    1.47
   6  -1  -2    1.46    1.59
   6  -1  -2    2.93    1.41
  -6  -1   2    2.93    1.32
   6   1  -2    3.81    1.96
  -6   1   2    2.05    1.29
   6   1  -2    2.28    1.61
  -6   1   2    2.06    1.17
   6   1  -2    1.97    1.53
   5  -1  -2   17.97    2.97
   5  -1  -2   21.17    2.46
   5  -1  -2   22.77    2.65
  -5  -1   2   19.35    2.36
  -5  -1   2   25.57    2.90
  -5  -1   2   22.98    3.46
   5   1  -2   23.24    2.90
   5   1  -2   21.25    2.67
   5   1  -2   15.60    2.74
  -5   1   2   20.77    2.06
   5   1  -2   23.59    2.68
  -5   1   2   23.79    2.57
   4  -1  -2  329.72    9.27
  -4  -1   2  331.52    9.78
   4  -1  -2  328.43   10.88
  -4  -1   2  323.74   10.21
  -4  -1   2  326.78   10.81
   4  -1  -2  326.50    9.88
  -4   1   2  329.33   10.92
   4   1  -2  339.62   10.00
  -4   1   2  327.08    9.88
  -4   1   2  320.76    8.90
   4   1  -2  344.49   10.03
   4   1  -2  327.33   10.24
   4   1  -2  323.01   10.78
  -3  -1   2    9.25    1.80
  -3  -1   2   10.73    1.73
   3  -1  -2   11.11    1.98
   3  -1  -2   12.17    1.47
  -3  -1   2   14.08    1.82
   3  -1  -2   13.65    1.51
   3  -1  -2   13.62    1.79
   3   1  -2   11.28    1.64
  -3   1   2   10.06    1.61
  -3   1   2   11.84    2.00
   3   1  -2   13.77    1.88
   3   1  -2   12.78    1.92
   3   1  -2   11.61    1.98
   2  -1  -2  228.07    7.03
   2  -1  -2  234.25    6.01
  -2  -1   2  232.35    7.21
   2  -1  -2  235.23    6.97
  -2  -1   2  235.43    7.11
   2   1  -2  231.76    7.20
  -2   1   2  228.28    6.84
   2   1  -2  229.59    6.64
   2   1  -2  226.65    6.68
   2   1  -2  236.02    7.08
  -2   1   2  228.08    7.03
  -1  -1   2    0.23    0.72
  -1  -1   2   -0.02    0.77
   1  -1  -2   -0.23    0.63
   1  -1  -2    0.76    0.55
   1  -1  -2    0.43    0.81
  -1  -1   2    0.45    0.94
  -1   1   2    1.00    0.57
  -1   1   2    0.12    0.78
   1   1  -2    0.64    0.87
  -1   1   2    1.77    0.78
   1   1  -2    1.59    0.80
   1   1  -2    0.54    0.87
   0  -1   2   64.51    3.00
   0  -1  -2   68.44    2.42
   0  -1  -2   68.07    2.83
   0  -1   2   61.18    2.46
   0  -1  -2   66.66    2.73
   0  -1   2   67.46    2.89
   0   1  -2   64.16    2.85
   0   1   2   63.91    2.38
   0   1   2   70.39    2.78
   0   1  -2   69.31    2.57
   0   1  -2   63.29    2.97
  -1  -1  -2    4.85    0.98
   1  -1   2    6.21    1.28
  -1  -1  -2    4.48    0.94
   1  -1   2    6.75    1.48
  -1  -1  -2    4.03    1.19
   1   1   2    5.81    1.07
  -1   1  -2    6.05    1.34
  -1   1  -2    4.69    0.61
   1   1   2    2.63    0.97
   1   1   2    4.27    0.98
  -1   1  -2    4.17    0.98
  -1   1  -2    4.99    0.61
   2  -1   2  297.23    9.18
  -2  -1  -2  302.69    8.95
   2  -1   2  310.91    8.97
  -2  -1  -2  299.41    7.93
   2   1   2  300.27    8.55
   2   1   2  303.38    7.97
  -2   1  -2  254.46    6.41
  -2   1  -2  303.10    8.77
  -2   1  -2  305.76    9.17
   2   1   2  302.63    9.07
   3  -1   2 1021.77   25.07
   3  -1   2  994.46   24.33
  -3  -1  -2 1000.28   24.45
  -3  -1  -2  963.53   22.78
   3   1   2  989.23   24.09
   3   1   2  975.96   22.82
   3   1   2 1037.81   24.85
   3   1   2 1009.12   24.34
  -3   1  -2  996.93   24.06
   4  -1   2   31.88    3.13
   4  -1   2   32.87    3.31
   4  -1   2   28.24    3.30
   4  -1   2   28.79    1.17
  -4  -1  -2   35.05    3.30
  -4  -1  -2   30.07    2.26
   4   1   2   31.21    3.25
  -4   1  -2   28.74    2.82
   4   1   2   28.97    2.28
   4   1   2   31.51    3.20
   4   1   2   31.88    3.37
  -5  -1  -2   -0.38    0.83
   5  -1   2    3.85    2.52
   5  -1   2    0.62    1.41
   5  -1   2    0.45    1.55
   5   1   2    0.77    1.42
   5   1   2    0.05    1.46
   5   1   2   -0.93    1.11
  -5   1  -2   -0.84    1.05
   5   1   2    1.39    1.00
  -6  -1  -2   -0.32    0.89
   6  -1   2    0.68    1.86
   6  -1   2    0.83    1.68
   6   1   2    2.56    1.35
   6   1   2    1.45    2.03
   6   1   2   -1.44    1.43
   7  -2  -2   10.31    2.15
   7  -2  -2   11.36    3.34
  -7  -2   2   19.49    3.39
   7  -2  -2   15.70    2.56
   7   2  -2   11.57    2.63
   7   2  -2   10.21    2.33
   7   2  -2   15.20    4.40
  -6  -2   2   10.00    2.34
   6  -2  -2    8.73    2.04
  -6  -2   2    8.01    2.69
  -6  -2   2    3.06    1.47
   6  -2  -2    7.29    2.32
   6  -2  -2    8.03    1.90
   6   2  -2    7.48    2.07
   6   2  -2    6.20    1.97
   6   2  -2   11.22    2.78
   6   2  -2   10.41    2.74
  -6   2   2    8.01    1.86
   5  -2  -2    2.23    1.46
   5  -2  -2    2.58    1.15
  -5  -2   2    4.14    1.50
  -5  -2   2    5.05    1.93
   5  -2  -2    5.47    1.56
  -5  -2   2    4.27    1.65
   5   2  -2    5.07    1.69
   5   2  -2    4.06    1.46
   5   2  -2    4.26    1.70
  -5   2   2    3.57    1.45
   5   2  -2    6.47    1.87
   4  -2  -2   83.36    4.89
  -4  -2   2   83.38    4.29
   4  -2  -2   84.66    4.19
  -4  -2   2   83.50    4.81
  -4  -2   2   89.43    4.69
   4  -2  -2   83.81    3.55
  -4   2   2   84.95    4.15
   4   2  -2   91.10    4.55
   4   2  -2   89.21    4.75
   4   2  -2   85.67    4.86
   4   2  -2   87.28    4.49
  -3  -2   2  148.18    5.61
   3  -2  -2  157.06    4.49
  -3  -2   2  147.83    5.91
  -3  -2   2  157.43    6.15
   3  -2  -2  151.49    6.07
   3  -2  -2  150.75    5.55
   3   2  -2  157.05    5.72
   3   2  -2  147.62    5.65
   3   2  -2  155.07    5.98
  -3   2   2  151.03    6.06
   3   2  -2  149.85    6.06
  -3   2   2  141.24    5.37
   2  -2  -2 3112.49   76.11
  -2  -2   2 3239.68   96.19
  -2   2   2 3253.28   75.89
   2   2  -2 3139.62   95.62
  -1  -2   2    0.31    0.91
  -1  -2   2    0.75    0.85
   1  -2  -2   -0.02    0.49
   1  -2  -2   -0.23    0.71
  -1  -2   2    0.09    0.71
   1  -2  -2   -0.28    0.52
   1   2  -2    0.21    0.88
  -1   2   2    0.01    0.61
   1   2  -2   -0.24    0.67
  -1   2   2   -0.22    0.42
   1   2  -2    0.97    0.85
   0  -2  -2  135.33    3.55
   0  -2  -2  141.94    4.72
   0  -2   2  133.13    4.65
   0  -2   2  137.20    4.95
   0  -2  -2  140.45    4.38
   0  -2   2  129.84    4.15
   0   2  -2  146.09    4.27
   0   2  -2  128.68    4.58
   0   2  -2  131.06    4.83
   0   2   2  137.72    3.48
   0   2   2  140.51    4.69
  -1  -2  -2   92.52    3.73
   1  -2   2   96.11    3.91
   1  -2   2   86.66    2.58
   1  -2   2   86.61    4.13
  -1  -2  -2   86.61    3.82
  -1   2  -2   86.45    3.70
   1   2   2   91.11    2.98
   1   2   2   95.56    3.96
   1   2   2   91.17    3.71
  -1   2  -2   96.18    4.24
  -1   2  -2   95.25    2.64
   2  -2   2   15.97    2.10
  -2  -2  -2   13.95    1.78
  -2  -2  -2   14.59    2.11
   2  -2   2   17.21    2.54
   2   2   2   15.04    1.70
  -2   2  -2   16.51    2.42
   2   2   2   15.29    1.83
   2   2   2   17.83    2.44
   2   2   2   12.67    1.55
  -2   2  -2   10.60    1.60
  -3  -2  -2   99.86    4.35
   3  -2   2  102.57    5.48
  -3  -2  -2  102.73    5.05
   3  -2   2  100.42    4.85
   3   2   2  101.77    4.59
  -3   2  -2   96.97    4.54
   3   2   2  109.36    4.48
   3   2   2  107.70    7.08
   3   2   2  104.59    6.11
  -4  -2  -2  103.30    5.54
   4  -2   2   99.73    5.81
   4  -2   2   94.31    5.80
  -4  -2  -2  103.37    4.65
   4  -2   2   96.89    5.23
   4   2   2  101.55    5.24
   4   2   2  101.06    5.35
  -4   2  -2  102.02    4.98
   4   2   2  107.91    4.72
   4   2   2  109.71    5.89
   5  -2   2   23.81    3.91
   5  -2   2   25.62    3.31
  -5  -2  -2   22.33    4.09
  -5  -2  -2   27.25    3.48
   5  -2   2   21.44    3.40
   5   2   2   28.63    3.31
  -5   2  -2   29.37    3.04
   5   2   2   31.98    3.90
   5   2   2   26.68    2.69
   5   2   2   26.55    3.55
   6  -2   2    0.14    1.90
  -6  -2  -2    0.35    1.23
   6  -2   2    1.50    1.60
   6   2   2    1.67    1.73
   6   2   2    1.28    1.77
   6   2   2    4.91    2.22
   6   2   2    2.24    1.15
   7  -3  -2   14.97    2.48
  -7  -3   2   16.18    3.03
   7  -3  -2    9.27    2.94
   7  -3  -2   12.84    2.29
   7   3  -2   16.56    3.37
   7   3  -2   15.02    3.11
   7   3  -2   15.42    3.11
  -6  -3   2   67.29    4.90
   6  -3  -2   68.12    4.18
   6  -3  -2   58.56    3.83
   6  -3  -2   59.69    5.36
  -6  -3   2   69.85    4.82
   6  -3  -2   57.37    5.13
  -6  -3   2   63.26    5.94
   6   3  -2   69.17    5.10
   6   3  -2   57.07    4.72
   6   3  -2   65.34    5.18
   6   3  -2   69.57    5.10
  -5  -3   2   27.88    3.19
  -5  -3   2   32.00    3.24
   5  -3  -2   32.19    3.57
   5  -3  -2   31.75    2.53
  -5  -3   2   31.50    3.62
   5  -3  -2   32.94    2.93
   5   3  -2   36.05    3.44
   5   3  -2   32.98    3.51
   5   3  -2   31.72    3.59
   5   3  -2   33.28    3.47
  -4  -3   2   58.42    4.15
   4  -3  -2   57.75    4.19
  -4  -3   2   55.94    3.91
  -4  -3   2   65.54    4.00
   4  -3  -2   66.03    3.69
   4   3  -2   63.64    4.24
   4   3  -2   62.07    4.02
   4   3  -2   59.09    4.08
   4   3  -2   62.19    4.00
   3  -3  -2  173.98    6.63
  -3  -3   2  166.53    6.54
  -3  -3   2  182.24    6.88
  -3  -3   2  168.31    6.36
   3  -3  -2  167.12    6.01
   3   3  -2  166.17    6.36
   3   3  -2  168.40    6.71
   3   3  -2  165.40    6.33
   3   3  -2  175.39    6.68
  -2  -3   2  326.40    9.71
   2  -3  -2  320.12    9.26
  -2  -3   2  340.30    9.60
  -2  -3   2  340.83    9.62
   2  -3  -2  324.40    9.36
  -2  -3   2  332.68    9.82
   2  -3  -2  332.70    9.42
   2   3  -2  333.51    9.81
   2   3  -2  329.95    9.80
   2   3  -2  348.13    9.67
   2   3  -2  337.37    9.57
  -1  -3   2  176.90    6.23
   1  -3  -2  189.21    5.24
  -1  -3   2  172.22    5.88
   1  -3  -2  188.55    4.86
   1  -3  -2  194.00    6.19
  -1  -3   2  186.46    6.06
   1   3  -2  175.68    6.17
   1   3  -2  183.14    6.03
   1   3  -2  188.75    6.11
   1   3  -2  191.74    6.03
   0  -3   2  676.61   17.00
   0  -3   2  702.26   16.09
   0  -3  -2  702.75   16.83
   0  -3  -2  700.25   16.09
   0  -3   2  674.22   16.57
   0   3   2  701.53   16.88
   0   3  -2  673.70   16.50
   0   3   2  693.80   16.01
   0   3  -2  650.68   16.86
   0   3  -2  689.14   16.05
   1  -3   2 1560.08   35.39
  -1  -3  -2 1533.08   34.69
   1  -3   2 1530.32   34.51
   1  -3   2 1502.46   33.04
  -1  -3  -2 1550.81   34.61
   1   3   2 1546.26   34.79
  -1   3  -2 1512.28   34.33
   1   3   2 1522.39   32.57
   1   3   2 1569.36   34.71
  -1   3  -2 1566.88   35.35
  -1   3  -2 1604.75   33.10
   1   3   2 1538.91   32.60
  -2  -3  -2  685.20   17.66
   2  -3   2  695.20   17.22
   2  -3   2  698.96   18.33
  -2  -3  -2  694.00   17.31
   2   3   2  695.47   17.37
   2   3   2  694.94   16.12
   2   3   2  695.13   17.81
  -2   3  -2  664.97   18.14
   2   3   2  681.26   16.13
   3  -3   2  339.36   10.47
  -3  -3  -2  350.07   11.13
  -3  -3  -2  359.13   10.53
   3  -3   2  328.13   11.45
   3   3   2  357.95   10.49
   3   3   2  342.13   10.03
   3   3   2  341.42    9.92
   3   3   2  357.13   11.34
  -3   3  -2  344.41   10.14
   4  -3   2    0.65    1.48
   4  -3   2   -0.22    1.07
  -4  -3  -2    0.45    1.29
  -4  -3  -2   -0.03    1.16
   4   3   2    0.37    1.10
   4   3   2   -0.19    1.14
   4   3   2   -0.02    1.13
   4   3   2   -0.11    1.23
  -4   3  -2    0.26    0.89
  -5  -3  -2    1.22    1.36
  -5  -3  -2    4.12    1.64
   5  -3   2    2.37    1.86
   5  -3   2    1.89    1.64
   5  -3   2    2.77    1.88
   5   3   2    1.69    1.37
   5   3   2    1.68    1.80
   5   3   2    3.07    1.82
   5   3   2    4.79    1.51
  -5   3  -2    1.58    1.30
   6  -3   2    1.01    1.45
  -6  -3  -2    3.03    1.76
   6  -3   2    1.91    1.87
   6   3   2    6.32    1.67
   6   3   2    2.43    2.21
   6   3   2    6.57    2.32
   6   3   2    3.51    2.24
   7  -4  -2    0.21    1.02
   7  -4  -2   -1.36    2.02
   7  -4  -2   -2.74    1.00
   7  -4  -2   -1.11    1.05
   7   4  -2   -0.34    1.73
   7   4  -2   -0.27    1.86
   7   4  -2   -0.39    1.58
   6  -4  -2   20.64    2.46
   6  -4  -2   17.15    3.49
   6  -4  -2   18.06    2.31
  -6  -4   2   17.58    3.00
  -6  -4   2   18.19    2.89
  -6  -4   2   23.74    3.83
   6  -4  -2   20.71    2.79
   6   4  -2   14.52    2.98
   6   4  -2   19.56    3.37
   6   4  -2   13.90    2.75
   5  -4  -2    9.50    2.43
   5  -4  -2   14.04    2.90
  -5  -4   2   11.93    2.55
   5  -4  -2   12.22    2.08
  -5  -4   2   14.68    2.78
  -5  -4   2   14.78    2.92
   5  -4  -2   10.75    1.98
   5   4  -2   12.53    2.60
   5   4  -2    9.97    2.37
   5   4  -2   14.09    2.87
   5   4  -2    9.32    2.34
   4  -4  -2  863.49   21.79
   4  -4  -2  924.60   22.14
  -4  -4   2  879.64   23.20
  -4  -4   2  876.23   23.02
   4  -4  -2  894.01   23.39
  -4  -4   2  868.15   22.78
   4   4  -2  905.98   23.23
   4   4  -2  883.30   23.03
   4   4  -2  893.45   23.37
   4   4  -2  888.64   22.94
  -3  -4   2  351.57   10.83
   3  -4  -2  333.14   11.84
  -3  -4   2  356.44   10.87
   3  -4  -2  345.15   10.20
  -3  -4   2  348.16   11.06
   3  -4  -2  357.04   10.40
   3   4  -2  360.67   10.92
   3   4  -2  354.13   11.15
   3   4  -2  347.91   10.88
   3   4  -2  358.05   10.83
   2  -4  -2   22.47    2.03
  -2  -4   2   24.20    2.49
   2  -4  -2   22.70    2.22
  -2  -4   2   25.74    2.42
  -2  -4   2   23.82    2.37
  -2  -4   2   22.22    2.38
   2   4  -2   23.24    2.29
   2   4  -2   23.78    2.44
   2   4  -2   23.56    2.69
   2   4  -2   27.31    2.54
  -1  -4   2   38.85    2.92
   1  -4  -2   42.18    2.12
   1  -4  -2   39.02    2.87
   1  -4  -2   43.25    2.17
   1  -4  -2   41.94    1.94
  -1  -4   2   41.25    2.90
  -1  -4   2   40.14    2.75
   1   4  -2   41.01    2.99
  -1   4   2   44.48    3.05
   1   4  -2   39.28    2.68
   1   4  -2   36.89    2.67
   1   4  -2   38.01    2.82
   0  -4  -2    5.71    1.19
   0  -4   2    9.65    1.85
   0  -4   2    8.88    1.54
   0  -4   2    8.91    1.36
   0  -4  -2    9.13    1.75
   0   4   2    7.06    1.22
   0   4  -2    6.41    1.31
   0   4   2    5.10    1.42
   0   4  -2    7.20    1.69
   0   4  -2    7.40    1.35
   1  -4   2   12.33    1.74
  -1  -4  -2   10.27    1.81
   1  -4   2    9.82    1.29
  -1  -4  -2   12.73    1.90
   1  -4   2   14.03    2.40
  -1   4  -2    9.16    1.44
  -1   4  -2   10.46    1.38
  -1   4  -2   12.09    2.21
   1   4   2   10.77    1.91
   1   4   2   11.23    1.71
   2  -4   2   30.71    2.44
  -2  -4  -2   26.67    2.63
  -2  -4  -2   23.58    2.52
   2  -4   2   26.84    1.23
   2  -4   2   24.92    2.93
   2   4   2   26.33    2.55
   2   4   2   24.46    1.60
   2   4   2   26.68    1.69
   2   4   2   24.41    2.62
  -2   4  -2   27.53    2.91
  -2   4  -2   22.41    2.02
   3  -4   2   67.36    3.93
  -3  -4  -2   70.39    4.52
  -3  -4  -2   67.42    4.21
   3  -4   2   69.60    4.90
   3   4   2   69.92    3.51
  -3   4  -2   63.52    3.53
   3   4   2   68.45    4.54
   3   4   2   69.78    3.48
   3   4   2   70.25    4.26
   4  -4   2   38.46    3.37
  -4  -4  -2   39.37    3.85
   4  -4   2   35.62    4.25
  -4  -4  -2   39.20    3.66
  -4   4  -2   36.67    2.83
   4   4   2   36.20    3.42
   4   4   2   36.89    3.44
   4   4   2   40.91    3.28
   4   4   2   42.19    4.13
   5  -4   2    4.35    2.33
  -5  -4  -2    6.82    2.12
   5  -4   2    8.92    2.20
  -5  -4  -2    7.65    2.44
   5   4   2    6.05    1.96
   5   4   2    8.87    2.05
   5   4   2    4.64    1.87
   5   4   2    5.78    2.14
   6  -4   2   49.50    4.32
  -6  -4  -2   46.86    4.39
   6  -4   2   47.05    5.25
   6   4   2   49.13    4.58
   6   4   2   52.33    5.46
   6   4   2   48.51    5.55
   7  -5  -2    7.24    1.83
   7  -5  -2   14.13    2.18
  -7  -5   2   11.48    2.77
   7  -5  -2   10.02    3.91
   7  -5  -2   19.06    2.47
   7   5  -2   13.95    3.05
   7   5  -2    9.60    2.52
   6  -5  -2   99.80    7.11
  -6  -5   2  103.92    6.56
   6  -5  -2  115.48    5.38
   6  -5  -2  101.13    5.15
  -6  -5   2  108.41    6.75
  -6  -5   2  101.80    6.43
   6   5  -2  109.62    6.77
   6   5  -2  106.87    6.73
   6   5  -2  102.27    6.41
   6   5  -2   96.20    6.55
   5  -5  -2   13.45    4.11
   5  -5  -2   17.00    2.51
   5  -5  -2   15.18    3.30
   5  -5  -2   11.08    1.98
  -5  -5   2   12.48    2.54
  -5  -5   2   13.28    2.78
  -5  -5   2   17.32    3.26
   5   5  -2   10.51    2.53
   5   5  -2   16.19    3.12
   5   5  -2   10.58    2.44
   5   5  -2   13.02    2.72
  -4  -5   2  233.07    8.96
   4  -5  -2  216.29    8.77
   4  -5  -2  240.39    9.37
  -4  -5   2  224.37    8.75
  -4  -5   2  232.72    9.26
   4  -5  -2  222.72    8.03
   4  -5  -2  225.91    8.98
   4   5  -2  235.55    9.29
   4   5  -2  238.78    9.11
   4   5  -2  235.48    9.01
   4   5  -2  236.54    9.03
   3  -5  -2   78.40    4.53
  -3  -5   2   86.33    4.77
   3  -5  -2   83.20    4.25
  -3  -5   2   81.24    4.59
  -3  -5   2   84.88    4.97
   3  -5  -2   83.12    4.24
   3  -5  -2   72.74    4.30
   3   5  -2   83.12    4.96
   3   5  -2   85.84    4.74
   3   5  -2   84.75    4.71
   3   5  -2   85.84    5.30
  -2  -5   2   71.27    4.24
  -2  -5   2   75.11    4.12
  -2  -5   2   69.63    3.97
   2  -5  -2   68.82    3.82
   2  -5  -2   76.74    3.71
  -2  -5   2   68.78    3.95
   2  -5  -2   74.55    3.70
   2   5  -2   74.89    4.08
   2   5  -2   74.48    4.30
   2   5  -2   71.33    4.02
   2   5  -2   68.24    3.93
  -1  -5   2  889.41   22.40
   1  -5  -2  923.28   20.59
  -1  -5   2  942.60   22.65
   1  -5  -2  924.03   22.54
   1  -5  -2  964.75   20.96
   1  -5  -2  893.02   20.81
   1   5  -2  912.05   22.43
  -1   5   2  945.59   22.74
   1   5  -2  928.93   22.36
   1   5  -2  911.85   22.12
   1   5  -2  877.02   22.38
   0  -5  -2  239.94    8.22
   0  -5   2  243.90    7.79
   0  -5   2  240.96    8.33
   0  -5  -2  252.25    7.34
   0  -5   2  239.44    7.63
   0  -5  -2  241.36    5.59
   0   5   2  244.72    8.30
   0   5   2  244.70    7.15
   0   5  -2  251.89    7.81
   0   5  -2  240.44    8.22
   0   5  -2  247.36    7.68
  -1  -5  -2    9.99    2.65
   1  -5   2    9.63    1.59
   1  -5   2    9.16    1.37
  -1  -5  -2   10.40    1.96
   1  -5   2   14.59    2.53
  -1   5  -2   10.53    1.61
  -1   5  -2    9.77    1.43
   1   5   2   10.05    1.97
  -1   5  -2    8.89    1.98
  -2  -5  -2   50.00    3.63
   2  -5   2   55.74    2.39
   2  -5   2   55.94    3.33
   2  -5   2   56.11    4.23
  -2  -5  -2   57.12    3.91
   2   5   2   49.80    2.12
  -2   5  -2   51.87    2.32
   2   5   2   54.43    3.86
  -2   5  -2   49.56    2.91
   2   5   2   52.87    3.72
   2   5   2   50.25    2.11
  -2   5  -2   57.23    4.10
  -3  -5  -2    3.56    1.57
  -3  -5  -2    3.72    1.69
   3  -5   2    5.29    1.53
   3  -5   2    3.74    1.88
   3   5   2    4.89    1.15
  -3   5  -2    3.94    1.83
   3   5   2    4.87    1.70
  -3   5  -2    4.19    1.21
   3   5   2    5.10    1.15
   3   5   2    1.59    1.39
   4  -5   2    6.75    3.28
  -4  -5  -2    8.16    2.33
  -4  -5  -2    7.01    2.16
   4   5   2    9.43    1.81
  -4   5  -2    7.29    1.50
   4   5   2    9.35    2.64
   4   5   2    9.83    2.22
   4   5   2    7.46    1.76
   5  -5   2   19.98    4.09
  -5  -5  -2   29.56    3.93
  -5  -5  -2   23.69    3.50
   5  -5   2   19.86    2.90
   5   5   2   36.05    3.37
   5   5   2   27.33    4.28
   5   5   2   32.97    3.61
   5   5   2   30.26    3.33
   6  -5   2   10.06    3.30
  -6  -5  -2    5.85    2.55
   6  -5   2   10.71    3.67
   6   5   2    9.69    2.49
   6   5   2   10.12    4.60
   6   5   2    8.85    2.68
   6   5   2   12.12    2.49
   7  -6  -2   25.18    2.77
   7  -6  -2   19.69    4.17
  -7  -6   2   28.39    3.95
   7  -6  -2   16.46    2.41
   7  -6  -2   18.72    2.74
   7   6  -2   19.92    3.65
   7   6  -2   28.47    3.89
   7   6  -2   19.70    3.96
   6  -6  -2   -1.03    1.91
   6  -6  -2    0.17    1.04
  -6  -6   2    2.48    1.70
   6  -6  -2   -0.18    1.04
  -6  -6   2    2.19    1.97
   6   6  -2   -1.02    1.54
   6   6  -2   -0.07    1.88
   6   6  -2    0.23    1.74
  -5  -6   2  305.58   11.72
   5  -6  -2  323.17   12.58
   5  -6  -2  317.12   10.47
   5  -6  -2  288.45   11.80
  -5  -6   2  317.54   12.19
   5  -6  -2  297.96   10.11
  -5  -6   2  321.43   11.51
   5   6  -2  311.05   11.94
   5   6  -2  306.57   12.05
   5   6  -2  305.54   11.46
   5   6  -2  322.25   12.04
   4  -6  -2   33.48    2.99
  -4  -6   2   36.38    3.70
   4  -6  -2   39.64    4.05
   4  -6  -2   36.36    3.15
   4  -6  -2   26.01    3.31
  -4  -6   2   32.98    3.77
  -4  -6   2   31.41    3.28
   4   6  -2   38.42    4.44
   4   6  -2   35.33    3.76
   4   6  -2   37.39    3.83
   4   6  -2   33.45    3.37
  -3  -6   2   16.76    2.91
  -3  -6   2   20.96    3.17
  -3  -6   2   14.13    2.35
   3  -6  -2   23.15    3.14
   3  -6  -2   17.45    2.51
   3  -6  -2   16.44    2.18
   3  -6  -2   16.02    2.24
   3   6  -2   11.19    2.19
   3   6  -2   20.22    2.59
   3   6  -2   15.07    2.69
   2  -6  -2  668.72   17.83
   2  -6  -2  691.57   17.21
   2  -6  -2  603.42   20.27
  -2  -6   2  708.47   18.12
  -2  -6   2  677.89   18.08
  -2  -6   2  664.35   18.41
   2   6  -2  692.18   18.02
   2   6  -2  675.07   18.46
   2   6  -2  695.22   18.00
   1  -6  -2  208.07    7.83
   1  -6  -2  231.12    6.56
   1  -6  -2  229.19    6.43
  -1  -6   2  210.65    7.90
  -1  -6   2  219.53    7.99
  -1  -6   2  225.88    7.78
   1  -6  -2  215.45    6.51
   1   6  -2  224.22    7.90
   1   6  -2  215.44    7.93
  -1   6   2  228.51    8.20
   1   6  -2  220.17    7.62
   1   6  -2  221.31    7.77
   0  -6  -2   42.58    1.66
   0  -6   2   42.60    3.08
   0  -6  -2   39.23    2.64
   0  -6  -2   44.44    1.66
   0  -6  -2   42.11    3.27
   0  -6   2   39.30    2.89
   0  -6   2   46.91    3.51
   0   6   2   47.53    3.54
   0   6  -2   41.17    2.82
   0   6  -2   44.20    2.99
   0   6   2   41.59    2.55
   0   6  -2   41.08    3.01
   0   6   2   43.90    2.65
   1  -6   2  218.40    7.47
   1  -6   2  221.32    8.50
  -1  -6  -2  211.25    8.24
  -1  -6  -2  219.76    7.65
   1  -6   2  218.84    7.11
  -1   6  -2  219.65    7.24
   1   6   2  228.49    8.52
  -1   6  -2  212.52    8.29
  -1   6  -2  223.57    7.14
  -1   6  -2  225.95    7.17
   2  -6   2    3.51    0.93
   2  -6   2    2.84    1.20
  -2  -6  -2    3.34    1.83
   2  -6   2    2.58    1.70
  -2  -6  -2    3.67    1.56
   2   6   2    3.48    0.58
  -2   6  -2    2.41    1.57
   2   6   2    2.99    0.60
  -2   6  -2    2.98    1.03
  -2   6  -2    2.65    0.89
   2   6   2    2.32    1.38
   2   6   2    3.95    1.69
   3  -6   2   36.79    1.63
   3  -6   2   40.72    3.21
  -3  -6  -2   34.87    3.59
   3  -6   2   44.92    4.39
  -3  -6  -2   37.00    3.85
   3  -6   2   40.92    1.72
   3   6   2   31.85    2.14
  -3   6  -2   35.80    2.61
   3   6   2   33.72    2.22
   3   6   2   38.62    3.81
  -3   6  -2   41.87    4.13
   3   6   2   35.50    3.68
   4  -6   2   31.42    3.11
  -4  -6  -2   26.44    3.68
  -4  -6  -2   31.34    4.28
   4  -6   2   29.98    4.16
  -4   6  -2   28.40    2.41
   4   6   2   30.78    3.96
   4   6   2   28.43    2.62
   4   6   2   29.27    2.61
   4   6   2   36.21    4.00
  -5  -6  -2    5.09    1.82
   5  -6   2    4.41    2.48
   5  -6   2    5.99    1.72
  -5  -6  -2   -2.01    1.87
   5   6   2    3.67    1.54
   5   6   2    7.78    2.20
   5   6   2    1.94    1.51
   5   6   2    3.43    1.96
   6  -6   2   -1.71    1.85
   6  -6   2    1.09    1.45
   6   6   2   -0.42    1.69
   6   6   2    1.67    2.00
   6   6   2    2.90    1.70
   6   6   2   -0.42    2.11
  -6  -7   2    2.44    1.82
   6  -7  -2    4.14    1.48
   6  -7  -2    0.98    1.35
   6  -7  -2    1.79    2.18
  -6  -7   2   -0.05    1.98
   6   7  -2    4.65    1.99
   6   7  -2    1.73    1.68
   6   7  -2    1.28    1.61
   6   7  -2    2.08    2.05
   5  -7  -2    5.35    2.27
   5  -7  -2    9.35    1.87
   5  -7  -2    7.72    1.89
  -5  -7   2    8.16    2.30
  -5  -7   2    8.85    2.05
   5  -7  -2    7.89    2.70
   5   7  -2    4.24    2.00
   5   7  -2    4.90    2.39
   5   7  -2    7.20    2.58
   5   7  -2   10.35    2.28
   4  -7  -2   36.32    3.18
   4  -7  -2   30.78    3.67
  -4  -7   2   30.89    3.35
  -4  -7   2   34.17    4.11
   4  -7  -2   33.31    3.17
  -4  -7   2   29.86    4.08
   4  -7  -2   28.95    3.51
   4   7  -2   35.31    4.02
   4   7  -2   34.63    3.53
   4   7  -2   30.76    3.79
   4   7  -2   35.19    6.89
  -3  -7   2   37.41    3.39
   3  -7  -2   31.41    3.05
   3  -7  -2   31.97    3.06
  -3  -7   2   40.75    3.74
   3  -7  -2   35.18    3.17
  -3  -7   2   30.71    3.54
   3   7  -2   32.15    3.38
   3   7  -2   28.33    3.63
   3   7  -2   31.59    3.18
   3   7  -2   30.38    3.33
   2  -7  -2    1.86    1.15
  -2  -7   2   -0.72    0.88
   2  -7  -2    0.43    1.13
  -2  -7   2   -0.53    1.19
   2  -7  -2   -1.04    0.78
  -2  -7   2   -0.32    1.01
   2   7  -2   -0.01    1.05
   2   7  -2   -0.80    0.83
   2   7  -2    0.78    1.39
   2   7  -2    1.37    1.17
  -2   7   2    0.79    1.21
   1  -7  -2    0.89    0.89
  -1  -7   2    1.53    1.27
   1  -7  -2    1.14    1.29
   1  -7  -2    0.92    0.84
  -1  -7   2    1.87    1.16
  -1  -7   2   -0.26    1.16
   1  -7  -2    1.10    0.78
   1   7  -2    0.08    0.64
   1   7  -2    2.78    1.28
   1   7  -2    2.35    1.26
   1   7  -2    3.67    1.61
  -1   7   2    1.55    1.37
   0  -7   2   77.50    4.69
   0  -7   2   76.16    4.20
   0  -7   2   74.26    4.34
   0  -7  -2   72.07    3.80
   0  -7  -2   71.32    4.59
   0  -7  -2   73.66    2.56
   0  -7  -2   76.09    2.65
   0   7  -2   76.24    4.59
   0   7   2   75.19    3.67
   0   7  -2   74.87    3.97
   0   7   2   73.10    4.70
   0   7  -2   76.30    4.14
   0   7   2   72.23    3.55
   0   7  -2   74.13    4.28
  -1  -7  -2   61.39    4.52
   1  -7   2   57.09    3.63
   1  -7   2   67.55    3.86
  -1  -7  -2   62.24    3.94
   1  -7   2   59.75    4.39
   1   7   2   67.65    4.73
  -1   7  -2   61.75    3.53
  -1   7  -2   66.62    4.49
  -1   7  -2   62.30    3.42
  -1   7  -2   57.92    3.59
   1   7   2   60.83    3.93
   2  -7   2  208.50    8.90
   2  -7   2  205.26    7.43
   2  -7   2  199.34    6.61
  -2  -7  -2  194.91    8.45
  -2  -7  -2  193.00    7.95
   2   7   2  203.09    8.75
  -2   7  -2  203.64    6.70
   2   7   2  202.17    8.08
  -2   7  -2  174.12    8.30
  -2   7  -2  194.63    6.55
  -2   7  -2  191.39    6.67
   3  -7   2    1.01    0.73
   3  -7   2    1.41    1.96
  -3  -7  -2   -0.64    1.29
  -3  -7  -2    3.51    1.68
  -3   7  -2    1.92    0.97
   3   7   2    2.34    0.79
   3   7   2    1.03    0.77
   3   7   2    1.62    1.59
  -3   7  -2    2.27    2.58
   3   7   2    1.19    1.70
  -4  -7  -2   85.58    5.87
   4  -7   2   82.31    6.47
   4  -7   2   88.82    4.99
  -4  -7  -2   86.64    6.28
   4   7   2   99.47    6.39
   4   7   2   70.84    4.13
   4   7   2   90.15    6.11
   4   7   2   89.08    4.04
  -5  -7  -2   16.65    3.34
   5  -7   2   21.08    3.00
   5  -7   2   19.52    4.37
   5   7   2   25.76    2.86
   5   7   2   21.93    2.72
   5   7   2   30.60    3.98
   5   7   2   18.47    3.74
   6  -8  -2   23.47    2.76
  -6  -8   2   26.33    3.64
   6  -8  -2   15.67    3.42
  -6  -8   2   28.31    6.36
   6  -8  -2   25.02    3.07
   6   8  -2   27.04    3.70
   6   8  -2   22.97    4.15
   6   8  -2   21.36    3.79
  -5  -8   2    4.36    1.90
   5  -8  -2    8.71    1.84
   5  -8  -2    5.40    1.68
  -5  -8   2    4.31    2.06
   5  -8  -2    4.22    2.05
   5   8  -2    2.08    1.90
   5   8  -2    2.46    1.87
   5   8  -2    4.18    1.72
   5   8  -2    6.27    2.31
   4  -8  -2   22.32    3.13
   4  -8  -2   27.99    3.08
   4  -8  -2   27.00    3.23
  -4  -8   2   18.57    3.02
  -4  -8   2   23.04    3.11
   4  -8  -2   17.71    3.03
  -4  -8   2   17.55    3.39
   4   8  -2   18.55    3.14
   4   8  -2   19.49    3.06
   4   8  -2   19.00    3.51
   4   8  -2   24.79    3.01
  -3  -8   2  293.83   15.72
   3  -8  -2  275.26   10.03
  -3  -8   2  275.83   10.08
   3  -8  -2  267.96    9.99
   3  -8  -2  275.66    9.98
  -3  -8   2  283.43   10.76
   3   8  -2  281.21   10.10
   3   8  -2  278.83   10.51
   3   8  -2  277.37   11.13
   3   8  -2  296.28   10.83
   2  -8  -2   -1.09    1.67
  -2  -8   2   -0.52    1.19
   2  -8  -2   -0.54    1.10
   2  -8  -2   -0.60    0.94
  -2  -8   2    1.52    1.51
   2   8  -2    0.34    1.02
   2   8  -2    0.98    1.06
  -2   8   2    1.19    1.29
   2   8  -2   -0.25    1.16
   2   8  -2    0.16    1.47
   1  -8  -2    2.68    1.05
   1  -8  -2    3.43    1.11
   1  -8  -2    4.04    1.70
   1  -8  -2    2.54    1.09
  -1  -8   2    2.51    1.34
  -1  -8   2    1.24    1.30
  -1  -8   2    2.99    1.53
   1   8  -2    2.68    1.31
  -1   8   2    0.30    1.11
   1   8  -2    1.48    1.40
   1   8  -2    3.41    1.71
   0  -8   2   41.59    3.29
   0  -8  -2   44.48    2.06
   0  -8  -2   44.72    2.12
   0  -8   2   51.44    4.10
   0  -8   2   44.48    3.75
   0  -8  -2   42.48    3.12
   0  -8  -2   42.41    3.82
   0   8  -2   43.17    3.79
   0   8  -2   48.38    3.84
   0   8  -2   42.01    3.22
   0   8   2   41.67    3.99
   0   8   2   41.53    2.82
   0   8   2   38.71    2.80
   0   8  -2   39.96    3.08
   1  -8   2    7.39    2.30
  -1  -8  -2    6.71    2.13
   1  -8   2    8.38    1.89
  -1  -8  -2    7.85    1.88
   1  -8   2   10.86    2.10
   1   8   2    7.46    1.70
  -1   8  -2    8.05    1.63
   1   8   2    7.65    2.36
  -1   8  -2    6.49    1.97
   1   8   2    9.38    2.11
  -1   8  -2    7.73    1.69
  -1   8  -2    8.33    1.64
  -2  -8  -2  354.32   12.14
   2  -8   2  370.61   10.86
   2  -8   2  385.58   11.86
   2  -8   2  364.70   13.16
   2   8   2  340.26   11.85
  -2   8  -2  368.20   10.34
   2   8   2  351.47   12.06
  -2   8  -2  370.78   10.85
  -2   8  -2  370.99   13.13
   2   8   2  366.72   13.25
  -3  -8  -2    5.38    1.84
  -3  -8  -2    4.41    2.25
   3  -8   2    5.62    1.60
   3  -8   2    4.66    1.22
   3  -8   2    9.75    2.76
   3   8   2    7.14    0.83
   3   8   2    5.96    0.81
   3   8   2    8.06    2.47
   3   8   2    5.25    2.24
  -3   8  -2    2.47    1.86
   4  -8   2   37.54    3.24
   4  -8   2   39.81    4.58
  -4  -8  -2   30.57    3.94
   4   8   2   30.81    5.12
   4   8   2   32.53    2.28
   4   8   2   48.61    4.86
   4   8   2   40.22    2.43
  -5  -8  -2   -1.41    2.20
   5   8   2    1.50    1.16
   5   8   2   -0.56    1.49
   5   8   2   -3.03    1.65
   5  -9  -2    0.84    1.32
   5  -9  -2   -0.72    1.45
  -5  -9   2   -0.48    1.33
  -5  -9   2   -0.21    2.07
   5  -9  -2    1.63    1.44
   5   9  -2    2.70    2.50
   5   9  -2    1.22    1.86
   5   9  -2   -2.14    1.63
   5   9  -2    1.30    1.68
  -4  -9   2    6.23    2.10
   4  -9  -2    2.74    1.43
   4  -9  -2    4.02    1.84
  -4  -9   2    4.86    1.84
   4  -9  -2    4.46    1.77
   4   9  -2    5.59    2.38
   4   9  -2    5.46    1.82
   4   9  -2    6.38    2.64
   4   9  -2    5.76    2.18
  -3  -9   2   54.26    5.08
   3  -9  -2   58.35    4.42
  -3  -9   2   60.29    4.38
   3  -9  -2   63.52    4.40
   3  -9  -2   63.23    4.66
  -3  -9   2   65.73    5.06
   3   9  -2   63.23    4.49
   3   9  -2   59.62    5.08
   3   9  -2   60.02    5.11
   3   9  -2   57.94    4.79
   2  -9  -2   12.13    2.49
  -2  -9   2    7.60    1.98
   2  -9  -2    9.89    1.96
  -2  -9   2    9.94    2.80
   2  -9  -2    9.57    2.03
   2   9  -2    8.45    2.01
  -2   9   2   10.67    2.55
   2   9  -2   11.25    2.76
   2   9  -2    9.99    2.18
   2   9  -2   11.22    2.29
  -1  -9   2    8.53    2.23
   1  -9  -2    6.09    1.48
  -1  -9   2    6.24    2.08
   1  -9  -2    9.32    1.66
   1  -9  -2    8.80    1.63
   1  -9  -2    7.69    2.06
  -1  -9   2    6.98    2.04
  -1   9   2    7.24    2.10
   1   9  -2    8.23    2.24
   1   9  -2    6.80    1.83
   1   9  -2    6.20    1.71
   1   9  -2    7.48    1.86
   0  -9  -2    1.69    1.28
   0  -9   2   -1.28    1.31
   0  -9  -2    0.08    0.59
   0  -9   2    0.70    1.38
   0  -9   2   -1.61    0.82
   0  -9  -2   -0.44    1.39
   0  -9  -2    0.11    0.58
   0   9   2   -0.33    1.35
   0   9  -2    0.88    0.94
   0   9   2    0.09    0.99
   0   9  -2   -1.12    1.19
   0   9  -2    0.90    1.35
  -1  -9  -2  445.05   13.88
   1  -9   2  487.49   15.38
  -1  -9  -2  437.39   15.12
   1  -9   2  467.49   14.04
  -1   9  -2  452.71   13.08
  -1   9  -2  494.47   13.03
   1   9   2  432.14   17.09
  -1   9  -2  468.67   14.99
   1   9   2  447.25   13.62
  -1   9  -2  444.14   13.80
   1   9   2  446.25   13.51
   2  -9   2    5.81    1.66
   2  -9   2   12.81    2.38
  -2  -9  -2    8.50    2.12
  -2  -9  -2    2.17    1.99
   2   9   2    7.58    2.04
  -2   9  -2    8.66    2.83
   2   9   2    9.21    2.65
  -2   9  -2    8.73    1.87
  -2   9  -2    8.73    1.68
   3  -9   2    2.79    1.28
  -3  -9  -2    0.14    1.45
   3  -9   2    3.23    2.21
   3   9   2    1.83    1.64
   3   9   2   -0.15    1.59
   3   9   2    3.74    1.94
   4  -9   2   10.06    2.01
  -4  -9  -2   12.95    2.73
   4  -9   2    8.31    1.06
   4  -9   2   10.66    1.12
   4  -9   2   11.16    2.90
   4   9   2   12.32    1.09
   4   9   2    7.26    2.39
   4   9   2   10.85    2.75
   4   9   2    8.69    1.12
   5 -10  -2    2.45    1.76
  -5 -10   2   -1.40    1.73
   5 -10  -2    3.95    2.25
  -5 -10   2    2.75    1.73
   5 -10  -2    2.09    1.63
   5  10  -2   -3.42    1.88
   5  10  -2    4.25    2.35
   5  10  -2    4.38    1.94
   4 -10  -2   13.97    2.96
   4 -10  -2   12.94    2.99
  -4 -10   2   13.04    2.38
  -4 -10   2   10.32    2.50
   4 -10  -2   11.78    2.38
   4  10  -2   10.29    3.05
   4  10  -2   10.98    3.07
   4  10  -2   15.86    2.91
   3 -10  -2   23.99    3.08
   3 -10  -2   16.16    2.72
  -3 -10   2   24.47    3.08
   3 -10  -2   14.58    2.60
   3  10  -2   29.64    4.27
   3  10  -2   16.98    3.17
   3  10  -2   15.52    2.88
   3  10  -2   21.19    2.88
   2 -10  -2    1.42    1.20
  -2 -10   2   -2.35    1.47
   2 -10  -2    1.90    1.24
  -2 -10   2    1.66    1.36
   2 -10  -2   -0.71    1.26
   2  10  -2   -0.18    1.29
   2  10  -2    2.58    1.31
   2  10  -2    0.07    1.13
   2  10  -2    0.28    1.69
   1 -10  -2    3.48    1.89
  -1 -10   2    3.33    2.14
  -1 -10   2    5.91    1.91
   1 -10  -2    2.59    1.30
   1 -10  -2    2.93    1.06
   1 -10  -2    4.39    1.36
   1  10  -2    3.49    1.39
   1  10  -2    2.22    2.86
   1  10  -2    3.26    1.42
  -1  10   2    4.85    2.19
   1  10  -2    4.14    2.05
   0 -10   2   23.05    3.42
   0 -10   2   18.21    2.81
   0 -10  -2   28.75    3.17
   0 -10  -2   17.97    3.18
   0 -10  -2   25.98    1.80
   0 -10  -2   27.73    1.84
   0 -10   2   31.22    3.51
   0  10  -2   32.21    3.73
   0  10   2   21.23    2.44
   0  10  -2   32.29    3.17
   0  10  -2   30.91    3.58
   0  10   2   27.11    2.61
   0  10   2   27.55    3.78
   0  10  -2   24.97    2.81
   1 -10   2    7.90    2.47
  -1 -10  -2    3.26    1.63
   1 -10   2    4.37    1.63
   1 -10   2   -0.12    1.39
   1  10   2    3.18    1.73
  -1  10  -2    5.55    1.52
  -1  10  -2    6.92    2.08
   1  10   2    2.25    1.89
  -2 -10  -2   71.40    5.31
   2 -10   2   62.11    4.54
   2 -10   2   72.77    4.56
   2 -10   2   79.39    6.02
  -2  10  -2   76.15    4.68
  -2  10  -2   66.84    5.52
   2  10   2   69.84    5.87
   2  10   2   67.94    5.21
   3 -10   2   22.90    3.93
   3 -10   2   15.16    2.43
  -3 -10  -2   15.24    2.93
   3 -10   2   11.28    2.05
   3  10   2   20.29    3.80
   3  10   2   17.75    3.32
   4 -10   2    0.76    1.19
   4 -10   2   -0.95    0.65
   4 -10   2    0.31    2.02
  -4 -10  -2   -1.07    2.09
   4  10   2   -2.84    1.72
   4  10   2   -0.10    1.68
   4 -11  -2    0.41    1.42
  -4 -11   2    0.15    1.27
   4 -11  -2   -1.97    1.39
   4  11  -2   -3.18    1.79
   4  11  -2   -0.46    2.32
   3 -11  -2   14.06    2.90
  -3 -11   2   14.55    2.70
   3 -11  -2   17.30    2.92
   3  11  -2    9.17    2.57
   3  11  -2   12.64    2.77
   3  11  -2   18.11    2.97
   2 -11  -2   16.45    2.68
   2 -11  -2   26.01    2.82
  -2 -11   2   23.28    3.00
  -2  11   2   15.02    3.07
   2  11  -2   18.38    3.59
   2  11  -2   21.97    3.22
   1 -11  -2    5.74    1.48
  -1 -11   2    3.41    1.88
   1 -11  -2    3.79    1.19
   1 -11  -2    5.01    1.38
   1  11  -2    4.58    2.13
  -1  11   2    5.33    2.15
   1  11  -2    3.05    1.56
   1  11  -2    1.31    1.66
   0 -11  -2   40.60    3.64
   0 -11  -2   45.86    2.38
   0 -11  -2   41.54    2.28
   0 -11   2   40.32    4.06
   0 -11   2   44.80    4.36
   0  11  -2   41.67    7.51
   0  11  -2   40.26    3.50
   0  11  -2   42.34    4.38
   0  11   2   40.09    4.50
   0  11   2   41.48    4.44
   1 -11   2   15.68    2.60
   1 -11   2   24.69    3.44
  -1 -11  -2   20.68    3.12
  -1  11  -2   20.34    3.31
   1  11   2   16.47    2.71
  -1  11  -2   20.94    3.96
   1  11   2   18.95    3.59
  -1  11  -2   23.06    2.83
  -2 -11  -2   37.74    4.18
   2 -11   2   34.84    4.25
   2 -11   2   25.33    3.51
   2 -11   2   29.93    3.18
  -2  11  -2   37.72    3.64
   2  11   2   37.61    4.57
   2  11   2   29.47    3.85
  -3 -11  -2    1.13    1.69
   3 -11   2   -0.48    1.67
   3  11   2   -2.28    1.51
   3 -12  -2   41.94    3.92
  -3 -12   2   34.31    3.76
   3 -12  -2   34.93    3.97
   3  12  -2   44.80    5.27
   3  12  -2   38.91    4.61
  -2 -12   2    2.67    1.24
   2 -12  -2    0.45    1.07
   2 -12  -2    4.68    1.66
  -2  12   2    2.90    1.65
   2  12  -2    1.83    1.95
   2  12  -2    1.62    2.26
   2  12  -2   -3.73    1.90
   1 -12  -2    5.42    2.09
   1 -12  -2    3.57    1.23
   1  12  -2    1.11    1.49
   1  12  -2    1.77    1.88
   1  12  -2    0.72    1.53
  -1  12   2    7.52    2.26
   0 -12   2    8.92    2.47
   0 -12  -2    7.01    1.10
   0 -12  -2    8.23    1.17
   0 -12  -2    6.13    1.78
   0  12   2    4.80    1.67
   0  12  -2    6.53    2.55
   0  12   2    7.71    2.47
   0  12  -2    4.72    1.68
   0  12  -2    8.26    2.41
   1 -12   2   11.23    2.54
  -1  12  -2   13.55    2.27
  -1  12  -2   15.63    3.00
   1  12   2    8.02    2.55
   1  12   2   14.21    2.88
   2 -12   2   45.92    4.75
   2 -12   2   69.00    5.67
  -2 -12  -2   53.58    4.98
   2 -12   2   71.22    4.84
  -2  12  -2   65.63    5.06
   2  12   2   57.63    5.18
   2  12   2   64.31    5.83
  -1 -13   2   75.96    5.62
   1 -13  -2   79.92    4.41
   1 -13  -2   89.48    4.40
   1  13  -2   72.58    6.27
   1  13  -2   64.99    5.63
   1  13  -2   77.38    5.60
   0 -13   2    0.30    1.30
   0 -13  -2   -0.56    1.51
   0  13  -2   -0.11    1.57
   0  13  -2   -2.00    1.93
   0  13   2    2.96    2.03
   8   0  -3   -3.09    1.42
   8   0  -3   -3.26    1.33
   8   0  -3   -1.39    1.56
   7   0  -3   -0.90    1.00
   7   0  -3   -0.50    1.20
   7   0  -3    1.84    1.75
  -7   0   3   -1.28    1.48
   6   0  -3    0.78    1.08
  -6   0   3    1.32    1.63
  -6   0   3   -1.13    1.14
   6   0  -3    1.50    1.28
   6   0  -3    0.34    1.53
   6   0  -3    0.93    1.48
  -5   0   3    0.82    1.18
   5   0  -3    0.58    0.93
   5   0  -3   -0.43    1.12
  -5   0   3    0.24    1.21
   5   0  -3    1.14    1.40
   5   0  -3    1.45    1.14
   4   0  -3   -0.02    0.74
   4   0  -3   -0.21    1.05
  -4   0   3   -0.11    1.10
  -4   0   3   -0.52    0.86
   4   0  -3    0.34    0.83
   4   0  -3    0.66    1.22
  -3   0   3    0.10    0.99
  -3   0   3    0.67    1.17
   3   0  -3    0.34    0.72
   3   0  -3    0.78    1.06
   3   0  -3    0.98    0.85
   3   0  -3   -0.18    1.04
  -2   0   3   -0.49    0.57
   2   0  -3   -0.20    0.62
  -2   0   3   -0.95    0.88
  -2   0   3   -0.77    0.82
   2   0  -3    0.04    0.92
   2   0  -3    0.53    0.96
  -1   0   3   -0.60    0.72
   1   0  -3    0.36    0.94
   1   0  -3   -0.08    0.66
   1   0  -3   -0.07    0.84
  -1   0   3   -0.22    0.60
  -1   0   3   -0.22    0.88
   0   0   3    0.44    0.81
   0   0  -3   -0.58    0.73
   0   0   3    0.57    0.84
   0   0  -3    0.40    0.86
   0   0  -3   -0.48    0.68
  -1   0  -3   -0.10    0.59
   1   0   3   -0.52    0.86
  -1   0  -3   -0.05    0.61
   1   0   3   -0.52    0.78
  -1   0  -3   -0.63    0.73
  -1   0  -3    0.34    0.84
  -2   0  -3    0.16    0.93
  -2   0  -3    0.41    0.54
  -2   0  -3    0.10    0.95
   2   0   3    0.98    0.98
   2   0   3    0.41    0.97
   3   0   3   -0.33    0.91
  -3   0  -3   -0.19    0.54
  -3   0  -3    0.04    1.01
   3   0   3   -0.77    0.98
   4   0   3    1.16    1.32
   4   0   3   -1.26    0.97
   4   0   3   -0.03    1.17
  -4   0  -3    0.12    1.04
  -4   0  -3   -0.04    0.50
   5   0   3    0.79    1.55
  -5   0  -3    0.31    0.46
  -5   0  -3    0.29    1.39
   5   0   3    1.55    2.26
   6   0   3   -1.87    1.58
   6   0   3   -0.44    1.47
   8  -1  -3   -3.32    1.73
   8  -1  -3   -0.26    1.55
   8  -1  -3    2.02    1.70
  -8   1   3   -4.61    1.71
   8   1  -3    1.04    1.80
   8   1  -3    0.45    1.83
   8   1  -3   -1.06    1.78
   7  -1  -3   25.62    2.98
  -7  -1   3   31.87    3.87
   7  -1  -3   27.01    3.23
   7  -1  -3   23.18    3.36
   7   1  -3   29.29    3.54
   7   1  -3   24.87    3.25
  -7   1   3   27.83    3.38
   6  -1  -3   83.76    5.22
   6  -1  -3   92.18    6.13
  -6  -1   3   90.81    5.53
   6  -1  -3   88.09    4.85
  -6  -1   3   92.27    6.20
   6  -1  -3   94.44    4.98
   6   1  -3   94.74    5.74
  -6   1   3   88.27    5.14
   6   1  -3   87.26    6.12
   6   1  -3   86.39    5.23
   5  -1  -3   10.81    2.07
   5  -1  -3   15.22    2.13
  -5  -1   3    8.38    2.14
   5  -1  -3   16.05    3.00
  -5  -1   3   12.97    2.40
   5  -1  -3   11.06    1.82
   5   1  -3   12.70    2.15
   5   1  -3   12.79    2.73
  -5   1   3   11.15    2.63
   5   1  -3   13.86    2.29
  -5   1   3   13.00    2.16
   5   1  -3   13.35    2.48
  -4  -1   3  192.32    7.49
   4  -1  -3  200.70    6.46
   4  -1  -3  201.62    7.46
   4  -1  -3  199.57    7.93
  -4  -1   3  190.75    7.82
   4  -1  -3  194.82    6.34
  -4   1   3  194.72    7.44
   4   1  -3  203.29    7.03
  -4   1   3  192.34    7.80
   4   1  -3  193.14    7.46
   4   1  -3  194.23    6.99
   4   1  -3  185.79    7.82
  -3  -1   3  421.07   12.10
   3  -1  -3  417.37   10.66
   3  -1  -3  420.65   11.96
   3  -1  -3  417.94   10.76
  -3  -1   3  421.80   12.29
   3  -1  -3  421.73   12.21
   3   1  -3  436.56   12.18
   3   1  -3  417.58   12.32
   3   1  -3  419.00   11.45
  -3   1   3  413.49   11.80
   3   1  -3  414.80   11.35
  -3   1   3  420.87   12.15
   2  -1  -3   69.80    3.68
  -2  -1   3   73.58    3.77
   2  -1  -3   79.60    3.18
   2  -1  -3   70.92    3.60
  -2  -1   3   70.61    3.76
  -2  -1   3   70.85    3.33
   2   1  -3   80.27    3.97
   2   1  -3   74.85    3.89
  -2   1   3   74.96    2.92
  -2   1   3   73.53    3.67
  -2   1   3   74.55    3.65
   1  -1  -3    6.71    1.36
   1  -1  -3    6.83    1.20
  -1  -1   3    7.19    1.50
   1  -1  -3    7.00    1.25
  -1  -1   3   10.75    1.65
  -1  -1   3   11.21    1.62
   1   1  -3    7.64    1.44
   1   1  -3   12.75    1.92
  -1   1   3    4.80    1.00
   1   1  -3    5.79    1.16
  -1   1   3    6.73    1.23
   0  -1   3 2388.31   52.32
   0  -1  -3 2418.26   51.45
   0   1   3 2395.02   51.48
  -1  -1  -3  899.78   20.87
  -1  -1  -3  895.58   21.69
   1  -1   3  920.05   21.91
   1  -1   3  916.99   21.83
  -1  -1  -3  919.28   20.92
  -1   1  -3  917.15   21.86
   1   1   3  908.30   20.98
   1   1   3  916.18   21.88
  -1   1  -3  892.43   20.03
  -1   1  -3  904.38   21.67
  -1   1  -3  864.34   20.05
  -2  -1  -3   93.65    4.60
   2  -1   3   87.32    4.58
  -2  -1  -3   86.30    3.51
   2  -1   3   84.26    4.42
  -2   1  -3   82.92    2.59
  -2   1  -3   82.16    2.52
   2   1   3   82.20    4.04
  -2   1  -3   91.97    4.60
  -2   1  -3   82.18    4.24
   2   1   3   85.61    4.47
   2   1   3   85.40    3.52
   3  -1   3   30.63    3.29
  -3  -1  -3   31.91    2.26
   3  -1   3   29.66    3.03
  -3  -1  -3   28.54    2.92
   3   1   3   27.98    3.03
   3   1   3   29.45    2.90
  -3   1  -3   27.31    2.83
   3   1   3   34.34    2.28
   4  -1   3   11.37    2.50
  -4  -1  -3   10.24    2.20
   4  -1   3   12.41    2.81
  -4  -1  -3   10.49    1.58
   4   1   3    8.99    2.09
   4   1   3   10.21    2.44
  -4   1  -3    9.85    1.98
   4   1   3    8.89    1.43
   4   1   3   10.47    2.26
   5  -1   3    0.60    1.64
   5  -1   3    2.05    1.75
  -5  -1  -3    2.21    1.58
   5  -1   3    0.98    1.42
  -5  -1  -3    0.32    0.83
   5   1   3    0.03    1.42
   5   1   3    0.62    1.38
   5   1   3    2.09    1.69
  -5   1  -3    3.57    2.81
   5   1   3    1.23    0.78
   6  -1   3    0.22    1.78
   6  -1   3   -0.65    1.35
   6   1   3   -1.68    1.48
   6   1   3   -0.22    1.74
  -7  -2   3   59.60    5.02
   7  -2  -3   45.23    4.23
   7  -2  -3   45.44    3.83
  -7  -2   3   49.37    5.18
   7  -2  -3   45.43    3.78
   7   2  -3   45.97    4.55
   7   2  -3   45.55    4.44
   7   2  -3   48.36    4.55
  -6  -2   3   98.93    5.56
   6  -2  -3   95.59    4.86
   6  -2  -3   92.39    5.40
  -6  -2   3   92.74    6.32
  -6  -2   3   95.31    5.88
   6  -2  -3   96.33    6.44
   6  -2  -3   98.04    4.84
   6   2  -3  112.96    6.50
  -6   2   3   93.79    5.35
   6   2  -3   89.36    5.59
   6   2  -3  102.89    6.46
   5  -2  -3    4.09    1.77
   5  -2  -3    4.24    1.28
   5  -2  -3    2.41    1.32
  -5  -2   3    3.69    1.37
  -5  -2   3    3.25    1.63
  -5  -2   3    1.92    1.61
   5  -2  -3    2.73    1.15
  -5   2   3   -0.14    1.58
   5   2  -3    4.09    1.53
   5   2  -3    3.45    1.56
  -5   2   3    2.06    1.20
   5   2  -3    1.77    1.52
   5   2  -3    1.27    1.33
   4  -2  -3    5.23    1.51
   4  -2  -3    6.84    1.26
  -4  -2   3    4.60    1.65
   4  -2  -3    3.31    1.49
  -4  -2   3    4.70    1.78
   4  -2  -3    4.91    1.12
   4   2  -3    5.70    1.85
  -4   2   3    7.42    1.63
  -4   2   3    5.55    1.84
   4   2  -3    5.07    1.74
   4   2  -3    4.97    1.41
   4   2  -3    5.35    1.64
   3  -2  -3  324.81   10.31
  -3  -2   3  341.21   10.71
  -3  -2   3  335.17   10.65
   3  -2  -3  340.28   10.30
   3  -2  -3  348.38    8.78
   3  -2  -3  345.20    8.68
   3   2  -3  335.17   10.05
   3   2  -3  343.63   10.55
  -3   2   3  349.09   10.50
  -3   2   3  339.08   10.21
   3   2  -3  348.27   11.09
   3   2  -3  339.68   10.98
   2  -2  -3    4.80    0.91
  -2  -2   3    6.35    1.51
  -2  -2   3    6.05    1.40
   2  -2  -3    8.07    1.59
   2  -2  -3    4.49    1.31
  -2  -2   3    8.03    1.71
   2   2  -3    4.04    1.12
   2   2  -3    5.58    1.30
   2   2  -3    5.48    1.49
   2   2  -3    4.41    1.46
  -2   2   3    5.41    1.41
  -1  -2   3  240.75    7.59
   1  -2  -3  258.30    7.79
   1  -2  -3  252.12    6.96
   1  -2  -3  260.09    7.80
  -1  -2   3  239.40    7.93
   1  -2  -3  256.60    6.99
  -1  -2   3  250.94    7.58
  -1   2   3  267.85    6.99
   1   2  -3  253.53    7.54
   1   2  -3  230.85    7.78
   1   2  -3  238.99    7.65
  -1   2   3  255.33    6.89
   0  -2  -3  624.12   15.41
   0  -2   3  627.30   15.64
   0  -2   3  607.57   14.71
   0  -2  -3  634.18   15.21
   0  -2  -3  626.10   14.16
   0  -2   3  613.81   15.91
   0   2  -3  599.01   15.51
   0   2   3  625.03   14.16
   0   2  -3  602.68   14.63
   0   2  -3  611.02   15.79
  -1  -2  -3  174.43    5.17
   1  -2   3  167.28    6.57
  -1  -2  -3  169.68    5.85
   1  -2   3  169.14    4.69
   1  -2   3  184.08    6.41
  -1  -2  -3  170.63    6.21
   1   2   3  164.97    5.13
  -1   2  -3  174.29    6.54
   1   2   3  169.62    6.18
  -1   2  -3  177.37    4.78
  -1   2  -3  166.45    6.16
   1   2   3  171.63    5.87
   2  -2   3   54.26    3.49
  -2  -2  -3   53.53    3.04
   2  -2   3   54.04    3.87
  -2  -2  -3   47.03    3.38
   2   2   3   48.74    2.98
  -2   2  -3   53.32    3.74
   2   2   3   46.71    3.45
   2   2   3   50.69    2.88
   3  -2   3    0.75    1.18
  -3  -2  -3    1.31    2.06
   3  -2   3    2.02    1.44
  -3  -2  -3   -0.43    0.82
  -3   2  -3   -0.34    0.97
   3   2   3   -0.38    0.89
   3   2   3   -0.10    1.02
   3   2   3    0.18    0.89
   3   2   3    1.63    1.28
   4  -2   3  114.09    6.19
  -4  -2  -3  114.72    5.04
   4  -2   3  105.31    6.51
  -4  -2  -3  115.42    6.28
   4   2   3  119.19    5.96
   4   2   3  117.08    4.98
  -4   2  -3  111.69    5.69
   4   2   3  115.31    5.73
   4   2   3  116.03    6.49
   5  -2   3    3.14    2.44
   5  -2   3    3.06    1.74
   5  -2   3    4.62    2.48
  -5  -2  -3    4.14    1.92
   5   2   3    4.98    2.03
   5   2   3    2.72    1.79
   5   2   3    7.40    2.10
   5   2   3    4.64    1.22
   6  -2   3   -3.05    1.51
   6  -2   3    0.02    1.73
   6   2   3    1.76    1.04
   6   2   3   -0.04    2.12
   6   2   3    0.80    2.02
   7  -3  -3    4.50    1.90
  -7  -3   3    5.45    2.30
   7  -3  -3    5.10    1.68
   7  -3  -3    5.88    1.63
   7   3  -3    7.34    2.47
   7   3  -3    2.85    2.08
   7   3  -3    3.02    2.07
   6  -3  -3   77.91    4.07
  -6  -3   3   79.42    5.85
   6  -3  -3   61.88    5.47
  -6  -3   3   70.57    4.97
   6  -3  -3   75.08    4.79
   6  -3  -3   69.62    4.02
   6   3  -3   78.25    5.59
   6   3  -3   70.21    5.20
   6   3  -3   80.88    5.85
   6   3  -3   75.34    5.62
  -5  -3   3    0.50    1.38
  -5  -3   3    1.06    1.31
   5  -3  -3    1.82    1.00
   5  -3  -3    1.30    0.91
  -5  -3   3    0.77    1.46
   5  -3  -3    0.83    1.08
   5  -3  -3    1.60    1.59
   5   3  -3    0.66    1.40
   5   3  -3    1.03    1.32
   5   3  -3    1.71    1.58
   5   3  -3    2.12    1.44
   4  -3  -3  445.95   12.80
  -4  -3   3  434.52   13.43
   4  -3  -3  410.19   13.14
  -4  -3   3  424.61   13.22
   4   3  -3  422.54   13.39
  -4   3   3  409.50   13.16
   4   3  -3  421.87   12.69
   4   3  -3  418.70   12.79
   4   3  -3  430.13   13.27
  -3  -3   3  191.82    7.48
   3  -3  -3  193.59    7.10
  -3  -3   3  196.82    7.47
   3  -3  -3  190.30    7.02
   3   3  -3  190.65    7.49
   3   3  -3  194.77    7.47
   3   3  -3  196.22    7.15
  -3   3   3  193.57    7.13
   3   3  -3  194.72    8.09
   2  -3  -3  336.28   10.06
   2  -3  -3  331.19   10.05
  -2  -3   3  351.68   10.34
  -2  -3   3  330.65   10.35
   2  -3  -3  341.49    9.53
  -2  -3   3  332.60    9.94
   2   3  -3  352.66   10.38
  -2   3   3  350.05    9.59
   2   3  -3  334.62   10.40
   2   3  -3  329.84   10.02
   2   3  -3  340.66   10.01
   1  -3  -3   59.33    2.59
  -1  -3   3   56.41    3.70
   1  -3  -3   64.06    3.62
  -1  -3   3   60.50    3.34
  -1  -3   3   62.12    3.42
   1  -3  -3   63.15    2.76
   1   3  -3   59.21    3.33
  -1   3   3   64.22    2.65
   1   3  -3   59.21    3.42
   1   3  -3   58.11    3.56
  -1   3   3   61.02    2.64
   0  -3  -3  479.94   12.27
   0  -3   3  475.03   11.96
   0  -3   3  420.64   14.25
   0  -3   3  473.82   12.84
   0  -3  -3  497.74   12.90
   0  -3  -3  464.32   10.66
   0   3   3  483.72   12.88
   0   3  -3  492.90   12.00
   0   3   3  467.67   10.64
   0   3  -3  480.62   13.24
   0   3  -3  472.44   12.76
  -1  -3  -3    2.48    1.19
   1  -3   3    2.61    1.49
  -1  -3  -3    3.67    1.31
   1  -3   3    0.76    0.91
   1  -3   3    2.56    0.67
   1   3   3    1.48    0.60
  -1   3  -3    1.74    0.64
  -1   3  -3    2.25    1.34
   1   3   3    1.87    0.98
  -1   3  -3    1.89    1.06
   2  -3   3    9.54    1.97
  -2  -3  -3    6.44    1.57
  -2  -3  -3    7.05    1.82
   2  -3   3    6.44    1.93
  -2   3  -3    5.15    1.38
   2   3   3    7.91    1.29
   2   3   3    7.76    1.65
   2   3   3    7.26    1.29
   2   3   3    4.59    1.49
  -2   3  -3    7.79    2.08
  -3  -3  -3    0.79    1.14
   3  -3   3    2.86    1.79
   3  -3   3    4.35    1.44
  -3  -3  -3    3.08    1.51
  -3   3  -3    2.40    1.20
   3   3   3    3.28    1.60
   3   3   3    1.91    1.03
   3   3   3    2.07    1.13
  -3   3  -3    5.00    1.74
   4  -3   3    4.08    1.75
  -4  -3  -3    5.90    1.78
  -4  -3  -3    5.59    2.20
   4  -3   3    3.31    2.16
   4   3   3    5.51    1.99
   4   3   3    6.12    1.62
   4   3   3    4.15    1.55
   4   3   3    5.51    1.75
  -4   3  -3    1.60    1.36
   5  -3   3  141.35    8.42
   5  -3   3  148.10    7.75
  -5  -3  -3  156.58    8.15
  -5  -3  -3  160.40    6.84
   5   3   3  153.75    7.27
   5   3   3  148.19    6.44
   5   3   3  153.81    8.37
   6  -3   3    9.55    2.96
  -6  -3  -3    8.71    2.11
   6  -3   3   11.45    2.66
   6   3   3   13.22    2.68
   6   3   3    9.36    2.52
   6   3   3   10.61    2.94
   7  -4  -3   30.83    2.88
  -7  -4   3   41.47    4.60
   7  -4  -3   39.74    3.46
   7  -4  -3   30.80    3.42
   7  -4  -3   36.28    3.02
   7  -4  -3   35.06    4.75
   7   4  -3   39.17    4.56
   7   4  -3   35.75    4.46
   7   4  -3   28.96    4.37
  -6  -4   3    1.58    1.88
  -6  -4   3    5.11    2.18
  -6  -4   3    4.99    2.06
   6  -4  -3    0.99    1.33
   6  -4  -3    5.26    1.32
   6   4  -3    5.52    2.24
   6   4  -3    4.70    1.68
   6   4  -3    7.17    2.38
   6   4  -3    9.16    2.65
  -5  -4   3   39.31    4.03
  -5  -4   3   41.39    3.96
   5  -4  -3   35.35    3.27
  -5  -4   3   34.86    3.57
   5  -4  -3   30.36    3.55
   5   4  -3   40.92    3.93
   5   4  -3   35.08    4.05
   5   4  -3   35.16    3.90
   5   4  -3   33.98    3.68
   4  -4  -3  593.12   16.62
  -4  -4   3  615.69   17.59
  -4  -4   3  594.21   17.33
   4  -4  -3  585.06   16.42
  -4  -4   3  609.13   17.02
   4  -4  -3  597.14   17.23
   4   4  -3  602.06   17.13
   4   4  -3  624.16   17.73
   4   4  -3  603.31   16.98
   4   4  -3  610.33   17.62
   3  -4  -3  254.50    8.68
   3  -4  -3  263.98    8.79
   3  -4  -3  258.25    8.85
  -3  -4   3  263.99    9.27
  -3  -4   3  254.95    9.17
   3   4  -3  264.33    8.97
   3   4  -3  247.65    8.82
   3   4  -3  254.32    9.20
   3   4  -3  257.12    9.23
   2  -4  -3   45.41    3.22
  -2  -4   3   44.89    3.45
   2  -4  -3   45.16    3.22
  -2  -4   3   43.11    3.70
  -2  -4   3   47.50    3.26
   2  -4  -3   48.57    2.81
   2   4  -3   53.13    3.37
   2   4  -3   44.30    3.19
   2   4  -3   53.54    3.69
   2   4  -3   43.95    3.34
  -1  -4   3  240.46    8.02
   1  -4  -3  248.76    6.88
   1  -4  -3  250.74    6.60
  -1  -4   3  244.82    7.91
  -1  -4   3  236.39    8.41
   1  -4  -3  254.63    8.24
   1   4  -3  233.41    8.03
   1   4  -3  233.80    8.27
   1   4  -3  246.19    8.39
  -1   4   3  249.49    6.67
   0  -4   3   18.77    2.29
   0  -4  -3   20.89    2.41
   0  -4   3   21.14    2.64
   0  -4  -3   19.37    2.02
   0  -4   3   21.69    2.02
   0   4  -3   20.70    2.06
   0   4  -3   25.46    2.66
   0   4  -3   20.11    2.24
   0   4   3   18.34    2.39
  -1  -4  -3  189.29    6.98
   1  -4   3  202.91    7.24
  -1  -4  -3  198.74    8.08
   1  -4   3  194.57    7.76
   1  -4   3  199.46    5.85
   1   4   3  207.50    7.21
   1   4   3  196.37    7.35
  -1   4  -3  206.69    5.86
  -1   4  -3  207.35    7.95
  -1   4  -3  215.58    7.96
  -2  -4  -3   58.13    3.80
   2  -4   3   50.00    4.01
  -2  -4  -3   47.11    3.56
   2  -4   3   53.48    3.59
   2   4   3   51.39    3.65
  -2   4  -3   48.79    3.30
  -2   4  -3   49.71    3.96
   2   4   3   49.63    3.74
   2   4   3   50.73    2.38
   2   4   3   51.42    2.35
  -3  -4  -3   14.76    2.54
   3  -4   3   15.81    2.38
  -3  -4  -3   21.55    2.75
   3  -4   3   15.30    2.97
   3   4   3   20.77    2.06
   3   4   3   17.75    1.96
  -3   4  -3   20.63    2.42
   3   4   3   17.32    2.61
  -3   4  -3   14.68    2.72
   3   4   3   17.40    2.62
  -4  -4  -3    2.36    1.67
  -4  -4  -3    3.83    1.82
   4  -4   3    4.87    2.43
   4  -4   3    4.69    2.27
   4   4   3    4.79    1.67
   4   4   3    1.20    1.89
   4   4   3    4.61    1.56
  -4   4  -3    3.92    1.56
   4   4   3    2.22    1.40
   5  -4   3  171.10    9.39
   5  -4   3  156.01    7.84
  -5  -4  -3  166.08    7.52
  -5  -4  -3  168.47    9.89
   5   4   3  153.67    7.27
   5   4   3  174.66    9.00
   5   4   3  166.07    7.38
   5   4   3  161.21    7.26
  -6  -4  -3    2.22    2.09
   6  -4   3    7.01    3.93
   6   4   3    6.12    2.99
   6   4   3    8.97    2.33
   6   4   3    4.50    2.16
   6   4   3   12.71    2.95
  -7  -5   3    3.02    1.99
   7  -5  -3   -0.94    1.60
   7  -5  -3   -1.69    1.29
   7   5  -3    0.57    1.69
   7   5  -3    1.14    1.72
   7   5  -3   -0.26    1.59
   6  -5  -3  171.11    9.17
   6  -5  -3  180.42    7.72
  -6  -5   3  177.39    8.94
   6  -5  -3  174.46    7.40
  -6  -5   3  161.81    8.32
   6   5  -3  165.32    8.59
   6   5  -3  170.94    8.71
   6   5  -3  170.41    8.83
   6   5  -3  162.81    8.68
   5  -5  -3   28.46    3.14
  -5  -5   3   31.94    3.80
   5  -5  -3   34.89    4.02
   5  -5  -3   34.48    3.34
   5  -5  -3   27.71    3.77
  -5  -5   3   33.55    3.72
   5   5  -3   34.35    3.84
   5   5  -3   29.72    3.76
   5   5  -3   35.93    4.15
   5   5  -3   30.11    3.57
  -4  -5   3    1.01    1.24
  -4  -5   3    1.21    1.48
   4  -5  -3    0.84    1.11
  -4  -5   3    1.10    1.55
   4  -5  -3    2.53    1.54
   4  -5  -3    2.89    1.18
   4   5  -3    1.03    1.22
   4   5  -3    3.27    1.61
   4   5  -3    1.95    1.72
   4   5  -3    2.62    1.61
  -3  -5   3  155.57    6.90
   3  -5  -3  170.75    6.78
   3  -5  -3  141.89    6.34
  -3  -5   3  155.67    7.01
   3  -5  -3  149.98    6.48
   3   5  -3  153.17    6.83
   3   5  -3  145.93    6.54
   3   5  -3  159.25    7.10
   3   5  -3  155.58    6.79
  -2  -5   3   30.13    2.87
  -2  -5   3   31.05    3.07
  -2  -5   3   36.57    3.23
   2  -5  -3   31.64    2.34
   2  -5  -3   35.33    3.05
   2   5  -3   33.79    2.99
   2   5  -3   31.11    2.99
   2   5  -3   31.89    3.18
   2   5  -3   33.63    2.93
  -1  -5   3  326.52    9.96
  -1  -5   3  306.00    9.90
   1  -5  -3  323.83    8.13
   1  -5  -3  321.44    8.15
   1  -5  -3  321.11   10.28
  -1  -5   3  320.70   10.53
   1  -5  -3  313.52    8.53
   1   5  -3  333.16    9.97
   1   5  -3  305.24    9.81
   1   5  -3  313.56   11.35
  -1   5   3  326.38   10.36
   1   5  -3  307.94    9.96
   0  -5   3  362.71   10.96
   0  -5   3  360.40   11.66
   0  -5   3  357.05   10.35
   0  -5  -3  366.77   11.33
   0  -5  -3  369.97   10.28
   0   5   3  357.98   11.35
   0   5  -3  380.44   11.71
   0   5  -3  372.07   10.37
   0   5   3  362.90   10.11
  -1  -5  -3   45.05    3.24
   1  -5   3   47.56    2.61
   1  -5   3   45.23    3.85
   1  -5   3   49.35    3.40
  -1  -5  -3   50.25    3.66
  -1   5  -3   43.37    3.65
   1   5   3   49.72    3.66
  -1   5  -3   49.33    3.20
  -1   5  -3   47.73    2.60
  -2  -5  -3  244.02    8.83
  -2  -5  -3  230.56    8.59
   2  -5   3  223.01    9.24
   2  -5   3  241.60    5.98
   2  -5   3  239.12    8.43
  -2   5  -3  218.53    7.78
   2   5   3  225.61    5.64
   2   5   3  234.65    8.73
   2   5   3  215.10    5.61
  -2   5  -3  238.31    9.38
  -2   5  -3  229.05    5.86
   2   5   3  225.98    8.59
   3  -5   3  151.79    6.77
  -3  -5  -3  157.84    7.10
  -3  -5  -3  145.75    7.13
   3  -5   3  158.43    8.05
   3   5   3  149.08    6.98
   3   5   3  153.84    7.38
   3   5   3  149.50    5.21
  -3   5  -3  162.33    7.93
  -3   5  -3  147.47    6.24
   3   5   3  150.34    5.18
   4  -5   3   55.63    4.30
  -4  -5  -3   54.10    4.34
  -4  -5  -3   58.65    4.90
   4  -5   3   46.78    5.10
   4   5   3   55.28    3.44
   4   5   3   54.72    4.94
   4   5   3   50.05    3.40
  -4   5  -3   46.57    3.85
   4   5   3   46.98    4.13
   5  -5   3   -2.53    1.49
  -5  -5  -3    4.53    2.84
   5  -5   3   -1.27    1.14
   5   5   3    0.36    1.21
   5   5   3    0.68    1.40
   5   5   3   -0.68    1.50
   5   5   3    0.26    1.14
   7  -6  -3    3.43    1.79
  -7  -6   3    5.26    2.49
   7  -6  -3   -1.96    3.79
   7   6  -3    4.92    2.49
   7   6  -3   10.71    3.15
   7   6  -3    8.32    2.69
   6  -6  -3   32.43    3.24
  -6  -6   3   30.51    3.97
   6  -6  -3   41.24    3.70
   6  -6  -3   43.95    5.17
  -6  -6   3   46.23    4.70
   6   6  -3   33.43    4.13
   6   6  -3   54.26    5.08
   6   6  -3   37.65    4.54
   5  -6  -3  321.90   11.18
  -5  -6   3  319.23   12.44
   5  -6  -3  317.18   10.91
   5  -6  -3  302.37   11.95
  -5  -6   3  316.23   12.00
  -5  -6   3  308.00   11.92
   5   6  -3  325.72   12.45
   5   6  -3  319.36   12.25
   5   6  -3  312.85   12.04
   5   6  -3  310.44   11.90
  -4  -6   3    0.63    1.41
  -4  -6   3    1.11    1.46
   4  -6  -3   -0.86    1.31
   4  -6  -3   -0.09    1.01
   4  -6  -3   -0.38    1.09
   4  -6  -3    0.75    1.26
  -4  -6   3    0.18    1.25
   4   6  -3    3.98    1.99
   4   6  -3    0.45    1.17
   4   6  -3    0.41    1.25
   3  -6  -3   49.70    3.58
   3  -6  -3   49.03    3.72
   3  -6  -3   53.31    3.91
   3  -6  -3   56.40    3.75
  -3  -6   3   52.75    4.13
  -3  -6   3   53.44    4.13
   3   6  -3   53.03    4.07
   3   6  -3   62.42    4.28
   3   6  -3   48.29    4.14
   2  -6  -3   53.02    3.81
  -2  -6   3   52.61    3.83
  -2  -6   3   53.33    3.93
  -2  -6   3   56.20    4.11
   2  -6  -3   56.40    3.23
   2  -6  -3   51.90    3.05
   2   6  -3   59.13    3.96
   2   6  -3   48.81    3.88
   2   6  -3   55.98    3.95
   2   6  -3   49.61    3.96
   1  -6  -3  105.36    3.68
   1  -6  -3  108.65    4.19
  -1  -6   3  115.66    5.83
  -1  -6   3  107.82    5.27
  -1  -6   3  105.25    5.21
   1  -6  -3  106.37    5.44
   1  -6  -3  113.20    3.75
   1   6  -3  109.87    5.17
  -1   6   3  111.75    5.65
   1   6  -3  108.38    5.50
   1   6  -3  112.29    5.38
   1   6  -3  104.30    5.18
   0  -6   3    2.74    1.12
   0  -6  -3    2.94    1.05
   0  -6   3    2.98    1.41
   0  -6  -3    1.75    1.38
   0  -6   3    1.35    0.98
   0   6   3    2.84    1.06
   0   6  -3    2.44    1.16
   0   6   3    2.22    1.37
   0   6  -3    1.04    1.09
   0   6  -3    2.71    1.53
   1  -6   3   12.10    1.69
  -1  -6  -3   18.78    3.44
   1  -6   3   15.17    2.40
   1  -6   3   11.96    2.54
  -1  -6  -3   11.41    2.18
  -1   6  -3   13.50    1.81
  -1   6  -3   12.91    2.58
  -1   6  -3   13.70    2.00
   1   6   3   15.58    2.77
  -2  -6  -3    5.67    1.91
  -2  -6  -3    6.35    1.87
   2  -6   3    5.59    2.08
   2  -6   3    5.75    1.72
   2  -6   3    7.10    1.09
   2   6   3    5.46    1.65
   2   6   3    5.84    2.07
  -2   6  -3    2.78    1.20
  -2   6  -3    6.05    2.04
  -2   6  -3    7.90    1.12
  -3  -6  -3  114.68    6.40
  -3  -6  -3  115.56    6.41
  -3   6  -3  109.21    6.78
   3   6   3  112.53    6.45
   3   6   3  109.62    3.80
   3   6   3  114.59    6.38
  -3   6  -3  114.94    5.28
   3   6   3  115.11    3.88
  -4  -6  -3    1.19    1.65
   4  -6   3    2.70    2.06
   4  -6   3    0.94    1.32
   4   6   3    0.98    1.70
   4   6   3    3.44    1.16
   4   6   3    3.94    1.81
   5  -6   3    0.50    1.25
   5  -6   3    3.00    2.07
   5   6   3   -1.61    1.02
   5   6   3   -1.02    1.91
   5   6   3    0.71    1.33
   5   6   3   -0.99    1.36
   6  -7  -3    4.96    1.77
  -6  -7   3   12.38    3.06
   6  -7  -3    7.50    2.75
  -6  -7   3    3.45    2.55
   6  -7  -3    5.02    1.84
   6   7  -3    4.98    2.25
   6   7  -3    1.50    2.20
   6   7  -3    3.15    2.41
  -5  -7   3  106.96    6.66
   5  -7  -3  100.47    5.83
   5  -7  -3  102.18    6.67
  -5  -7   3  103.52    6.47
   5  -7  -3   94.74    5.44
   5  -7  -3  100.01    6.45
   5   7  -3   93.08    6.37
   5   7  -3  130.62   10.35
   5   7  -3  112.47    7.20
   5   7  -3  102.99    6.60
   4  -7  -3   51.30    4.02
  -4  -7   3   54.36    4.84
   4  -7  -3   48.24    4.06
  -4  -7   3   57.32    4.65
   4  -7  -3   46.15    3.83
   4  -7  -3   45.61    4.24
   4   7  -3   61.90    4.61
   4   7  -3   49.34    4.51
   4   7  -3   46.44    4.28
   4   7  -3   52.32    4.89
   3  -7  -3   34.07    3.20
   3  -7  -3   32.80    3.41
  -3  -7   3   35.30    3.85
   3  -7  -3   33.05    3.03
  -3  -7   3   37.29    3.68
   3   7  -3   35.65    3.50
   3   7  -3   40.44    3.66
   3   7  -3   38.16    3.77
   3   7  -3   31.61    3.73
  -2  -7   3    2.05    1.57
   2  -7  -3    4.79    1.30
   2  -7  -3    5.02    1.64
   2  -7  -3    3.82    1.27
  -2  -7   3    5.56    1.91
  -2  -7   3    1.87    1.28
   2   7  -3    3.54    1.77
   2   7  -3    3.09    1.38
   2   7  -3    2.71    1.56
   2   7  -3    2.21    1.40
   1  -7  -3  101.34    3.76
  -1  -7   3  110.33    5.68
   1  -7  -3  115.49    4.50
  -1  -7   3  104.85    5.43
  -1  -7   3  115.21    6.07
   1  -7  -3  106.36    5.82
   1  -7  -3  112.14    3.84
   1   7  -3  105.23    5.47
  -1   7   3  113.80    6.05
   1   7  -3  110.85    5.82
   1   7  -3  101.06    5.22
   1   7  -3  107.62    5.53
   0  -7  -3   14.33    2.20
   0  -7   3   10.43    1.96
   0  -7   3   11.69    2.45
   0  -7  -3   12.68    2.55
   0  -7   3    8.44    1.81
   0   7   3   15.41    2.13
   0   7  -3   14.47    2.62
   0   7  -3   12.18    2.04
   0   7  -3   13.38    2.30
   0   7   3    9.19    2.19
   0   7  -3   12.05    3.23
  -1  -7  -3   35.76    3.24
  -1  -7  -3   33.61    3.63
   1  -7   3   34.27    3.08
   1  -7   3   33.39    2.75
   1  -7   3   31.21    3.69
  -1   7  -3   36.05    2.92
   1   7   3   37.53    3.78
  -1   7  -3   38.43    2.93
  -1   7  -3   30.74    3.56
  -1   7  -3   36.60    2.99
   1   7   3   37.14    3.53
   2  -7   3   25.51    3.54
  -2  -7  -3   20.39    3.19
   2  -7   3   25.73    2.10
  -2  -7  -3   17.00    2.72
   2  -7   3   23.12    2.82
  -2   7  -3   26.70    4.29
  -2   7  -3   21.58    1.96
   2   7   3   19.07    2.86
  -2   7  -3   17.86    2.85
   2   7   3   21.09    3.40
   3  -7   3   58.09    5.26
  -3  -7  -3   62.20    4.92
  -3  -7  -3   56.13    4.95
   3  -7   3   61.88    4.37
  -3   7  -3   61.80    5.34
  -3   7  -3   55.43    3.71
   3   7   3   50.98    4.61
  -4  -7  -3   48.02    4.68
  -4  -7  -3   33.05    4.38
   4  -7   3   39.92    4.70
   4  -7   3   43.16    3.83
   4   7   3   43.53    2.46
   4   7   3   37.74    4.33
   4   7   3   37.08    2.31
   4   7   3   43.13    4.69
  -5  -7  -3   -0.75    1.86
   5  -7   3   -0.22    2.94
   5   7   3    1.00    1.92
   5   7   3   -0.57    1.06
  -6  -8   3    7.03    2.28
   6  -8  -3   -0.27    1.60
   6  -8  -3    2.22    1.46
   6  -8  -3    3.85    1.96
   6   8  -3    4.49    2.44
   6   8  -3    3.22    1.94
   6   8  -3    4.57    2.52
   5  -8  -3    6.07    1.87
   5  -8  -3    3.70    2.13
   5  -8  -3    3.61    1.66
  -5  -8   3    1.66    1.63
  -5  -8   3    5.41    2.22
   5  -8  -3    3.88    2.00
   5   8  -3    6.00    2.13
   5   8  -3    5.14    2.48
   5   8  -3    4.10    1.80
   5   8  -3    1.67    1.89
   4  -8  -3   15.25    2.57
   4  -8  -3   12.50    2.49
   4  -8  -3   14.27    2.93
  -4  -8   3   18.21    3.15
   4  -8  -3   19.09    3.25
   4   8  -3   14.22    3.07
   4   8  -3   15.79    3.02
   4   8  -3   12.49    2.81
   4   8  -3   14.59    3.10
   3  -8  -3   -0.19    0.95
   3  -8  -3   -0.14    1.06
   3  -8  -3    0.04    1.24
  -3  -8   3    0.81    1.44
  -3  -8   3    0.53    1.57
   3   8  -3    1.65    1.26
   3   8  -3    0.73    1.45
   3   8  -3    1.30    1.33
   2  -8  -3   16.66    2.15
  -2  -8   3   22.53    3.12
   2  -8  -3   19.44    2.17
  -2  -8   3   16.53    2.97
  -2  -8   3   17.77    2.84
   2  -8  -3   14.25    2.74
   2   8  -3   19.52    3.03
   2   8  -3   16.13    2.94
   2   8  -3   16.36    2.62
   2   8  -3   23.25    3.39
   1  -8  -3  242.34    7.71
  -1  -8   3  252.30    9.88
  -1  -8   3  247.80    9.32
   1  -8  -3  240.31    9.63
   1  -8  -3  239.02    6.86
  -1  -8   3  223.11    9.18
   1  -8  -3  243.02    6.82
   1   8  -3  242.46    8.94
   1   8  -3  227.50    9.19
   1   8  -3  249.82    9.32
  -1   8   3  242.99    9.80
   1   8  -3  241.74    9.48
   0  -8  -3   58.88    3.79
   0  -8   3   64.49    4.97
   0  -8   3   60.82    4.25
   0  -8   3   65.94    4.46
   0  -8  -3   57.45    4.62
   0   8   3   59.04    3.46
   0   8  -3   68.55    4.34
   0   8   3   64.76    4.89
   0   8  -3   66.81    4.87
   0   8  -3   66.85    4.39
   0   8   3   66.44    3.74
  -1  -8  -3   63.37    4.33
   1  -8   3   62.97    4.32
   1  -8   3   66.01    4.07
   1  -8   3   68.07    5.25
  -1  -8  -3   63.14    6.53
  -1   8  -3   65.13    4.00
  -1   8  -3   64.07    3.93
   1   8   3   61.96    4.17
  -1   8  -3   65.69    5.01
   1   8   3   61.14    5.04
   2  -8   3  182.65    7.55
   2  -8   3  174.18    8.78
  -2  -8  -3  155.84    8.11
  -2  -8  -3  166.54    7.79
   2  -8   3  176.49    6.21
  -2   8  -3  172.72    6.71
  -2   8  -3  156.80    6.61
  -2   8  -3  170.54    8.65
   2   8   3  167.38    8.33
   2   8   3  150.83    7.35
  -3  -8  -3    1.05    1.43
   3  -8   3   -0.08    0.52
   3  -8   3   -0.71    1.35
  -3  -8  -3   -3.12    1.94
   3  -8   3    0.62    1.18
   3   8   3   -1.01    1.18
   3   8   3    0.38    1.75
  -4  -8  -3    0.55    1.65
   4  -8   3   -0.52    1.75
   4  -8   3   -0.73    1.05
   4   8   3   -2.45    1.54
   4   8   3    0.17    1.49
   5  -9  -3    1.34    1.39
   5  -9  -3   -1.04    1.34
   5  -9  -3    1.12    1.56
  -5  -9   3    1.50    1.62
   5   9  -3   -3.87    1.37
   5   9  -3    2.51    1.91
   5   9  -3    5.06    1.91
   5   9  -3    1.23    1.70
   4  -9  -3    4.07    1.94
  -4  -9   3   10.96    2.78
   4  -9  -3    5.69    1.96
   4  -9  -3    5.62    1.91
   4   9  -3    7.91    2.44
   4   9  -3    6.78    3.59
   4   9  -3   11.12    2.88
   4   9  -3   13.44    2.77
   3  -9  -3   26.75    4.90
  -3  -9   3   26.73    4.14
   3  -9  -3   29.46    3.10
   3  -9  -3   27.15    2.94
  -3  -9   3   32.11    3.54
   3   9  -3   24.39    4.01
   3   9  -3   30.84    3.62
   3   9  -3   24.73    3.16
   3   9  -3   34.05    4.37
   2  -9  -3   71.22    4.06
   2  -9  -3   77.56    4.12
  -2  -9   3   67.83    5.50
  -2  -9   3   85.88    5.61
   2   9  -3   76.07    5.15
   2   9  -3   79.35    6.01
   2   9  -3   83.33    5.24
   1  -9  -3  208.96    6.30
  -1  -9   3  210.55    8.86
  -1  -9   3  220.65    9.42
   1  -9  -3  200.93    9.15
   1  -9  -3  204.94    6.20
  -1  -9   3  213.01    9.19
   1  -9  -3  202.61    7.21
   1   9  -3  207.23    8.90
   1   9  -3  218.11    9.14
   0  -9   3   35.36    3.62
   0  -9  -3   38.56    3.31
   0  -9   3   37.27    3.69
   0  -9  -3   30.93    3.92
   0  -9   3   35.87    4.08
   0   9  -3   36.09    3.24
   0   9   3   35.99    4.26
   0   9   3   32.95    2.95
   0   9   3   27.74    2.60
   0   9  -3   35.69    3.34
   0   9  -3   32.39    3.58
   0   9  -3   36.29    3.99
   1  -9   3   43.36    3.65
   1  -9   3   45.85    3.79
  -1  -9  -3   37.90    4.37
  -1  -9  -3   40.11    3.72
  -1   9  -3   44.39    3.56
  -1   9  -3   45.34    3.50
  -1   9  -3   35.31    4.12
  -1   9  -3   46.00    3.43
   1   9   3   42.52    4.52
   1   9   3   42.34    3.58
   1   9   3   40.98    3.53
   2  -9   3   93.53    6.69
  -2  -9  -3   83.34    5.59
   2  -9   3  105.63    6.55
   2  -9   3   87.32    5.24
  -2   9  -3   85.23    4.45
  -2   9  -3   89.10    4.57
  -2   9  -3   69.17    7.46
   2   9   3   83.75    6.26
   3  -9   3    8.93    1.98
   3  -9   3   14.86    3.73
  -3  -9  -3   18.62    3.29
   3  -9   3    8.73    1.29
  -3   9  -3   13.57    1.96
   3   9   3    6.80    2.08
   3   9   3   15.63    3.36
  -4  -9  -3   48.51    5.29
   4  -9   3   50.87    9.84
   4  -9   3   34.25    5.77
   4   9   3   60.75    5.50
   4   9   3   44.80    5.82
  -5 -10   3   72.99    5.51
   5 -10  -3   71.79    5.50
   5 -10  -3   69.98    5.73
   5  10  -3   74.77    6.55
   5  10  -3   82.12    6.75
   4 -10  -3   13.40    2.99
   4 -10  -3   16.81    3.19
   4 -10  -3   12.78    2.71
  -4 -10   3   11.61    2.79
   4 -10  -3   15.94    3.26
   4  10  -3   18.09    3.24
   4  10  -3   13.90    3.27
   4  10  -3   12.09    2.96
   3 -10  -3   -0.52    1.54
   3 -10  -3    0.65    1.16
  -3 -10   3    0.08    1.20
   3 -10  -3    0.88    1.25
   3  10  -3   -0.28    1.67
   3  10  -3    1.61    1.79
   3  10  -3    1.90    1.42
   3  10  -3   -2.27    1.44
   2 -10  -3   80.19    4.36
  -2 -10   3  102.92    6.23
   2 -10  -3  102.86    5.95
   2 -10  -3   80.44    5.95
   2  10  -3   91.01    6.35
   2  10  -3   89.48    5.85
   2  10  -3   87.68    5.99
   2  10  -3   90.34    5.66
  -1 -10   3   25.83    3.78
   1 -10  -3   27.65    1.94
  -1 -10   3   27.25    3.44
  -1 -10   3   24.56    3.75
   1 -10  -3   24.21    4.04
   1  10  -3   25.06    4.21
   1  10  -3   23.49    3.53
   1  10  -3   26.35    3.88
  -1  10   3   20.59    3.52
   1  10  -3   22.00    3.25
   0 -10   3  149.88    7.29
   0 -10   3  129.64    7.11
   0 -10  -3  141.79    6.47
   0  10  -3  136.30    6.46
   0  10   3  137.17    8.00
   0  10  -3  147.12    7.33
   0  10  -3  137.52    7.54
   0  10   3  145.09    6.03
   1 -10   3  154.09    7.28
   1 -10   3  155.97    8.47
   1 -10   3  142.20    6.95
  -1 -10  -3  138.01    7.02
  -1  10  -3  143.99    8.10
   1  10   3  153.15    7.00
   1  10   3  154.14    8.54
  -1  10  -3  147.03    6.48
  -1  10  -3  155.49    7.12
   2 -10   3    0.72    1.27
   2 -10   3    3.60    2.09
   2 -10   3    1.88    1.42
  -2 -10  -3    3.07    1.93
  -2  10  -3    2.22    1.40
   2  10   3    0.10    1.54
  -2  10  -3    2.89    1.42
  -3 -10  -3   17.15    3.42
   3 -10   3   21.80    4.07
   3 -10   3   11.96    2.47
   3 -10   3   14.86    1.90
   3  10   3   20.16    3.56
   3  10   3   13.48    3.19
   4 -11  -3    0.05    1.46
  -4 -11   3    2.15    1.58
   4 -11  -3   -2.58    1.23
   4 -11  -3    0.33    1.61
   4  11  -3    0.24    1.91
   4  11  -3   -0.34    2.26
  -3 -11   3    4.95    1.75
   3 -11  -3    6.25    1.92
   3 -11  -3    4.46    1.70
   3  11  -3    6.02    2.20
   3  11  -3    5.51    1.95
   3  11  -3    4.68    2.25
   2 -11  -3    4.31    1.41
  -2 -11   3    4.93    2.13
   2 -11  -3    2.50    1.20
   2  11  -3    4.22    1.97
   2  11  -3    0.10    1.80
  -1 -11   3  211.15    9.83
  -1 -11   3  192.83    9.25
   1 -11  -3  191.18    6.05
   1 -11  -3  210.70    6.31
   1 -11  -3  229.11    8.02
   1  11  -3  197.71    8.68
   1  11  -3  205.27    9.75
  -1  11   3  204.44   10.10
   1  11  -3  207.89    9.55
   0 -11   3   68.81    5.11
   0 -11   3   54.90    5.09
   0 -11   3   83.07    5.93
   0 -11  -3   69.75    4.69
   0  11  -3   71.28    5.27
   0  11   3   61.19    3.95
   0  11  -3   67.28    4.59
   0  11   3   59.80    5.47
   0  11  -3   55.21    5.21
   1 -11   3    4.75    2.29
  -1 -11  -3    1.11    1.48
   1 -11   3    0.92    1.35
   1 -11   3   -2.98    1.31
   1  11   3    1.24    1.52
   1  11   3    2.39    1.74
  -1  11  -3    2.12    1.54
  -1  11  -3    2.95    1.68
   2 -11   3  157.31    7.73
  -2 -11  -3  137.95    7.81
   2 -11   3  134.32    6.64
   2 -11   3  155.68    8.88
   2  11   3  138.45    8.77
   2  11   3  147.25    7.79
  -2  11  -3  161.27    7.06
  -2  11  -3  146.26    6.17
   3 -12  -3    4.35    1.84
   3 -12  -3    4.71    1.88
  -3 -12   3    3.41    1.79
   3  12  -3    3.64    2.49
   3  12  -3    8.36    2.68
   2 -12  -3    0.95    0.97
   2 -12  -3   -0.50    1.06
  -2 -12   3   -1.81    1.29
   2  12  -3   -0.27    2.51
   2  12  -3    4.05    2.20
   1 -12  -3   46.98    2.29
   1 -12  -3   45.05    3.75
   1 -12  -3   43.06    2.24
  -1 -12   3   53.15    4.85
  -1  12   3   46.29    5.06
   1  12  -3   39.89    4.58
   1  12  -3   37.42    4.04
   0 -12  -3   16.04    2.58
   0 -12   3   15.15    3.29
   0 -12   3   18.53    3.33
   0  12  -3   16.07    2.84
   0  12   3   14.65    2.36
   0  12  -3   15.21    2.89
   0  12   3   14.98    3.42
  -1 -12  -3   47.02    4.52
   1 -12   3   58.09    5.23
   1 -12   3   34.55    4.45
   1  12   3   42.43    6.17
  -1  12  -3   49.27    4.71
   1  12   3   54.20    5.75
  -1  12  -3   49.80    4.14
   8   0  -4   65.10    5.16
   8   0  -4   67.45    5.36
   8   0  -4   72.58    6.03
  -7   0   4    3.82    2.73
  -7   0   4    1.49    1.76
   7   0  -4   -0.59    1.12
   7   0  -4   -0.53    1.68
   7   0  -4    1.85    1.49
   6   0  -4    1.52    1.31
   6   0  -4    3.77    1.51
  -6   0   4    2.02    1.72
   6   0  -4    4.97    2.14
   6   0  -4    1.52    1.59
  -6   0   4    2.84    1.80
   5   0  -4    1.06    1.04
   5   0  -4    1.44    1.28
   5   0  -4    3.64    1.77
  -5   0   4    0.88    1.27
  -5   0   4    0.93    1.66
   5   0  -4    1.39    1.13
   4   0  -4  276.73    8.86
   4   0  -4  290.29    9.96
   4   0  -4  264.83    9.98
  -4   0   4  276.45   10.06
  -4   0   4  283.51    9.81
   4   0  -4  286.80    8.82
   3   0  -4   24.46    3.08
  -3   0   4   22.38    2.59
  -3   0   4   23.17    2.06
  -3   0   4   20.77    2.57
   3   0  -4   28.65    2.88
   3   0  -4   25.96    2.34
   2   0  -4   45.95    3.31
   2   0  -4   41.37    3.07
  -2   0   4   43.79    3.09
   2   0  -4   43.29    2.82
  -1   0   4 1326.85   29.93
   1   0  -4 1291.64   29.89
   1   0  -4 1270.39   29.77
  -1   0   4 1244.80   29.68
   1   0  -4 1325.83   29.93
  -1   0   4 1291.53   29.74
   0   0   4  308.84    9.19
   0   0   4  303.03    9.36
   0   0  -4  320.56    8.88
   0   0  -4  297.37    9.32
   0   0  -4  300.80    9.06
  -1   0  -4  501.73   13.59
   1   0   4  502.90   14.05
   1   0   4  508.62   13.88
  -1   0  -4  510.31   12.66
  -1   0  -4  495.94   13.93
  -1   0  -4  485.20   12.56
  -2   0  -4 1193.68   26.21
  -2   0  -4 1146.36   28.49
   2   0   4 1167.30   28.80
   2   0   4 1156.31   28.25
  -2   0  -4 1156.97   26.08
   3   0   4  144.40    6.71
  -3   0  -4  136.53    6.68
  -3   0  -4  141.70    4.50
  -3   0  -4  135.89    4.42
   3   0   4  135.56    6.85
   4   0   4   -0.38    1.39
  -4   0  -4    1.40    0.61
   4   0   4    0.99    1.67
   4   0   4    1.93    1.51
  -4   0  -4    1.95    1.63
  -4   0  -4    0.50    0.44
   5   0   4   27.03    4.21
   5   0   4   32.61    4.14
   5   0   4   29.11    3.87
   6   0   4    1.21    1.71
   6   0   4    2.48    2.17
   8  -1  -4   23.01    3.67
   8  -1  -4   34.87    4.05
   8  -1  -4   35.89    3.61
   8   1  -4   27.62    4.43
   8   1  -4   32.14    4.38
   8   1  -4   24.97    3.79
   7  -1  -4    0.96    1.71
  -7  -1   4   -1.28    1.18
   7  -1  -4   -1.17    1.24
   7  -1  -4    0.51    1.05
  -7  -1   4    1.86    1.63
   7   1  -4   -0.43    1.20
  -7   1   4    0.32    1.48
   7   1  -4   -1.28    1.46
   7   1  -4   -0.27    1.43
   6  -1  -4   79.64    5.94
   6  -1  -4   78.43    4.60
   6  -1  -4   80.95    5.35
  -6  -1   4   86.58    5.67
  -6  -1   4   87.52    6.15
   6  -1  -4   66.67    4.32
   6   1  -4   78.87    5.01
  -6   1   4   72.87    5.71
   6   1  -4   83.09    5.09
   6   1  -4   81.97    5.92
  -6   1   4   77.65    5.23
   6   1  -4   86.33    5.77
  -5  -1   4  175.92    7.84
   5  -1  -4  194.54    6.87
   5  -1  -4  173.74    8.18
  -5  -1   4  173.07    8.22
   5  -1  -4  165.02    6.41
   5  -1  -4  175.03    7.73
  -5   1   4  169.30    8.14
   5   1  -4  178.58    7.91
   5   1  -4  182.46    7.19
   5   1  -4  176.09    8.28
   5   1  -4  175.32    7.18
  -5   1   4  175.93    7.61
  -4  -1   4   20.24    2.97
   4  -1  -4   16.76    2.67
   4  -1  -4   19.44    3.03
   4  -1  -4   17.40    2.02
   4  -1  -4   15.48    1.92
  -4  -1   4   16.46    2.79
  -4   1   4   16.24    2.46
   4   1  -4   17.70    2.27
  -4   1   4   21.57    3.33
   4   1  -4   15.04    2.56
   4   1  -4   19.22    2.31
   4   1  -4   18.34    2.88
   3  -1  -4    6.45    1.29
   3  -1  -4    5.29    2.23
  -3  -1   4    5.34    1.68
   3  -1  -4    5.49    1.64
  -3  -1   4    5.69    1.62
  -3   1   4    5.40    1.06
   3   1  -4    5.95    1.47
   3   1  -4    2.92    1.40
  -3   1   4    4.90    1.59
   3   1  -4    6.00    1.75
  -3   1   4    4.70    1.50
   3   1  -4    3.60    1.17
  -2  -1   4  577.59   14.75
   2  -1  -4  541.99   14.21
  -2  -1   4  557.24   15.28
   2  -1  -4  560.70   15.22
  -2  -1   4  570.65   15.21
   2  -1  -4  572.41   14.99
   2   1  -4  586.45   15.54
   2   1  -4  567.84   14.94
  -2   1   4  536.48   13.95
   2   1  -4  575.82   15.27
  -2   1   4  574.58   15.18
  -2   1   4  585.42   14.94
   1  -1  -4  370.41   10.58
  -1  -1   4  338.80   10.19
  -1  -1   4  360.98   10.60
   1  -1  -4  361.23    9.97
  -1  -1   4  349.37   10.10
   1  -1  -4  337.35    9.86
   1   1  -4  363.60   10.23
   1   1  -4  335.29   10.22
   1   1  -4  364.24   10.59
  -1   1   4  355.71    9.86
   0  -1   4  147.46    6.31
   0  -1  -4  139.35    5.34
   0  -1  -4  141.00    5.13
   0  -1   4  142.14    5.74
   0  -1  -4  142.28    5.40
   0  -1  -4  144.63    5.61
   0  -1   4  140.02    5.01
   0   1  -4  158.51    5.29
   0   1  -4  134.61    5.60
   0   1   4  143.20    5.20
   0   1  -4  145.72    5.78
   0   1   4  138.38    5.56
  -1  -1  -4    5.50    1.29
  -1  -1  -4    7.03    1.47
   1  -1   4    6.29    1.51
  -1  -1  -4    7.78    1.70
  -1  -1  -4    4.89    1.25
   1  -1   4    6.30    1.69
  -1   1  -4    7.08    1.14
  -1   1  -4    6.95    1.69
   1   1   4    6.18    1.59
  -1   1  -4    7.00    1.54
  -1   1  -4    7.60    1.22
   1   1   4    7.35    1.56
   2  -1   4    1.69    1.16
  -2  -1  -4    1.77    0.92
  -2  -1  -4    2.42    1.30
  -2  -1  -4    2.10    1.25
   2  -1   4    1.79    1.08
   2   1   4    3.70    1.34
  -2   1  -4    1.73    0.65
  -2   1  -4    3.65    1.34
  -2   1  -4    2.49    1.45
  -2   1  -4    1.54    0.63
   2   1   4    1.16    1.14
  -3  -1  -4   45.53    3.90
   3  -1   4   46.07    4.06
  -3  -1  -4   50.15    2.90
   3  -1   4   50.63    4.14
   3   1   4   45.78    3.66
   3   1   4   47.36    4.15
  -3   1  -4   49.51    4.01
   4  -1   4    5.05    2.03
  -4  -1  -4    5.74    1.25
  -4  -1  -4    6.88    2.05
   4  -1   4    7.32    2.23
   4   1   4    7.10    2.22
   4   1   4    8.49    2.33
   4   1   4    4.73    1.76
   5  -1   4   31.76    4.36
   5  -1   4   34.60    4.23
  -5  -1  -4   35.66    2.26
   5   1   4   37.59    4.33
   5   1   4   34.81    4.08
   6  -1   4    5.77    2.42
   6  -1   4    0.40    1.91
   6   1   4    3.78    2.26
   6   1   4   -0.29    1.77
  -7  -2   4    8.37    2.61
   7  -2  -4    5.02    1.53
   7  -2  -4    4.96    2.18
   7  -2  -4    5.14    2.67
   7   2  -4    5.56    2.30
   7   2  -4    6.33    2.54
   7   2  -4    6.89    2.69
  -7   2   4    4.50    2.09
  -6  -2   4   14.22    3.22
   6  -2  -4   13.80    2.70
  -6  -2   4   14.38    3.34
   6  -2  -4   14.99    2.19
   6  -2  -4   13.27    2.10
   6  -2  -4   16.89    3.41
  -6   2   4   16.17    2.76
   6   2  -4   20.31    3.81
   6   2  -4   16.68    3.10
   6   2  -4   14.02    3.16
  -6   2   4   10.79    2.70
   6   2  -4   18.62    3.76
  -5  -2   4    8.50    2.12
  -5  -2   4   12.47    2.94
   5  -2  -4   11.20    2.49
   5  -2  -4    9.17    1.61
   5  -2  -4    8.52    2.22
   5  -2  -4    9.41    1.66
  -5   2   4   12.29    2.87
   5   2  -4    7.68    2.35
   5   2  -4    7.60    2.23
   5   2  -4   10.65    2.23
   5   2  -4    8.30    1.90
  -5   2   4    9.90    2.17
  -4  -2   4   12.40    2.79
   4  -2  -4    9.71    1.52
  -4  -2   4    8.77    2.12
   4  -2  -4   11.15    2.56
   4  -2  -4    7.16    1.33
   4  -2  -4    8.08    1.88
  -4   2   4    7.56    2.02
   4   2  -4    7.73    1.73
   4   2  -4    9.46    2.01
   4   2  -4   10.68    2.20
  -4   2   4    8.80    1.95
   4   2  -4   13.62    2.49
  -3  -2   4  241.75    8.06
  -3  -2   4  229.32    8.49
   3  -2  -4  234.11    8.49
   3  -2  -4  235.34    8.56
  -3  -2   4  244.27    8.86
   3  -2  -4  243.78    7.19
   3   2  -4  236.06    8.09
   3   2  -4  238.42    8.62
  -3   2   4  241.55    8.36
   3   2  -4  235.55    8.77
  -3   2   4  237.06    8.40
   3   2  -4  246.07    8.31
   2  -2  -4    5.82    1.55
  -2  -2   4    4.58    1.28
  -2  -2   4    7.91    1.93
  -2  -2   4    6.63    1.65
   2  -2  -4    5.52    1.37
   2  -2  -4    5.02    1.18
   2   2  -4    6.01    1.38
  -2   2   4    5.29    1.40
   2   2  -4    6.40    1.60
  -2   2   4    5.90    1.10
   2   2  -4    8.32    1.84
   1  -2  -4  174.41    5.95
   1  -2  -4  177.84    6.51
  -1  -2   4  176.36    6.85
  -1  -2   4  169.03    6.22
   1  -2  -4  174.75    5.74
   1  -2  -4  183.53    6.57
  -1  -2   4  172.49    6.50
  -1   2   4  178.12    5.70
   1   2  -4  167.99    6.43
  -1   2   4  170.27    6.01
   1   2  -4  171.89    6.24
   1   2  -4  165.97    6.64
   0  -2   4   35.45    3.12
   0  -2   4   33.13    2.31
   0  -2   4   34.77    2.83
   0  -2  -4   30.56    2.68
   0  -2  -4   33.69    2.14
   0  -2  -4   33.67    2.63
   0   2  -4   34.83    2.96
   0   2  -4   32.71    2.77
   0   2   4   34.60    2.18
   0   2  -4   34.74    2.40
   0   2   4   35.37    2.66
   1  -2   4  125.07    5.94
  -1  -2  -4  128.30    5.27
  -1  -2  -4  133.94    4.75
  -1  -2  -4  139.37    5.82
  -1   2  -4  131.08    4.36
   1   2   4  136.33    5.86
   1   2   4  128.36    4.77
  -1   2  -4  131.97    5.98
  -1   2  -4  138.28    5.87
  -2  -2  -4   60.48    3.48
   2  -2   4   59.85    4.36
   2  -2   4   61.79    4.14
  -2  -2  -4   60.95    4.20
  -2   2  -4   64.78    2.09
   2   2   4   60.42    4.23
  -2   2  -4   57.32    3.90
  -2   2  -4   61.75    4.28
  -2   2  -4   59.15    2.00
   2   2   4   62.79    3.52
   3  -2   4  173.58    7.73
  -3  -2  -4  155.94    7.37
  -3  -2  -4  172.25    6.34
   3  -2   4  171.32    8.07
   3   2   4  171.78    6.76
  -3   2  -4  167.14    7.86
   3   2   4  170.08    6.37
   3   2   4  183.61    7.08
  -3   2  -4  171.43    7.49
   3   2   4  181.37    8.01
  -4  -2  -4   80.55    5.62
   4  -2   4   90.97    5.96
  -4  -2  -4   85.50    4.45
   4   2   4   91.57    4.45
   4   2   4   85.98    5.94
   4   2   4   97.90    5.35
   4   2   4   83.12    5.18
  -4   2  -4   85.72    5.40
  -5  -2  -4    3.98    2.37
   5  -2   4    6.78    2.23
   5  -2   4    8.10    2.61
   5   2   4    2.42    1.83
   7  -3  -4    8.99    1.90
   7  -3  -4   10.65    2.03
  -7  -3   4   14.91    3.64
   7  -3  -4    9.05    2.81
   7   3  -4   13.50    3.34
   7   3  -4    7.77    2.39
   7   3  -4    9.65    2.44
   6  -3  -4   -0.97    0.82
   6  -3  -4    0.05    1.51
  -6  -3   4    1.57    1.76
   6  -3  -4   -0.88    1.13
   6  -3  -4    0.17    1.01
  -6  -3   4   -1.29    1.45
   6   3  -4    0.63    2.05
   6   3  -4   -0.49    1.25
   6   3  -4   -1.81    1.20
   6   3  -4   -0.10    1.61
   5  -3  -4   41.85    4.00
   5  -3  -4   50.02    4.01
  -5  -3   4   46.37    4.19
   5  -3  -4   40.45    2.67
  -5  -3   4   41.20    4.14
  -5   3   4   46.77    4.42
   5   3  -4   47.53    3.93
   5   3  -4   41.61    4.15
   5   3  -4   43.40    3.91
   5   3  -4   48.13    4.34
  -4  -3   4   11.12    2.55
   4  -3  -4   10.60    2.43
  -4  -3   4   11.54    2.31
   4  -3  -4   13.07    2.32
   4   3  -4    9.77    2.10
   4   3  -4   11.80    2.50
  -4   3   4    6.74    1.86
   4   3  -4   11.23    2.41
   4   3  -4    8.60    1.93
   3  -3  -4  101.41    5.12
  -3  -3   4  100.52    5.24
   3  -3  -4   97.93    3.71
  -3  -3   4  104.49    5.03
   3  -3  -4  100.69    5.18
  -3  -3   4   96.09    5.35
   3   3  -4  101.85    4.98
   3   3  -4   93.48    5.37
  -3   3   4   96.90    4.86
   3   3  -4   98.10    5.02
   3   3  -4  100.01    5.32
   2  -3  -4  237.88    8.23
   2  -3  -4  230.14    6.71
  -2  -3   4  213.71    8.24
   2  -3  -4  226.02    8.06
  -2  -3   4  226.25    7.86
   2  -3  -4  223.02    7.25
  -2   3   4  218.49    6.27
   2   3  -4  228.93    8.41
  -2   3   4  227.77    7.24
   2   3  -4  230.06    8.07
   2   3  -4  224.96    8.01
  -1  -3   4   97.78    4.55
   1  -3  -4   98.65    4.87
   1  -3  -4  100.40    3.80
  -1  -3   4   91.89    4.64
   1  -3  -4  102.74    5.21
   1  -3  -4  107.19    4.21
  -1  -3   4  102.45    5.21
  -1   3   4  103.38    4.12
  -1   3   4  107.51    3.83
   1   3  -4   90.24    4.67
   1   3  -4   72.43    6.59
   0  -3  -4  368.93   11.07
   0  -3   4  383.86   11.59
   0  -3  -4  387.55   11.33
   0  -3   4  398.47   12.12
   0  -3  -4  387.26    9.51
   0  -3   4  380.85   10.48
   0   3  -4  379.24   10.38
   0   3  -4  383.11   11.87
   0   3  -4  386.07   11.52
   0   3   4  380.18    9.45
   1  -3   4  885.88   22.31
  -1  -3  -4  851.83   19.76
   1  -3   4  863.87   19.85
  -1  -3  -4  868.20   21.70
   1  -3   4  882.41   22.89
  -1  -3  -4  894.72   22.13
  -1   3  -4  896.93   22.83
  -1   3  -4  897.67   19.92
   1   3   4  825.20   19.81
   1   3   4  868.94   21.75
   1   3   4  859.67   22.05
  -2  -3  -4   17.30    2.57
   2  -3   4   20.51    2.64
   2  -3   4   20.82    3.32
  -2  -3  -4   11.25    2.42
   2   3   4   18.13    2.87
  -2   3  -4   12.98    2.14
  -2   3  -4   19.88    3.21
   2   3   4   16.93    2.29
   2   3   4   16.02    1.82
  -3  -3  -4   29.60    3.40
   3  -3   4   27.85    3.28
  -3  -3  -4   25.87    2.69
   3  -3   4   24.59    3.81
  -3   3  -4   25.09    3.34
   3   3   4   22.78    2.40
  -3   3  -4   25.47    3.01
   3   3   4   25.85    2.73
   3   3   4   27.18    2.62
   3   3   4   25.02    3.27
  -4  -3  -4   18.06    3.25
   4  -3   4   31.51    3.68
   4  -3   4   21.17    3.72
  -4  -3  -4   18.64    2.65
   4   3   4   26.03    2.98
   4   3   4   23.69    3.83
  -4   3  -4   17.94    2.99
   4   3   4   23.77    2.93
   4   3   4   23.31    2.69
  -5  -3  -4    5.13    2.44
   5  -3   4    5.09    1.98
   5  -3   4    6.71    2.41
  -5  -3  -4    4.31    1.76
   5   3   4    4.97    1.91
   5   3   4    6.94    2.10
   5   3   4    5.58    1.49
   5   3   4    1.40    1.93
  -7  -4   4    2.35    1.89
   7  -4  -4    2.83    1.83
   7  -4  -4    4.21    1.49
   7   4  -4   -0.19    1.65
   7   4  -4    0.74    1.89
   7   4  -4    2.54    1.80
  -6  -4   4   19.97    4.00
  -6  -4   4   16.39    3.22
   6  -4  -4   16.36    2.72
   6   4  -4   19.80    4.12
   6   4  -4   14.68    3.23
   6   4  -4   14.11    2.58
  -5  -4   4  181.88    8.50
  -5  -4   4  185.59    9.65
   5  -4  -4  173.80    7.74
   5  -4  -4  165.28    8.12
   5   4  -4  165.71    8.26
   5   4  -4  154.88    7.58
   5   4  -4  165.99    8.36
   5   4  -4  163.25    7.70
   4  -4  -4    0.25    1.10
  -4  -4   4    3.15    1.68
   4  -4  -4    1.29    1.22
  -4  -4   4    3.27    1.60
  -4   4   4    1.57    1.43
   4   4  -4    1.16    1.56
   4   4  -4    3.18    1.56
   4   4  -4    1.29    1.29
   4   4  -4   -0.93    1.11
  -3  -4   4   29.03    3.09
   3  -4  -4   31.25    3.04
   3  -4  -4   32.35    3.13
   3  -4  -4   37.68    5.82
  -3  -4   4   30.87    3.32
  -3  -4   4   28.89    2.93
   3   4  -4   27.45    3.05
   3   4  -4   36.52    3.53
  -3   4   4   29.94    2.82
   3   4  -4   26.34    2.91
   3   4  -4   28.34    2.91
   2  -4  -4  176.59    6.11
  -2  -4   4  180.40    7.17
   2  -4  -4  181.60    5.55
  -2  -4   4  171.43    7.43
  -2  -4   4  178.73    7.03
   2  -4  -4  181.98    7.19
   2  -4  -4  178.72    7.19
   2   4  -4  178.05    7.17
   2   4  -4  176.82    7.47
  -2   4   4  183.72    6.15
   2   4  -4  178.01    7.00
   2   4  -4  175.65    7.12
  -1  -4   4   78.12    4.38
   1  -4  -4   75.13    4.37
  -1  -4   4   80.32    4.81
  -1  -4   4   78.60    4.16
   1  -4  -4   75.01    3.58
   1  -4  -4   77.69    3.13
   1   4  -4   76.41    4.65
  -1   4   4   81.89    3.58
   1   4  -4   80.38    4.23
   1   4  -4   83.74    4.55
  -1   4   4   87.32    3.21
   0  -4  -4    4.86    0.73
   0  -4   4    4.39    1.52
   0  -4  -4    4.31    1.43
   0  -4  -4    3.79    1.14
   0  -4   4    6.33    1.96
   0  -4   4    5.75    1.21
   0   4  -4    5.29    1.33
   0   4  -4    4.34    1.49
   0   4   4    5.49    1.49
   0   4  -4    3.66    1.27
   0   4   4    4.83    0.72
   1  -4   4    7.64    1.14
  -1  -4  -4    4.49    1.45
  -1  -4  -4    8.16    1.74
   1  -4   4    8.20    1.80
   1  -4   4    6.76    2.05
  -1   4  -4    6.53    1.68
  -1   4  -4    7.52    1.19
   1   4   4    6.07    0.81
  -1   4  -4    6.90    2.07
   1   4   4    7.63    1.84
   1   4   4    7.20    1.70
   2  -4   4    0.82    1.49
  -2  -4  -4    0.76    1.20
  -2  -4  -4    1.71    1.45
   2  -4   4    1.26    1.08
   2   4   4    1.86    1.33
  -2   4  -4    2.36    1.57
   2   4   4    0.96    1.28
   2   4   4    1.17    0.81
   2   4   4    0.60    0.69
  -2   4  -4    1.73    1.21
  -3  -4  -4    4.48    2.23
   3  -4   4    5.26    1.70
  -3  -4  -4    4.66    1.77
   3  -4   4    7.08    2.48
   3   4   4    5.70    1.41
   3   4   4    8.23    1.61
   3   4   4    6.10    1.79
   3   4   4    2.96    1.79
  -3   4  -4    5.32    1.69
   4  -4   4   36.25    4.02
   4  -4   4   32.42    4.43
  -4  -4  -4   30.15    3.94
  -4  -4  -4   34.84    3.69
   4   4   4   33.38    3.10
   4   4   4   33.02    4.23
   4   4   4   34.17    3.44
   4   4   4   29.07    2.89
  -5  -4  -4  125.71    7.88
  -5  -4  -4  115.14    6.40
   5  -4   4  129.49    8.31
   5  -4   4  129.13    7.42
   5   4   4  120.44    6.29
   5   4   4  127.10    6.26
   5   4   4  115.28    7.62
   5   4   4  120.78    6.40
   7  -5  -4    4.84    2.61
  -7  -5   4    9.56    2.96
   7  -5  -4    5.42    1.94
   7   5  -4    6.57    2.76
   7   5  -4    2.70    1.93
   7   5  -4    7.77    2.64
   6  -5  -4   12.47    2.21
   6  -5  -4   16.22    2.73
  -6  -5   4   10.53    2.87
   6   5  -4    8.18    2.24
   6   5  -4   12.79    3.12
   5  -5  -4    1.14    1.56
  -5  -5   4    2.69    2.06
  -5  -5   4    0.87    1.69
   5  -5  -4    2.29    1.40
   5  -5  -4    2.21    1.32
   5   5  -4    1.08    1.72
   5   5  -4    0.96    1.70
   5   5  -4    2.05    1.50
   4  -5  -4   13.54    2.51
  -4  -5   4   19.41    3.15
   4  -5  -4   16.13    2.62
   4  -5  -4   18.66    2.90
  -4  -5   4   20.88    3.62
   4   5  -4   12.97    2.70
   4   5  -4   20.90    3.24
   4   5  -4   22.90    3.57
   4   5  -4   24.00    3.53
  -3  -5   4  138.53    6.42
  -3  -5   4  125.52    6.49
   3  -5  -4  113.40    6.27
  -3  -5   4  128.74    6.61
   3  -5  -4  128.10    6.24
   3  -5  -4  137.44    6.39
   3   5  -4  131.23    6.60
   3   5  -4  125.37    6.41
   3   5  -4  119.43    6.13
   3   5  -4  120.95    6.42
  -2  -5   4    2.18    1.27
  -2  -5   4    3.33    1.66
   2  -5  -4    2.72    0.87
   2  -5  -4    4.54    1.13
   2  -5  -4    4.80    1.73
  -2  -5   4    2.20    1.27
   2   5  -4    3.65    1.36
   2   5  -4    2.52    1.55
   2   5  -4    4.64    1.66
   2   5  -4    6.33    1.83
  -1  -5   4  107.41    5.81
   1  -5  -4   92.03    3.29
  -1  -5   4   91.57    5.39
  -1  -5   4   94.33    5.04
   1  -5  -4   85.88    4.96
   1  -5  -4   95.26    4.12
   1   5  -4   96.87    4.90
  -1   5   4   94.48    3.91
   1   5  -4   90.53    5.94
   1   5  -4   85.02    5.05
   0  -5  -4  123.99    5.27
   0  -5   4  121.90    6.30
   0  -5   4  128.58    5.95
   0  -5  -4  124.88    5.94
   0  -5   4  119.63    5.10
   0   5   4  122.78    5.26
   0   5  -4  129.73    5.89
   0   5  -4  124.06    6.28
   0   5   4  121.23    5.96
   1  -5   4    5.02    1.14
  -1  -5  -4    6.11    1.69
   1  -5   4    5.59    1.95
   1  -5   4    8.24    2.00
  -1  -5  -4    5.92    1.86
   1   5   4    4.73    1.73
  -1   5  -4    5.84    1.69
   1   5   4    3.78    1.38
  -1   5  -4    7.29    1.28
  -1   5  -4    6.29    2.10
   2  -5   4   52.54    1.83
   2  -5   4   46.49    4.47
   2  -5   4   47.19    3.85
  -2  -5  -4   47.69    3.94
  -2  -5  -4   47.97    3.95
   2   5   4   45.81    1.77
  -2   5  -4   47.72    1.72
  -2   5  -4   53.59    3.75
   2   5   4   46.21    1.75
   2   5   4   46.65    4.00
  -2   5  -4   44.80    4.17
   2   5   4   46.62    3.97
  -3  -5  -4   54.02    4.29
   3  -5   4   58.70    5.16
   3  -5   4   48.37    4.92
  -3  -5  -4   47.88    5.39
   3   5   4   47.38    2.66
   3   5   4   53.71    4.37
   3   5   4   52.87    2.76
   3   5   4   45.66    4.44
  -3   5  -4   46.99    3.76
  -3   5  -4   45.69    4.57
  -4  -5  -4   26.85    3.67
   4  -5   4   36.24    4.59
   4  -5   4   30.61    3.69
  -4  -5  -4   36.08    4.19
   4   5   4   33.06    2.78
   4   5   4   37.65    4.44
   4   5   4   32.93    3.65
   4   5   4   28.75    2.92
  -5  -5  -4   57.92    5.35
  -5  -5  -4   58.87    5.66
   5  -5   4   59.12    5.71
   5  -5   4   56.88    5.07
   5   5   4   63.62    4.27
   5   5   4   72.66    6.30
   5   5   4   57.67    4.12
  -7  -6   4   -1.01    1.39
   7  -6  -4   -2.45    1.38
   7  -6  -4    0.13    1.32
   7   6  -4    1.57    2.06
   7   6  -4    0.09    1.90
   7   6  -4    4.60    1.83
   6  -6  -4   71.66    5.05
  -6  -6   4   65.53    5.72
   6  -6  -4   68.44    5.96
   6   6  -4   63.60    5.68
   6   6  -4   62.35    5.37
   5  -6  -4    2.26    1.81
   5  -6  -4    1.21    1.38
   5  -6  -4    3.34    1.43
   5  -6  -4    3.48    2.25
  -5  -6   4    0.19    1.78
  -5  -6   4    1.68    1.65
   5   6  -4    0.24    1.70
   5   6  -4    1.23    1.47
   5   6  -4    2.00    1.68
   5   6  -4    2.83    1.86
   4  -6  -4   86.00    5.37
   4  -6  -4  103.74    5.90
   4  -6  -4   89.53    5.38
  -4  -6   4  100.87    6.22
   4   6  -4   97.92    6.14
   4   6  -4  102.45    5.98
   4   6  -4   91.85    6.47
   4   6  -4   93.49    6.28
  -3  -6   4   22.04    3.43
  -3  -6   4   15.68    2.63
   3  -6  -4   22.97    2.93
   3  -6  -4   20.02    2.71
   3  -6  -4   21.71    2.46
  -3  -6   4   16.75    2.91
   3   6  -4   18.34    3.01
   3   6  -4   18.99    3.07
   3   6  -4   21.50    2.89
   3   6  -4   15.13    3.08
   2  -6  -4  111.22    4.52
   2  -6  -4  104.60    5.75
  -2  -6   4  108.06    5.67
   2  -6  -4  104.23    3.94
  -2  -6   4  108.54    6.09
   2  -6  -4  112.14    4.53
  -2  -6   4   99.13    5.60
   2   6  -4  103.85    5.77
   2   6  -4  111.60    5.91
   2   6  -4  103.43    5.53
   2   6  -4  110.04    5.95
   1  -6  -4   14.97    2.54
  -1  -6   4   19.83    2.54
   1  -6  -4   16.81    1.26
  -1  -6   4   13.47    2.34
   1  -6  -4   17.44    2.06
   1  -6  -4   17.97    1.28
  -1  -6   4   22.21    3.43
   1   6  -4   16.87    2.51
  -1   6   4   18.32    1.82
   1   6  -4   16.88    2.65
   1   6  -4   18.18    2.68
   1   6  -4   19.01    3.07
   0  -6  -4    4.90    1.77
   0  -6   4    6.12    1.64
   0  -6  -4    6.80    1.64
   0  -6   4    7.07    2.26
   0  -6   4    8.34    1.69
   0   6   4    6.81    1.99
   0   6  -4    7.74    1.71
   0   6   4    8.20    1.78
   0   6  -4    8.51    1.97
   0   6  -4    8.02    2.28
   1  -6   4   18.89    2.00
   1  -6   4   16.67    2.71
  -1  -6  -4   23.19    3.11
   1  -6   4   23.87    3.68
  -1  -6  -4   22.06    2.97
  -1   6  -4   15.07    2.32
  -1   6  -4   20.65    2.07
  -1   6  -4   16.73    3.26
   1   6   4   17.31    2.98
   2  -6   4    5.95    2.38
   2  -6   4    2.94    1.42
  -2  -6  -4    6.11    1.95
   2  -6   4    5.12    0.85
  -2  -6  -4    7.67    1.99
   2   6   4    5.30    1.83
   2   6   4    3.24    1.58
  -2   6  -4    3.28    1.62
  -2   6  -4    6.09    0.92
   3  -6   4   69.20    5.02
  -3  -6  -4   65.39    5.16
  -3  -6  -4   62.21    5.02
   3  -6   4   68.50    5.75
   3   6   4   67.69    5.32
   3   6   4   73.96    5.29
   3   6   4   65.62    2.38
  -3   6  -4   85.13    6.18
   3   6   4   69.25    2.44
  -3   6  -4   87.25    9.22
   4  -6   4    8.27    2.77
  -4  -6  -4    8.11    2.55
   4  -6   4    6.01    1.90
  -4  -6  -4    7.79    2.71
   4   6   4    7.50    1.48
   4   6   4   10.06    2.54
   4   6   4   10.06    1.56
   4   6   4    8.84    2.73
   5  -6   4   15.24    3.38
  -5  -6  -4   16.35    3.26
   5  -6   4    8.84    2.48
   5   6   4   13.00    2.34
   5   6   4    8.30    2.83
   5   6   4   17.43    3.11
   5   6   4    9.99    1.89
  -6  -7   4    7.11    2.68
   6  -7  -4   10.29    2.01
   6  -7  -4    8.81    2.54
   6  -7  -4    6.41    2.02
   6   7  -4    8.79    2.77
   6   7  -4    3.02    2.21
   5  -7  -4    2.36    1.48
   5  -7  -4   -0.57    1.33
   5  -7  -4    0.22    1.62
   5  -7  -4    0.24    1.39
  -5  -7   4    3.71    2.06
   5   7  -4   -0.77    1.48
   5   7  -4    4.69    2.15
   5   7  -4    1.78    2.08
   5   7  -4    3.77    1.91
  -4  -7   4   26.14    3.58
   4  -7  -4   28.63    3.33
   4  -7  -4   24.81    3.29
  -4  -7   4   31.24    3.82
   4  -7  -4   27.62    3.33
   4  -7  -4   22.65    3.04
   4   7  -4   31.57    4.21
   4   7  -4   20.51    3.31
   4   7  -4   24.21    3.32
   4   7  -4   32.60    4.46
  -3  -7   4  360.06   12.67
   3  -7  -4  378.26   12.93
   3  -7  -4  360.46   12.63
   3  -7  -4  366.65   11.46
   3  -7  -4  370.27   11.51
  -3  -7   4  349.52   12.85
  -3  -7   4  371.60   13.14
   3   7  -4  367.03   12.70
   3   7  -4  371.37   13.03
   3   7  -4  382.54   13.25
   3   7  -4  376.94   13.02
  -2  -7   4   93.03    5.54
  -2  -7   4   88.14    5.42
   2  -7  -4   88.54    4.06
   2  -7  -4   87.64    4.04
  -2  -7   4   92.55    5.83
   2  -7  -4   92.93    5.61
   2   7  -4   99.07    5.70
   2   7  -4   93.84    5.41
   2   7  -4   90.19    5.61
   2   7  -4   94.96    5.80
  -1  -7   4  230.95    8.86
   1  -7  -4  218.38    9.15
   1  -7  -4  232.76    5.96
   1  -7  -4  240.85    7.72
  -1  -7   4  241.72    9.16
  -1  -7   4  248.77    9.98
   1  -7  -4  220.90    5.88
  -1   7   4  218.21    9.34
   1   7  -4  221.87    8.67
   1   7  -4  245.54    9.29
   1   7  -4  242.98    8.94
  -1   7   4  238.23    7.12
   1   7  -4  241.39    9.63
   0  -7   4  195.15    7.37
   0  -7   4  169.29    7.63
   0  -7  -4  189.71    8.35
   0  -7  -4  179.48    7.08
   0  -7   4  179.74    8.60
   0   7   4  181.37    8.35
   0   7  -4  188.56    7.78
   0   7  -4  185.66    8.49
   0   7   4  182.38    6.88
   0   7  -4  186.29    7.23
   1  -7   4  104.32    6.52
  -1  -7  -4  104.01    6.29
   1  -7   4   93.94    5.51
   1  -7   4   99.21    4.61
  -1  -7  -4   92.56    5.79
  -1   7  -4   97.05    5.28
  -1   7  -4   91.79    6.13
  -1   7  -4   99.33    4.57
   1   7   4  106.49    6.29
   1   7   4   90.00    5.19
  -2  -7  -4    3.88    2.00
  -2  -7  -4    7.15    2.29
   2  -7   4    5.41    2.35
   2  -7   4    3.50    0.89
   2  -7   4    3.51    1.54
   2   7   4    3.45    2.14
  -2   7  -4    2.42    1.35
  -2   7  -4    0.90    1.90
   2   7   4    5.23    2.31
  -2   7  -4    3.82    0.94
  -3  -7  -4    2.93    2.17
   3  -7   4    7.47    2.74
  -3  -7  -4    8.45    2.35
   3  -7   4    5.78    1.83
   3   7   4    5.59    2.06
   3   7   4    6.05    2.21
   4  -7   4    2.72    1.48
  -4  -7  -4    2.52    2.02
   4  -7   4    2.45    1.93
   4   7   4   -0.77    1.62
   4   7   4    6.48    2.16
   6  -8  -4    2.06    1.82
   6  -8  -4    5.44    2.42
  -6  -8   4   12.10    3.09
   6   8  -4    2.60    2.35
   5  -8  -4   -1.97    1.08
  -5  -8   4   -0.21    1.18
   5  -8  -4    0.57    1.37
   5  -8  -4   -1.04    1.44
   5  -8  -4   -1.77    1.38
   5   8  -4    0.38    1.53
   5   8  -4   -1.37    1.36
   5   8  -4   -2.63    1.24
   4  -8  -4  106.61    7.10
   4  -8  -4  103.59    5.91
   4  -8  -4  105.88    6.04
   4  -8  -4  106.69    6.42
  -4  -8   4  105.60    9.35
   4   8  -4  107.42    7.07
   4   8  -4  107.61    6.57
   4   8  -4  109.13    6.66
   4   8  -4  119.82    6.98
   3  -8  -4   10.80    2.64
   3  -8  -4   13.62    2.38
  -3  -8   4   12.72    2.79
   3  -8  -4   11.61    2.21
  -3  -8   4    9.11    2.71
  -3  -8   4   10.15    2.47
   3  -8  -4   10.21    3.73
   3   8  -4   10.61    2.46
   3   8  -4   10.84    2.84
   3   8  -4   12.67    2.77
   3   8  -4    8.92    2.30
   2  -8  -4   10.14    1.74
  -2  -8   4   11.49    2.66
  -2  -8   4   10.09    2.58
   2  -8  -4   11.68    1.80
  -2  -8   4   12.86    2.76
   2   8  -4   10.94    2.50
   2   8  -4    8.24    2.30
   2   8  -4    7.16    2.15
   2   8  -4   10.80    2.57
  -1  -8   4   83.86    5.35
  -1  -8   4   94.16    5.59
   1  -8  -4   90.49    4.48
  -1  -8   4  101.05    6.27
  -1   8   4   88.40    5.89
   1   8  -4   79.58    5.26
   1   8  -4   88.52    5.21
   1   8  -4   84.09    5.42
   1   8  -4   94.55    5.99
   0  -8   4   86.08    5.35
   0  -8   4   77.81    4.92
   0  -8  -4   88.42    4.93
   0  -8  -4   83.23    5.65
   0  -8   4   84.68    5.98
   0   8  -4   89.10    6.22
   0   8   4   96.27    4.76
   0   8  -4   92.96    5.13
   0   8  -4   90.83    6.04
   1  -8   4   -0.40    0.93
   1  -8   4    0.84    1.49
   1  -8   4    0.45    2.01
  -1  -8  -4   -0.22    1.16
  -1  -8  -4    0.05    1.50
  -1   8  -4   -1.90    1.59
   1   8   4    1.08    1.23
  -1   8  -4    0.78    1.06
  -1   8  -4   -0.41    1.02
  -1   8  -4   -1.41    0.89
   1   8   4    1.37    1.70
  -2  -8  -4    9.20    2.66
   2  -8   4    5.90    1.25
   2  -8   4    6.61    1.92
   2  -8   4    5.56    2.26
  -2  -8  -4    7.54    2.06
   2   8   4    5.97    2.04
  -2   8  -4    4.96    1.17
   2   8   4    6.93    2.40
   3  -8   4   32.15    5.06
   3  -8   4   34.86    3.59
  -3  -8  -4   33.00    3.99
   3   8   4   27.47    4.38
   3   8   4   34.32    4.38
   4  -8   4  111.47    8.90
  -4  -8  -4   88.48    6.87
   4   8   4  103.02    6.84
   4   8   4  109.88    7.53
  -5  -9   4   -0.41    1.54
   5  -9  -4   -0.68    1.34
   5  -9  -4   -0.73    1.33
   5   9  -4    5.64    2.06
   5   9  -4    4.05    2.48
   5   9  -4   -0.63    1.58
   4  -9  -4   19.34    3.84
  -4  -9   4   11.41    2.63
   4  -9  -4   10.64    2.50
   4  -9  -4   11.16    2.55
   4  -9  -4   10.58    2.63
   4   9  -4   10.46    2.82
   4   9  -4    8.09    2.50
   4   9  -4   10.83    2.75
   4   9  -4   11.12    2.74
   3  -9  -4   42.16    4.37
   3  -9  -4   40.65    3.37
   3  -9  -4   43.93    3.51
   3   9  -4   41.54    4.23
   3   9  -4   58.60    7.29
   3   9  -4   45.92    4.29
   3   9  -4   39.15    4.63
  -2  -9   4   11.54    2.56
  -2  -9   4    8.97    2.54
  -2  -9   4   16.40    3.41
   2  -9  -4   10.00    2.42
   2  -9  -4   11.92    1.99
   2  -9  -4   11.64    1.73
   2   9  -4   15.31    3.08
   2   9  -4   15.43    5.04
   2   9  -4   12.73    2.84
   2   9  -4   14.85    2.81
   1  -9  -4    7.41    2.34
  -1  -9   4    6.27    2.12
   1  -9  -4    5.32    1.58
  -1  -9   4    6.21    2.68
  -1  -9   4    9.39    2.41
   1   9  -4    7.21    2.19
   1   9  -4    4.97    1.73
   1   9  -4    6.44    2.34
   1   9  -4    6.50    2.00
  -1   9   4    8.27    2.52
   0  -9   4  489.86   15.11
   0  -9   4  509.03   17.09
   0  -9   4  511.94   15.86
   0  -9  -4  471.63   14.49
   0  -9  -4  485.53   17.65
   0   9   4  499.95   15.63
   0   9   4  480.34   13.99
   0   9   4  485.47   16.71
   0   9  -4  506.70   16.72
   0   9  -4  499.17   15.50
   0   9  -4  483.74   14.93
   1  -9   4    0.14    1.23
   1  -9   4   -2.51    0.94
  -1  -9  -4    1.52    1.28
   1  -9   4   -1.98    1.53
  -1   9  -4    1.09    1.28
  -1   9  -4   -1.16    0.91
   1   9   4   -0.22    1.24
   1   9   4    1.40    1.64
  -2  -9  -4    7.34    2.10
   2  -9   4    9.54    2.17
   2  -9   4    4.12    1.25
   2  -9   4    4.87    2.19
  -2   9  -4    4.64    1.20
  -2   9  -4    6.84    1.85
   2   9   4    8.05    2.52
   3  -9   4    6.71    2.71
   3  -9   4    6.04    1.68
  -3  -9  -4    6.73    2.44
  -3   9  -4    8.43    2.03
   3   9   4    8.36    2.46
   3   9   4    4.05    2.66
  -5 -10   4   16.84    3.48
   5 -10  -4   10.78    2.64
   5 -10  -4   13.81    2.86
   5  10  -4   17.07    3.38
   5  10  -4   14.10    3.01
   4 -10  -4    0.84    2.17
   4 -10  -4   -1.50    1.55
  -4 -10   4    0.29    1.68
   4 -10  -4    2.45    1.70
   4  10  -4    0.55    1.71
   4  10  -4    1.39    1.76
   3 -10  -4    1.06    1.13
   3 -10  -4    0.12    1.09
  -3 -10   4    2.34    1.61
   3  10  -4    2.70    1.94
   3  10  -4    1.36    1.25
   3  10  -4    1.45    1.49
   2 -10  -4    1.26    1.07
  -2 -10   4    2.64    1.78
  -2 -10   4   -0.56    1.74
   2 -10  -4    0.83    0.84
   2  10  -4   -1.52    1.44
   2  10  -4    1.75    1.46
   2  10  -4   -0.77    1.15
  -1 -10   4   34.11    4.02
  -1 -10   4   30.23    4.03
  -1 -10   4   38.59    4.39
   1  10  -4   34.68    4.30
  -1  10   4   33.91    4.46
   1  10  -4   30.73    3.84
   0 -10   4   41.41    4.18
   0 -10   4   47.51    4.32
   0 -10   4   50.48    5.03
   0 -10  -4   50.86    4.10
   0  10   4   52.99    4.06
   0  10   4   55.23    5.24
   0  10  -4   49.06    4.08
   0  10  -4   56.46    4.58
   1 -10   4   -0.51    1.27
   1 -10   4    1.41    1.50
   1 -10   4    2.57    1.92
  -1 -10  -4    0.54    1.17
  -1  10  -4   -1.45    0.93
   1  10   4    0.28    1.31
  -1  10  -4   -0.56    1.15
   1  10   4   -1.16    1.34
   2 -10   4    8.36    2.56
   2 -10   4    7.83    1.74
  -2 -10  -4    5.55    1.99
   2 -10   4    5.01    1.93
   2  10   4    3.98    3.13
  -2  10  -4    5.51    1.99
  -2  10  -4    6.86    1.64
   2  10   4    5.16    2.26
  -3 -10  -4   14.81    2.96
   3 -10   4   15.66    2.86
   3 -10   4   17.50    3.80
   3 -10   4    7.21    0.96
   3  10   4    3.55    2.30
  -3  10  -4    9.62    2.17
  -4 -11   4   46.92    4.85
   4 -11  -4   37.70    3.99
   4 -11  -4   44.83    4.13
   4 -11  -4   35.70    4.39
   4  11  -4   39.48    4.97
   4  11  -4   47.94    5.38
   3 -11  -4   79.22    4.62
   3 -11  -4   84.23    4.83
  -3 -11   4   85.26    6.20
   3  11  -4   81.89    6.15
   3  11  -4   82.34    6.49
  -2 -11   4   45.72    4.88
   2 -11  -4   36.09    2.57
   2  11  -4   31.78    4.24
   2  11  -4   41.81    4.14
   1 -11  -4    2.86    1.46
  -1 -11   4   15.62    3.41
  -1 -11   4    4.72    2.13
   1  11  -4    5.74    3.24
  -1  11   4    5.77    2.20
   1  11  -4    3.76    2.01
   0 -11   4   94.58    6.15
   0 -11  -4   90.90    5.51
   0 -11   4   97.96    7.02
   0 -11   4   85.52    5.90
   0  11   4   88.85    5.03
   0  11   4   92.94    6.93
   0  11  -4  100.28    5.83
   0  11  -4   86.44    5.85
   1 -11   4   46.10    5.06
   1 -11   4   31.73    3.75
   1 -11   4   39.64    4.16
  -1 -11  -4   40.82    4.18
  -1  11  -4   44.97    4.01
   1  11   4   36.69    3.94
   1  11   4   34.38    4.56
  -1  11  -4   44.45    4.12
  -2 -11  -4   -3.17    1.69
   2 -11   4    0.52    1.47
   2 -11   4    0.48    1.42
  -2  11  -4    3.04    1.23
   2  11   4    7.03    2.39
   2  11   4   -2.29    1.78
  -2  11  -4    2.02    1.86
   2 -12  -4   20.38    1.90
  -2 -12   4   15.82    3.24
   2 -12  -4   25.77    2.47
   2  12  -4   16.21    3.46
  -1 -12   4   40.57    4.51
  -1 -12   4   37.60    4.63
   1 -12  -4   40.92    3.61
   1  12  -4   38.03    4.25
   1  12  -4   39.84    4.62
  -1  12   4   33.21    7.65
   0 -12  -4    8.38    2.20
   0 -12   4   13.33    3.19
   0  12  -4   15.47    3.12
   0  12   4    6.63    2.18
   0  12   4   10.71    2.83
   0  12  -4   11.24    2.63
  -7   0   5   -2.08    1.28
   7   0  -5   -1.62    1.09
   7   0  -5    0.40    1.18
   7   0  -5    1.55    1.80
  -6   0   5   -0.81    1.39
   6   0  -5   -0.19    1.15
   6   0  -5   -0.71    1.80
   6   0  -5    0.68    1.26
  -6   0   5    0.53    1.61
   6   0  -5    0.27    1.44
   5   0  -5   -1.05    1.15
   5   0  -5   -0.62    1.14
  -5   0   5    0.16    1.47
   5   0  -5    0.11    0.75
   5   0  -5   -0.32    1.05
  -5   0   5   -0.23    1.28
   4   0  -5    1.47    1.38
   4   0  -5   -0.61    1.21
   4   0  -5   -0.40    0.92
  -4   0   5    0.80    1.16
  -4   0   5   -0.35    1.40
   4   0  -5   -0.03    0.87
  -3   0   5    0.58    1.06
   3   0  -5   -0.11    0.99
   3   0  -5    0.88    0.94
  -3   0   5   -0.10    1.13
   3   0  -5    0.09    1.02
  -2   0   5    0.03    0.97
  -2   0   5    0.19    1.05
   2   0  -5   -0.41    0.89
   2   0  -5   -1.02    0.96
  -1   0   5   -0.71    0.65
   1   0  -5   -0.75    1.01
  -1   0   5    0.60    0.80
   1   0  -5    0.67    0.89
  -1   0   5    0.62    0.98
   1   0  -5    0.29    0.95
   0   0  -5   -0.16    0.83
   0   0   5    0.84    1.01
   0   0  -5   -0.51    0.80
   0   0   5   -0.42    0.86
   1   0   5   -1.05    1.00
  -1   0  -5   -0.56    0.73
  -1   0  -5    0.07    1.12
  -1   0  -5   -0.77    0.69
   1   0   5    0.31    1.10
  -2   0  -5    0.55    1.36
   2   0   5   -0.22    1.11
  -2   0  -5    0.67    0.81
  -2   0  -5    0.66    1.24
  -2   0  -5    0.71    0.74
   2   0   5   -0.08    1.16
   3   0   5   -1.32    1.29
  -3   0  -5    0.77    1.31
  -3   0  -5    0.06    0.70
   3   0   5    0.12    1.32
  -3   0  -5    1.07    0.74
  -4   0  -5   -1.41    1.41
  -4   0  -5   -0.31    0.36
  -4   0  -5   -0.59    0.44
   4   0   5    0.49    1.53
   4   0   5    0.47    1.69
   5   0   5   -2.19    1.61
   5   0   5   -1.44    1.46
   7  -1  -5    6.48    1.87
  -7  -1   5    7.12    2.80
   7  -1  -5    3.78    1.50
   7  -1  -5    5.69    2.31
   7   1  -5    3.62    1.61
   7   1  -5    1.78    1.47
  -7   1   5    6.76    2.52
   7   1  -5    1.36    1.99
  -6  -1   5   12.53    2.85
   6  -1  -5   12.34    3.14
  -6  -1   5   13.73    3.19
   6  -1  -5    9.54    2.02
   6  -1  -5   12.34    2.21
   6   1  -5   13.97    3.05
   6   1  -5   13.39    2.63
  -6   1   5   12.65    3.11
  -6   1   5    8.21    2.33
   6   1  -5   13.96    3.51
   6   1  -5   10.57    2.33
   5  -1  -5    0.94    1.35
   5  -1  -5    1.46    1.51
  -5  -1   5    1.77    1.36
   5  -1  -5    2.34    1.21
   5  -1  -5    1.26    1.17
  -5  -1   5    1.59    1.66
   5   1  -5    1.30    1.28
  -5   1   5    2.83    1.40
   5   1  -5    0.28    1.01
   5   1  -5    1.28    1.27
   5   1  -5    2.60    1.69
  -5   1   5   -0.16    1.44
  -4  -1   5    1.71    1.39
  -4  -1   5    2.34    1.74
   4  -1  -5    2.19    0.97
  -4  -1   5    1.89    1.35
   4  -1  -5    2.42    1.54
   4  -1  -5    1.43    1.01
   4  -1  -5    3.37    1.70
   4   1  -5    0.41    1.34
  -4   1   5    0.03    1.16
   4   1  -5    0.74    1.02
  -4   1   5    3.40    1.67
   4   1  -5    2.14    1.43
   4   1  -5    1.94    1.15
   3  -1  -5   47.12    3.10
  -3  -1   5   40.99    3.64
   3  -1  -5   43.28    3.46
  -3  -1   5   37.97    3.30
   3  -1  -5   45.16    3.63
  -3   1   5   47.05    3.68
  -3   1   5   47.81    2.84
   3   1  -5   42.14    3.22
   3   1  -5   42.75    3.65
  -3   1   5   42.91    3.47
   3   1  -5   46.98    3.74
   2  -1  -5  125.07    5.80
  -2  -1   5  123.89    5.81
  -2  -1   5  122.67    5.60
   2  -1  -5  120.32    5.15
   2  -1  -5  120.10    5.40
  -2  -1   5  118.75    5.28
   2   1  -5  114.40    5.63
  -2   1   5  116.38    5.30
   2   1  -5  121.46    5.64
  -2   1   5  117.65    5.57
   2   1  -5  116.75    5.41
  -1  -1   5  764.12   20.07
  -1  -1   5  776.64   19.69
   1  -1  -5  791.50   20.01
  -1  -1   5  808.97   20.46
   1  -1  -5  800.78   19.87
   1  -1  -5  779.35   19.54
   1   1  -5  749.02   19.66
   1   1  -5  776.74   20.18
   1   1  -5  768.40   21.49
  -1   1   5  762.58   19.67
  -1   1   5  809.06   19.63
   0  -1  -5   -0.01    0.94
   0  -1  -5    0.11    0.93
   0  -1   5    1.51    1.14
   0  -1   5    0.48    1.16
   0  -1  -5    0.92    1.04
   0  -1  -5   -0.34    0.77
   0   1  -5    2.55    1.85
   0   1   5    0.06    0.98
   0   1  -5    1.77    1.06
   0   1  -5    0.20    0.87
   0   1   5    1.11    1.06
  -1  -1  -5  214.59    7.61
  -1  -1  -5  218.38    7.44
  -1  -1  -5  213.73    8.29
  -1  -1  -5  216.61    7.58
   1  -1   5  224.97    8.47
   1  -1   5  236.24   12.37
  -1   1  -5  228.40    8.44
   1   1   5  211.59    8.30
  -1   1  -5  216.38    6.87
  -1   1  -5  220.03    8.35
  -1   1  -5  220.02    6.97
   1   1   5  221.10    7.73
  -2  -1  -5   19.67    2.59
   2  -1   5   22.50    3.06
   2  -1   5   18.06    2.83
  -2  -1  -5   17.76    2.16
  -2  -1  -5   22.52    2.68
  -2   1  -5   16.56    2.53
  -2   1  -5   22.47    1.80
  -2   1  -5   21.14    1.69
   2   1   5   16.81    2.73
  -2   1  -5   21.35    3.22
   2   1   5   21.32    2.62
  -3  -1  -5  236.52    7.48
   3  -1   5  232.90    9.73
  -3  -1  -5  242.87    9.92
   3  -1   5  229.50    9.85
  -3  -1  -5  239.07    7.60
  -3   1  -5  202.41    5.50
  -3   1  -5  236.82    9.73
   3   1   5  249.63    9.31
   3   1   5  241.91   10.10
  -3   1  -5  236.05    9.68
  -3   1  -5  235.17    5.75
   4  -1   5    0.44    1.52
  -4  -1  -5   -2.25    1.37
  -4  -1  -5   -1.41    0.85
  -4  -1  -5   -0.21    0.72
   4   1   5   -0.78    1.39
  -4   1  -5   -1.63    1.26
   4   1   5    1.15    1.53
   4   1   5   -2.11    1.46
   5  -1   5    5.63    2.33
   5  -1   5    6.40    2.36
   5   1   5    3.44    2.36
   5   1   5    3.73    2.02
   7  -2  -5   29.74    3.00
  -7  -2   5   42.40    4.85
   7  -2  -5   40.73    4.56
   7  -2  -5   32.71    3.42
  -7   2   5   19.52    3.73
   7   2  -5   30.12    3.79
   7   2  -5   30.57    3.71
   7   2  -5   32.59    4.48
  -6  -2   5   24.48    4.41
  -6  -2   5   15.39    2.96
   6  -2  -5   16.24    2.49
   6  -2  -5   19.16    4.64
   6  -2  -5   13.61    2.11
  -6   2   5    9.85    2.50
   6   2  -5   10.90    2.50
   6   2  -5   12.75    3.07
  -6   2   5   20.42    3.81
  -5  -2   5   22.18    3.47
   5  -2  -5   21.66    2.42
   5  -2  -5   22.78    2.33
  -5  -2   5   24.59    4.01
   5  -2  -5   23.52    3.63
   5  -2  -5   23.64    3.57
   5   2  -5   20.78    3.77
  -5   2   5   22.97    3.77
  -5   2   5   24.47    3.13
   5   2  -5   17.47    3.05
   5   2  -5   17.78    2.92
   5   2  -5   22.27    3.21
   4  -2  -5   40.53    2.91
   4  -2  -5   42.19    3.75
   4  -2  -5   47.30    3.96
  -4  -2   5   45.34    3.92
  -4  -2   5   40.10    3.94
   4  -2  -5   40.95    2.82
   4   2  -5   40.88    3.99
  -4   2   5   40.02    3.71
   4   2  -5   41.42    3.50
   4   2  -5   39.10    3.34
  -4   2   5   46.18    3.74
   4   2  -5   38.55    3.76
   3  -2  -5  150.71    5.67
   3  -2  -5  154.29    6.86
  -3  -2   5  151.36    7.02
  -3  -2   5  155.60    6.37
   3  -2  -5  140.86    6.34
  -3  -2   5  153.05    6.92
  -3   2   5  143.46    5.09
   3   2  -5  144.29    6.87
  -3   2   5  154.00    6.47
   3   2  -5  151.68    6.54
   3   2  -5  143.57    6.66
  -2  -2   5    3.42    1.37
  -2  -2   5    4.38    1.58
   2  -2  -5    2.87    1.24
  -2  -2   5    3.69    1.68
   2  -2  -5    3.89    1.53
   2  -2  -5    3.53    1.11
  -2   2   5    3.73    1.17
   2   2  -5    3.40    1.47
   2   2  -5    4.07    1.57
  -2   2   5    3.90    1.45
   2   2  -5    3.99    1.32
   1  -2  -5  324.49    9.91
   1  -2  -5  318.54   10.27
   1  -2  -5  321.08    9.44
  -1  -2   5  323.60    9.95
   1  -2  -5  322.22   10.29
  -1  -2   5  303.10   10.24
  -1  -2   5  318.68   10.74
   1   2  -5  317.73   10.63
   1   2  -5  316.47   10.41
  -1   2   5  328.87    9.39
   1   2  -5  314.59    9.92
   0  -2   5   94.76    5.07
   0  -2   5   91.42    5.16
   0  -2  -5   90.22    4.70
   0  -2  -5   90.50    4.06
   0  -2  -5   93.10    5.55
   0  -2  -5   96.16    4.82
   0  -2   5   87.27    4.11
   0   2  -5   92.87    4.95
   0   2  -5   94.32    5.07
   0   2   5   96.74    4.88
   0   2  -5   87.54    4.19
   0   2   5   90.48    4.06
  -1  -2  -5  265.86   13.02
  -1  -2  -5  325.25   10.92
  -1  -2  -5  343.67   10.41
   1  -2   5  337.44   11.41
  -1  -2  -5  344.95    9.75
   1  -2   5  339.24   11.31
   1   2   5  341.98    9.86
  -1   2  -5  327.08    9.16
   1   2   5  329.42   11.03
  -1   2  -5  343.48   11.36
  -1   2  -5  329.45   12.13
   2  -2   5    0.93    1.49
  -2  -2  -5   -0.57    1.16
  -2  -2  -5    2.91    1.92
   2  -2   5    0.10    1.18
   2   2   5    0.02    1.29
  -2   2  -5    1.17    0.60
  -2   2  -5    1.17    1.53
  -2   2  -5    0.90    0.59
   2   2   5    1.33    1.13
  -2   2  -5    1.37    1.33
   3  -2   5  499.12   16.07
   3  -2   5  478.90   16.03
  -3   2  -5  503.53   16.15
  -3   2  -5  482.65   15.60
   3   2   5  485.52   16.17
   3   2   5  502.20   14.62
   4  -2   5   64.97    5.45
  -4  -2  -5   52.62    5.60
   4  -2   5   58.96    5.41
   4   2   5   61.52    4.50
   4   2   5   66.52    4.83
   4   2   5   62.17    5.58
   5  -2   5    5.14    2.08
  -5  -2  -5    4.54    1.77
  -5  -2  -5    6.28    2.26
   5  -2   5    5.31    2.24
   5   2   5    8.03    2.28
   5   2   5    4.71    2.49
   5   2   5    3.01    2.19
   7  -3  -5    3.09    1.35
   7  -3  -5    4.20    1.53
  -7  -3   5    6.64    2.70
   7  -3  -5    4.53    2.00
   7   3  -5    7.54    2.18
   7   3  -5    3.07    1.89
   7   3  -5    5.28    2.40
  -6  -3   5   35.36    4.59
   6  -3  -5   39.97    7.51
  -6  -3   5   41.51    7.52
   6  -3  -5   37.53    2.92
   6  -3  -5   39.32    3.02
   6   3  -5   38.42    4.64
   6   3  -5   32.49    3.74
   6   3  -5   33.64    3.95
  -6   3   5   37.80    4.50
  -5  -3   5   33.52    4.38
   5  -3  -5   27.11    3.54
   5  -3  -5   35.22    2.75
   5  -3  -5   25.41    3.69
   5  -3  -5   25.02    3.38
   5   3  -5   31.74    4.11
   5   3  -5   30.28    3.45
  -5   3   5   27.14    3.59
   5   3  -5   31.11    4.98
   5   3  -5   29.17    3.40
  -4  -3   5  240.21    9.00
   4  -3  -5  252.04    9.54
  -4  -3   5  249.40    9.86
   4  -3  -5  252.66    7.76
   4  -3  -5  237.80    9.59
  -4  -3   5  238.89    9.88
   4   3  -5  238.72    9.93
  -4   3   5  235.92    9.29
   4   3  -5  242.50    9.14
   4   3  -5  266.38    9.66
   4   3  -5  243.00    9.85
  -3  -3   5   34.98    3.31
  -3  -3   5   33.88    3.11
   3  -3  -5   40.12    2.67
   3  -3  -5   33.01    3.33
  -3  -3   5   36.76    3.66
   3  -3  -5   34.18    3.09
   3   3  -5   36.80    3.61
   3   3  -5   36.88    3.58
  -3   3   5   31.96    3.01
   3   3  -5   36.19    3.32
   3   3  -5   35.35    3.29
  -2  -3   5   96.99    5.17
   2  -3  -5   97.30    5.24
   2  -3  -5   98.29    4.36
   2  -3  -5  102.28    4.60
  -2  -3   5   94.43    5.04
  -2  -3   5   97.37    5.57
   2  -3  -5  101.89    5.30
   2   3  -5   90.75    5.00
  -2   3   5  106.46    4.98
   2   3  -5   93.55    5.11
   2   3  -5   91.51    5.30
  -2   3   5  102.48    4.19
  -1  -3   5    4.07    1.55
   1  -3  -5    0.16    1.08
   1  -3  -5    2.10    0.87
  -1  -3   5    3.60    1.59
   1  -3  -5   -0.16    0.94
  -1  -3   5    2.68    1.22
   1  -3  -5    2.09    1.02
   1   3  -5    2.36    1.25
   1   3  -5    1.41    1.41
   1   3  -5    1.06    1.03
  -1   3   5    1.22    0.92
  -1   3   5    2.67    0.95
   0  -3   5  120.97    5.97
   0  -3   5  118.57    4.92
   0  -3  -5  116.93    5.57
   0  -3  -5  121.49    5.51
   0  -3  -5  121.87    4.41
   0  -3   5  127.47    6.39
   0   3  -5  120.97    6.14
   0   3   5  121.13    4.39
   0   3   5  111.27    5.29
   0   3  -5  111.33    4.87
   0   3  -5  119.63    5.80
  -1  -3  -5    0.04    0.74
  -1  -3  -5    0.28    1.05
  -1  -3  -5   -0.44    0.87
   1  -3   5    0.38    0.99
   1  -3   5   -0.80    1.26
  -1   3  -5    1.30    0.76
  -1   3  -5   -0.79    0.86
  -1   3  -5   -1.24    1.27
   1   3   5   -0.46    0.93
   1   3   5   -0.57    0.66
  -2  -3  -5   21.20    3.17
   2  -3   5   24.83    3.44
  -2  -3  -5   19.50    2.55
   2  -3   5   28.60    4.20
   2   3   5   14.65    2.63
  -2   3  -5   18.03    2.86
  -2   3  -5   20.87    1.24
   2   3   5   19.22    2.15
  -2   3  -5   15.69    3.00
  -3  -3  -5   35.73    3.39
   3  -3   5   36.37    3.91
  -3  -3  -5   33.02    3.82
   3  -3   5   36.26    6.18
  -3   3  -5   24.16    4.09
   3   3   5   30.49    2.90
   3   3   5   36.42    3.13
   3   3   5   34.13    4.05
  -3   3  -5   36.27    4.25
   4  -3   5  111.14    7.38
  -4  -3  -5  105.75    5.56
   4  -3   5  107.00    6.89
  -4  -3  -5   99.60    6.62
   4   3   5  116.77    5.95
   4   3   5  101.99    5.61
   4   3   5  108.61    7.24
  -5  -3  -5   -2.85    1.56
   5  -3   5   -2.72    1.53
   5  -3   5    0.53    1.45
   5   3   5    1.98    2.17
   5   3   5   -0.30    1.78
   5   3   5   -1.78    1.93
  -7  -4   5   20.87    4.25
   7  -4  -5   16.06    3.11
   7   4  -5   18.74    3.73
   7   4  -5   10.11    3.16
   7   4  -5   23.03    3.82
   6  -4  -5   34.91    4.04
  -6  -4   5   36.08    4.44
   6   4  -5   42.34    4.29
   6   4  -5   32.12    4.40
  -5  -4   5   20.66    3.64
  -5  -4   5   21.41    3.99
   5  -4  -5   17.68    3.18
   5  -4  -5   15.71    3.07
   5   4  -5    9.13    2.61
  -5   4   5   17.13    3.26
   5   4  -5    9.75    2.37
   5   4  -5   14.07    2.69
   5   4  -5   13.02    2.77
   4  -4  -5   26.87    3.30
  -4  -4   5   25.19    3.18
  -4  -4   5   22.32    3.59
  -4  -4   5   23.27    3.15
   4  -4  -5   24.30    3.04
   4   4  -5   27.95    3.52
   4   4  -5   23.10    3.52
   4   4  -5   24.86    3.48
   4   4  -5   28.98    3.27
  -4   4   5   21.61    2.88
  -3  -4   5  434.45   13.63
  -3  -4   5  426.40   14.28
   3  -4  -5  438.68   13.94
  -3  -4   5  458.49   14.26
   3  -4  -5  447.52   14.05
   3  -4  -5  451.37   11.64
   3  -4  -5  435.97   13.00
  -3   4   5  449.40   12.98
   3   4  -5  441.08   13.98
   3   4  -5  449.97   13.79
   3   4  -5  435.40   14.03
   3   4  -5  437.14   14.40
  -2  -4   5  289.72   10.86
   2  -4  -5  309.60    8.97
   2  -4  -5  309.16   10.64
   2  -4  -5  287.63    9.10
  -2  -4   5  310.17   10.49
  -2  -4   5  287.14   10.26
   2  -4  -5  315.55   10.76
  -2   4   5  327.80    8.69
   2   4  -5  297.32   10.36
  -2   4   5  315.30    9.18
   2   4  -5  292.85   10.82
   2   4  -5  296.40   10.54
   1  -4  -5   12.21    2.34
  -1  -4   5   10.09    2.23
  -1  -4   5    8.56    1.82
   1  -4  -5   11.18    1.52
   1  -4  -5    7.72    2.01
   1  -4  -5    7.37    1.54
   1   4  -5    9.16    1.94
  -1   4   5   10.07    1.41
   1   4  -5    8.75    1.91
   1   4  -5    8.42    2.05
  -1   4   5    9.89    1.76
   0  -4   5   48.26    4.14
   0  -4   5   46.15    3.64
   0  -4   5   37.05    2.89
   0  -4  -5   42.86    3.52
   0  -4  -5   41.14    2.09
   0   4   5   41.10    2.09
   0   4  -5   43.67    3.81
   0   4  -5   45.01    3.53
   0   4  -5   41.23    3.50
   1  -4   5   31.69    3.27
   1  -4   5   22.74    1.93
  -1  -4  -5   27.13    3.10
  -1  -4  -5   22.33    2.88
   1  -4   5   27.71    3.99
  -1   4  -5   25.47    2.15
  -1   4  -5   25.26    3.06
   1   4   5   22.13    2.82
   1   4   5   22.47    1.58
  -1   4  -5   28.11    3.46
  -2  -4  -5   -1.23    1.08
  -2  -4  -5    0.40    1.29
   2  -4   5   -1.11    1.53
   2  -4   5    0.35    1.00
   2   4   5   -0.09    0.70
  -2   4  -5   -1.70    1.34
   2   4   5   -0.13    1.24
  -2   4  -5   -0.19    0.30
  -2   4  -5    0.72    1.31
   2   4   5    0.00    0.66
  -3  -4  -5    4.76    1.80
  -3  -4  -5    0.55    1.75
   3  -4   5    4.30    2.37
  -3   4  -5    2.10    1.49
   3   4   5    2.62    1.16
   3   4   5    3.98    1.85
   3   4   5    3.19    1.46
   3   4   5    3.85    1.21
  -3   4  -5   -1.87    1.60
  -4  -4  -5   88.31    6.29
   4  -4   5   85.44    6.17
  -4  -4  -5   80.13    5.33
   4  -4   5   88.90    6.73
   4   4   5   89.28    4.83
   4   4   5   78.68    6.33
   4   4   5   92.34    5.35
   4   4   5   84.20    4.80
   5  -4   5   -0.91    2.56
   5  -4   5   -0.89    2.05
   5   4   5    2.49    1.60
   5   4   5   -0.43    1.90
   5   4   5    0.12    2.40
  -7  -5   5   55.86    5.58
   7  -5  -5   62.94    5.37
   7   5  -5   60.65    5.50
   7   5  -5   58.49    5.56
   7   5  -5   54.16    5.84
   6  -5  -5   79.36    5.65
  -6  -5   5   86.41    6.73
   6  -5  -5   77.62    5.36
   6   5  -5   94.81    6.35
   6   5  -5   82.31    6.21
   6   5  -5   79.02    6.52
   5  -5  -5   39.83    4.15
  -5  -5   5   42.25    4.57
   5  -5  -5   31.87    5.74
  -5  -5   5   43.12    4.47
   5   5  -5   43.83    4.80
   5   5  -5   50.84    4.53
   5   5  -5   47.31    4.44
   5   5  -5   48.53    4.53
   4  -5  -5  131.87    6.90
   4  -5  -5  139.34    6.78
  -4  -5   5  141.30    7.68
  -4  -5   5  141.85    7.11
   4  -5  -5  135.05    7.13
   4   5  -5  134.18    7.38
   4   5  -5  136.52    7.12
   4   5  -5  137.03    7.51
   4   5  -5  148.24    7.28
   3  -5  -5  126.85    5.80
  -3  -5   5  132.77    6.61
   3  -5  -5  129.83    6.65
   3  -5  -5  134.32    6.79
  -3  -5   5  136.61    7.24
  -3  -5   5  137.20    6.95
   3   5  -5  144.51    7.35
   3   5  -5  128.28    6.91
   3   5  -5  136.71    6.68
   3   5  -5  138.12    6.95
  -3   5   5  136.12    5.93
  -2  -5   5  135.30    6.58
   2  -5  -5  138.30    5.29
  -2  -5   5  146.35    6.76
   2  -5  -5  138.71    5.39
  -2  -5   5  144.07    7.29
   2  -5  -5  144.92    6.85
   2  -5  -5  147.70    7.04
   2   5  -5  139.69    6.75
   2   5  -5  139.91    7.18
  -2   5   5  149.63    5.40
   2   5  -5  141.95    7.10
   2   5  -5  141.47    6.68
  -1  -5   5   99.29    5.49
   1  -5  -5  102.42    3.65
  -1  -5   5   82.44    4.79
  -1  -5   5  104.90    6.12
   1  -5  -5   95.41    4.63
   1  -5  -5  101.63    5.60
   1   5  -5   93.11    5.42
   1   5  -5   98.12    5.79
  -1   5   5   95.15    3.46
  -1   5   5  102.60    4.56
   1   5  -5   98.71    5.18
   0  -5   5   42.01    4.15
   0  -5   5   26.91    3.15
   0  -5  -5   32.79    3.44
   0  -5   5   35.35    2.84
   0  -5  -5   32.21    3.06
   0   5  -5   32.93    2.87
   0   5  -5   33.01    3.28
   0   5  -5   37.33    3.69
  -1  -5  -5   44.76    3.87
   1  -5   5   47.05    4.57
   1  -5   5   48.66    2.81
  -1  -5  -5   45.76    3.80
   1  -5   5   43.91    3.93
  -1   5  -5   41.87    3.80
   1   5   5   50.44    3.97
  -1   5  -5   50.18    2.87
   1   5   5   47.48    4.14
  -1   5  -5   49.82    4.51
  -2  -5  -5    2.03    1.37
   2  -5   5    5.07    2.21
   2  -5   5    0.98    1.29
  -2  -5  -5    1.46    1.46
   2   5   5    1.17    0.51
   2   5   5    1.58    1.37
  -2   5  -5    1.85    0.42
  -2   5  -5    1.73    1.90
   2   5   5    2.79    0.66
   2   5   5    0.50    1.49
  -3  -5  -5   18.81    3.52
  -3  -5  -5   12.85    2.55
   3  -5   5   21.60    4.12
   3  -5   5   12.42    2.55
   3   5   5   11.62    2.86
   3   5   5   14.40    1.71
   3   5   5   15.00    2.80
   3   5   5   16.78    1.68
  -4  -5  -5    2.48    2.19
   4  -5   5    3.45    2.04
   4  -5   5    6.01    2.15
  -4  -5  -5   -2.03    2.16
   4   5   5    4.16    1.34
   4   5   5    3.98    1.74
   4   5   5    2.98    1.75
   7  -6  -5   -2.03    1.39
   7   6  -5   -3.00    1.81
   7   6  -5    1.60    1.94
   6  -6  -5   78.05    5.83
  -6  -6   5   86.18    6.40
   6   6  -5   77.89    6.07
   6   6  -5   79.81    6.15
   6   6  -5   70.51    6.19
   5  -6  -5    0.57    1.41
   5  -6  -5   -0.81    1.38
   5  -6  -5   -1.80    1.15
  -5  -6   5    3.69    1.98
   5   6  -5    0.27    1.30
   5   6  -5   -0.18    1.24
   5   6  -5   -1.39    1.54
   5   6  -5   -0.74    1.40
   4  -6  -5    9.08    2.22
  -4  -6   5    9.50    3.56
  -4  -6   5    5.84    2.27
   4  -6  -5    4.96    2.18
   4   6  -5    7.78    2.18
   4   6  -5    6.46    2.38
   4   6  -5    7.19    2.12
   4   6  -5    5.11    1.92
  -3  -6   5  125.27    6.88
   3  -6  -5  136.98    7.09
  -3  -6   5  141.53    7.54
   3  -6  -5  131.30    5.88
  -3  -6   5  133.92    6.93
   3  -6  -5  126.19    6.79
   3   6  -5  143.62    7.31
   3   6  -5  128.60    7.08
   3   6  -5  132.31    6.82
   3   6  -5  131.30    7.27
  -2  -6   5  119.40    6.78
   2  -6  -5  105.28    4.49
   2  -6  -5  115.11    6.43
  -2  -6   5  115.03    6.21
  -2  -6   5  107.20    5.98
   2  -6  -5  115.61    4.71
   2  -6  -5  116.03    6.36
   2   6  -5  108.30    6.07
   2   6  -5  109.19    6.48
   2   6  -5  106.41    6.16
   2   6  -5  115.34    6.14
  -1  -6   5  150.26    7.23
   1  -6  -5  155.62    7.56
  -1  -6   5  165.11    8.04
  -1  -6   5  155.62    6.93
   1  -6  -5  157.66    4.48
   1  -6  -5  154.44    6.24
   1   6  -5  161.69    7.47
   1   6  -5  162.88    7.81
  -1   6   5  151.20    5.87
   1   6  -5  160.82    6.97
   0  -6   5   73.33    4.89
   0  -6  -5   65.14    4.22
   0  -6   5   67.51    4.08
   0  -6   5   70.65    5.51
   0  -6  -5   72.93    4.98
   0   6   5   74.39    4.36
   0   6  -5   71.58    5.24
   0   6  -5   69.83    4.16
   0   6  -5   69.93    4.75
   1  -6   5    5.55    2.59
   1  -6   5    5.43    1.34
  -1  -6  -5    5.83    2.01
  -1  -6  -5    7.74    2.34
   1  -6   5    8.70    2.15
   1   6   5    6.08    1.97
  -1   6  -5    6.29    2.36
  -1   6  -5    6.28    1.78
  -1   6  -5    7.50    1.52
   2  -6   5   48.92    7.82
   2  -6   5   52.25    5.22
  -2  -6  -5   63.29    7.29
  -2  -6  -5   44.79    4.22
  -2   6  -5   46.06    1.87
   2   6   5   46.97    4.26
  -2   6  -5   46.25    1.87
   2   6   5   46.85    4.35
  -2   6  -5   35.79    3.68
  -2   6  -5   40.49    4.49
   3  -6   5   28.25    4.69
  -3  -6  -5   33.28    4.14
   3  -6   5   35.57    4.03
  -3  -6  -5   29.07    3.99
   3   6   5   32.30    4.13
   3   6   5   31.92    3.76
  -4  -6  -5   -3.39    2.11
  -4  -6  -5   -4.52    1.75
   4  -6   5    0.82    1.41
   4   6   5    1.72    1.59
   4   6   5    0.42    0.79
   4   6   5   -0.01    0.96
   4   6   5    2.01    2.04
   6  -7  -5   -1.33    1.62
   6  -7  -5    1.22    1.41
  -6  -7   5   -0.87    1.36
   6   7  -5   -2.99    1.64
   6   7  -5    0.04    2.03
   6   7  -5   -1.44    1.37
  -5  -7   5   61.03    5.39
   5  -7  -5   63.10    5.22
   5  -7  -5   48.58    4.57
   5  -7  -5   54.68    4.92
   5   7  -5   58.39    5.60
   5   7  -5   58.17    5.14
   5   7  -5   56.85    5.20
   4  -7  -5   27.60    3.75
   4  -7  -5   28.85    3.55
  -4  -7   5   31.92    4.07
   4  -7  -5   29.39    3.24
  -4  -7   5   32.60    6.84
   4  -7  -5   34.05    3.50
   4   7  -5   33.30    3.98
   4   7  -5   31.02    3.90
   4   7  -5   34.50    4.59
  -3  -7   5   31.20    3.98
  -3  -7   5   26.95    3.70
  -3  -7   5   26.65    3.49
   3  -7  -5   27.62    3.90
   3  -7  -5   25.95    2.72
   3  -7  -5   28.21    2.86
   3   7  -5   28.32    4.14
   3   7  -5   22.86    3.40
   3   7  -5   37.57    6.51
   2  -7  -5  355.27   10.55
   2  -7  -5  338.61    9.88
  -2  -7   5  380.07   13.62
  -2  -7   5  347.75   12.55
   2  -7  -5  363.61    9.98
  -2  -7   5  349.29   12.53
   2   7  -5  368.56   12.96
   2   7  -5  375.73   12.62
   2   7  -5  360.18   13.12
   2   7  -5  351.68   12.54
  -1  -7   5  100.13    6.44
  -1  -7   5   87.64    5.57
   1  -7  -5   96.76    4.78
  -1  -7   5   96.76    5.56
  -1   7   5   99.62    4.53
   1   7  -5   99.51    5.91
   1   7  -5   91.45    5.57
   1   7  -5   93.36    5.48
   1   7  -5   97.53    6.21
   0  -7   5   -0.74    0.88
   0  -7   5   -0.34    1.19
   0  -7  -5   -1.60    1.29
   0  -7  -5   -0.11    1.13
   0  -7   5    1.78    2.24
   0   7   5   -0.23    1.49
   0   7  -5   -1.61    1.19
   0   7  -5   -0.31    1.09
   0   7  -5   -0.05    1.20
   0   7   5   -0.94    0.95
   1  -7   5    1.06    1.88
   1  -7   5    0.45    1.26
   1  -7   5    1.27    0.97
  -1  -7  -5    1.95    1.80
  -1  -7  -5    1.39    1.33
   1   7   5    1.06    1.75
  -1   7  -5    1.13    1.66
  -1   7  -5   -0.19    0.91
  -1   7  -5   -0.29    1.13
   1   7   5   -0.55    1.32
  -2  -7  -5   90.56    6.03
   2  -7   5  100.62    6.21
  -2  -7  -5   84.63    5.84
   2  -7   5   93.79    3.38
   2  -7   5   98.41    7.07
  -2   7  -5   94.57    3.33
   2   7   5   83.50    5.97
   2   7   5   83.76    5.69
   3  -7   5    5.49    2.03
  -3  -7  -5    3.50    2.20
   3  -7   5    6.27    2.43
   3   7   5    4.20    1.91
   3   7   5    6.84    2.14
   4  -7   5   -0.47    1.92
  -4  -7  -5    2.57    2.09
   4  -7   5    1.31    1.78
   4   7   5    0.29    1.64
   4   7   5   -0.18    2.00
   6  -8  -5    4.94    2.03
  -6  -8   5    2.37    1.95
   6  -8  -5    3.90    2.27
   6   8  -5    4.66    2.46
   6   8  -5    1.85    2.18
   6   8  -5    2.43    2.18
   5  -8  -5    5.31    2.16
   5  -8  -5    6.95    2.17
  -5  -8   5    4.24    2.28
   5  -8  -5    2.29    1.91
   5   8  -5    1.76    1.95
   5   8  -5    4.83    2.35
   5   8  -5    2.21    1.86
  -4  -8   5    4.42    2.17
   4  -8  -5    1.63    1.60
   4  -8  -5    1.44    1.58
   4  -8  -5   -0.64    1.10
   4   8  -5    4.39    1.78
   4   8  -5    3.40    2.31
   4   8  -5    0.48    1.69
   3  -8  -5   30.25    4.15
   3  -8  -5   31.44    2.92
  -3  -8   5   34.44    4.00
   3  -8  -5   38.63    3.21
  -3  -8   5   40.28    4.39
  -3  -8   5   34.86    4.22
   3  -8  -5   37.41    4.31
   3   8  -5   37.08    4.17
   3   8  -5   37.12    4.21
   3   8  -5   39.10    4.62
   3   8  -5   37.16    4.19
   2  -8  -5    4.72    1.16
   2  -8  -5    4.12    1.09
   2  -8  -5    5.67    2.06
  -2  -8   5    4.31    2.28
   2  -8  -5    3.77    1.28
  -2  -8   5    6.62    2.27
   2   8  -5    4.82    1.83
   2   8  -5    5.60    2.05
   2   8  -5    4.55    2.03
   2   8  -5    3.56    1.71
  -1  -8   5    0.62    1.42
  -1  -8   5    3.82    1.70
   1  -8  -5    4.93    1.93
  -1  -8   5    7.28    2.70
   1  -8  -5    4.29    1.53
   1   8  -5    3.77    1.88
   1   8  -5    6.90    2.77
   1   8  -5    3.17    1.47
   1   8  -5    6.43    2.30
  -1   8   5    6.50    2.11
   0  -8   5   73.81    5.31
   0  -8   5   61.78    4.36
   0  -8   5   70.32    5.77
   0  -8  -5   59.94    5.29
   0  -8  -5   69.33    4.60
   0   8  -5   65.26    4.41
   0   8   5   62.72    4.18
   0   8  -5   68.22    5.66
   0   8  -5   61.46    4.76
   0   8  -5   65.72    4.66
   0   8   5   64.57    5.42
  -1  -8  -5  238.14   10.48
   1  -8   5  238.34    8.47
   1  -8   5  271.33   10.66
   1  -8   5  266.98   11.81
  -1   8  -5  254.75    8.56
   1   8   5  244.26    9.76
   1   8   5  242.63   10.95
   2  -8   5   -1.37    0.60
  -2  -8  -5   -1.20    1.36
   2  -8   5    0.03    1.72
   2  -8   5   -1.59    1.20
  -2   8  -5   -0.34    0.58
   2   8   5   -1.33    1.35
   2   8   5    2.05    1.87
   3  -8   5    2.61    1.78
  -3  -8  -5   -2.44    2.44
   3  -8   5   -0.34    1.22
   3   8   5    0.46    1.54
   3   8   5   -0.88    1.05
  -5  -9   5   62.89    5.53
   5  -9  -5   54.59    4.91
   5  -9  -5   55.00    5.03
   5   9  -5   62.19    5.77
   5   9  -5   58.12    5.75
   4  -9  -5   19.16    3.39
   4  -9  -5   22.00    3.39
  -4  -9   5   29.19    4.06
   4  -9  -5   16.36    2.71
   4   9  -5   25.71    4.21
   4   9  -5   23.82    3.80
   4   9  -5   18.41    3.44
  -3  -9   5    3.95    2.07
  -3  -9   5    2.29    1.91
   3  -9  -5    1.55    1.16
   3  -9  -5    0.00    1.76
   3  -9  -5    1.50    1.16
   3   9  -5    1.93    1.90
   3   9  -5    4.40    2.54
   3   9  -5    6.35    2.29
  -2  -9   5  165.86    8.93
   2  -9  -5  146.43    5.87
   2  -9  -5  162.34    5.26
   2  -9  -5  146.01    5.11
  -2  -9   5  165.56    8.42
  -2  -9   5  157.40    8.27
   2   9  -5  163.75    8.39
   2   9  -5  160.58    9.12
   2   9  -5  156.69    8.12
   2   9  -5  154.98    7.92
   1  -9  -5   11.85    2.24
  -1  -9   5    8.38    2.26
  -1  -9   5    7.77    2.65
  -1  -9   5   11.73    3.26
   1   9  -5    5.19    1.63
   1   9  -5    6.97    2.16
   1   9  -5    9.11    2.40
   1   9  -5    8.74    4.11
   0  -9   5   74.96    6.13
   0  -9  -5   56.56    4.37
   0  -9   5   63.33    4.61
   0  -9   5   64.80    5.10
   0   9  -5   68.25    4.67
   0   9   5   60.11    4.22
   0   9   5   75.11    6.01
   1  -9   5   17.66    3.53
   1  -9   5   14.72    2.89
   1  -9   5   18.38    2.66
  -1  -9  -5   13.95    2.58
  -1   9  -5   23.80    3.01
   1   9   5   12.97    2.81
   1   9   5   17.62    3.31
  -1   9  -5   20.63    2.70
   2  -9   5   17.67    3.89
  -2  -9  -5   18.87    3.37
   2  -9   5   12.76    1.72
   2  -9   5   14.25    2.73
   2   9   5   14.99    3.34
  -2   9  -5   10.50    2.10
  -2   9  -5   15.42    2.53
   3  -9   5   14.86    3.26
   3  -9   5   15.89    3.97
  -3  -9  -5   11.55    4.80
   3   9   5   12.94    2.94
   3   9   5   10.34    2.81
  -4 -10   5   -0.29    1.53
   4 -10  -5    0.07    1.32
   4 -10  -5   -2.82    1.20
   4 -10  -5    1.63    1.55
   4  10  -5   -0.86    1.79
   4  10  -5   -2.33    1.65
   3 -10  -5   -0.92    1.89
   3 -10  -5    0.52    0.93
  -3 -10   5   -2.29    1.44
   3 -10  -5   -0.62    0.96
  -3 -10   5    0.75    1.90
   3  10  -5    1.52    1.82
   3  10  -5   -0.34    1.72
   2 -10  -5   75.47    3.06
   2 -10  -5   78.62    3.08
  -2 -10   5   83.29    6.44
  -2 -10   5   72.98    5.93
   2 -10  -5   82.67    4.20
   2  10  -5   78.97    6.05
   2  10  -5   81.23    5.81
  -1 -10   5   -2.31    1.33
  -1 -10   5    1.05    2.05
  -1 -10   5    0.23    1.49
   1  10  -5    0.03    1.23
   1  10  -5    2.40    1.69
   0 -10   5   29.49    3.63
   0 -10  -5   35.78    3.79
   0 -10   5   39.55    4.30
   0 -10   5   42.47    4.78
   0  10   5   38.29    4.58
   0  10  -5   43.58    7.78
   0  10   5   33.83    4.20
   0  10  -5   34.00    3.73
   1 -10   5    7.01    1.75
   1 -10   5   17.11    3.77
   1 -10   5    5.20    1.87
  -1 -10  -5    6.83    2.16
  -1  10  -5   10.36    2.32
   1  10   5    3.17    2.00
  -1  10  -5    6.41    1.73
   1  10   5    1.47    1.67
   2 -10   5  174.90   10.37
  -2 -10  -5  163.57    8.90
   2 -10   5  163.57   10.04
  -2  10  -5  185.49    6.43
   2  10   5  160.23    9.13
  -2  10  -5  170.03    8.10
   3 -11  -5    2.40    1.33
   3 -11  -5    3.90    2.10
   3 -11  -5    4.54    1.38
  -3 -11   5    0.99    1.55
   3  11  -5    3.59    2.20
   3  11  -5   -1.37    1.67
  -2 -11   5   87.04    6.61
   2 -11  -5   85.97    4.57
  -2 -11   5  101.34    7.14
   2  11  -5   94.06    6.62
   2  11  -5   89.92    6.20
  -1 -11   5    1.58    1.55
   1 -11  -5    7.78    1.82
  -1 -11   5    2.54    1.75
   1  11  -5    0.97    1.89
   0 -11  -5    0.45    1.44
   0 -11   5   -0.53    1.31
   0 -11   5    6.39    2.39
   0  11  -5    1.81    1.66
   0  11  -5   -1.18    1.38
   0  11   5   -2.53    1.40
  -1 -11  -5   15.30    3.06
   1 -11   5    8.97    2.24
   1 -11   5   13.57    2.98
   1 -11   5   17.85    3.98
  -1  11  -5   15.76    3.02
  -1  11  -5   16.62    2.63
   1  11   5   12.01    3.05
   1  11   5   16.55    3.44
   7   0  -6    6.26    1.79
   7   0  -6    7.63    2.65
  -7   0   6    6.44    2.44
   7   0  -6    7.96    2.05
   6   0  -6   74.50    5.87
  -6   0   6   66.99    5.77
  -6   0   6   68.08    8.24
   6   0  -6   63.20    4.46
   6   0  -6   65.32    4.64
   5   0  -6    0.52    1.90
  -5   0   6    1.21    1.51
   5   0  -6    2.16    1.73
  -5   0   6   -0.12    1.87
   5   0  -6    3.19    1.76
   5   0  -6    0.74    1.31
  -4   0   6   16.31    2.87
   4   0  -6   20.23    2.93
   4   0  -6   17.93    3.07
  -4   0   6   16.64    2.90
   4   0  -6   18.81    3.08
  -4   0   6   20.16    2.33
  -3   0   6  175.18    7.59
   3   0  -6  173.20    7.09
   3   0  -6  169.16    7.63
  -3   0   6  158.38    7.35
   3   0  -6  169.94    7.78
  -3   0   6  173.99    6.77
  -2   0   6    3.48    1.46
   2   0  -6    3.84    1.72
   2   0  -6    3.32    1.50
  -2   0   6    1.21    1.01
  -2   0   6    2.87    1.62
   2   0  -6    2.49    1.28
  -1   0   6  108.34    5.53
   1   0  -6  101.34    5.39
  -1   0   6  115.08    5.64
   1   0  -6  108.81    5.52
   1   0  -6  105.23    5.44
   0   0  -6   16.42    2.38
   0   0   6   14.52    2.53
   0   0  -6   14.67    2.35
   0   0   6   10.36    2.06
   0   0  -6   17.19    2.35
   0   0  -6   11.34    2.16
   1   0   6 1749.84   46.14
   1   0   6 1889.95   43.35
  -1   0  -6 1877.54   43.12
  -1   0  -6 1830.95   41.78
  -1   0  -6 1815.41   43.70
  -1   0  -6 1851.14   41.69
   2   0   6  484.82   14.86
   2   0   6  464.77   15.38
  -2   0  -6  454.92   12.54
  -2   0  -6  439.45   14.98
  -3   0  -6   79.55    5.89
  -3   0  -6   76.37    3.44
   3   0   6   76.05    5.40
  -3   0  -6   66.83    3.35
   3   0   6   77.33    5.80
   4   0   6   13.12    2.92
   4   0   6   16.38    3.50
  -7  -1   6    3.04    1.97
   7  -1  -6    2.80    1.41
   7  -1  -6    5.10    2.17
   7  -1  -6    4.77    1.76
  -7   1   6    3.02    2.21
   7   1  -6   -0.75    1.57
   7   1  -6    4.17    1.52
   7   1  -6    3.99    1.75
   6  -1  -6    7.04    2.60
   6  -1  -6    8.15    2.05
   6  -1  -6    9.43    1.97
  -6  -1   6    7.37    2.85
   6   1  -6    8.91    2.70
  -6   1   6    4.78    2.07
   6   1  -6    5.79    1.81
  -6   1   6    8.34    2.56
   6   1  -6    7.55    2.02
   5  -1  -6    0.23    2.54
   5  -1  -6   -0.83    1.18
  -5  -1   6   -0.81    1.42
   5  -1  -6   -0.40    1.29
  -5  -1   6    0.02    3.00
   5  -1  -6    1.55    1.25
  -5   1   6   -0.04    1.37
   5   1  -6   -1.16    0.99
   5   1  -6    1.49    1.58
  -5   1   6   -2.11    1.25
   5   1  -6    0.84    1.16
  -4  -1   6   43.47    4.25
  -4  -1   6   41.75    3.30
  -4  -1   6   35.79    3.75
   4  -1  -6   39.26    3.86
   4  -1  -6   35.57    3.19
   4  -1  -6   50.83    4.47
   4   1  -6   44.26    4.27
   4   1  -6   41.83    3.56
  -4   1   6   39.15    2.92
  -4   1   6   39.11    3.77
   4   1  -6   41.23    3.75
  -4   1   6   33.18    3.64
   4   1  -6   40.04    3.87
  -3  -1   6  380.54   12.89
   3  -1  -6  381.38   11.82
  -3  -1   6  385.11   12.72
   3  -1  -6  398.15   13.06
   3  -1  -6  393.72   12.71
   3   1  -6  382.23   12.38
  -3   1   6  378.85   12.35
   3   1  -6  381.04   12.95
  -3   1   6  390.69   12.83
   3   1  -6  394.99   12.94
  -3   1   6  388.22   11.35
  -2  -1   6  132.87    6.31
   2  -1  -6  136.31    6.04
   2  -1  -6  135.68    6.51
  -2  -1   6  140.94    6.65
   2  -1  -6  145.71    6.38
  -2  -1   6  130.22    6.10
  -2   1   6  140.08    6.76
  -2   1   6  141.96    6.24
   2   1  -6  128.86    6.21
   2   1  -6  136.60    6.49
   2   1  -6  139.77    6.68
  -1  -1   6  133.72    6.51
   1  -1  -6  139.99    6.32
   1  -1  -6  150.86    6.54
   1  -1  -6  135.26    7.31
  -1  -1   6  132.47    6.00
  -1  -1   6  132.09    6.35
  -1   1   6  140.32    6.26
   1   1  -6  130.69    6.07
   1   1  -6  148.18    6.60
   1   1  -6  139.69    6.55
  -1   1   6  137.59    6.01
   0  -1   6    3.84    1.57
   0  -1  -6    4.20    1.72
   0  -1  -6    2.67    1.26
   0  -1  -6    2.83    1.42
   0  -1   6    5.41    2.09
   0  -1  -6    4.09    1.50
   0   1  -6    5.30    1.85
   0   1   6    1.82    1.27
   0   1  -6    3.63    1.36
   0   1  -6    2.62    1.24
   0   1   6    4.36    1.53
   1  -1   6   27.40    3.39
  -1  -1  -6   30.71    3.02
  -1  -1  -6   26.63    2.86
   1  -1   6   33.63    3.55
  -1  -1  -6   27.84    2.96
  -1  -1  -6   29.71    3.47
  -1   1  -6   27.59    3.22
  -1   1  -6   35.57    4.08
   1   1   6   33.25    3.10
  -1   1  -6   28.10    3.29
  -1   1  -6   30.04    2.58
   1   1   6   28.76    3.47
  -2  -1  -6   34.47    3.93
   2  -1   6   38.17    4.05
  -2  -1  -6   39.08    3.59
   2  -1   6   32.31    3.82
  -2  -1  -6   33.42    2.98
   2   1   6   38.75    4.09
  -2   1  -6   33.98    2.45
  -2   1  -6   37.56    3.93
  -2   1  -6   35.44    2.57
   2   1   6   38.21    3.57
  -2   1  -6   39.49    3.97
   3  -1   6    0.78    1.41
  -3  -1  -6    5.68    1.48
  -3  -1  -6    5.03    1.36
  -3  -1  -6    5.40    2.17
   3  -1   6    9.96    3.26
   3   1   6    4.79    1.76
  -3   1  -6    5.79    0.82
  -3   1  -6    6.94    0.95
   3   1   6    6.62    2.06
  -3   1  -6    8.11    2.29
  -4  -1  -6   -2.21    2.34
   4  -1   6    3.61    2.22
   4  -1   6    0.79    1.72
  -4  -1  -6    0.39    0.81
   4   1   6    1.97    1.68
   4   1   6   -0.24    1.83
   4   1   6    1.20    3.12
   7  -2  -6   10.84    2.23
   7  -2  -6   10.66    2.05
   7  -2  -6   10.81    2.70
  -7  -2   6   12.19    3.68
  -7   2   6    6.13    2.68
   7   2  -6    8.74    2.51
   7   2  -6   12.60    2.74
   7   2  -6    6.29    2.64
   6  -2  -6    0.81    0.98
   6  -2  -6   -0.42    0.99
  -6  -2   6    7.86    2.60
   6  -2  -6    1.18    1.72
  -6   2   6    1.10    1.73
   6   2  -6    2.24    1.85
  -6   2   6   -0.81    1.79
   6   2  -6    0.34    1.87
   6   2  -6    1.74    1.60
   5  -2  -6   35.48    3.14
   5  -2  -6   32.26    2.88
  -5  -2   6   33.75    4.22
  -5  -2   6   27.39    3.62
  -5   2   6   36.02    4.01
   5   2  -6   34.46    3.68
   5   2  -6   31.18    3.47
   5   2  -6   37.82    4.14
  -5   2   6   28.29    3.66
   5   2  -6   32.99    4.13
   4  -2  -6   37.85    3.74
   4  -2  -6   35.94    3.03
   4  -2  -6   30.80    3.62
  -4  -2   6   34.05    3.12
  -4  -2   6   29.63    3.67
  -4  -2   6   30.99    3.51
   4   2  -6   33.93    3.37
   4   2  -6   31.35    3.88
  -4   2   6   32.88    3.60
  -4   2   6   40.17    2.71
   4   2  -6   31.12    3.70
   4   2  -6   34.33    3.41
   3  -2  -6   58.49    4.62
   3  -2  -6   55.10    3.63
  -3  -2   6   56.83    4.02
   3  -2  -6   57.42    4.08
  -3  -2   6   60.96    4.70
  -3  -2   6   48.95    4.05
   3   2  -6   58.19    4.58
   3   2  -6   50.15    4.26
   3   2  -6   55.54    4.15
  -3   2   6   55.09    4.06
  -3   2   6   58.61    3.32
   2  -2  -6  249.80    8.63
  -2  -2   6  236.36    9.00
  -2  -2   6  240.10    9.10
   2  -2  -6  234.36    9.20
  -2  -2   6  256.26    9.83
   2  -2  -6  240.25    9.95
   2   2  -6  238.20    9.48
  -2   2   6  258.15    8.68
  -2   2   6  270.02    8.66
   2   2  -6  243.24    9.16
   2   2  -6  246.13    9.31
   1  -2  -6   31.91    2.85
  -1  -2   6   32.47    2.99
   1  -2  -6   32.93    3.19
  -1  -2   6   36.21    3.65
  -1  -2   6   31.92    3.25
   1  -2  -6   32.09    3.27
   1  -2  -6   34.42    3.09
  -1   2   6   33.86    2.78
   1   2  -6   35.85    3.47
   1   2  -6   37.14    3.30
   1   2  -6   34.35    3.39
   0  -2  -6  297.27    9.22
   0  -2   6  294.44   10.74
   0  -2  -6  291.65   10.22
   0  -2  -6  296.58   10.04
   0  -2  -6  282.51    9.89
   0   2   6  278.42   10.07
   0   2  -6  289.42   10.58
   0   2   6  287.11    9.15
   0   2  -6  277.27    9.21
   0   2  -6  268.95   10.29
  -1  -2  -6   30.83    2.83
  -1  -2  -6   31.47    3.10
   1  -2   6   28.46    3.45
  -1  -2  -6   27.53    3.25
   1  -2   6   28.19    3.46
  -1  -2  -6   30.34    3.18
  -1   2  -6   30.51    2.50
   1   2   6   29.00    2.78
  -1   2  -6   33.26    3.75
  -1   2  -6   28.84    3.33
   1   2   6   28.35    3.31
  -1   2  -6   32.46    2.60
  -2  -2  -6  175.60    7.03
   2  -2   6  160.80    8.15
   2  -2   6  169.46    8.40
  -2  -2  -6  166.22    6.93
  -2  -2  -6  169.79    8.28
  -2  -2  -6  163.61    6.86
  -2   2  -6  166.98    8.04
  -2   2  -6  160.75    8.16
   2   2   6  178.99    7.17
   2   2   6  166.37    8.20
  -2   2  -6  178.19    5.45
  -2   2  -6  173.56    5.36
  -3  -2  -6    4.01    2.09
  -3  -2  -6    6.80    1.71
  -3  -2  -6    8.03    1.76
   3  -2   6    4.56    1.99
   3  -2   6   10.66    2.83
   3   2   6    4.28    2.11
  -3   2  -6    5.24    2.30
  -3   2  -6    8.65    2.62
   3   2   6    9.51    2.18
  -4  -2  -6   -1.48    1.92
   4  -2   6   -1.61    1.76
   4  -2   6    0.02    1.94
  -4  -2  -6   -0.01    1.00
   4   2   6   -1.07    1.53
   4   2   6   -0.82    1.75
   4   2   6   -1.78    1.26
   7  -3  -6   48.20    3.52
   7  -3  -6   44.31    3.72
  -7  -3   6   40.90    4.87
   7  -3  -6   44.15    4.72
   7   3  -6   47.16    4.72
   7   3  -6   46.54    4.66
   7   3  -6   32.62    4.76
  -6  -3   6   38.94    4.73
   6  -3  -6   48.85    3.29
   6  -3  -6   40.96    4.48
   6  -3  -6   44.04    3.45
   6   3  -6   43.03    5.02
  -6   3   6   40.56    4.74
   6   3  -6   48.06    4.46
   6   3  -6   48.52    4.49
   5  -3  -6   10.63    2.86
  -5  -3   6   16.31    3.56
   5  -3  -6   11.17    1.92
  -5  -3   6   11.02    2.66
   5   3  -6   13.21    2.90
   5   3  -6   14.48    2.83
   5   3  -6   12.28    3.03
   5   3  -6   14.91    2.82
  -5   3   6    8.41    2.50
  -4  -3   6   12.61    2.66
   4  -3  -6   11.71    2.48
   4  -3  -6   12.18    1.96
  -4  -3   6   10.49    2.76
  -4  -3   6   10.11    2.18
   4  -3  -6    9.08    2.41
   4   3  -6   14.31    2.70
   4   3  -6   11.73    2.53
   4   3  -6   16.75    3.29
   4   3  -6   11.72    2.68
  -4   3   6   14.68    2.64
   3  -3  -6   11.87    2.38
   3  -3  -6   14.81    2.88
   3  -3  -6    8.44    1.70
  -3  -3   6    9.40    1.94
  -3  -3   6   12.74    2.77
  -3  -3   6   10.44    2.25
   3   3  -6   14.50    2.69
   3   3  -6   15.36    2.85
  -3   3   6   14.25    1.88
   3   3  -6   12.02    2.59
  -3   3   6   12.58    2.35
   2  -3  -6   55.10    4.28
   2  -3  -6   56.43    3.64
  -2  -3   6   66.15    4.95
  -2  -3   6   54.59    4.17
  -2  -3   6   43.59    3.79
   2  -3  -6   60.49    4.53
   2  -3  -6   57.52    3.72
   2   3  -6   51.30    4.07
  -2   3   6   61.27    3.57
  -2   3   6   55.24    3.57
   2   3  -6   57.22    4.26
   2   3  -6   59.89    4.59
  -1  -3   6   57.76    3.95
   1  -3  -6   63.92    4.47
   1  -3  -6   55.70    3.82
  -1  -3   6   69.01    4.98
   1  -3  -6   64.50    4.45
   1  -3  -6   64.78    3.56
  -1  -3   6   62.17    4.50
   1   3  -6   69.30    4.85
   1   3  -6   61.86    4.50
  -1   3   6   56.18    4.04
   1   3  -6   58.25    4.03
  -1   3   6   64.77    3.56
   0  -3   6    6.69    1.93
   0  -3  -6    3.71    1.57
   0  -3   6    5.83    2.01
   0  -3  -6    5.07    1.64
   0  -3  -6    6.25    1.50
   0  -3   6    5.86    1.36
   0  -3  -6    4.84    1.84
   0   3   6    5.53    1.44
   0   3  -6    9.27    2.43
   0   3  -6    1.64    1.32
   0   3  -6    4.20    1.40
   0   3   6    5.13    1.52
   1  -3   6   35.28    3.80
  -1  -3  -6   33.74    3.32
  -1  -3  -6   33.86    3.70
   1  -3   6   34.80    3.96
  -1  -3  -6   36.41    2.78
  -1  -3  -6   32.73    3.44
  -1   3  -6   37.73    3.81
   1   3   6   36.52    2.73
  -1   3  -6   40.99    2.76
  -1   3  -6   38.00    4.01
   1   3   6   37.58    3.76
   2  -3   6  116.35   11.06
   2  -3   6   94.71    6.29
  -2  -3  -6  104.26    5.60
   2   3   6  103.44    6.49
   2   3   6  106.67    5.05
  -2   3  -6  108.99    6.41
  -2   3  -6  114.59    3.67
  -2   3  -6  101.02    6.58
   3  -3   6   13.47    3.02
  -3  -3  -6    6.55    2.51
  -3  -3  -6    9.34    2.12
   3  -3   6    4.28    1.98
   3   3   6   14.58    2.52
   3   3   6    7.29    2.28
  -3   3  -6    8.34    3.37
   3   3   6    9.90    2.07
  -4  -3  -6   27.55    3.25
   4  -3   6   15.98    3.21
  -4  -3  -6   21.95    3.76
   4  -3   6   33.52    4.34
  -4  -3  -6   22.35    3.07
   4   3   6   32.10    3.44
   4   3   6   23.18    4.29
   4   3   6   24.05    3.25
  -7  -4   6   -2.11    2.55
   7   4  -6   -2.46    1.51
   7   4  -6   -0.12    1.64
   6  -4  -6   78.03    5.99
  -6  -4   6   75.86    6.15
   6   4  -6   80.25    5.92
  -6   4   6   85.79    6.36
   6   4  -6   71.92    5.61
   6   4  -6   79.85    6.43
   5  -4  -6   14.07    2.00
  -5  -4   6   21.83    3.95
   5  -4  -6   19.83    3.59
   5  -4  -6   17.14    3.61
  -5  -4   6   15.78    4.38
   5   4  -6   17.26    3.52
   5   4  -6   13.52    2.89
   5   4  -6   15.76    3.34
  -5   4   6   14.52    3.02
   5   4  -6   20.96    3.45
  -4  -4   6   83.99    6.68
  -4  -4   6   96.29    6.21
   4  -4  -6   83.34    5.30
   4  -4  -6   87.54    5.97
  -4  -4   6   84.87    5.49
   4   4  -6   83.19    6.79
   4   4  -6   84.85    5.48
  -4   4   6   77.44    5.08
   4   4  -6   89.51    6.19
   4   4  -6   83.90    5.67
  -3  -4   6    2.94    1.61
   3  -4  -6    1.21    1.32
  -3  -4   6    1.55    1.79
   3  -4  -6   -0.38    1.32
   3  -4  -6    3.65    1.32
  -3  -4   6    3.33    1.64
   3  -4  -6    4.08    1.55
   3   4  -6    6.33    2.11
   3   4  -6    1.87    1.34
   3   4  -6    3.06    1.51
  -3   4   6    2.11    1.32
   3   4  -6    2.19    1.69
  -2  -4   6  201.74    8.61
   2  -4  -6  214.22    7.52
   2  -4  -6  220.34    7.66
  -2  -4   6  194.88    8.45
   2  -4  -6  201.16    8.80
  -2  -4   6  210.79    9.37
   2  -4  -6  219.27    9.01
  -2   4   6  224.31    7.47
   2   4  -6  207.78    9.12
  -2   4   6  220.95    7.36
   2   4  -6  211.74    8.65
   2   4  -6  221.52    9.02
   1  -4  -6  125.47    4.87
   1  -4  -6  129.46    6.58
  -1  -4   6  117.85    5.79
   1  -4  -6  121.93    6.39
   1  -4  -6  110.43    5.52
  -1  -4   6  117.23    6.77
  -1  -4   6  122.63    6.46
  -1   4   6  124.31    5.62
  -1   4   6  122.88    4.69
   1   4  -6  126.37    6.01
   1   4  -6  111.40    6.23
   1   4  -6  113.42    6.51
   0  -4  -6   33.35    2.21
   0  -4  -6   28.98    3.55
   0  -4   6   27.78    3.08
   0  -4   6   33.90    4.00
   0  -4  -6   34.73    3.64
   0  -4   6   34.80    3.60
   0  -4  -6   38.15    3.51
   0   4  -6   34.87    3.83
   0   4  -6   35.29    3.09
   0   4   6   32.84    2.17
   0   4  -6   31.77    3.50
   1  -4   6  151.76    8.08
  -1  -4  -6  148.94    7.09
  -1  -4  -6  140.65    7.13
   1  -4   6  146.43    7.51
   1   4   6  143.17    5.06
  -1   4  -6  162.37   10.39
  -1   4  -6  157.87    7.64
   1   4   6  139.78    7.10
  -1   4  -6  150.57    5.58
  -2  -4  -6   62.15    5.04
  -2  -4  -6   69.55    4.73
   2  -4   6   73.98    5.95
   2  -4   6   68.42    5.35
   2   4   6   60.64    5.10
   2   4   6   63.14    3.33
  -2   4  -6   64.85    5.49
   2   4   6   64.15    3.44
  -2   4  -6   71.33    5.34
  -2   4  -6   71.29    2.24
   3  -4   6    1.36    1.67
  -3  -4  -6    3.66    1.82
  -3  -4  -6    5.77    2.21
   3  -4   6    1.71    2.18
   3   4   6    5.52    2.53
   3   4   6    3.99    1.30
   4  -4   6   68.16    6.19
  -4  -4  -6   56.74    4.88
   4  -4   6   63.62    5.76
   4   4   6   57.15    5.79
   4   4   6   66.32    4.27
   4   4   6   66.43    4.42
  -7  -5   6    1.20    2.08
   7  -5  -6    3.87    2.11
   7   5  -6   -4.41    1.81
   7   5  -6    2.27    1.95
   7   5  -6   -3.42    1.35
  -6  -5   6   43.15    4.95
   6  -5  -6   39.26    4.48
   6   5  -6   40.41    4.51
   6   5  -6   40.14    4.94
   6   5  -6   46.40    4.83
   5  -5  -6  191.95    9.41
   5  -5  -6  172.61    8.72
   5  -5  -6  186.81    8.86
  -5  -5   6  190.69    9.77
   5   5  -6  178.79    8.85
   5   5  -6  192.29    9.70
   5   5  -6  186.44    9.18
  -4  -5   6   85.68    6.24
   4  -5  -6   87.87    5.96
   4  -5  -6   77.39    5.13
   4  -5  -6   88.40    4.02
  -4  -5   6   78.53    5.55
  -4  -5   6   85.71    6.02
   4  -5  -6   78.40    5.48
   4   5  -6   82.09    6.10
   4   5  -6   85.54    6.00
   4   5  -6   84.69    5.60
   4   5  -6   84.52    5.89
  -4   5   6   88.34    5.39
  -3  -5   6  104.18    6.21
  -3  -5   6   92.99    8.93
   3  -5  -6  107.62    9.13
   3  -5  -6  106.96    6.44
   3  -5  -6  107.43    5.39
  -3  -5   6  108.14    6.81
   3  -5  -6   99.36    4.51
   3   5  -6  118.44    9.60
   3   5  -6   90.40    7.77
  -3   5   6  104.73    5.21
   3   5  -6  100.24    6.35
   3   5  -6  112.78    6.32
   2  -5  -6   12.44    2.64
   2  -5  -6   14.84    2.93
  -2  -5   6   16.55    2.86
  -2  -5   6   13.42    2.50
   2  -5  -6   15.32    2.37
   2  -5  -6   15.88    1.90
  -2  -5   6   13.13    3.03
   2   5  -6   13.51    2.63
  -2   5   6   18.53    3.51
   2   5  -6   13.78    2.64
  -2   5   6   18.47    2.09
   2   5  -6   17.60    3.32
   1  -5  -6   67.01    4.19
   1  -5  -6   67.18    3.07
   1  -5  -6   68.69    4.88
   1  -5  -6   61.62    4.93
  -1  -5   6   64.45    5.24
  -1  -5   6   70.00    4.62
  -1  -5   6   52.47    4.41
  -1   5   6   66.67    3.02
  -1   5   6   60.59    3.91
   1   5  -6   63.44    4.81
   1   5  -6   62.68    4.43
   1   5  -6   60.19    4.80
   0  -5   6   18.38    2.36
   0  -5  -6   14.57    1.19
   0  -5  -6   19.40    3.53
   0  -5   6   18.13    3.22
   0  -5   6   20.67    3.84
   0   5   6   14.01    1.14
   0   5  -6   14.98    2.78
   0   5   6   16.24    2.66
   0   5  -6   25.85    5.82
   0   5  -6   13.10    2.18
   1  -5   6    1.98    0.96
   1  -5   6    6.32    2.39
   1  -5   6    2.00    1.42
  -1  -5  -6    2.79    1.72
  -1  -5  -6    0.81    1.29
  -1   5  -6    1.05    1.08
  -1   5  -6    2.78    1.68
  -1   5  -6    1.38    1.81
   1   5   6    0.57    1.40
   2  -5   6    4.19    2.30
  -2  -5  -6    1.51    1.62
  -2  -5  -6    3.09    1.73
   2  -5   6    1.08    2.22
  -2   5  -6    1.44    0.57
  -2   5  -6    5.37    1.98
   2   5   6    3.07    0.71
   2   5   6    3.09    0.79
   2   5   6    3.88    1.78
   3  -5   6    0.31    1.91
  -3  -5  -6    0.53    1.66
  -3  -5  -6    0.23    1.38
   3  -5   6    0.20    1.34
   3   5   6   -0.98    1.40
   3   5   6    1.21    0.85
   3   5   6    1.18    0.93
   4  -5   6   -0.68    1.63
  -4  -5  -6   -0.48    2.51
   4  -5   6    1.30    2.30
   4   5   6    1.09    2.52
   4   5   6    1.97    1.18
   4   5   6   -2.60    2.00
   6  -6  -6   12.84    2.82
  -6  -6   6   19.55    4.06
   6   6  -6   12.15    2.88
   6   6  -6    9.90    2.99
   6   6  -6   12.40    2.88
   5  -6  -6  105.30    6.50
   5  -6  -6  111.10    7.10
  -5  -6   6  107.44    7.37
   5   6  -6  122.81    7.92
   5   6  -6  105.78    7.04
   5   6  -6  122.91    7.29
  -4  -6   6   71.34    5.82
  -4  -6   6   68.85    5.88
   4  -6  -6   60.73    4.45
  -4  -6   6   62.96    5.26
   4  -6  -6   66.07    5.25
   4  -6  -6   70.50    5.46
   4   6  -6   63.83    5.18
   4   6  -6   67.41    5.54
   4   6  -6   55.58    5.36
   4   6  -6   59.03    5.23
   3  -6  -6   33.45    4.05
  -3  -6   6   31.80    3.81
  -3  -6   6   31.12    4.23
   3  -6  -6   35.36    4.06
  -3  -6   6   33.71    4.17
   3  -6  -6   31.89    2.62
   3  -6  -6   28.16    2.88
   3   6  -6   29.22    4.81
   3   6  -6   29.23    3.74
   3   6  -6   36.04    4.02
   3   6  -6   33.47    3.91
  -2  -6   6  150.66    7.60
   2  -6  -6  155.07    7.84
   2  -6  -6  156.87    6.32
  -2  -6   6  177.45    8.06
   2  -6  -6  161.29    5.85
   2   6  -6  158.45    8.05
   2   6  -6  154.97    8.13
   2   6  -6  155.58    7.74
   2   6  -6  167.39    8.28
   1  -6  -6  236.58   10.72
   1  -6  -6  251.06    9.08
   1  -6  -6  270.17    6.70
  -1  -6   6  258.59   10.41
  -1  -6   6  253.50    9.58
   1   6  -6  257.23   10.40
   1   6  -6  251.31   10.80
   1   6  -6  253.35    9.67
  -1   6   6  247.41    8.67
   0  -6   6    0.87    1.29
   0  -6   6    3.06    1.31
   0  -6  -6    1.99    1.61
   0  -6   6    4.03    2.20
   0  -6  -6    1.48    1.32
   0   6  -6    0.17    0.97
   0   6   6    2.12    1.26
   0   6  -6    2.03    1.64
   0   6  -6    1.15    1.23
   1  -6   6   96.58    4.35
  -1  -6  -6   88.83    5.70
   1  -6   6   91.96    6.11
  -1  -6  -6   88.31    5.93
   1  -6   6  102.70    7.12
  -1   6  -6   91.00    5.98
  -1   6  -6   99.47    4.87
  -2  -6  -6   55.97    4.65
   2  -6   6   63.78    5.81
   2  -6   6   58.74    5.08
  -2  -6  -6   52.19    4.75
   2   6   6   54.56    4.92
   3  -6   6    5.20    2.23
   3  -6   6    5.14    2.01
  -3  -6  -6    3.88    2.14
   3   6   6    5.21    2.32
   6  -7  -6    2.93    2.10
   6  -7  -6    8.25    2.34
  -6  -7   6    7.62    2.52
   6   7  -6    5.04    2.38
   6   7  -6    5.31    2.82
   6   7  -6    5.67    2.96
  -5  -7   6    1.70    1.86
   5  -7  -6    1.42    1.51
   5  -7  -6    3.66    1.95
   5   7  -6    3.67    2.06
   5   7  -6    1.61    2.00
   5   7  -6    2.54    1.78
  -4  -7   6   77.39    6.23
   4  -7  -6   80.93    6.13
   4  -7  -6   74.25    4.84
  -4  -7   6   78.24    6.00
   4   7  -6   74.95    6.02
   4   7  -6   80.23    6.00
   4   7  -6   86.18    6.06
  -3  -7   6   20.84    3.31
  -3  -7   6   22.77    3.62
   3  -7  -6   25.95    2.67
  -3  -7   6   18.23    3.55
   3  -7  -6   26.99    5.99
   3  -7  -6   17.35    3.18
   3   7  -6   31.89    4.41
   3   7  -6   28.91    3.63
   3   7  -6   19.93    3.44
   3   7  -6   30.07    4.28
   2  -7  -6   21.05    3.49
   2  -7  -6   21.90    2.58
  -2  -7   6   22.01    3.53
   2  -7  -6   25.92    2.09
   2  -7  -6   28.67    2.17
  -2  -7   6   25.53    3.44
   2  -7  -6   27.26    4.14
  -2  -7   6   23.56    3.96
   2   7  -6   30.01    3.84
   2   7  -6   31.27    4.65
   2   7  -6   15.88    2.80
   2   7  -6   31.33    3.82
  -1  -7   6    8.87    2.53
   1  -7  -6    8.11    2.02
   1  -7  -6    9.64    2.62
  -1  -7   6   11.37    2.41
  -1  -7   6   13.63    3.24
   1   7  -6   12.35    2.61
  -1   7   6    7.18    1.59
   1   7  -6    7.49    2.58
   1   7  -6    5.50    1.84
   1   7  -6    5.74    1.90
   0  -7   6    7.33    1.80
   0  -7   6    6.58    2.56
   0  -7  -6    5.33    2.11
   0  -7   6    8.87    2.48
   0  -7  -6    6.89    1.93
   0   7  -6    4.66    1.76
   0   7   6    5.62    1.80
   0   7  -6    6.17    2.12
   1  -7   6   -1.30    0.81
   1  -7   6    2.42    1.96
  -1  -7  -6   -0.24    1.26
   1  -7   6    2.41    1.73
  -1   7  -6   -0.16    0.97
   2  -7   6    6.43    2.10
   2  -7   6   12.62    3.00
  -2  -7  -6   11.07    2.80
   2   7   6    7.96    2.46
   3  -7   6   41.76    5.36
   3  -7   6   46.60    4.79
  -5  -8   6    5.60    2.17
   5  -8  -6    8.94    2.51
   5  -8  -6   14.09    2.85
   5  -8  -6    6.28    2.30
   5   8  -6   14.23    3.25
   5   8  -6   10.38    2.80
   5   8  -6    5.68    2.81
  -4  -8   6   33.42    4.48
   4  -8  -6   29.03    3.10
   4  -8  -6   25.02    3.17
   4  -8  -6   30.16    4.12
  -4  -8   6   32.11    4.68
   4   8  -6   22.59    3.86
   4   8  -6   32.78    4.27
   4   8  -6   20.47    3.37
   3  -8  -6    8.40    2.83
   3  -8  -6   10.50    1.92
  -3  -8   6   10.84    2.60
  -3  -8   6    9.46    2.72
   3  -8  -6   10.03    2.00
   3   8  -6    6.35    2.39
   3   8  -6   12.00    3.07
   3   8  -6   12.98    2.97
  -2  -8   6    1.05    1.69
   2  -8  -6    1.69    1.33
  -2  -8   6   -0.79    1.55
   2  -8  -6    2.02    1.93
  -2  -8   6    2.14    1.47
   2  -8  -6   -0.41    0.64
   2   8  -6    1.30    2.69
   2   8  -6    0.26    1.53
   2   8  -6    0.99    1.53
  -1  -8   6   -2.96    1.30
  -1  -8   6    0.12    1.27
  -1  -8   6   -1.43    1.21
   1  -8  -6    0.55    1.10
   1   8  -6    0.21    1.54
   1   8  -6    0.10    1.24
  -1   8   6   -0.03    1.78
   1   8  -6   -0.15    1.26
   0  -8  -6   50.34    4.22
   0  -8   6   49.18    3.93
   0  -8   6   59.19    5.62
   0  -8   6   59.89    5.04
   0   8  -6   53.92    4.44
   0   8   6   52.15    4.06
   0   8  -6   54.16    4.15
  -1  -8  -6   29.66    4.05
   1  -8   6   27.84    2.83
   1  -8   6   42.78    4.99
   1  -8   6   29.82    3.91
   1   8   6   23.85    3.55
  -1   8  -6   36.54    2.96
  -2  -8  -6    9.68    2.50
   2  -8   6    9.32    2.84
   2  -8   6   12.25    2.99
   2   8   6    9.41    2.77
  -2   8  -6   14.51    1.11
   2   8   6    9.19    2.71
   5  -9  -6   -3.68    2.23
   5  -9  -6   -2.93    1.45
  -5  -9   6   -0.89    1.43
   5  -9  -6   -2.75    1.44
   5   9  -6   -3.96    1.44
   5   9  -6   -1.86    2.34
   5   9  -6   -3.42    1.58
  -4  -9   6   18.54    3.72
   4  -9  -6   12.83    2.65
   4  -9  -6   19.19    2.66
   4  -9  -6   14.00    3.37
   4   9  -6   12.44    3.03
   4   9  -6   10.56    2.58
   4   9  -6   11.94    2.82
   3  -9  -6    7.08    1.98
   3  -9  -6    5.27    1.52
  -3  -9   6    7.78    2.58
  -3  -9   6    9.01    2.48
   3  -9  -6   10.65    3.09
   3   9  -6    6.19    2.57
   3   9  -6    6.01    2.40
   3   9  -6    2.54    2.04
  -2  -9   6    1.17    1.74
   2  -9  -6    1.49    1.16
   2  -9  -6    1.66    0.60
  -2  -9   6    1.77    1.94
   2   9  -6    2.70    1.48
   2   9  -6   -0.70    1.61
  -1  -9   6  129.31    8.30
  -1  -9   6  120.23    6.90
  -1  -9   6  119.46    7.33
   1  -9  -6  112.34    5.98
   1   9  -6  126.53    7.08
  -1   9   6  120.86    5.42
   1   9  -6  123.79    9.20
   0  -9  -6    6.59    2.02
   0  -9   6   10.90    3.10
   0  -9   6    8.01    1.92
   0  -9   6    9.41    2.55
   0   9  -6    8.46    2.24
   0   9   6    8.95    2.23
   0   9  -6    6.51    1.87
   1  -9   6    3.88    2.18
   1  -9   6    1.67    1.50
  -1  -9  -6    0.38    1.77
   1  -9   6    2.59    1.37
  -1   9  -6   -1.34    1.82
   1   9   6    0.16    1.91
  -1   9  -6    2.84    1.34
  -2  -9  -6    4.38    2.52
   2  -9   6    9.90    3.36
   2  -9   6   11.67    1.48
  -2   9  -6   15.70    1.44
   2   9   6   22.10    4.77
   4 -10  -6    0.71    1.44
  -4 -10   6    4.69    2.46
   4 -10  -6    3.70    1.62
   4  10  -6    3.58    2.03
   4  10  -6    3.84    2.43
  -3 -10   6   -2.89    1.81
   3 -10  -6   -0.52    1.71
   3 -10  -6    2.67    1.24
  -3 -10   6    4.14    2.58
   3 -10  -6    2.33    1.37
   3  10  -6   -1.88    1.58
   3  10  -6    2.48    1.82
  -2 -10   6   10.87    2.79
   2 -10  -6   13.59    2.24
  -2 -10   6   23.07    4.19
   2  10  -6   15.53    3.38
   2  10  -6   12.91    3.09
  -1 -10   6   32.86    4.84
  -1 -10   6   44.14    5.04
   1 -10  -6   46.34    5.83
   1  10  -6   38.37    4.28
   1  10  -6   34.55    3.94
   0 -10  -6    9.02    2.46
   0 -10   6   11.03    2.85
   0 -10   6   19.47    4.13
   0 -10   6   10.93    2.56
   0  10   6    8.66    2.75
   0  10  -6   15.97    3.53
   1 -10   6    4.09    2.11
   1 -10   6    4.19    2.22
  -1 -10  -6    4.14    2.11
   1 -10   6    4.66    1.46
  -1  10  -6    4.93    1.50
   1  10   6    1.29    1.99
  -1  10  -6    0.01    1.60
   2 -11  -6   44.64    3.66
  -2 -11   6   41.20    4.76
   2  11  -6   51.54    5.29
   2  11  -6   39.92    4.83
  -1 -11   6    7.44    2.67
  -1 -11   6    9.06    2.72
   1 -11  -6    5.90    1.74
   1  11  -6    2.49    1.99
   1  11  -6    0.73    1.56
   7   0  -7    0.78    1.49
   7   0  -7   -1.75    1.70
  -7   0   7   -0.52    1.97
   7   0  -7   -1.97    1.11
   6   0  -7    0.92    1.27
   6   0  -7   -0.53    1.62
   6   0  -7    0.14    1.14
  -6   0   7   -2.41    1.45
   5   0  -7   -0.63    0.90
   5   0  -7   -0.70    1.31
   5   0  -7    0.43    1.29
  -5   0   7   -0.61    1.50
   5   0  -7   -1.21    1.51
  -5   0   7   -1.68    1.37
  -4   0   7   -0.48    0.92
  -4   0   7    0.39    1.32
   4   0  -7    0.07    2.60
  -4   0   7    1.96    1.68
   4   0  -7   -0.30    0.97
   4   0  -7    0.15    1.49
  -3   0   7    0.04    1.46
  -3   0   7    1.58    1.51
   3   0  -7    0.39    1.21
   3   0  -7    0.57    1.58
   3   0  -7    0.76    1.12
  -2   0   7   -0.65    0.85
  -2   0   7   -0.15    1.30
   2   0  -7    0.28    1.23
   2   0  -7    1.68    1.22
   2   0  -7    0.44    1.39
   1   0  -7    0.07    1.25
   1   0  -7   -0.30    1.15
   1   0  -7    0.23    1.07
  -1   0   7    0.17    0.89
  -1   0   7   -0.09    1.18
   0   0  -7    1.76    1.36
   0   0   7    1.19    1.39
   0   0  -7    1.20    1.41
   0   0   7    0.57    1.24
   0   0  -7    0.21    1.21
   0   0  -7   -0.06    1.12
  -1   0  -7    0.23    1.50
   1   0   7    0.20    1.36
   1   0   7    0.44    1.40
  -1   0  -7   -0.91    1.02
  -1   0  -7    0.38    1.09
  -1   0  -7   -1.55    1.44
  -2   0  -7    1.07    1.53
   2   0   7    1.01    1.58
  -2   0  -7    0.20    0.98
  -2   0  -7    0.06    1.71
   2   0   7   -1.69    1.34
  -3   0  -7   -0.93    0.91
   3   0   7    1.30    1.57
   3   0   7   -0.05    1.71
  -3   0  -7   -0.70    0.81
  -3   0  -7   -2.39    1.76
   7  -1  -7   -3.84    1.44
  -7  -1   7    2.77    3.31
   7  -1  -7   -1.51    1.95
   7  -1  -7   -2.89    1.01
   7   1  -7   -3.44    1.73
  -7   1   7   -1.75    1.40
   7   1  -7   -1.46    1.47
   7   1  -7   -1.91    1.16
   6  -1  -7   34.95    4.56
   6  -1  -7   36.02    3.37
   6  -1  -7   35.11    3.69
  -6  -1   7   31.05    4.22
   6   1  -7   35.50    3.78
   6   1  -7   35.99    3.94
   6   1  -7   33.75    4.49
  -6   1   7   38.81    4.65
   5  -1  -7   27.82    3.10
  -5  -1   7   23.42    4.87
   5  -1  -7   21.24    3.67
   5  -1  -7   21.96    3.68
   5  -1  -7   25.23    3.09
  -5  -1   7   19.77    3.59
   5   1  -7   25.74    3.21
  -5   1   7   18.03    3.37
   5   1  -7   26.05    3.67
  -5   1   7   24.63    4.03
   5   1  -7   22.46    3.84
   5   1  -7   27.86    4.33
  -4  -1   7    3.05    1.79
   4  -1  -7    4.09    1.55
   4  -1  -7    2.74    1.60
  -4  -1   7    2.17    1.79
  -4  -1   7    2.95    1.51
  -4   1   7    3.54    1.36
  -4   1   7    1.10    1.82
   4   1  -7    2.50    1.67
  -4   1   7    2.97    1.88
  -3  -1   7   16.05    2.65
   3  -1  -7   20.31    3.13
  -3  -1   7   18.49    3.06
  -3  -1   7   17.96    3.07
   3  -1  -7   25.30    2.95
   3  -1  -7   18.81    3.32
  -3   1   7   23.26    2.62
   3   1  -7   20.34    3.17
   3   1  -7   22.67    3.14
  -3   1   7   17.21    2.84
   3   1  -7   22.19    3.49
  -2  -1   7    0.38    1.29
  -2  -1   7   -0.26    1.26
   2  -1  -7    0.10    1.63
  -2  -1   7    0.56    1.14
   2  -1  -7    1.34    1.30
   2  -1  -7    0.90    1.42
   2   1  -7    0.67    1.30
   2   1  -7    2.31    1.23
   2   1  -7    2.31    1.60
  -2   1   7    0.35    1.28
  -1  -1   7  169.69    7.89
   1  -1  -7  180.58    7.53
   1  -1  -7  171.04    7.81
  -1  -1   7  176.43    8.06
   1  -1  -7  183.43    7.82
   1  -1  -7  177.24    7.89
   1   1  -7  172.99    7.92
  -1   1   7  182.84    7.85
   1   1  -7  175.05    8.02
   1   1  -7  172.26    7.53
  -1   1   7  179.55    7.50
   0  -1  -7   85.53    5.22
   0  -1  -7  105.80    5.55
   0  -1   7  104.26    6.05
   0  -1  -7   94.01    5.79
   0  -1  -7  101.47    5.47
   0  -1   7   90.34    5.87
   0   1   7  105.40    6.06
   0   1  -7   96.65    5.26
   0   1  -7   98.06    6.11
   0   1  -7  101.69    6.01
   0   1   7   98.23    5.44
  -1  -1  -7   25.03    2.94
  -1  -1  -7   20.45    5.19
  -1  -1  -7   20.94    2.92
   1  -1   7   24.46    3.41
   1  -1   7   23.94    3.81
  -1  -1  -7   23.00    2.94
  -1   1  -7   23.24    2.67
   1   1   7   23.62    4.64
  -1   1  -7   26.10    2.76
  -1   1  -7   22.44    3.55
  -1   1  -7   14.37    2.82
   1   1   7   25.90    3.12
  -2  -1  -7   65.09    4.78
  -2  -1  -7   72.52    5.70
   2  -1   7   67.72    5.55
  -2  -1  -7   77.33    4.46
  -2  -1  -7   67.11    4.29
   2  -1   7   83.11    6.49
  -2   1  -7   81.30    5.85
  -2   1  -7   75.60    3.80
  -2   1  -7   69.75    5.60
   2   1   7   68.62    5.70
   2   1   7   74.40    5.07
  -3  -1  -7   27.53    2.83
  -3  -1  -7   27.99    2.74
   3  -1   7   29.20    5.66
  -3  -1  -7   23.65    4.31
   3  -1   7   33.03    4.08
  -3   1  -7   25.62    1.54
   3   1   7   28.76    3.69
   3   1   7   21.95    3.78
  -3   1  -7   28.44    1.71
  -7  -2   7   -0.77    2.50
   7  -2  -7    0.22    1.88
   7  -2  -7    0.70    1.35
   7   2  -7   -1.76    1.14
   7   2  -7   -0.02    1.78
  -7   2   7    3.47    2.20
   7   2  -7   -2.45    1.84
   6  -2  -7   39.70    3.43
   6  -2  -7   38.32    3.68
  -6  -2   7   34.58    4.31
   6  -2  -7   37.27    4.85
   6   2  -7   33.52    3.93
   6   2  -7   35.69    4.48
   6   2  -7   36.01    4.20
  -6   2   7   35.14    4.68
  -5  -2   7  273.77   11.80
   5  -2  -7  242.79    9.08
   5  -2  -7  266.37   11.41
   5  -2  -7  273.25    9.66
   5  -2  -7  251.45   11.09
   5   2  -7  255.08   10.18
  -5   2   7  269.31   11.06
   5   2  -7  265.22   11.42
   5   2  -7  250.57   10.57
  -4  -2   7  167.37   12.99
   4  -2  -7  185.95    7.55
  -4  -2   7  173.84    7.78
   4  -2  -7  178.62    8.92
   4  -2  -7  177.15    8.41
  -4  -2   7  167.67    8.49
   4   2  -7  185.42    9.01
   4   2  -7  182.51    9.73
   4   2  -7  176.32    8.24
  -4   2   7  176.71    8.25
   4   2  -7  168.48    7.89
  -4   2   7  185.98    6.76
   3  -2  -7   20.87    3.49
  -3  -2   7   24.69    3.91
  -3  -2   7   26.54    3.11
   3  -2  -7   22.47    3.10
   3  -2  -7   25.42    2.87
  -3  -2   7   19.32    3.09
   3   2  -7   23.73    3.67
  -3   2   7   22.93    3.00
   3   2  -7   27.30    3.27
   3   2  -7   26.80    3.33
  -3   2   7   23.80    2.62
  -2  -2   7   17.87    3.32
   2  -2  -7   20.43    2.70
  -2  -2   7   25.65    3.63
   2  -2  -7   19.99    3.21
  -2  -2   7   19.23    3.04
   2  -2  -7   15.35    2.58
   2   2  -7   23.43    3.17
   2   2  -7   21.41    3.37
  -2   2   7   15.68    2.69
  -2   2   7   22.02    2.85
   2   2  -7   16.27    3.00
  -1  -2   7  624.16   17.80
  -1  -2   7  610.26   18.62
  -1  -2   7  649.23   19.24
   1  -2  -7  639.66   18.55
   1  -2  -7  643.05   18.25
   1  -2  -7  643.12   18.47
   1  -2  -7  671.47   17.65
   1   2  -7  636.39   18.01
  -1   2   7  654.89   17.45
   1   2  -7  646.36   18.93
  -1   2   7  567.42   17.74
   1   2  -7  649.19   19.08
   0  -2   7  252.60   10.56
   0  -2  -7  260.34   10.19
   0  -2  -7  262.00    9.14
   0  -2  -7  257.57    9.80
   0  -2  -7  256.86    9.84
   0  -2   7  281.86   10.86
   0   2  -7  260.90   10.55
   0   2   7  274.45   10.42
   0   2  -7  251.75   10.47
   0   2   7  261.77    9.15
   0   2  -7  267.79    9.30
   1  -2   7    9.98    2.80
  -1  -2  -7    8.56    2.65
  -1  -2  -7    6.38    1.94
  -1  -2  -7    4.24    1.66
   1  -2   7    4.24    1.82
  -1  -2  -7    8.93    1.99
  -1   2  -7    4.46    1.87
  -1   2  -7    6.38    1.55
   1   2   7    5.97    1.82
  -1   2  -7    7.41    1.76
   1   2   7    8.10    2.51
  -1   2  -7    7.91    2.64
  -2  -2  -7   90.81    6.42
  -2  -2  -7   88.61    5.18
  -2  -2  -7   90.98    5.23
  -2  -2  -7   90.35    5.23
   2  -2   7   92.70    6.55
   2  -2   7   99.33    6.74
  -2   2  -7   92.13    6.32
  -2   2  -7   95.40    3.92
   2   2   7   95.32    6.53
   2   2   7   94.34    5.36
  -2   2  -7   85.58    3.85
   3  -2   7   22.25    3.98
  -3  -2  -7   17.85    4.75
   3  -2   7   17.01    3.18
  -3  -2  -7   19.08    2.73
  -3  -2  -7   21.67    2.92
   3   2   7   31.68    3.46
   3   2   7   15.82    3.30
   7  -3  -7   30.20    3.17
   7  -3  -7   34.83    3.49
  -7  -3   7   35.46    5.58
   7  -3  -7   32.00    4.37
   7   3  -7   30.32    4.66
   7   3  -7   21.77    6.77
   7   3  -7   35.01    4.22
  -7   3   7   30.89    6.46
   6  -3  -7   -0.09    1.02
   6  -3  -7    0.17    1.14
  -6  -3   7   -0.39    1.64
   6  -3  -7    1.15    1.71
   6   3  -7    0.29    1.68
   6   3  -7   -0.78    1.25
   6   3  -7   -1.68    1.83
  -6   3   7   -0.04    1.55
   5  -3  -7  174.27    7.00
   5  -3  -7  176.90    8.93
  -5  -3   7  193.68    8.52
  -5  -3   7  175.66    9.44
   5  -3  -7  193.31    7.78
   5  -3  -7  188.15    9.44
   5   3  -7  173.43    8.67
  -5   3   7  183.06    8.94
   5   3  -7  180.25    9.38
   5   3  -7  176.25    8.77
   4  -3  -7   22.26    3.88
  -4  -3   7   23.54    3.94
   4  -3  -7   16.98    2.49
  -4  -3   7   19.37    3.42
   4  -3  -7   24.02    3.24
  -4  -3   7   21.02    3.23
  -4   3   7   21.99    2.44
   4   3  -7   18.94    3.28
   4   3  -7   27.11    3.70
  -4   3   7   18.62    3.05
   4   3  -7   17.55    2.93
   4   3  -7   20.62    3.49
  -3  -3   7    9.75    2.29
   3  -3  -7    6.20    1.78
  -3  -3   7    9.48    2.71
  -3  -3   7    8.26    2.28
   3  -3  -7   10.33    2.42
   3  -3  -7    6.52    2.37
   3   3  -7   10.38    2.63
  -3   3   7    8.01    2.02
  -3   3   7   10.19    1.82
   3   3  -7    9.12    2.35
   2  -3  -7   16.67    2.99
  -2  -3   7   25.13    4.16
  -2  -3   7   22.34    3.42
  -2  -3   7   23.29    2.98
   2  -3  -7   25.37    2.87
   2  -3  -7   25.19    2.92
   2  -3  -7   24.48    3.22
   2   3  -7   25.48    3.68
   2   3  -7   21.14    3.33
  -2   3   7   24.78    2.79
   2   3  -7   21.93    3.08
  -2   3   7   24.73    2.65
  -1  -3   7   -0.31    1.14
   1  -3  -7    1.13    1.10
   1  -3  -7   -0.26    1.20
  -1  -3   7   -1.07    0.99
   1  -3  -7    0.21    1.07
   1  -3  -7    0.70    1.33
  -1  -3   7    0.80    1.54
   1   3  -7    3.01    1.46
   1   3  -7   -0.27    1.23
  -1   3   7    1.18    0.98
   1   3  -7    0.81    1.38
   0  -3  -7   71.66    4.10
   0  -3   7   71.69    5.59
   0  -3  -7   75.90    5.08
   0  -3   7   75.78    5.43
   0  -3  -7   72.71    5.07
   0  -3  -7   66.64    4.93
   0   3  -7   76.81    5.70
   0   3   7   75.14    4.12
   0   3  -7   72.39    4.40
   0   3   7   79.26    5.16
   0   3  -7   72.09    5.42
   1  -3   7   54.45    5.03
  -1  -3  -7   49.33    4.34
  -1  -3  -7   51.66    4.01
  -1  -3  -7   48.77    4.54
   1  -3   7   45.46    4.52
  -1   3  -7   52.53    3.27
  -1   3  -7   46.51    4.51
   1   3   7   42.82    4.35
  -1   3  -7   46.14    4.72
   1   3   7   49.55    3.43
  -1   3  -7   46.40    3.22
   2  -3   7   13.72    3.32
  -2  -3  -7   13.46    2.41
  -2  -3  -7    9.27    2.26
  -2  -3  -7    9.54    2.57
   2  -3   7   10.33    2.91
   2   3   7   10.34    2.20
  -2   3  -7   13.56    3.22
   2   3   7    6.08    2.25
  -2   3  -7   11.68    1.36
  -2   3  -7    9.32    1.28
  -3  -3  -7    9.55    2.14
   3  -3   7    7.70    2.26
  -3  -3  -7    5.68    2.07
  -3  -3  -7    4.76    2.12
   3  -3   7    4.26    2.28
   3   3   7    8.57    2.11
   3   3   7    8.29    2.30
   3   3   7   10.61    2.85
   7  -4  -7   15.17    2.39
   7  -4  -7    8.00    2.75
  -7  -4   7   11.47    3.31
   7  -4  -7    9.91    1.91
   7   4  -7    5.74    3.05
   7   4  -7   17.27    3.43
   7   4  -7   16.78    3.42
   6  -4  -7    1.98    1.29
   6  -4  -7    4.66    1.92
   6  -4  -7    1.29    1.06
  -6  -4   7    4.01    2.29
   6   4  -7    2.74    2.06
   6   4  -7    3.07    2.37
   6   4  -7    6.23    2.40
  -6   4   7    6.95    2.68
   5  -4  -7    7.56    1.69
  -5  -4   7    6.02    2.36
   5  -4  -7    7.33    2.48
   5  -4  -7    4.95    1.59
   5  -4  -7    7.41    2.38
  -5  -4   7    6.64    2.35
   5   4  -7    6.54    2.49
   5   4  -7    6.00    2.70
  -5   4   7    9.45    2.57
   5   4  -7    2.97    1.96
   4  -4  -7  170.63    8.59
   4  -4  -7  161.52    8.62
  -4  -4   7  170.11    9.04
  -4  -4   7  179.61    8.32
  -4  -4   7  161.27    8.59
   4  -4  -7  160.67    7.80
   4  -4  -7  167.33    6.75
   4   4  -7  165.30    8.80
  -4   4   7  162.29    7.72
   4   4  -7  172.04    8.37
   4   4  -7  165.21    8.49
   4   4  -7  160.36    8.69
   3  -4  -7  340.36   13.00
   3  -4  -7  353.86   11.29
   3  -4  -7  353.02   11.81
  -3  -4   7  364.53   13.73
   3  -4  -7  354.76   13.02
   3   4  -7  337.12   12.73
   3   4  -7  362.20   13.17
  -3   4   7  351.58   11.53
   3   4  -7  359.68   13.59
  -3   4   7  368.20   10.47
   2  -4  -7   18.04    3.47
   2  -4  -7   19.68    3.38
  -2  -4   7   14.57    2.67
  -2  -4   7   24.79    4.75
   2  -4  -7   19.08    2.97
   2  -4  -7   14.26    2.26
  -2  -4   7   15.10    2.72
  -2   4   7   19.61    2.40
   2   4  -7   15.41    2.81
   2   4  -7   16.51    3.11
  -2   4   7   17.85    2.32
   2   4  -7   20.19    3.53
   1  -4  -7  205.20    7.08
  -1  -4   7  193.83    8.97
  -1  -4   7  192.17    8.08
   1  -4  -7  206.72    9.22
   1  -4  -7  204.34    8.37
  -1  -4   7  211.93   10.56
   1  -4  -7  202.17    9.00
   1   4  -7  188.67    8.12
   1   4  -7  185.65    8.83
  -1   4   7  205.09    8.17
   1   4  -7  194.62    9.50
   0  -4   7  145.52    8.11
   0  -4  -7  130.92    6.95
   0  -4   7  133.03    6.00
   0  -4  -7  134.04    6.99
   0  -4   7  133.62    7.38
   0  -4  -7  137.87    5.23
   0  -4  -7  134.44    7.18
   0   4  -7  138.32    7.54
   0   4  -7  130.32    6.09
   0   4   7  130.41    5.06
   0   4  -7  132.57    7.72
   1  -4   7   27.82    4.21
  -1  -4  -7   25.14    3.60
  -1  -4  -7   26.34    3.32
  -1  -4  -7   19.39    3.12
   1  -4   7   34.03    4.48
  -1   4  -7   22.74    3.85
   1   4   7   30.57    3.60
  -1   4  -7   33.11    2.78
  -1   4  -7   30.00    4.65
   1   4   7   26.95    2.32
  -2  -4  -7   29.90    5.26
  -2  -4  -7   26.60    3.51
  -2  -4  -7   16.69    3.07
   2  -4   7   19.11    3.66
   2  -4   7   27.83    4.76
  -2   4  -7   24.06    1.34
   2   4   7   19.38    3.25
   2   4   7   30.59    2.54
   3  -4   7    9.27    2.67
   3  -4   7   10.26    2.77
  -3  -4  -7    8.01    3.07
  -3  -4  -7    7.40    2.69
  -3  -4  -7   10.73    2.68
   3   4   7   14.90    2.27
   3   4   7   13.23    2.14
   3   4   7   10.55    3.05
  -6  -5   7    0.40    1.74
   6  -5  -7   -0.83    1.45
   6   5  -7   -3.19    1.75
   6   5  -7   -1.40    1.51
   6   5  -7    1.22    1.71
   5  -5  -7   47.08    5.02
  -5  -5   7   49.82    4.72
   5  -5  -7   44.56    4.46
   5  -5  -7   47.49    3.25
  -5  -5   7   53.23    5.38
   5   5  -7   56.17    6.97
   5   5  -7   50.85    5.15
  -5   5   7   49.27    4.62
   5   5  -7   46.65    5.40
   4  -5  -7   62.18    4.51
  -4  -5   7   64.72    5.73
   4  -5  -7   59.83    5.28
   4  -5  -7   65.84    3.89
  -4  -5   7   67.67    5.28
   4   5  -7   61.35    5.04
   4   5  -7   71.47    7.01
  -4   5   7   67.72    4.77
   4   5  -7   57.36    5.42
  -3  -5   7   -1.04    1.40
   3  -5  -7   -0.22    1.05
   3  -5  -7    1.11    1.54
   3  -5  -7    0.79    1.15
  -3  -5   7    0.34    1.25
  -3  -5   7    1.02    1.83
   3  -5  -7    3.47    1.78
   3   5  -7    0.87    1.53
   3   5  -7    0.90    1.78
   3   5  -7    1.35    1.47
   3   5  -7   -0.02    1.36
  -3   5   7   -0.48    1.21
   2  -5  -7   19.46    2.26
  -2  -5   7   22.60    3.93
  -2  -5   7   17.54    3.04
   2  -5  -7   16.92    3.20
   2  -5  -7   18.21    3.26
   2  -5  -7   14.04    2.43
  -2  -5   7   22.62    3.76
   2   5  -7   17.33    3.17
   2   5  -7   15.73    2.88
  -2   5   7   15.69    2.27
   2   5  -7   15.97    3.14
  -2   5   7   15.41    2.20
   1  -5  -7   23.65    3.02
   1  -5  -7   21.63    3.60
   1  -5  -7   29.43    3.61
  -1  -5   7   26.50    3.47
   1  -5  -7   25.67    2.15
  -1  -5   7   24.03    3.07
  -1  -5   7   32.48    4.10
   1   5  -7   19.42    2.95
  -1   5   7   23.53    2.05
   1   5  -7   25.79    3.94
   1   5  -7   28.63    3.85
  -1   5   7   24.15    2.90
   0  -5   7  165.92    8.98
   0  -5   7  172.49    8.61
   0  -5  -7  157.82    7.99
   0  -5  -7  158.11    4.99
   0  -5  -7  155.52    8.30
   0  -5   7  155.65    6.72
   0  -5  -7  153.26    7.62
   0   5  -7  167.63    6.96
   0   5  -7  151.84    8.10
   0   5   7  157.68    4.92
   0   5  -7  160.46    8.87
   1  -5   7   56.75    5.53
  -1  -5  -7   51.47    4.44
  -1  -5  -7   45.20    4.68
  -1  -5  -7   54.36    4.84
   1  -5   7   53.91    5.03
   1   5   7   47.83    4.40
   1   5   7   56.41    2.32
  -1   5  -7   54.45    3.43
  -1   5  -7   54.90    5.03
  -2  -5  -7    2.12    2.10
  -2  -5  -7   -0.47    1.76
   2  -5   7    0.60    1.62
   2  -5   7    1.51    1.75
   2   5   7    4.40    1.05
   2   5   7    0.22    1.75
   2   5   7    3.92    0.85
  -3  -5  -7   -0.24    1.79
   3  -5   7    0.73    1.53
  -3  -5  -7   -4.85    2.34
   3   5   7   -2.68    1.90
   3   5   7    0.35    1.18
   3   5   7    2.15    1.20
   6  -6  -7   12.51    3.09
   6   6  -7   13.19    3.53
   6   6  -7   12.55    3.17
   6   6  -7   26.41    4.21
  -5  -6   7   -0.55    1.61
   5  -6  -7    1.76    1.81
   5  -6  -7    2.79    2.19
   5   6  -7    2.45    2.44
   5   6  -7    1.95    1.74
   4  -6  -7   18.60    3.79
  -4  -6   7   17.56    3.68
   4  -6  -7   16.24    2.22
  -4  -6   7    9.89    2.59
   4  -6  -7   14.84    2.72
   4   6  -7   14.04    3.19
   4   6  -7   14.00    3.33
   4   6  -7   17.99    3.42
  -3  -6   7   21.88    3.62
   3  -6  -7   19.72    2.51
   3  -6  -7   20.47    3.69
  -3  -6   7   21.87    3.96
  -3  -6   7   19.57    3.40
   3   6  -7   25.93    4.08
   3   6  -7   23.12    4.12
  -3   6   7   21.98    2.73
   3   6  -7   21.17    3.59
   2  -6  -7   35.27    2.62
  -2  -6   7   39.51    6.87
  -2  -6   7   44.18    4.35
   2  -6  -7   34.66    4.50
  -2  -6   7   42.83    4.76
   2  -6  -7   35.24    3.38
  -2   6   7   31.79    3.49
   2   6  -7   33.44    4.05
   2   6  -7   34.44    4.03
  -1  -6   7  211.16    9.72
  -1  -6   7  214.13    8.88
   1  -6  -7  213.67    9.98
   1  -6  -7  227.81    6.08
  -1  -6   7  216.02   10.62
   1  -6  -7  213.32   10.59
   1  -6  -7  193.77    8.42
  -1   6   7  218.73    8.48
   1   6  -7  212.36    8.97
   1   6  -7  198.14    9.61
   0  -6  -7   36.66    3.95
   0  -6  -7   35.14    7.29
   0  -6   7   44.50    4.51
   0  -6  -7   34.51    4.45
   0  -6   7   36.36    3.38
   0  -6   7   42.81    4.92
   0   6   7   40.47    3.85
   0   6  -7   41.35    3.62
   0   6  -7   35.39    4.24
   1  -6   7   11.55    2.66
   1  -6   7   14.52    3.38
   1  -6   7   11.88    1.82
  -1  -6  -7    7.57    2.02
  -1   6  -7   10.21    1.72
   1   6   7    7.58    2.13
  -2  -6  -7   14.95    3.27
   2  -6   7   15.95    3.07
   2   6   7   17.80    3.23
   5  -7  -7   -0.03    1.48
  -5  -7   7    0.61    1.91
   5  -7  -7   -1.15    1.53
   5   7  -7   -3.58    1.58
   5   7  -7    1.37    1.69
  -4  -7   7   20.22    4.10
  -4  -7   7   19.96    3.90
   4  -7  -7   17.66    3.58
   4  -7  -7   18.08    2.93
   4  -7  -7   17.54    2.20
   4   7  -7   19.71    3.90
   4   7  -7   15.57    3.60
   4   7  -7   14.13    2.67
   3  -7  -7   85.70    6.52
  -3  -7   7   96.57    7.04
   3  -7  -7   88.34    4.66
   3  -7  -7   86.95    4.59
  -3  -7   7   93.30    6.40
   3   7  -7   83.46    6.41
   3   7  -7   80.21    6.34
   3   7  -7   86.92    6.14
  -2  -7   7   55.05    5.04
  -2  -7   7   70.80    6.09
  -2  -7   7   49.89    4.74
   2  -7  -7   60.03    4.21
   2  -7  -7   64.43    3.11
   2  -7  -7   53.43    5.36
   2   7  -7   63.08    5.26
   2   7  -7   58.59    5.16
   2   7  -7   57.13    5.25
  -1  -7   7   11.10    2.80
  -1  -7   7   15.25    3.45
  -1  -7   7   16.34    2.98
   1  -7  -7   10.89    3.07
   1  -7  -7   12.54    2.54
  -1   7   7   10.67    2.16
   1   7  -7   12.25    2.59
   1   7  -7   10.54    2.75
   0  -7   7    1.01    1.61
   0  -7  -7   -0.42    1.29
   0  -7   7    0.20    1.23
   0  -7   7    2.71    2.07
   0   7  -7    2.94    1.58
   0   7   7    3.36    1.91
   1  -7   7    4.80    2.65
   1  -7   7    4.29    2.09
  -1  -7  -7    1.76    1.77
  -1   7  -7    5.38    1.46
   2  -7   7    1.79    1.63
   2  -7   7   -1.30    1.28
  -2  -7  -7   -3.34    1.62
   2   7   7   -0.91    2.05
   5  -8  -7    0.26    1.57
   5  -8  -7   -2.22    1.58
  -5  -8   7   -1.85    2.75
   5   8  -7   -1.87    3.17
   5   8  -7    1.33    2.13
  -4  -8   7   23.48    3.97
   4  -8  -7   31.67    3.30
   4  -8  -7   39.05    4.64
   4  -8  -7   31.84    3.48
  -4  -8   7   43.53    5.00
   4   8  -7   21.37    4.11
   4   8  -7   37.15    4.56
   4   8  -7   26.53    4.54
  -3  -8   7    1.33    1.77
   3  -8  -7    1.30    1.05
  -3  -8   7   -1.41    1.61
   3  -8  -7    0.56    1.77
   3  -8  -7   -0.32    1.26
   3  -8  -7   -1.89    1.09
   3   8  -7    1.47    1.51
   3   8  -7   -2.44    1.53
   3   8  -7    2.07    1.92
   2  -8  -7    2.52    1.97
  -2  -8   7    2.51    2.16
  -2  -8   7    2.45    1.87
   2  -8  -7    1.92    0.67
  -2  -8   7    2.58    1.89
   2   8  -7    1.76    1.66
   2   8  -7    4.10    2.06
   2   8  -7    2.11    1.88
   1  -8  -7   18.41    2.89
   1  -8  -7   23.01    3.95
  -1  -8   7   19.79    3.46
   1   8  -7   28.16    4.21
  -1   8   7   22.60    3.65
   1   8  -7   22.12    3.98
   0  -8   7  101.72    7.41
   0  -8   7   85.06    5.25
   0  -8   7   87.70    6.46
   0  -8  -7   72.48    5.40
   0   8   7   89.17    5.54
   0   8  -7   86.08    5.29
   1  -8   7   34.20    4.33
  -1  -8  -7   21.96    3.67
   1  -8   7   23.02    2.64
   1   8   7   21.44    3.46
  -1   8  -7   33.07    2.91
   4  -9  -7   41.98    5.55
   4  -9  -7   46.97    3.81
  -4  -9   7   49.92    6.42
   4  -9  -7   46.37    4.02
   3  -9  -7   12.75    1.99
  -3  -9   7   11.29    3.20
   3  -9  -7   19.60    2.22
   3  -9  -7   16.76    4.23
  -3  -9   7   13.79    3.36
   3  -9  -7   14.00    2.25
   3   9  -7   11.29    2.98
   3   9  -7   18.46    3.81
   2  -9  -7   15.47    3.63
  -2  -9   7   14.96    3.43
   2  -9  -7   16.03    2.52
  -2  -9   7   22.35    4.14
   2   9  -7   16.06    4.15
   2   9  -7   13.63    3.26
  -1  -9   7   10.05    3.01
   1  -9  -7   12.90    2.60
  -1  -9   7    9.35    2.46
  -1  -9   7    8.89    2.36
  -1   9   7   10.51    2.09
   1   9  -7   16.52    3.25
   1   9  -7   11.10    2.66
   0  -9   7    1.81    2.46
   0  -9  -7    0.93    1.59
   0  -9   7   -2.15    1.34
   0   9  -7   -1.24    1.25
   0   9   7   -1.29    1.83
   0   9  -7    1.64    1.59
  -2 -10   7    5.06    2.33
   2 -10  -7    2.22    1.52
   2 -10  -7   -0.05    2.25
  -2 -10   7    2.45    2.30
   2  10  -7    2.37    1.91
   2  10  -7    6.72    2.76
  -1 -10   7   -1.25    1.36
   1 -10  -7    1.33    1.57
   1  10  -7    0.74    1.80
   1  10  -7   -0.17    1.73
  -7   0   8  139.66    9.01
   7   0  -8  146.04    9.23
   7   0  -8  135.27    7.82
   7   0  -8  132.09    7.18
   6   0  -8  220.29   11.00
   6   0  -8  227.73    9.48
   6   0  -8  211.02    9.72
   5   0  -8   47.42    4.29
  -5   0   8   51.93    5.21
  -5   0   8   49.83    3.94
   5   0  -8   41.96    5.01
   5   0  -8   48.01    4.23
   4   0  -8  152.46    8.19
  -4   0   8  137.85    6.85
  -4   0   8  152.10    8.17
   4   0  -8  161.88    8.66
   4   0  -8  157.68    7.72
   3   0  -8  235.77    9.95
   3   0  -8  246.36   10.66
  -3   0   8  261.50   10.54
   3   0  -8  242.18   10.44
   2   0  -8   28.05    3.72
   2   0  -8   30.06    3.57
   2   0  -8   29.44    3.50
  -2   0   8   25.29    3.18
  -2   0   8   29.26    3.64
  -1   0   8   27.06    3.87
   1   0  -8   21.58    3.32
  -1   0   8   26.25    3.94
   1   0  -8   24.02    3.12
   1   0  -8   26.83    3.44
   0   0  -8  491.27   15.23
   0   0  -8  500.06   15.87
   0   0   8  496.84   15.93
   0   0   8  464.40   16.26
   0   0  -8  521.09   20.21
   0   0  -8  466.38   14.89
  -1   0  -8    3.30    1.93
   1   0   8    4.30    2.02
   1   0   8    6.12    2.22
  -1   0  -8    5.40    2.15
  -1   0  -8    5.40    1.92
  -1   0  -8    3.34    1.55
   2   0   8   81.28    5.81
  -2   0  -8   57.98    4.03
   2   0   8   68.10    6.01
  -2   0  -8   71.77    4.34
  -2   0  -8   63.29    5.26
   3   0   8   66.23    5.69
  -3   0  -8   55.80    3.42
   3   0   8   47.84    5.63
   7  -1  -8    7.12    1.98
  -7  -1   8    5.71    2.69
   7  -1  -8    4.86    2.83
   7  -1  -8    9.03    1.96
  -7   1   8    6.88    2.86
   7   1  -8    5.65    2.54
   7   1  -8    6.51    3.03
   7   1  -8    5.77    1.97
  -6  -1   8   11.77    3.15
   6  -1  -8    4.64    2.40
   6  -1  -8    7.23    2.21
   6  -1  -8    8.59    2.16
  -6   1   8    8.36    2.82
   6   1  -8    8.70    2.29
   6   1  -8    8.51    3.06
   6   1  -8    7.79    2.36
   5  -1  -8   26.19    3.22
  -5  -1   8   21.73    3.06
   5  -1  -8   20.50    3.87
   5  -1  -8   27.09    3.29
  -5  -1   8   31.72    4.35
  -5   1   8   23.20    2.81
   5   1  -8   25.78    3.38
   5   1  -8   20.88    3.91
  -5   1   8   25.42    4.05
   4  -1  -8    8.71    2.38
  -4  -1   8    3.82    2.30
   4  -1  -8    5.43    2.36
   4  -1  -8    8.04    2.23
  -4   1   8    4.72    1.64
   4   1  -8    4.77    2.29
   4   1  -8    7.53    2.55
   4   1  -8    4.91    1.84
  -3  -1   8   91.85    8.02
  -3  -1   8   92.37    6.07
   3  -1  -8   82.91    5.62
   3  -1  -8   90.58    5.84
   3  -1  -8   97.92    6.58
  -3  -1   8   88.38    5.57
  -3   1   8   92.96    5.93
   3   1  -8   87.80    6.26
   3   1  -8   90.97    6.15
   3   1  -8   89.00    5.85
  -3   1   8   76.06    4.88
   2  -1  -8    9.21    2.38
  -2  -1   8    9.24    2.25
  -2  -1   8    9.45    2.20
  -2  -1   8    9.85    2.62
   2  -1  -8   12.63    2.92
   2  -1  -8   15.79    2.81
   2   1  -8    8.07    2.28
  -2   1   8   15.33    3.06
   2   1  -8   12.08    2.76
   2   1  -8   14.23    3.03
  -1  -1   8   15.19    2.87
   1  -1  -8   19.05    3.25
  -1  -1   8   17.72    3.26
   1  -1  -8   14.52    2.79
   1  -1  -8   19.28    3.14
   1  -1  -8   20.99    3.17
  -1   1   8   16.63    2.80
   1   1  -8   14.55    2.95
  -1   1   8   17.69    3.19
   1   1  -8   15.92    3.05
   1   1  -8   17.06    2.98
   0  -1   8   15.40    3.17
   0  -1  -8   11.05    2.30
   0  -1  -8   11.78    2.71
   0  -1  -8   10.35    2.68
   0  -1  -8   13.31    2.62
   0  -1   8   10.20    2.72
   0   1  -8    6.66    2.18
   0   1   8   12.32    2.82
   0   1  -8   13.70    3.33
   0   1  -8   13.14    2.58
   0   1  -8   13.11    2.46
   0   1   8   14.46    2.70
  -1  -1  -8    0.40    1.59
  -1  -1  -8    7.18    1.94
   1  -1   8    3.16    1.57
   1  -1   8    5.92    2.17
  -1  -1  -8    1.77    1.69
  -1  -1  -8    5.37    2.08
  -1   1  -8    4.70    1.52
   1   1   8    5.86    2.17
  -1   1  -8    1.06    2.00
  -1   1  -8    3.75    2.01
  -1   1  -8    5.70    1.70
   1   1   8    3.71    1.99
   2  -1   8   -1.09    1.72
  -2  -1  -8   -2.13    2.70
  -2  -1  -8   -1.43    1.06
  -2  -1  -8    0.36    1.99
   2  -1   8   -0.64    1.51
  -2  -1  -8   -1.31    1.31
   2   1   8   -1.00    1.65
  -2   1  -8   -0.48    1.63
   2   1   8    2.71    1.76
  -2   1  -8   -0.74    1.00
  -3  -1  -8   14.04    2.30
  -3  -1  -8   17.62    2.53
   3  -1   8   15.42    3.37
   3   1   8   21.12    3.48
   3   1   8   18.96    4.01
  -3   1  -8    9.67    1.17
   6  -2  -8    5.40    2.58
   6  -2  -8    8.76    1.90
  -6  -2   8    7.97    3.09
   6  -2  -8    5.10    1.92
   6   2  -8    6.84    2.19
   6   2  -8    4.50    1.76
   6   2  -8    8.53    2.92
  -6   2   8    9.80    2.91
  -5  -2   8   11.51    3.12
   5  -2  -8   15.33    3.52
   5  -2  -8    9.75    2.21
   5   2  -8    9.51    2.63
   5   2  -8   15.12    2.75
   5   2  -8    9.56    2.38
  -5   2   8   12.72    3.35
   4  -2  -8   41.56    3.85
  -4  -2   8   40.38    3.94
  -4  -2   8   42.88    4.81
   4  -2  -8   42.08    4.74
   4  -2  -8   42.68    4.79
  -4   2   8   35.94    3.25
   4   2  -8   38.59    4.48
   4   2  -8   38.56    4.24
  -4   2   8   47.01    4.48
   3  -2  -8   20.83    3.85
  -3  -2   8   18.16    3.29
   3  -2  -8   21.24    3.30
  -3  -2   8   21.90    3.52
   3  -2  -8   19.94    3.37
  -3  -2   8   14.87    2.67
   3   2  -8   16.83    3.26
   3   2  -8   23.13    3.87
  -3   2   8   20.83    2.72
   3   2  -8   22.16    3.69
  -3   2   8   25.59    3.46
   2  -2  -8    9.09    2.34
  -2  -2   8    7.16    2.07
   2  -2  -8    6.63    3.65
   2  -2  -8    8.34    2.15
   2  -2  -8    2.87    1.47
  -2  -2   8    5.94    1.93
   2   2  -8    5.69    1.93
  -2   2   8    6.10    2.02
   2   2  -8    6.65    2.15
  -2   2   8    6.34    2.01
   2   2  -8    7.26    2.32
   1  -2  -8  124.00    6.93
   1  -2  -8  134.52    7.35
   1  -2  -8  140.69   10.90
   1  -2  -8  138.21    6.59
  -1  -2   8  159.94   10.81
  -1   2   8  130.22    6.36
   1   2  -8  132.73    6.94
   1   2  -8  136.35    7.64
  -1   2   8  136.41    7.10
   0  -2  -8   27.25    3.99
   0  -2  -8   33.18    3.77
   0  -2  -8   30.30    3.30
   0  -2   8   33.96    4.20
   0  -2   8   37.38    4.34
   0  -2  -8   37.48    3.66
   0   2  -8   33.93    4.17
   0   2  -8   36.09    4.23
   0   2   8   29.53    3.62
   0   2   8   30.40    3.30
   0   2  -8   32.42    3.40
   1  -2   8  118.22    7.35
  -1  -2  -8  107.23    5.83
  -1  -2  -8  107.63    6.95
   1  -2   8  104.62    7.21
  -1  -2  -8  105.03    6.00
  -1  -2  -8   97.40    5.99
  -1   2  -8  109.36    7.16
  -1   2  -8  116.08    5.42
   1   2   8  105.22    5.92
   1   2   8  100.39    6.93
  -1   2  -8  109.36    7.37
  -1   2  -8  111.54    5.43
   2  -2   8   -1.20    1.17
  -2  -2  -8    0.49    1.38
  -2  -2  -8   -1.94    1.76
  -2  -2  -8    0.83    1.70
   2  -2   8    3.02    2.07
  -2   2  -8    3.73    2.80
   2   2   8   -1.46    1.35
   2   2   8    1.63    1.44
  -2   2  -8    1.00    1.00
   6  -3  -8   -2.81    1.50
   6  -3  -8    2.12    1.44
  -6  -3   8    2.12    1.97
   6  -3  -8    0.15    1.02
   6   3  -8   -3.72    1.62
   6   3  -8    1.17    1.95
  -6   3   8   -1.04    1.60
   6   3  -8   -0.71    1.56
  -5  -3   8    2.42    1.69
  -5  -3   8    1.73    1.78
   5  -3  -8    1.48    1.81
   5  -3  -8    1.69    1.53
   5   3  -8   -0.11    1.36
   5   3  -8   -0.09    1.41
   5   3  -8    1.70    2.22
  -5   3   8    3.19    2.10
  -4  -3   8    1.44    1.93
   4  -3  -8    1.39    1.42
  -4  -3   8    0.53    1.34
   4  -3  -8    0.34    1.21
   4  -3  -8    3.09    1.94
   4   3  -8   -0.73    1.83
  -4   3   8   -0.80    1.37
  -4   3   8   -0.52    1.19
   4   3  -8   -2.74    1.83
   4   3  -8    0.35    1.38
  -3  -3   8  109.57    6.81
   3  -3  -8  111.52    6.14
  -3  -3   8  121.04    7.57
  -3  -3   8  107.02    6.46
   3  -3  -8  114.49    6.28
   3  -3  -8  124.37   10.32
   3  -3  -8  102.67    7.02
   3   3  -8  108.29    7.08
   3   3  -8  111.19    6.86
  -3   3   8  114.36    5.63
   3   3  -8  114.49    7.10
  -3   3   8  123.11    6.37
  -2  -3   8    2.82    2.25
  -2  -3   8    3.85    1.82
   2  -3  -8    2.96    1.84
   2  -3  -8    5.81    2.16
   2  -3  -8    3.43    1.50
   2  -3  -8    6.93    1.93
  -2  -3   8    1.56    1.49
   2   3  -8    4.13    2.01
  -2   3   8    2.43    1.48
  -2   3   8    3.57    1.62
   2   3  -8    6.21    2.23
   2   3  -8    2.35    2.21
  -1  -3   8   84.70    5.42
   1  -3  -8   86.72    5.71
   1  -3  -8   96.39    7.19
  -1  -3   8   90.55    6.50
  -1  -3   8   97.99    6.42
   1  -3  -8  103.92    5.33
   1  -3  -8   82.59    5.70
   1   3  -8   87.59    6.28
   1   3  -8   91.02    5.68
   1   3  -8   99.84    6.49
  -1   3   8   96.43    5.10
   0  -3  -8    7.31    2.17
   0  -3   8   14.21    3.48
   0  -3  -8   14.65    3.02
   0  -3  -8   13.90    2.31
   0  -3  -8    9.23    2.85
   0  -3   8   14.17    3.22
   0   3  -8   12.58    3.02
   0   3   8    9.05    1.93
   0   3  -8   13.17    2.36
   0   3   8    9.46    2.20
   0   3  -8    7.24    2.23
  -1  -3  -8    1.04    1.86
  -1  -3  -8   -2.34    1.24
  -1  -3  -8   -0.15    1.05
   1  -3   8   -1.42    1.32
   1  -3   8    0.12    1.49
  -1   3  -8    0.14    1.73
  -1   3  -8   -0.24    1.06
   1   3   8    0.66    1.22
  -1   3  -8    1.77    1.12
   1   3   8    0.09    1.41
  -2  -3  -8   24.19    4.27
   2  -3   8   17.35    3.51
  -2  -3  -8   22.70    3.44
  -2  -3  -8   17.73    4.08
   2  -3   8   23.98    4.10
  -2   3  -8   25.88    2.22
   2   3   8   22.49    4.13
   2   3   8   32.06    3.13
  -2   3  -8   26.17    1.94
   6  -4  -8    3.38    2.12
   6  -4  -8    1.16    1.47
  -6  -4   8   -0.30    2.23
   6   4  -8   -1.47    1.90
  -6   4   8    4.28    2.01
   6   4  -8    0.54    1.67
  -5  -4   8    0.47    1.45
   5  -4  -8   -1.13    1.74
   5  -4  -8    1.38    1.52
   5  -4  -8   -0.67    1.08
  -5  -4   8    0.58    1.51
   5   4  -8   -3.29    1.57
   5   4  -8    1.26    1.78
  -5   4   8    1.65    1.82
   5   4  -8   -0.15    1.62
  -4  -4   8    2.58    1.56
   4  -4  -8    3.55    1.53
   4  -4  -8    5.91    1.83
  -4  -4   8    3.60    2.42
   4  -4  -8    3.93    2.21
   4   4  -8    6.80    2.61
   4   4  -8    3.03    1.73
   4   4  -8    0.94    2.25
  -4   4   8    4.52    1.92
  -3  -4   8  408.73   14.78
   3  -4  -8  419.01   13.52
  -3  -4   8  398.68   15.38
   3  -4  -8  397.98   14.98
   3  -4  -8  409.50   13.20
  -3  -4   8  408.63   14.52
  -3   4   8  421.31   13.25
  -3   4   8  424.46   12.46
   3   4  -8  410.24   14.73
   3   4  -8  401.01   15.20
   2  -4  -8  214.01    8.96
  -2  -4   8  216.02   10.58
   2  -4  -8  239.79   14.30
  -2  -4   8  214.36    9.94
   2  -4  -8  208.39   10.08
   2  -4  -8  227.42    8.47
  -2   4   8  222.79    8.30
   2   4  -8  225.18   10.33
  -2   4   8  225.55    8.80
   2   4  -8  224.68    9.73
   1  -4  -8    2.41    1.61
   1  -4  -8   -0.80    1.31
  -1  -4   8   -1.25    0.97
  -1  -4   8    1.27    1.95
  -1  -4   8   -0.01    1.25
   1  -4  -8    0.09    1.20
   1  -4  -8   -0.36    1.38
  -1   4   8   -0.12    1.00
   1   4  -8    0.16    1.37
   1   4  -8   -1.41    1.27
  -1   4   8    0.78    1.34
   0  -4   8   12.68    3.33
   0  -4  -8    8.48    2.55
   0  -4   8    9.32    2.59
   0  -4  -8    8.50    2.24
   0  -4  -8    9.65    1.83
   0  -4  -8    5.97    2.16
   0   4   8   10.61    1.81
   0   4  -8    7.59    2.04
   0   4  -8    5.31    2.37
   0   4   8    6.47    2.07
  -1  -4  -8   14.44    2.85
  -1  -4  -8    2.71    1.80
  -1  -4  -8    9.78    2.67
   1  -4   8   14.50    3.39
   1  -4   8    5.57    2.05
  -1   4  -8    6.71    2.62
  -1   4  -8    7.24    1.77
   1   4   8    5.42    2.12
  -1   4  -8   11.91    2.16
   1   4   8    9.52    1.83
  -2  -4  -8    8.10    2.25
   2  -4   8    7.33    2.33
  -2  -4  -8    6.97    2.42
   2  -4   8    6.90    2.93
  -2  -4  -8    8.56    2.54
   2   4   8    6.45    2.56
   2   4   8    7.17    1.64
   6  -5  -8   16.18    4.30
  -6  -5   8   16.04    3.65
   6  -5  -8   17.03    2.53
   6   5  -8   11.95    2.94
  -6   5   8   16.84    3.55
   6   5  -8   11.16    3.34
   6   5  -8   14.55    4.86
   5  -5  -8   13.40    3.03
  -5  -5   8   20.04    4.02
   5  -5  -8   11.18    2.07
   5  -5  -8    9.02    2.96
  -5  -5   8   12.60    3.34
   5   5  -8    8.96    2.66
   5   5  -8    7.38    3.06
   5   5  -8   15.44    3.61
  -5   5   8   10.51    2.63
  -4  -5   8    7.30    3.81
  -4  -5   8    5.81    2.69
   4  -5  -8    8.41    2.02
   4  -5  -8    7.10    2.53
   4  -5  -8    6.11    1.77
   4   5  -8    6.82    2.49
  -4   5   8    7.95    2.32
   4   5  -8    6.85    2.48
   4   5  -8    9.73    2.72
  -3  -5   8    1.86    1.63
  -3  -5   8    0.85    2.03
   3  -5  -8    5.06    2.32
   3  -5  -8    0.24    1.25
   3  -5  -8    4.19    1.73
  -3   5   8    2.49    1.31
   3   5  -8    1.50    1.46
   3   5  -8    2.92    1.79
   3   5  -8    1.18    1.97
  -3   5   8    2.37    1.48
  -2  -5   8    3.31    1.93
   2  -5  -8    3.11    1.14
   2  -5  -8    2.48    1.50
  -2  -5   8    4.07    1.84
   2  -5  -8    1.94    2.18
  -2  -5   8    5.89    2.53
   2   5  -8   -0.26    1.31
  -2   5   8    0.18    1.11
  -2   5   8    0.93    1.11
   2   5  -8    1.34    2.06
   1  -5  -8    5.60    2.11
  -1  -5   8    6.92    2.37
   1  -5  -8    3.47    1.89
  -1  -5   8    6.25    1.88
   1  -5  -8    8.68    1.59
  -1  -5   8    6.11    2.33
   1   5  -8    7.22    2.36
  -1   5   8    6.08    1.92
   1   5  -8   11.01    2.96
   0  -5  -8    3.03    2.07
   0  -5   8    3.74    2.04
   0  -5  -8    1.98    1.77
   0  -5  -8    3.42    1.15
   0  -5   8    8.43    2.84
   0  -5   8    1.53    1.34
   0   5   8    4.03    1.04
   0   5  -8    4.07    2.34
   0   5  -8    3.41    1.67
   1  -5   8   85.62    6.66
  -1  -5  -8   81.14    6.29
  -1  -5  -8   86.42    6.35
   1  -5   8   98.89    7.13
   1   5   8   81.68    3.28
  -1   5  -8   85.89    4.51
   1   5   8   84.29    6.23
  -2  -5  -8   31.60    4.73
   2  -5   8   62.27   10.78
  -2  -5  -8   36.82    4.72
   2  -5   8   45.19    5.19
   2   5   8   44.66    2.43
   2   5   8   29.00    4.63
   2   5   8   40.63    2.24
   5  -6  -8    4.75    1.61
  -5  -6   8    2.30    2.38
   5  -6  -8    4.43    2.41
   5  -6  -8    5.27    2.81
   5   6  -8   -0.25    2.44
   5   6  -8    6.91    2.47
   5   6  -8    5.46    2.43
   4  -6  -8   36.89    3.28
   4  -6  -8   40.56    4.90
  -4  -6   8   43.05    4.99
   4  -6  -8   39.95    3.66
  -4  -6   8   41.65    4.74
   4   6  -8   36.59    4.76
   4   6  -8   42.89    4.70
  -4   6   8   42.56    3.92
   4   6  -8   45.15    5.13
   3  -6  -8   38.18    4.63
   3  -6  -8   25.94    3.17
   3  -6  -8   39.89    3.16
  -3  -6   8   35.18    4.62
  -3   6   8   32.54    3.08
   3   6  -8   27.23    4.21
   3   6  -8   29.14    4.51
   3   6  -8   29.61    4.69
  -2  -6   8  103.68    7.38
   2  -6  -8   88.84    5.54
  -2  -6   8   96.51    6.66
   2  -6  -8   87.65    6.68
  -2  -6   8   94.73    6.28
   2  -6  -8  107.80    4.71
   2   6  -8   96.80    6.78
  -2   6   8   95.15    4.39
   2   6  -8   92.89    6.43
  -2   6   8  109.58    7.73
  -1  -6   8    7.95    2.06
  -1  -6   8   13.61    3.28
   1  -6  -8    7.28    1.96
  -1  -6   8    6.37    2.21
   1  -6  -8   11.41    2.96
   1  -6  -8   11.01    1.42
  -1   6   8    5.45    1.97
   1   6  -8   10.72    2.55
   1   6  -8   10.51    2.89
  -1   6   8   10.78    1.29
   0  -6   8   93.70    7.22
   0  -6  -8   84.91    6.44
   0  -6   8   81.85    6.99
   0  -6  -8   76.47    5.80
   0  -6   8   74.21    4.70
   0   6  -8   92.60    5.43
   0   6   8   71.04    5.58
  -1  -6  -8   23.36    3.86
  -1  -6  -8   17.36    3.27
   1  -6   8   23.69    4.14
   1  -6   8   26.44    4.98
  -1   6  -8   27.96    2.72
   1   6   8   18.62    3.70
  -5  -7   8   -0.40    1.71
   5  -7  -8   -3.55    1.86
  -5  -7   8   -2.22    2.02
   5   7  -8   -5.07    2.03
   5   7  -8    0.13    1.63
   5   7  -8    2.74    2.34
  -4  -7   8    4.34    2.41
   4  -7  -8    1.69    2.44
   4  -7  -8    7.67    1.98
  -4  -7   8    4.01    2.37
   4  -7  -8    3.96    1.55
   4   7  -8    6.97    2.67
   4   7  -8    8.54    2.54
   4   7  -8   10.42    3.23
   3  -7  -8    2.57    1.12
  -3  -7   8    0.15    1.56
  -3  -7   8    2.62    2.00
   3  -7  -8    0.88    1.79
   3  -7  -8    0.12    1.15
   3   7  -8   -1.07    1.86
   3   7  -8   -0.07    1.82
   2  -7  -8   53.65    2.82
  -2  -7   8   49.36    5.34
   2  -7  -8   42.38    4.95
  -2  -7   8   48.06    4.90
   2  -7  -8   42.16    3.95
  -2   7   8   57.44    3.93
   2   7  -8   49.00    5.04
   2   7  -8   41.80    4.92
  -1  -7   8   -1.51    1.80
  -1  -7   8   -2.91    1.32
   1  -7  -8   -1.11    1.45
  -1  -7   8    0.37    1.92
   1  -7  -8    0.60    1.65
  -1   7   8   -0.53    1.34
   0  -7   8    7.00    1.79
   0  -7   8    7.69    2.65
   0  -7  -8    5.38    2.05
   0  -7   8   13.71    3.62
   0  -7  -8    4.26    2.53
   0   7  -8    4.52    1.92
   0   7   8   10.48    2.60
   1  -7   8   -3.76    1.64
  -1  -7  -8   -0.08    1.72
   1  -7   8   -0.51    1.60
  -1   7  -8   -1.71    1.13
   4  -8  -8    4.90    1.66
   4  -8  -8    0.91    2.18
  -4  -8   8    2.14    2.06
   4  -8  -8    4.09    1.46
  -4  -8   8    4.84    2.56
   4   8  -8    4.56    2.70
   4   8  -8    2.12    2.19
   3  -8  -8    1.63    1.86
  -3  -8   8   -1.89    2.00
   3  -8  -8   -1.07    1.10
  -3  -8   8   -1.24    1.59
   3  -8  -8   -2.98    1.07
   3   8  -8    0.35    1.65
  -2  -8   8  132.27    8.29
   2  -8  -8  149.64    8.80
   2   8  -8  141.73    8.40
   2   8  -8  134.55    8.04
   1  -8  -8   12.73    4.68
  -1  -8   8    5.77    2.16
  -1  -8   8   12.27    3.50
  -1  -8   8   12.41    3.14
   1  -8  -8   12.90    2.70
  -1   8   8   15.01    2.81
   1   8  -8   14.88    3.32
   1   8  -8    7.96    2.62
   0  -8   8    3.50    2.15
   0  -8   8    1.50    1.86
   0  -8   8    3.29    1.60
   0   8   8    4.27    2.23
   0   8  -8    3.88    1.84
   6   0  -9   -0.96    1.30
   6   0  -9   -0.95    2.02
  -6   0   9    3.26    2.40
  -5   0   9    2.22    1.62
   5   0  -9    2.55    2.05
  -5   0   9   -0.72    1.12
   5   0  -9   -0.83    1.13
   5   0  -9   -2.58    1.10
   4   0  -9   -1.66    1.41
  -4   0   9    0.59    1.74
   4   0  -9   -1.54    1.55
  -4   0   9   -1.70    1.19
  -3   0   9    0.25    1.65
   3   0  -9    0.53    1.74
   3   0  -9   -0.01    1.33
   3   0  -9    1.69    1.74
  -2   0   9   -0.51    1.51
   2   0  -9   -0.54    1.38
   2   0  -9   -1.86    1.57
  -2   0   9   -0.83    1.16
   2   0  -9    1.40    1.71
  -1   0   9   -0.38    1.27
   1   0  -9   -1.25    1.35
   1   0  -9   -1.72    1.47
  -1   0   9   -1.36    2.49
   1   0  -9   -1.03    1.47
   1   0  -9    1.24    1.58
   0   0  -9   -0.07    1.65
   0   0   9    1.08    1.57
   0   0   9   -0.61    1.28
   0   0  -9   -3.71    1.56
   0   0  -9    0.55    1.96
   0   0  -9   -0.15    1.42
  -1   0  -9    0.68    2.14
  -1   0  -9    0.68    1.59
  -1   0  -9   -1.42    2.06
   1   0   9    1.28    1.70
   1   0   9   -1.73    1.41
  -1   0  -9   -1.30    1.28
   6  -1  -9   -2.97    1.16
   6  -1  -9    0.96    1.45
   6  -1  -9   -1.53    1.70
  -6  -1   9   -3.49    3.01
  -6   1   9   -0.61    1.85
   6   1  -9   -0.47    1.56
   6   1  -9    1.25    1.33
  -5  -1   9   27.05    4.66
  -5  -1   9   21.02    3.36
   5  -1  -9   19.26    3.81
   5  -1  -9   26.69    4.02
  -5   1   9   23.84    4.20
   5   1  -9   29.19    4.24
  -5   1   9   24.99    3.28
   5   1  -9   20.11    3.96
   5   1  -9   28.08    3.40
  -4  -1   9    8.14    2.75
   4  -1  -9    7.80    2.56
   4  -1  -9    7.38    2.30
   4   1  -9    8.44    2.71
  -4   1   9    9.01    2.65
  -4   1   9    6.83    2.00
   4   1  -9    6.39    2.13
   3  -1  -9    3.36    1.91
   3  -1  -9    0.99    1.39
  -3  -1   9   -0.42    1.11
   3  -1  -9   -1.32    1.33
  -3  -1   9    2.04    1.94
   3   1  -9   -0.38    1.42
  -3   1   9   -0.05    1.12
   3   1  -9    1.99    2.04
  -3   1   9    2.32    1.97
   2  -1  -9  215.49   10.15
   2  -1  -9  218.28    9.98
  -2  -1   9  215.25    9.89
  -2  -1   9  236.19   10.51
   2  -1  -9  227.13   12.67
   2   1  -9  216.88   10.06
   2   1  -9  206.06    9.98
  -2   1   9  233.56    9.69
  -2   1   9  196.85    9.26
   2   1  -9  218.64   10.09
   1  -1  -9   11.82    2.64
   1  -1  -9    9.29    2.61
  -1  -1   9   10.79    2.86
   1  -1  -9   12.55    2.97
   1  -1  -9   16.26    2.98
  -1  -1   9    9.19    2.41
  -1   1   9   18.67    3.40
   1   1  -9   17.17    3.42
   1   1  -9    9.14    2.85
  -1   1   9   20.33    3.47
   0  -1  -9   -0.57    1.71
   0  -1  -9    1.00    1.68
   0  -1   9    2.34    1.90
   0  -1  -9    4.38    1.76
   0  -1  -9    1.42    2.67
   0  -1   9    1.39    1.74
   0   1   9    2.04    1.64
   0   1  -9   -1.17    1.30
   0   1  -9    1.36    1.37
   0   1   9    1.54    1.70
   0   1  -9    2.56    2.09
   0   1  -9    4.56    2.68
  -1  -1  -9    9.13    2.55
  -1  -1  -9    4.76    2.96
  -1  -1  -9    7.41    2.54
  -1  -1  -9    4.67    2.32
   1  -1   9   12.01    2.94
   1  -1   9    7.12    2.68
  -1   1  -9    9.61    2.33
  -1   1  -9    1.40    3.29
   1   1   9   10.12    2.77
  -1   1  -9    9.54    1.99
   1   1   9    4.95    2.23
   6  -2  -9   41.22    4.16
   6  -2  -9   38.42    5.25
   6  -2  -9   35.77    3.58
  -6  -2   9   42.50    5.16
   6   2  -9   37.74    5.56
   6   2  -9   32.56    4.76
  -6   2   9   42.68    5.00
   6   2  -9   35.78    4.44
  -5  -2   9  219.36   11.10
   5  -2  -9  217.23    9.46
   5  -2  -9  208.69   10.76
   5   2  -9  192.70   10.56
  -5   2   9  205.47   10.16
  -5   2   9  203.78    8.22
   5   2  -9  210.34   10.24
   5   2  -9  207.21    9.83
   4  -2  -9   67.51    5.99
  -4  -2   9   72.87    6.12
   4  -2  -9   65.70    5.09
   4  -2  -9   79.11    5.73
  -4  -2   9   67.81    5.30
   4   2  -9   72.72    5.79
   4   2  -9   65.66    5.84
  -4   2   9   72.44    4.78
  -4   2   9   78.13    5.85
   3  -2  -9    4.91    2.47
   3  -2  -9    5.28    2.10
  -3  -2   9   11.62    3.05
  -3  -2   9    2.74    1.67
   3  -2  -9    2.72    2.24
   3   2  -9    5.14    2.00
  -3   2   9    4.47    1.81
   3   2  -9    1.28    2.15
  -3   2   9    2.01    1.25
  -2  -2   9  187.29    9.14
   2  -2  -9  171.47    8.62
   2  -2  -9  192.81    8.53
  -2  -2   9  185.48    9.53
   2  -2  -9  163.75    8.96
  -2   2   9  190.44    8.42
   2   2  -9  171.89    8.82
  -2   2   9  170.39   10.40
   1  -2  -9   -0.29    1.72
   1  -2  -9    4.08    1.74
  -1  -2   9    2.39    1.92
   1  -2  -9    4.19    2.06
   1  -2  -9   -1.80    1.41
  -1  -2   9   -0.50    1.21
   1   2  -9    2.52    1.94
  -1   2   9    0.24    1.35
  -1   2   9    1.89    1.43
   1   2  -9   -0.86    1.62
   0  -2  -9   -1.13    1.43
   0  -2   9    4.42    2.23
   0  -2   9    2.29    1.68
   0  -2  -9   -0.45    1.52
   0  -2  -9    2.21    1.84
   0  -2  -9   -0.25    1.79
   0   2  -9    4.15    1.64
   0   2   9    1.79    1.59
   0   2  -9   -3.12    1.55
   0   2  -9   -2.39    1.33
   0   2   9    0.08    1.92
  -1  -2  -9   43.50    4.51
  -1  -2  -9   32.37    4.78
  -1  -2  -9   50.45    4.70
  -1  -2  -9   37.82    4.06
   1  -2   9   26.32    4.34
   1  -2   9   48.70    4.99
  -1   2  -9   37.29    4.84
   1   2   9   39.57    3.92
   1   2   9   31.75    4.78
  -1   2  -9   34.95    3.59
  -1   2  -9   47.72    3.75
  -6   3   9    3.30    2.09
  -5  -3   9   39.38    4.37
   5  -3  -9   33.38    3.73
   5  -3  -9   30.41    4.62
  -5  -3   9   38.74    4.91
  -5   3   9   41.21    4.48
   5   3  -9   26.51    3.98
   5   3  -9   41.48    5.28
   5   3  -9   31.61    4.00
  -4  -3   9   -2.41    1.36
   4  -3  -9    0.78    1.60
   4  -3  -9    2.34    1.64
   4  -3  -9   -0.68    1.75
  -4  -3   9   -0.48    1.37
  -4   3   9    1.18    1.59
   4   3  -9   -2.57    1.45
  -4   3   9   -3.56    1.82
   4   3  -9   -2.51    1.44
   3  -3  -9  126.80    8.06
   3  -3  -9  117.39    6.81
  -3  -3   9  124.67    7.88
   3  -3  -9  120.88    6.64
  -3  -3   9  125.82    7.38
  -3   3   9  121.38    6.29
  -3   3   9  124.28    6.68
   3   3  -9  119.94    7.63
  -2  -3   9   29.71    4.96
  -2  -3   9   21.83    3.52
   2  -3  -9   32.92    3.46
   2  -3  -9   27.48    4.01
  -2  -3   9   28.92    3.77
   2  -3  -9   29.12    4.58
  -2   3   9   30.56    3.54
   2   3  -9   34.20    4.26
  -2   3   9   29.95    3.47
   2   3  -9   27.78    4.27
  -1  -3   9   54.47    5.21
   1  -3  -9   59.79    5.18
  -1  -3   9   70.29    6.03
   1  -3  -9   69.01    4.55
   1  -3  -9   52.49    5.30
   1   3  -9   60.05    5.82
  -1   3   9   59.23    4.25
   1   3  -9   61.30    5.63
   0  -3   9   53.52    5.21
   0  -3  -9   37.07    4.38
   0  -3  -9   40.57    3.85
   0  -3  -9   37.08    4.49
   0   3  -9   43.48    3.90
   0   3   9   42.49    4.54
   0   3  -9   38.17    3.91
   0   3   9   40.80    3.51
   1  -3   9   20.53    4.02
  -1  -3  -9    9.32    3.08
  -1  -3  -9   11.50    2.97
  -1  -3  -9   16.21    2.64
   1  -3   9   11.60    4.09
  -1   3  -9   16.22    2.43
   1   3   9   11.44    2.37
   1   3   9    8.47    2.51
  -1   3  -9   15.26    2.59
  -5  -4   9   -2.42    2.81
   5  -4  -9    3.21    2.06
  -5  -4   9    1.20    1.64
   5   4  -9    2.73    1.77
  -5   4   9    3.59    2.02
   5   4  -9   -0.26    1.37
   4  -4  -9   15.82    2.86
   4  -4  -9    9.21    2.05
  -4  -4   9   22.13    4.57
  -4  -4   9   12.58    3.03
  -4   4   9   14.27    2.95
  -4   4   9   12.24    2.14
   4   4  -9   14.13    3.19
   4   4  -9   15.54    3.76
   4   4  -9    9.45    3.06
  -3  -4   9   20.85    3.75
   3  -4  -9   21.61    3.92
   3  -4  -9   16.54    2.98
  -3  -4   9   28.46    4.79
   3  -4  -9   25.99    3.09
  -3   4   9   23.69    3.03
   3   4  -9   32.38    4.87
   3   4  -9   21.58    3.88
  -3   4   9   24.60    3.19
   2  -4  -9   20.80    3.85
   2  -4  -9   25.61    3.91
  -2  -4   9   19.64    3.18
  -2  -4   9   16.38    3.23
  -2  -4   9   32.22    5.11
   2  -4  -9   30.42    3.02
   2   4  -9   16.56    3.30
  -2   4   9   27.10    3.65
   2   4  -9   16.07    3.37
  -2   4   9   22.34    2.89
   1  -4  -9   64.44    5.84
  -1  -4   9   79.65    6.43
   1  -4  -9   58.59    5.33
   1  -4  -9   76.98    4.45
  -1  -4   9   75.79    6.18
   1   4  -9   73.23    6.01
  -1   4   9   68.84    4.25
  -1   4   9   61.75    7.40
   0  -4   9   12.33    2.90
   0  -4  -9    1.19    1.71
   0  -4   9    6.97    2.66
   0  -4  -9    3.64    2.22
   0  -4  -9    2.50    1.60
   0   4   9    3.63    1.90
   0   4  -9    3.90    1.93
   0   4  -9    0.80    2.00
   0   4   9    3.53    1.36
   1  -4   9   -0.25    2.28
   1  -4   9   -0.09    1.95
  -1  -4  -9   -1.53    1.77
   1   4   9    1.07    1.14
   1   4   9    0.34    1.89
  -1   4  -9    1.47    1.47
   5  -5  -9   47.28    3.97
  -5  -5   9   46.61    5.58
   5  -5  -9   44.23    5.41
  -5  -5   9   53.13    5.65
   5   5  -9   42.69    5.43
   5   5  -9   50.38    5.21
   5   5  -9   46.79    5.55
  -5   5   9   45.30    4.79
   4  -5  -9    5.39    3.21
   4  -5  -9   11.77    3.69
  -4  -5   9   12.09    3.58
  -4  -5   9   16.95    3.66
   4  -5  -9   15.21    2.83
   4   5  -9    8.69    2.64
   4   5  -9   11.93    2.99
  -4   5   9   10.86    4.70
   4   5  -9    8.12    2.55
  -3  -5   9   -0.22    1.74
  -3  -5   9   -1.56    1.31
   3  -5  -9    2.39    2.17
   3  -5  -9    3.15    1.33
   3  -5  -9   -2.11    1.11
   3   5  -9    1.41    2.05
  -3   5   9    0.94    1.38
  -3   5   9   -0.05    1.45
   3   5  -9    0.51    1.86
  -2  -5   9   41.92    4.83
   2  -5  -9   36.21    3.94
   2  -5  -9   24.45    3.99
  -2  -5   9   39.73    5.04
   2  -5  -9   39.37    3.16
   2   5  -9   23.15    3.87
  -2   5   9   37.29    3.85
  -2   5   9   26.87    2.94
   2   5  -9   26.96    4.26
  -1  -5   9   -0.88    1.86
  -1  -5   9   -2.12    1.64
   1  -5  -9    0.37    1.80
   1  -5  -9   -2.48    1.36
  -1  -5   9    0.53    1.57
  -1   5   9   -2.41    1.40
  -1   5   9    0.55    1.09
   1   5  -9   -1.54    1.69
   1   5  -9    4.06    2.11
   0  -5  -9    9.87    2.77
   0  -5  -9   15.54    3.38
   0  -5   9   17.01    3.48
   0  -5   9    7.77    2.75
   0  -5  -9   12.72    1.89
   0   5   9   13.47    2.82
   0   5  -9   11.78    2.63
   4  -6  -9  101.79    7.88
  -4  -6   9  129.74    8.65
   4  -6  -9  100.15    5.83
  -4  -6   9  102.78    7.47
   4   6  -9  112.48    7.93
  -4   6   9  108.35    6.29
   4   6  -9  108.87    8.19
   4   6  -9  118.79    7.83
   3  -6  -9   27.14    6.87
  -3  -6   9   13.87    3.19
   3  -6  -9   13.64    2.46
   3  -6  -9   27.55    2.85
  -3   6   9   24.33    2.88
   3   6  -9   19.84    3.81
   3   6  -9   21.93    3.94
  -3   6   9   21.56    2.69
  -2  -6   9   -3.24    1.46
   2  -6  -9    0.74    1.66
   2  -6  -9   -0.18    1.54
  -2  -6   9    0.62    1.50
   2   6  -9   -1.66    1.70
  -2   6   9    0.10    1.03
   2   6  -9   -0.82    1.67
  -2   6   9    0.34    2.98
  -1  -6   9   -1.25    1.46
   1  -6  -9   -1.53    0.74
   1  -6  -9   -0.04    1.56
   1  -6  -9   -0.14    1.74
  -1   6   9   -0.55    0.81
  -1   6   9   -0.95    1.75
   1   6  -9   -3.87    1.71
   0  -6   9    1.57    1.72
   0  -6  -9    1.41    2.14
   0  -6   9    1.19    2.15
   0  -6  -9    0.65    1.87
   0   6  -9   -0.15    1.73
   0   6   9   -1.91    1.63
  -3  -7   9    2.91    2.06
   3  -7  -9    0.22    1.75
   3  -7  -9    4.37    1.41
   3  -7  -9    0.98    1.68
  -3  -7   9    3.60    2.59
   3   7  -9   -1.16    3.42
   3   7  -9   -1.18    2.18
   3   7  -9    0.72    1.94
   2  -7  -9    7.52    1.27
  -2  -7   9   10.64    3.26
   2  -7  -9    6.70    2.22
   2  -7  -9    3.88    1.96
  -2   7   9    2.91    2.12
   2   7  -9    8.07    2.51
   2   7  -9    4.42    2.50
  -5   0  10    3.73    1.82
  -5   0  10    2.47    1.91
   5   0 -10    1.01    2.12
   5   0 -10    3.19    2.14
  -4   0  10   26.38    4.49
   4   0 -10   18.93    3.36
  -4   0  10   27.69    3.60
   4   0 -10   21.16    4.32
  -3   0  10   -1.96    0.96
  -3   0  10    0.40    1.67
   3   0 -10    2.31    1.93
   3   0 -10    1.23    1.89
  -2   0  10    5.70    2.28
   2   0 -10    3.16    2.10
  -2   0  10    3.10    2.02
   2   0 -10    4.25    2.45
   1   0 -10   17.00    3.62
  -1   0  10   20.58    3.72
  -1   0  10   12.59    2.91
   1   0 -10   11.65    3.12
   0   0  10  105.94    7.10
   0   0 -10  103.85    6.71
   5  -1 -10   17.45    3.48
  -5  -1  10   18.44    5.78
  -5  -1  10    6.05    2.70
   5  -1 -10    7.82    2.91
   5   1 -10   21.51    3.97
   5   1 -10   19.72    4.90
  -5   1  10   10.52    2.93
  -5   1  10    9.92    2.96
   5   1 -10    5.95    2.88
  -4  -1  10   87.10    6.69
   4  -1 -10   66.53    6.45
   4  -1 -10   75.44    7.72
  -4   1  10   80.66    6.16
  -4   1  10   79.46    5.55
   4   1 -10   73.03    6.05
   4   1 -10   80.28    6.69
  -3  -1  10   28.71    4.12
   3  -1 -10   34.11    4.33
  -3  -1  10   37.40    4.40
   3  -1 -10   27.69    4.56
   3   1 -10   26.69    4.33
   3   1 -10   34.45    4.72
  -3   1  10   26.60    5.93
  -3   1  10   39.82    4.51
  -2  -1  10    2.95    1.81
  -2  -1  10    4.96    2.55
   2  -1 -10    5.58    2.25
   2  -1 -10    1.71    2.18
   2  -1 -10    9.31    3.30
  -2   1  10    6.15    2.47
   2   1 -10    0.30    1.95
   2   1 -10    3.78    2.44
  -2   1  10    7.62    2.33
   1  -1 -10    5.69    2.24
  -1  -1  10    4.51    2.37
   1  -1 -10    3.15    2.21
  -1  -1  10    4.18    2.35
   1   1 -10    0.76    2.09
  -1   1  10    3.59    2.23
  -1   1  10    6.27    2.22
   1   1 -10    1.79    2.32
   0  -1  10   -0.79    1.61
   0  -1 -10   -2.73    1.71
   0  -1 -10   -3.26    2.08
   0  -1  10    0.59    1.68
   0   1  10   -0.48    1.92
   0   1 -10   -3.15    1.71
   0   1 -10    0.65    2.09
   0   1  10    2.56    2.18
   0   1 -10    3.84    1.97
  -4  -2  10   -0.39    1.68
  -4  -2  10   -1.11    1.51
   4  -2 -10   -0.11    1.49
   4   2 -10    0.58    2.09
  -4   2  10   -1.07    1.64
   4   2 -10    0.77    1.95
  -4   2  10    1.32    1.85
  -3  -2  10   -0.71    1.38
   3  -2 -10    2.08    2.03
   3  -2 -10    5.46    2.39
  -3  -2  10    4.19    2.15
   3   2 -10    4.25    2.46
  -3   2  10    4.54    1.80
  -3   2  10    1.41    1.50
   2  -2 -10    5.80    2.39
   2  -2 -10   11.60    3.17
  -2  -2  10    3.67    3.38
  -2  -2  10   15.89    3.72
   2  -2 -10   10.54    2.49
   2   2 -10    7.07    2.47
  -2   2  10   10.11    2.42
   1  -2 -10    5.91    2.55
  -1  -2  10    7.29    2.69
   1  -2 -10   10.18    2.79
  -1  -2  10    4.07    2.19
   1  -2 -10    5.70    2.50
   1   2 -10    3.88    2.76
   1   2 -10    4.10    2.22
  -1   2  10   10.13    2.68
  -1   2  10    8.27    2.24
   4  -3 -10    1.30    1.94
  -4  -3  10    1.95    3.39
   4  -3 -10    1.20    2.15
  -4  -3  10   -3.68    1.40
   4   3 -10    3.67    2.31
   4   3 -10   -1.60    1.86
  -4   3  10    1.02    2.09
  -4   3  10    0.07    2.72
  -3  -3  10    7.04    2.50
  -3  -3  10   18.39    3.89
   3  -3 -10   14.77    3.44
   3  -3 -10    8.12    2.66
   3  -3 -10   14.96    2.93
  -3   3  10    8.98    2.37
   3   3 -10   11.65    3.24
   3   3 -10    4.64    2.42
  -3   3  10   13.71    2.70
  -2  -3  10    5.08    2.35
   2  -3 -10    1.54    2.16
  -2  -3  10    2.56    2.01
   2  -3 -10   -2.23    1.66
   2  -3 -10    1.75    1.91
  -2   3  10    0.64    1.79
   2   3 -10    3.32    2.44
  -2   3  10    3.19    1.78
   2   3 -10    6.17    2.67
   1  -3 -10   -1.20    1.52
  -1  -3  10   -1.06    1.88
   1  -3 -10    4.05    1.78
   1  -3 -10   -0.53    1.94
  -1  -3  10   -1.65    1.68
   1   3 -10   -3.13    1.59
  -1   3  10   -0.49    1.45
   1   3 -10   -7.12    2.80
  -1   3  10   -2.80    1.04
  -4  -4  10   56.37    6.04
   4  -4 -10   60.59    6.11
   4  -4 -10   56.60    4.94
   4   4 -10   46.77    8.01
  -4   4  10   57.42    4.54
   4   4 -10   56.95    6.00
   4   4 -10   60.26    5.74
   3  -4 -10   12.83    2.90
   3  -4 -10   16.41    2.74
   3  -4 -10    6.20    3.54
  -3  -4  10    6.38    2.18
  -3  -4  10   19.64    5.58
  -3   4  10    9.65    2.83
   3   4 -10   13.27    2.99
   3   4 -10    4.72    2.49
   2  -4 -10   -0.44    1.27
  -2  -4  10    1.14    1.82
   2  -4 -10   -2.31    2.96
   2  -4 -10   -3.20    1.81
  -2   4  10    0.13    1.27
   2   4 -10   -4.17    1.66
  -2   4  10    2.09    1.84
   2   4 -10   -3.67    1.71
   1  -4 -10   26.06    4.42
   1  -4 -10   19.74    3.54
  -1  -4  10   17.25    3.46
   1   4 -10   22.44    4.64
   1   4 -10   24.62    4.00
   0   0   0    0.00    0.00


 _exptl_absorpt_process_details
)
 SADABS 2016/2: Krause, L., Herbst-Irmer, R., Sheldrick G.M. & Stalke D.,
 J. Appl. Cryst. 48 (2015) 3-10
)
 _exptl_absorpt_correction_type   multi-scan
 _exptl_absorpt_correction_T_max  0.9705
 _exptl_absorpt_correction_T_min  0.9282
 _exptl_special_details
)
 The following wavelength and cell were deduced by SADABS from the
 direction cosines etc. They are given here for emergency use only:
 CELL 0.71083    6.198   10.270    8.251   90.007  109.449   90.005
)

_computing_structure_solution     'SHELXT 2018/2 (Sheldrick, 2018)'
;
_shelx_hkl_checksum              27228
loop_
_space_group_symop_operation_xyz
'x, y, z'
'-x, y+1/2, -z+1/2'
'-x, -y, -z'
'x, -y-1/2, z-1/2'
loop_
_atom_site_label
_atom_site_type_symbol
_atom_site_fract_x
_atom_site_fract_y
_atom_site_fract_z
_atom_site_U_iso_or_equiv
_atom_site_adp_type
_atom_site_occupancy
_atom_site_site_symmetry_order
_atom_site_calc_flag
_atom_site_refinement_flags_posn
_atom_site_refinement_flags_adp
_atom_site_refinement_flags_occupancy
_atom_site_disorder_assembly
_atom_site_disorder_group
O1 O 0.59967(17) 0.61998(10) 0.40648(12) 0.0229(3) Uani 1 1 d . . . . .
O2 O 0.32301(18) 0.82824(11) 0.29957(12) 0.0262(3) Uani 1 1 d . . . . .
O3 O 0.27109(19) 0.93836(11) 0.50850(14) 0.0292(3) Uani 1 1 d . . . . .
N5 N 0.3651(2) 0.85445(11) 0.45042(15) 0.0208(3) Uani 1 1 d . . . . .
N4 N 0.5378(2) 0.78842(12) 0.57350(15) 0.0225(3) Uani 1 1 d . . . . .
N1 N 0.7724(2) 0.62692(12) 0.70373(15) 0.0229(3) Uani 1 1 d . . . . .
N2 N 0.8617(2) 0.51881(12) 0.68699(14) 0.0223(3) Uani 1 1 d . . . . .
N3 N 0.9484(2) 0.42398(13) 0.68713(18) 0.0307(3) Uani 1 1 d . . . . .
C1 C 0.6314(2) 0.67269(13) 0.54365(17) 0.0186(3) Uani 1 1 d . . . . .
H4 H 0.550(3) 0.8123(18) 0.681(2) 0.033(5) Uiso 1 1 d . . . . .
loop_
_atom_site_aniso_label
_atom_site_aniso_U_11
_atom_site_aniso_U_22
_atom_site_aniso_U_33
_atom_site_aniso_U_23
_atom_site_aniso_U_13
_atom_site_aniso_U_12
O1 0.0309(6) 0.0222(5) 0.0167(5) -0.0006(4) 0.0094(4) 0.0013(4)
O2 0.0316(6) 0.0306(6) 0.0151(5) 0.0006(4) 0.0062(4) 0.0043(4)
O3 0.0350(6) 0.0274(6) 0.0266(6) -0.0019(4) 0.0124(5) 0.0100(5)
N5 0.0237(6) 0.0201(6) 0.0199(6) 0.0020(5) 0.0091(5) 0.0003(5)
N4 0.0297(7) 0.0224(6) 0.0140(6) 0.0006(5) 0.0056(5) 0.0042(5)
N1 0.0276(6) 0.0199(6) 0.0186(6) 0.0000(5) 0.0044(5) 0.0025(5)
N2 0.0218(6) 0.0247(7) 0.0191(6) 0.0017(5) 0.0053(5) -0.0023(5)
N3 0.0291(7) 0.0256(7) 0.0367(8) 0.0030(6) 0.0104(6) 0.0036(6)
C1 0.0199(7) 0.0197(7) 0.0175(6) 0.0025(5) 0.0080(5) -0.0024(5)
loop_
_atom_type_symbol
_atom_type_description
_atom_type_scat_dispersion_real
_atom_type_scat_dispersion_imag
_atom_type_scat_source
C C 0.0033 0.0016 'International Tables Vol C Tables 4.2.6.8 and 6.1.1.4'
H H 0.0000 0.0000 'International Tables Vol C Tables 4.2.6.8 and 6.1.1.4'
N N 0.0061 0.0033 'International Tables Vol C Tables 4.2.6.8 and 6.1.1.4'
O O 0.0106 0.0060 'International Tables Vol C Tables 4.2.6.8 and 6.1.1.4'
loop_
_geom_angle_atom_site_label_1
_geom_angle_atom_site_label_2
_geom_angle_atom_site_label_3
_geom_angle
_geom_angle_site_symmetry_1
_geom_angle_site_symmetry_3
_geom_angle_publ_flag
O2 N5 O3 126.15(12) . . ?
O2 N5 N4 119.59(12) . . ?
O3 N5 N4 114.24(11) . . ?
C1 N4 N5 124.02(11) . . ?
C1 N4 H4 120.6(12) . . ?
N5 N4 H4 112.4(12) . . ?
N2 N1 C1 110.41(11) . . ?
N3 N2 N1 174.03(14) . . ?
O1 C1 N4 127.24(13) . . ?
O1 C1 N1 126.03(13) . . ?
N4 C1 N1 106.73(11) . . ?
loop_
_geom_bond_atom_site_label_1
_geom_bond_atom_site_label_2
_geom_bond_distance
_geom_bond_site_symmetry_2
_geom_bond_publ_flag
O1 C1 1.2105(17) . ?
O2 N5 1.2142(15) . ?
O3 N5 1.2243(15) . ?
N5 N4 1.3831(17) . ?
N4 C1 1.3801(18) . ?
N4 H4 0.895(19) . ?
N1 N2 1.2685(17) . ?
N1 C1 1.4003(17) . ?
N2 N3 1.1120(18) . ?
loop_
_geom_contact_atom_site_label_1
_geom_contact_atom_site_label_2
_geom_contact_distance
_geom_contact_site_symmetry_1
_geom_contact_site_symmetry_2
_geom_contact_publ_flag
? ? ? ? ? ?
loop_
_geom_hbond_atom_site_label_D
_geom_hbond_atom_site_label_H
_geom_hbond_atom_site_label_A
_geom_hbond_distance_DH
_geom_hbond_distance_HA
_geom_hbond_distance_DA
_geom_hbond_angle_DHA
_geom_hbond_site_symmetry_A
? ? ? ? ? ? ? ?
loop_
_geom_torsion_atom_site_label_1
_geom_torsion_atom_site_label_2
_geom_torsion_atom_site_label_3
_geom_torsion_atom_site_label_4
_geom_torsion
_geom_torsion_site_symmetry_1
_geom_torsion_site_symmetry_2
_geom_torsion_site_symmetry_3
_geom_torsion_site_symmetry_4
_geom_torsion_publ_flag
O2 N5 N4 C1 -16.6(2) . . . . ?
O3 N5 N4 C1 164.91(12) . . . . ?
N5 N4 C1 O1 9.4(2) . . . . ?
N5 N4 C1 N1 -170.77(12) . . . . ?
N2 N1 C1 O1 -1.4(2) . . . . ?
N2 N1 C1 N4 178.75(11) . . . . ?
