#------------------------------------------------------------------------------
#$Date: 2021-02-04 05:31:20 +0200 (Thu, 04 Feb 2021) $
#$Revision: 261502 $
#$URL: file:///home/coder/svn-repositories/cod/cif/4/13/55/4135513.cif $
#------------------------------------------------------------------------------
#
# This file is available in the Crystallography Open Database (COD),
# http://www.crystallography.net/
#
# All data on this site have been placed in the public domain by the
# contributors.
#
data_4135513
loop_
_publ_author_name
'Zhang, Han-Yue'
'Zhang, Zhi-Xu'
'Chen, Xiao-Gang'
'Song, Xian-Jiang'
'Zhang, Yi'
'Xiong, Ren-Gen'
_publ_section_title
;
 Large Electrostrictive Coefficient in a Two-Dimensional Hybrid Perovskite
 Ferroelectric.
;
_journal_issue                   3
_journal_name_full               'Journal of the American Chemical Society'
_journal_page_first              1664
_journal_page_last               1672
_journal_paper_doi               10.1021/jacs.0c12907
_journal_volume                  143
_journal_year                    2021
_chemical_formula_moiety         'Br4 Pb, C5 H16 N P '
_chemical_formula_sum            'C5 H16 Br4 N P Pb'
_chemical_formula_weight         647.96
_space_group_crystal_system      monoclinic
_space_group_IT_number           4
_space_group_name_Hall           'P 2yb'
_space_group_name_H-M_alt        'P 1 21 1'
_atom_sites_solution_hydrogens   geom
_audit_creation_method           SHELXL-2014/7
_cell_angle_alpha                90
_cell_angle_beta                 90.145(4)
_cell_angle_gamma                90
_cell_formula_units_Z            2
_cell_length_a                   6.0177(3)
_cell_length_b                   12.0789(5)
_cell_length_c                   9.9796(4)
_cell_measurement_reflns_used    4860
_cell_measurement_temperature    293(2)
_cell_measurement_theta_max      31.5720
_cell_measurement_theta_min      2.0300
_cell_volume                     725.39(6)
_computing_structure_refinement  'SHELXL-2014/7 (Sheldrick, 2014)'
_diffrn_ambient_temperature      293(2)
_diffrn_measured_fraction_theta_full 0.990
_diffrn_measured_fraction_theta_max 0.990
_diffrn_measurement_device_type  'XtaLAB Synergy R, HyPix'
_diffrn_radiation_type           MoK\a
_diffrn_radiation_wavelength     0.71073
_diffrn_reflns_av_R_equivalents  0.0569
_diffrn_reflns_av_unetI/netI     0.0522
_diffrn_reflns_Laue_measured_fraction_full 0.990
_diffrn_reflns_Laue_measured_fraction_max 0.990
_diffrn_reflns_limit_h_max       7
_diffrn_reflns_limit_h_min       -7
_diffrn_reflns_limit_k_max       14
_diffrn_reflns_limit_k_min       -14
_diffrn_reflns_limit_l_max       10
_diffrn_reflns_limit_l_min       -11
_diffrn_reflns_number            4964
_diffrn_reflns_point_group_measured_fraction_full 0.922
_diffrn_reflns_point_group_measured_fraction_max 0.922
_diffrn_reflns_theta_full        24.999
_diffrn_reflns_theta_max         24.999
_diffrn_reflns_theta_min         2.041
_diffrn_source                   'micro-focus sealed X-ray tube'
_exptl_absorpt_coefficient_mu    22.718
_exptl_absorpt_correction_T_max  0.003
_exptl_absorpt_correction_T_min  0.002
_exptl_absorpt_correction_type   multi-scan
_exptl_absorpt_process_details
;
CrysAlisPro 1.171.40.39a (Rigaku Oxford Diffraction, 2019)
Empirical absorption correction using spherical harmonics,
 implemented in SCALE3 ABSPACK scaling algorithm.
;
_exptl_crystal_colour            yellow
_exptl_crystal_density_diffrn    2.967
_exptl_crystal_description       sheet
_exptl_crystal_F_000             580
_exptl_crystal_size_max          0.3
_exptl_crystal_size_mid          0.28
_exptl_crystal_size_min          0.26
_refine_diff_density_max         3.918
_refine_diff_density_min         -2.336
_refine_diff_density_rms         0.429
_refine_ls_abs_structure_details
;
 Flack x determined using 888 quotients [(I+)-(I-)]/[(I+)+(I-)]
 (Parsons, Flack and Wagner, Acta Cryst. B69 (2013) 249-259).
;
_refine_ls_abs_structure_Flack   0.03(2)
_refine_ls_extinction_coef       0.0350(5)
_refine_ls_extinction_expression Fc^*^=kFc[1+0.001xFc^2^\l^3^/sin(2\q)]^-1/4^
_refine_ls_extinction_method     'SHELXL-2014/7 (Sheldrick 2014'
_refine_ls_goodness_of_fit_ref   1.074
_refine_ls_hydrogen_treatment    constr
_refine_ls_matrix_type           full
_refine_ls_number_parameters     86
_refine_ls_number_reflns         2341
_refine_ls_number_restraints     74
_refine_ls_restrained_S_all      1.060
_refine_ls_R_factor_all          0.0694
_refine_ls_R_factor_gt           0.0679
_refine_ls_shift/su_max          0.001
_refine_ls_shift/su_mean         0.000
_refine_ls_structure_factor_coef Fsqd
_refine_ls_weighting_details
'w=1/[\s^2^(Fo^2^)+(0.0905P)^2^+39.1359P] where P=(Fo^2^+2Fc^2^)/3'
_refine_ls_weighting_scheme      calc
_refine_ls_wR_factor_gt          0.1764
_refine_ls_wR_factor_ref         0.1774
_reflns_Friedel_coverage         0.771
_reflns_Friedel_fraction_full    0.847
_reflns_Friedel_fraction_max     0.847
_reflns_number_gt                2265
_reflns_number_total             2341
_reflns_threshold_expression     'I > 2\s(I)'
_cod_data_source_file            ja0c12907_si_003.cif
_cod_data_source_block           P21
_cod_depositor_comments
'Adding full bibliography for 4135512--4135514.cif.'
_cod_original_sg_symbol_H-M      'P 21'
_cod_original_formula_sum        'C5 H16 Br4 N P Pb '
_cod_database_code               4135513
_shelx_shelxl_version_number     2014/7
_shelx_space_group_comment
;
The symmetry employed for this shelxl refinement is uniquely defined
by the following loop, which should always be used as a source of
symmetry information in preference to the above space-group names.
They are only intended as comments.
;
_shelx_res_file
;

    P21.res created by SHELXL-2014/7

TITL P21 in P2(1)
CELL 0.71073   6.0177  12.0789   9.9796  90.000  90.145  90.000
ZERR    2.00   0.0003   0.0005   0.0004   0.000   0.004   0.000
LATT -1
SYMM -X, 0.5+Y, -Z
SFAC C  H  N  P  Br Pb
UNIT 10 32 2 2 8 2
OMIT   0.00  50.00
L.S. 300
ACTA
BOND
FMAP 2
PLAN 20
eadp  C2 C1
eadp  C3 C1
eadp  C5 C1
eadp  C4 C1
isor 0.02
DFIX 1.48 0.02 C5 N1
WGHT    0.090500   39.135899
EXTI    0.035043
FVAR       0.38297
PB1   6    0.496381    0.372166    0.510885    11.00000    0.02112    0.01817 =
         0.02533    0.00177    0.00139    0.00102
BR1   5    0.497423    0.438901    0.222953    11.00000    0.04453    0.03943 =
         0.02652    0.00552   -0.00313    0.00031
BR2   5    0.492829    0.625615    0.544227    11.00000    0.06713    0.01794 =
         0.04428   -0.00182    0.00100   -0.01225
BR3   5    0.472735    0.339341    0.803797    11.00000    0.08838    0.04825 =
         0.03244    0.00724   -0.00216    0.01060
BR4   5   -0.001724    0.354921    0.492052    11.00000    0.02097    0.05282 =
         0.05684    0.00882   -0.00085   -0.00157
P1    4    0.091845    0.643364   -0.072812    11.00000    0.05437    0.04623 =
         0.05466    0.00154   -0.00785   -0.00164
C5    1    0.046181    0.660157    0.198473    11.00000    0.03187    0.04214 =
         0.05046    0.00468   -0.00385    0.00952
AFIX  23
H5A   2   -0.068943    0.715645    0.187439    11.00000   -1.20000
H5B   2    0.187963    0.698312    0.201065    11.00000   -1.20000
AFIX   0
N1    3    0.012722    0.603879    0.326615    11.00000    0.11195    0.04029 =
         0.05994    0.00134   -0.00454    0.02711
AFIX  33
H1A   2    0.016778    0.653268    0.392757    11.00000   -1.50000
H1B   2   -0.118725    0.570107    0.326206    11.00000   -1.50000
H1F   2    0.119752    0.554017    0.338855    11.00000   -1.50000
AFIX   0
C3    1    0.422179    0.650034   -0.103704    11.00000    0.03187    0.04214 =
         0.05046    0.00468   -0.00385    0.00952
AFIX  33
H3A   2    0.491338    0.690903   -0.032411    11.00000   -1.50000
H3B   2    0.481470    0.576273   -0.105851    11.00000   -1.50000
H3C   2    0.451186    0.686105   -0.187575    11.00000   -1.50000
AFIX   0
C1    1    0.012109    0.789932   -0.086736    11.00000    0.03187    0.04214 =
         0.05046    0.00468   -0.00385    0.00952
AFIX  33
H1C   2    0.057727    0.828717   -0.007336    11.00000   -1.50000
H1D   2    0.083200    0.822120   -0.163428    11.00000   -1.50000
H1E   2   -0.146215    0.795454   -0.096712    11.00000   -1.50000
AFIX   0
C4    1    0.042751    0.587919    0.084065    11.00000    0.03187    0.04214 =
         0.05046    0.00468   -0.00385    0.00952
AFIX  23
H4A   2   -0.101592    0.552232    0.081416    11.00000   -1.20000
H4B   2    0.152213    0.530303    0.099322    11.00000   -1.20000
AFIX   0
C2    1    0.018303    0.570291   -0.206960    11.00000    0.03187    0.04214 =
         0.05046    0.00468   -0.00385    0.00952
AFIX  33
H2A   2    0.055177    0.610901   -0.286549    11.00000   -1.50000
H2B   2    0.096156    0.500921   -0.206824    11.00000   -1.50000
H2C   2   -0.138888    0.556859   -0.204967    11.00000   -1.50000
AFIX   0
HKLF 4

REM  P21 in P2(1)
REM R1 =  0.0679 for    2265 Fo > 4sig(Fo)  and  0.0694 for all    2341 data
REM     86 parameters refined using     74 restraints

END

WGHT      0.0899     39.4224

REM Highest difference peak  3.918,  deepest hole -2.336,  1-sigma level  0.429
Q1    1   0.4046  0.3719  0.4385  11.00000  0.05    3.92
Q2    1  -0.1055  0.6312 -0.0767  11.00000  0.05    3.90
Q3    1   0.6086  0.3256  0.7987  11.00000  0.05    3.11
Q4    1   0.5967  0.4234  0.7961  11.00000  0.05    2.96
Q5    1   0.4129  0.3700  0.5865  11.00000  0.05    2.28
Q6    1   0.6173  0.3752  0.5361  11.00000  0.05    2.20
Q7    1   0.6095  0.3736  0.4634  11.00000  0.05    2.20
Q8    1   0.5863  0.6219 -0.0689  11.00000  0.05    2.14
Q9    1   0.5141  0.4351  0.5062  11.00000  0.05    1.95
Q10   1   0.4020  0.6237  0.4582  11.00000  0.05    1.95
Q11   1   0.6151  0.6270  0.5531  11.00000  0.05    1.93
Q12   1   0.4519  0.6331  0.1213  11.00000  0.05    1.91
Q13   1   0.4251  0.3402  0.1691  11.00000  0.05    1.87
Q14   1  -0.0493  0.4196  0.5233  11.00000  0.05    1.68
Q15   1   0.4601  0.3118  0.5350  11.00000  0.05    1.60
Q16   1   0.4968  0.3129  0.5066  11.00000  0.05    1.56
Q17   1   0.4092  0.4209  0.1745  11.00000  0.05    1.50
Q18   1   0.0853  0.3264  0.4190  11.00000  0.05    1.49
Q19   1   0.0396  0.6301  0.4799  11.00000  0.05    1.46
Q20   1   0.0931  0.6031  0.0601  11.00000  0.05    1.45
;
_shelx_res_checksum              73052
_shelx_hkl_file
;
   0 -17   0   15.02   27.14
   0 -17  -1   25.37   29.05
   0 -17   1   -0.43   24.56
   0 -16   0  513.93   36.80
   0 -16  -1  655.41   42.48
   0 -16   1  700.65   39.84
   0 -16  -2  462.19   41.26
   0 -16   2  462.92   32.12
   0 -16  -3  419.21   42.20
   0 -15   0    5.07   19.59
   0 -15   1   18.06   18.10
   0 -15  -1   21.16   21.42
   0 -15   2   38.60   18.80
   0 -15  -2   36.15   24.45
   0 -15  -3  202.26   32.10
   0 -15   3  199.98   22.41
   0 -15  -4   72.00   29.05
   0 -14   0  482.12   30.03
   0 -14  -1  219.99   24.69
   0 -14   1  195.47   20.62
   0 -14   2  264.78   22.21
   0 -14  -2  273.21   29.31
   0 -14  -3  359.79   34.01
   0 -14   3  335.97   23.07
   0 -14  -4  398.93   37.01
   0 -14  -5  351.42   38.49
   0 -14  -6  191.02   36.30
   0 -13   0    8.84   15.12
   0 -13  -1  131.49   20.31
   0 -13   1  117.45   16.44
   0 -13   2   93.70   14.88
   0 -13  -2   86.37   18.86
   0 -13   3   49.49   12.84
   0 -13  -3   50.73   20.00
   0 -13  -4  103.17   23.86
   0 -13  -5  132.42   26.50
   0 -13  -6  180.93   31.52
   0 -12   0 1329.63   44.60
   0 -12  -1 1448.66   49.06
   0 -12   1 1406.44   43.94
   0 -12  -2 1289.06   48.16
   0 -12   2 1293.38   38.99
   0 -12   3  913.22   30.71
   0 -12  -3  853.53   41.14
   0 -12  -4  859.29   43.38
   0 -12   4  898.60   28.99
   0 -12  -5  697.16   41.47
   0 -12  -7  249.82   33.92
   0 -12  -8  265.11   36.00
   0 -11   0    1.14   10.10
   0 -11  -1    1.30   10.93
   0 -11   1    2.99    9.44
   0 -11  -2   28.42   13.65
   0 -11   2   26.07    9.17
   0 -11   3  342.10   17.11
   0 -11  -3  367.45   25.99
   0 -11  -4   52.24   17.28
   0 -11   4   42.86    9.24
   0 -11  -7  195.39   28.63
   0 -11  -8  114.64   27.88
   0 -11  -9  136.48   30.85
   0 -10   0 1136.93   36.07
   0 -10  -1  637.76   27.62
   0 -10   1  607.18   23.98
   0 -10  -2  875.14   34.70
   0 -10   2  820.25   26.78
   0 -10  -3  854.12   36.18
   0 -10   3  793.40   24.77
   0 -10   4  686.96   21.51
   0 -10  -6  586.04   35.69
   0 -10  -7  529.06   36.28
   0 -10  -8  502.01   38.38
   0 -10  -9  453.59   38.08
   0 -10 -10  236.35   35.03
   0  -9   0    3.09    7.44
   0  -9  -1   22.09    9.02
   0  -9   1   15.34    6.73
   0  -9   2  126.34    9.77
   0  -9  -2  133.74   14.17
   0  -9   3  143.19    9.42
   0  -9  -3  152.91   16.41
   0  -9   4  242.47   11.21
   0  -9  -5  382.86   26.63
   0  -9  -6  156.61   20.68
   0  -9  -7   56.07   18.06
   0  -9  -8  167.77   24.31
   0  -9  -9  257.58   29.82
   0  -9 -10   15.75   22.70
   0  -9 -11  121.55   28.26
   0  -8   0 2103.08   54.80
   0  -8   0 2280.00   52.95
   0  -8  -1 3002.69   67.77
   0  -8   1 2914.71   62.37
   0  -8   2 3793.89   76.77
   0  -8  -2 3796.02   86.41
   0  -8   3 1730.32   38.38
   0  -8  -5 1815.95   57.43
   0  -8  -6 1041.54   42.75
   0  -8  -7  301.04   25.35
   0  -8  -8  257.19   26.16
   0  -8  -9  395.68   31.93
   0  -8 -10  116.71   24.25
   0  -8 -11   35.98   23.65
   0  -7   0    3.47    6.24
   0  -7   0    3.09    5.24
   0  -7  -1  722.82   25.74
   0  -7   1  715.09   21.43
   0  -7  -1  762.31   25.46
   0  -7   2   67.70    6.06
   0  -7   2   67.90    8.39
   0  -7  -2   73.74    9.10
   0  -7   3   69.10    5.55
   0  -7  -4  449.77   23.78
   0  -7  -5  519.79   26.87
   0  -7  -6   20.91   11.88
   0  -7  -7  190.83   20.24
   0  -7  -8  455.01   29.82
   0  -7  -9   90.34   19.65
   0  -7 -10   83.69   20.92
   0  -7 -11   77.25   23.09
   0  -7 -12  173.02   28.67
   0  -6   0  912.70   25.25
   0  -6   0  878.15   26.71
   0  -6   1 1720.30   37.94
   0  -6  -1 1637.51   42.18
   0  -6  -1 1745.24   42.46
   0  -6   2 1735.46   36.27
   0  -6   2 1719.87   41.27
   0  -6  -2 1607.97   42.30
   0  -6  -3 1654.00   45.20
   0  -6  -3 1549.33   40.89
   0  -6   3 1640.04   38.82
   0  -6   3 1611.78   33.65
   0  -6  -4 1018.67   35.09
   0  -6  -5 1117.88   38.79
   0  -6  -6 1804.56   54.84
   0  -6  -7  517.32   28.18
   0  -6  -8  678.58   33.92
   0  -6  -9  914.29   41.30
   0  -6  10  519.97   15.81
   0  -6 -10  471.08   31.75
   0  -6 -11  139.30   23.63
   0  -6 -12  167.37   27.05
   0  -6 -13  229.68   31.06
   0  -5   0   -0.18    3.37
   0  -5   0    3.58    4.24
   0  -5  -1  842.47   24.71
   0  -5   1  823.87   20.67
   0  -5   2  279.29    8.97
   0  -5  -2  283.19   13.05
   0  -5   3 1467.93   34.43
   0  -5   3 1495.17   29.33
   0  -5  -3 1425.72   39.51
   0  -5  -3 1383.15   36.04
   0  -5  -4  710.59   26.51
   0  -5  -5  234.53   16.31
   0  -5  -6  736.10   30.90
   0  -5  -6  815.68   20.21
   0  -5  -7  170.47    8.69
   0  -5  -7  162.36   16.33
   0  -5  -8  218.34   10.92
   0  -5  -8  222.80   20.01
   0  -5  -9  157.34   18.84
   0  -5  -9  141.52    9.68
   0  -5 -10  120.91   18.75
   0  -5 -10  108.00    9.64
   0  -5 -11  246.30   24.93
   0  -5 -12   75.57   21.39
   0  -5 -13   55.84   23.51
   0  -4   0 5920.02  112.73
   0  -4  -1 3443.57   74.55
   0  -4   1 3956.32   71.05
   0  -4   2 4187.20   73.43
   0  -4  -2 3949.77   81.71
   0  -4  -3 3902.82   81.40
   0  -4   3 4061.71   75.35
   0  -4  -4 2377.88   58.61
   0  -4  -4 2557.15   48.94
   0  -4  -5 1662.46   45.89
   0  -4  -5 1684.38   35.54
   0  -4  -6 1531.08   34.85
   0  -4  -6 1579.79   45.59
   0  -4  -7 1147.19   29.83
   0  -4  -7 1207.14   40.04
   0  -4  -8  135.11   10.48
   0  -4  -8  135.59   15.24
   0  -4  -9  411.85   18.26
   0  -4  -9  420.28   25.03
   0  -4 -10  316.99   23.45
   0  -4 -10  339.57   17.65
   0  -4 -11   61.28   16.94
   0  -4 -11   57.14   11.17
   0  -4 -12   70.75   19.37
   0  -4 -13   95.82   22.47
   0  -3   0    1.48    2.21
   0  -3   1 1125.98   22.74
   0  -3  -1 1094.11   25.90
   0  -3  -2  102.36    6.07
   0  -3  -3  214.31    8.79
   0  -3  -3  229.78    7.05
   0  -3   3  216.53    8.03
   0  -3  -4  945.97   21.91
   0  -3  -4  934.84   28.14
   0  -3  -5  729.10   25.13
   0  -3  -5  708.63   20.24
   0  -3  -6  117.74    9.32
   0  -3  -6  121.56   11.61
   0  -3  -7  361.17   19.53
   0  -3  -7  358.59   17.11
   0  -3  -8  452.05   23.25
   0  -3  -8  517.88   22.29
   0  -3  -9   21.15   10.49
   0  -3  -9   23.55   11.23
   0  -3 -10  245.78   20.29
   0  -3 -10  266.21   18.62
   0  -3 -11  125.83   18.00
   0  -3 -11  130.22   16.14
   0  -3 -12   39.92   17.65
   0  -3 -13  100.59   20.06
   0  -2   0 2186.80   42.54
   0  -2  -1 1976.13   39.03
   0  -2  -2  952.04   19.01
   0  -2  -2  924.92   20.79
   0  -2  -3 3111.55   59.93
   0  -2  -4 2542.53   54.41
   0  -2  -5  453.16   18.37
   0  -2  -5  469.22   18.48
   0  -2  -6 1975.02   49.77
   0  -2  -6 1858.47   50.35
   0  -2  -7 1984.26   49.23
   0  -2  -7 1942.71   51.96
   0  -2  -8 1114.46   39.26
   0  -2  -8 1185.15   36.45
   0  -2  -9  679.69   31.00
   0  -2  -9  538.98   24.96
   0  -2 -10 1055.01   39.92
   0  -2 -10  828.67   33.46
   0  -2 -11  529.93   29.83
   0  -2 -11  439.06   26.11
   0  -2 -12   85.60   18.46
   0  -2 -12   78.52   17.28
   0  -1  -1   59.13    2.54
   0  -1  -2   32.49    3.48
   0  -1  -2   26.55    2.58
   0  -1  -2   29.39    1.86
   0  -1  -3 1012.07   23.96
   0  -1  -3  894.40   23.67
   0  -1  -4  470.44   15.61
   0  -1  -4  414.14   15.97
   0  -1  -5  288.14   13.02
   0  -1  -5  318.84   13.92
   0  -1  -5  332.65   16.10
   0  -1  -6  428.43   17.51
   0  -1  -6  426.44   20.57
   0  -1  -6  383.01   16.69
   0  -1  -7  746.65   29.67
   0  -1  -7  703.78   24.70
   0  -1  -8   29.90   11.78
   0  -1  -8   31.49    8.44
   0  -1  -8   37.92    9.41
   0  -1  -9   18.64    8.67
   0  -1  -9   23.47   12.97
   0  -1  -9   20.98   10.04
   0  -1 -10  475.97   30.91
   0  -1 -10  370.48   21.17
   0  -1 -11  203.80   18.09
   0  -1 -11  298.45   27.62
   0  -1 -12    5.99   13.32
   0  -1 -12    9.83   17.73
   0   0  -1 2153.78   40.03
   0   0  -2 1817.03   36.11
   0   0  -3 4895.26   91.85
   0   0  -4 4003.44   84.13
   0   0  -4 4829.26   88.34
   0   0  -5  974.83   25.52
   0   0  -5  965.13   26.56
   0   0  -6 1125.43   30.57
   0   0  -6 1197.34   32.59
   0   0  -7 3016.42   68.27
   0   0  -7 3104.75   70.26
   0   0  -8  125.28   11.44
   0   0  -8  131.63   10.80
   0   0  -9   77.61   10.22
   0   0  -9   90.88   12.05
   0   0  -9   99.61   17.50
   0   0 -10  567.68   24.77
   0   0 -10  684.61   36.95
   0   0 -11  192.21   25.00
   0   0 -11  149.06   15.21
   0   0 -12   30.10   21.52
   0   0 -12   21.80   12.84
   0   0 -13   40.85   23.38
   0   1  -1   48.17    2.20
   0   1  -2   28.10    1.89
   0   1   2   29.67    3.09
   0   1  -3 1146.19   22.63
   0   1   3 1128.41   26.93
   0   1   3 1141.00   22.06
   0   1  -4  372.17   11.04
   0   1  -5  362.56   11.94
   0   1  -6  462.05   17.56
   0   1  -6  467.58   15.23
   0   1  -7  627.55   19.98
   0   1  -7  641.01   22.98
   0   1  -8   72.24   14.64
   0   1  -8   49.94    7.64
   0   1  -8   48.75    8.91
   0   1  -9   33.29   10.14
   0   1  -9   40.25    8.42
   0   1  -9   43.33   16.55
   0   1 -10  629.43   36.44
   0   1 -10  460.11   20.61
   0   1 -11  250.14   28.35
   0   1 -11  186.08   15.17
   0   1 -12   -0.51   21.30
   0   1 -13  130.08   28.68
   0   2   0 2320.00   44.56
   0   2  -1 2196.30   42.56
   0   2  -2  730.85   16.98
   0   2   2  725.80   15.27
   0   2   3 3728.90   71.18
   0   2   3 3668.50   75.99
   0   2  -4 3242.08   60.79
   0   2  -4 3196.19   58.08
   0   2   4 3072.55   59.16
   0   2  -5  434.15   11.72
   0   2  -5  422.52   13.26
   0   2  -6 2164.87   43.90
   0   2  -7 1802.78   47.83
   0   2  -7 1918.20   42.03
   0   2  -8 1099.07   28.57
   0   2  -8  990.60   32.25
   0   2  -9  506.55   18.56
   0   2  -9  516.51   23.04
   0   2 -10  948.82   29.27
   0   2 -10 1430.83   55.93
   0   2 -11  688.82   41.12
   0   2 -11  500.77   21.10
   0   2 -12  107.70   26.31
   0   2 -13  310.52   37.67
   0   2 -14  108.51   31.35
   0   3   0    0.06    1.96
   0   3  -1 1161.13   26.21
   0   3   2  120.18    4.42
   0   3  -2  126.02    6.41
   0   3  -3  181.55    8.00
   0   3   3  181.38    7.46
   0   3   3  205.23    6.15
   0   3  -4  883.07   22.39
   0   3   4  857.13   20.77
   0   3  -5  681.70   19.38
   0   3   5  698.84   17.63
   0   3  -6  155.74    9.41
   0   3  -6  169.04    6.11
   0   3   6  180.88    8.07
   0   3  -7  381.20   11.46
   0   3  -8  613.01   31.09
   0   3  -8  438.80   14.07
   0   3  -9   39.46    9.76
   0   3  -9   36.64    6.57
   0   3 -10  374.35   31.02
   0   3 -10  251.93   11.61
   0   3 -11  205.79   29.21
   0   3 -12   54.67   24.75
   0   3 -13  198.81   32.71
   0   3 -14  171.82   35.83
   0   4   0 6139.95  115.58
   0   4  -1 3794.96   74.77
   0   4   2 4378.94   80.11
   0   4  -2 4161.10   84.01
   0   4   3 3732.10   69.49
   0   4   3 3747.29   73.85
   0   4   4 2607.98   53.47
   0   4   4 2446.85   59.75
   0   4   5 1657.13   36.61
   0   4  -5 1758.75   39.89
   0   4   6 1599.95   35.94
   0   4  -6 1621.11   39.76
   0   4   7 1504.16   32.90
   0   4  -7 1249.83   35.46
   0   4  -8  310.48   23.29
   0   4  -9  557.92   33.52
   0   4 -10  487.25   35.43
   0   4 -11  144.12   27.37
   0   4 -12  111.34   28.57
   0   4 -13  168.44   33.78
   0   5   0   -0.53    3.60
   0   5  -1  888.58   24.96
   0   5  -2  352.72   14.44
   0   5   3 1481.20   30.70
   0   5   3 1530.54   35.66
   0   5   4  692.03   14.82
   0   5   4  658.07   19.85
   0   5  -4  683.95   21.89
   0   5   5  315.67   12.59
   0   5  -5  336.38   14.74
   0   5  -6  928.62   28.12
   0   5   6  907.09   24.41
   0   5   7  205.32   10.63
   0   5  -7  181.12   12.99
   0   5  -8  303.52   23.21
   0   5   9  192.49   18.94
   0   5  -9  298.59   26.84
   0   5 -10  302.24   30.82
   0   5 -11  341.04   33.40
   0   5 -12  151.17   31.01
   0   5 -13   96.76   31.23
   0   6   0  628.45   21.34
   0   6  -1 1831.55   44.66
   0   6  -2 1669.57   41.19
   0   6  -3 1596.58   39.80
   0   6   3 1539.06   32.89
   0   6   3 1482.45   37.16
   0   6   4  959.23   19.86
   0   6  -4  954.28   28.84
   0   6   4  932.55   26.22
   0   6  -5 1264.53   34.68
   0   6   5 1172.37   30.95
   0   6  -6 1922.55   47.03
   0   6   6 1818.57   42.32
   0   6   7  502.90   18.00
   0   6  -7  518.87   22.30
   0   6  -8  755.53   28.53
   0   6   8  843.84   24.33
   0   6   9  799.80   35.50
   0   6  -9 1257.27   48.82
   0   6 -10  732.28   41.48
   0   6  10  465.07   30.23
   0   6 -11  270.93   31.42
   0   6 -12  271.31   37.05
   0   7   0    1.62    5.43
   0   7  -1  722.79   24.23
   0   7  -2   85.79    9.33
   0   7   3   64.33    6.28
   0   7  -3   64.08    8.94
   0   7   3   62.27    7.99
   0   7  -4  380.28   18.30
   0   7   4  374.59    9.95
   0   7   4  349.57   15.88
   0   7  -5  496.45   21.10
   0   7   5  473.67   18.27
   0   7   6   26.95    6.51
   0   7  -6   24.42    8.12
   0   7  -7  171.56   14.67
   0   7   7  175.03   11.62
   0   7   8  452.07   18.40
   0   7  -8  435.59   23.06
   0   7   9  122.18   17.89
   0   7  -9  175.31   22.78
   0   7  10   64.72   16.47
   0   7 -10   79.56   23.51
   0   7 -11  102.38   28.03
   0   7  11   78.96   20.65
   0   7 -12  248.37   35.69
   0   8   0 2148.02   53.15
   0   8  -1 2745.62   64.36
   0   8  -2 3925.30   86.19
   0   8   3 1587.05   41.88
   0   8   3 1627.68   37.41
   0   8  -3 1608.83   44.33
   0   8  -4 1045.00   33.63
   0   8   4  975.91   30.22
   0   8   4  960.81   21.57
   0   8   5 1812.43   45.64
   0   8  -5 1960.39   50.68
   0   8   6  875.66   26.70
   0   8  -6  895.08   31.25
   0   8   7  247.20   14.27
   0   8  -7  253.29   18.14
   0   8   8  205.38   13.62
   0   8  -8  199.87   17.63
   0   8   9  356.28   26.84
   0   8  -9  542.40   34.01
   0   8 -10  125.21   25.85
   0   8  10   78.16   18.03
   0   8  11    9.82   17.02
   0   8 -11   19.52   24.14
   0   9   0   -1.57    7.64
   0   9  -1   18.02    8.63
   0   9  -2  122.99   12.93
   0   9  -3  215.76   16.05
   0   9   3  194.96   14.18
   0   9   3  189.36   10.82
   0   9   4  214.89    8.91
   0   9   4  221.99   14.69
   0   9  -4  229.26   16.93
   0   9   5  393.07   18.52
   0   9  -5  437.50   21.84
   0   9  -6  181.29   15.82
   0   9   6  174.74   12.41
   0   9  -7   61.97   13.18
   0   9   7   54.98    9.88
   0   9   8  198.75   14.50
   0   9  -8  189.16   18.78
   0   9   9  199.39   22.56
   0   9   9  236.37   15.66
   0   9  -9  217.10   20.72
   0   9  10   24.81   16.81
   0   9 -10   31.00   23.48
   0  10   0  803.53   30.87
   0  10  -1  601.35   26.32
   0  10  -2  879.72   32.83
   0  10   2  794.70   30.31
   0  10  -3  673.10   28.94
   0  10   3  648.65   26.24
   0  10   3  576.14   20.00
   0  10   4  554.29   15.77
   0  10   4  511.63   22.74
   0  10  -4  547.35   26.11
   0  10  -5  895.42   33.24
   0  10   5  810.38   28.58
   0  10   6  563.54   23.53
   0  10  -6  566.55   27.64
   0  10   7  379.30   19.71
   0  10  -7  428.82   25.19
   0  10   8  526.73   23.26
   0  10  -8  554.26   29.31
   0  10   9  384.22   19.83
   0  10  -9  384.06   26.18
   0  10  10  155.11   22.71
   0  10 -10  231.23   30.07
   0  11   0    0.26   10.16
   0  11  -1    5.04   11.31
   0  11  -2   30.66   12.22
   0  11   2   30.89   11.89
   0  11  -3  303.44   21.12
   0  11   3  285.57   18.96
   0  11   3  261.88   13.66
   0  11  -4   33.20   12.27
   0  11   4   25.68   10.86
   0  11   4   26.10    6.22
   0  11  -5  119.51   15.99
   0  11   5  117.27   13.04
   0  11  -6  173.88   18.75
   0  11   6  172.18   15.60
   0  11   7  124.96   14.54
   0  11  -7  130.86   18.70
   0  11   8   89.40   13.72
   0  11  -8  101.40   17.70
   0  11   9   75.08   18.57
   0  11   9   96.94   14.08
   0  11  -9  133.41   25.22
   0  11  -9   98.54   18.90
   0  12   0 1147.12   41.10
   0  12  -1 1218.22   43.04
   0  12  -2 1249.84   43.64
   0  12   2 1191.21   41.24
   0  12   3  654.75   28.61
   0  12   3  626.37   21.62
   0  12  -4  653.55   31.11
   0  12   4  603.25   27.53
   0  12   4  636.02   17.47
   0  12   5  587.58   26.96
   0  12  -5  624.37   31.17
   0  12  -6  241.46   22.57
   0  12   6  226.99   18.23
   0  12  -7  197.09   22.27
   0  12   7  189.81   17.10
   0  12   8  182.06   17.22
   0  12  -8  196.34   22.74
   0  12  -8  213.68   26.71
   0  12   9   80.14   14.60
   0  13   0    5.17   12.85
   0  13  -1   98.76   16.65
   0  13  -2   69.27   15.87
   0  13   2   64.85   14.69
   0  13   3   53.39    9.66
   0  13   3   53.35   13.85
   0  13  -3   53.63   15.68
   0  13   4   57.55   14.38
   0  13   4   61.19    7.11
   0  13   4   67.33    7.79
   0  13  -4   62.35   16.68
   0  13  -5  124.41   19.73
   0  13   5  122.97   16.70
   0  13  -6  156.90   21.11
   0  13   6  145.88   17.84
   0  13  -7   42.86   18.49
   0  13  -7   60.59   21.77
   0  13   7   50.01   14.38
   0  13   8   79.02   15.68
   0  13  -8   79.86   20.44
   0  13   9   89.10   15.82
   0  14   0  280.02   23.49
   0  14  -1  164.30   20.21
   0  14  -2  150.10   19.68
   0  14   2  152.99   18.75
   0  14   3  173.56   12.23
   0  14  -3  193.73   21.83
   0  14   3  171.19   18.97
   0  14   3  187.00   13.26
   0  14   4  250.66   11.02
   0  14   4  268.09   21.87
   0  14  -5  225.33   24.85
   0  14   5  220.83   20.96
   0  14   6  115.12   17.63
   0  14  -6  137.99   23.95
   0  14  -6  143.20   22.68
   0  14  -7  253.41   26.87
   0  14   7  216.90   20.82
   0  14  -8  225.87   26.36
   0  14   8  209.71   20.66
   0  15   0   -2.08   16.08
   0  15   1   15.07   11.51
   0  15  -1   19.81   17.51
   0  15   2   40.54   17.62
   0  15  -2   32.32   18.01
   0  15   2   35.66   11.15
   0  15   3  115.31   19.94
   0  15  -3  154.15   23.76
   0  15   3  135.18   11.94
   0  15   4   23.22   16.41
   0  15  -4   26.14   18.73
   0  15   5   47.39   17.71
   0  15  -5   62.23   21.60
   0  15  -5   50.61   21.18
   0  15  -6  129.01   23.75
   0  16   0  433.89   24.27
   0  16   1  453.39   23.36
   0  16  -1  469.47   26.41
   0  16  -2  351.10   25.89
   0  16  -3  319.27   26.66
   0  16  -4  326.66   29.13
   0  17  -1    4.81   16.42
   0  17  -2   22.43   19.48
   1 -17  -1   26.33   28.99
  -1 -17   1   13.23   25.05
   1 -17   0    1.91   28.24
  -1 -17   0    7.19   27.35
   1 -17   1   29.04   25.61
  -1 -17  -1   49.03   30.53
   1 -16  -3  420.25   41.29
   1 -16  -2  494.17   42.21
  -1 -16   2  534.28   33.40
  -1 -16   1  530.65   36.98
   1 -16  -1  540.45   40.92
   1 -16   0  727.68   42.67
  -1 -16   0  770.45   44.95
  -1 -16  -1  554.74   42.42
   1 -16   1  522.21   36.74
  -1 -16  -2  530.30   45.08
  -1 -16  -3  486.26   46.84
   1 -15  -4   28.11   27.12
  -1 -15   3  104.56   18.47
   1 -15  -3  101.38   28.20
   1 -15  -2   81.82   26.01
  -1 -15   2   88.48   19.03
   1 -15  -1   31.85   22.20
  -1 -15   1   52.75   20.27
   1 -15   0   15.05   19.88
  -1 -15   0    8.04   20.66
   1 -15   1   39.93   20.90
  -1 -15  -1   36.70   23.87
   1 -15   2   67.76   19.63
  -1 -15  -2   94.19   28.09
  -1 -15  -3  109.89   30.63
  -1 -15  -4   36.02   30.91
   1 -14  -5  253.44   33.09
  -1 -14   4  400.36   22.58
   1 -14  -4  338.44   33.14
  -1 -14   3  208.83   18.83
   1 -14  -3  178.41   26.48
  -1 -14   2  209.85   20.74
   1 -14  -2  181.92   25.16
   1 -14  -1  260.62   25.42
  -1 -14   1  265.90   24.87
  -1 -14   0  191.68   24.00
   1 -14   0  167.24   22.32
   1 -14   1  246.01   23.78
  -1 -14  -1  271.04   28.71
  -1 -14  -2  190.07   28.59
   1 -14   2  176.03   20.84
  -1 -14  -3  213.75   30.98
  -1 -14  -4  341.40   36.82
  -1 -14  -5  292.42   38.95
  -1 -14  -6  213.59   39.26
   1 -13  -6  129.95   29.21
   1 -13  -5   82.14   24.59
  -1 -13   4   64.45   12.34
   1 -13  -4   50.24   21.44
  -1 -13   3  112.75   14.43
   1 -13  -3   96.72   21.22
  -1 -13   2   44.28   14.46
   1 -13  -2   40.84   18.02
  -1 -13   1   45.05   15.57
   1 -13  -1   47.53   17.28
  -1 -13   0   18.46   16.20
   1 -13   0   15.54   15.25
   1 -13   1   51.46   15.19
  -1 -13  -1   43.51   19.12
  -1 -13  -2   47.36   21.63
   1 -13   2   34.66   14.87
  -1 -13  -3  120.77   26.28
  -1 -13  -4   82.64   26.43
  -1 -13  -5   86.40   28.94
  -1 -13  -6  137.15   31.83
   1 -12  -8  156.98   30.41
   1 -12  -7  204.04   31.30
   1 -12  -5  554.77   37.63
   1 -12  -4  618.24   36.87
  -1 -12   4  664.15   22.96
  -1 -12   3  698.08   26.45
   1 -12  -3  642.01   34.71
   1 -12  -2 1064.99   42.78
  -1 -12   2 1173.20   37.51
   1 -12  -1 1098.40   41.87
  -1 -12   1 1260.32   41.94
   1 -12   0  994.33   37.88
  -1 -12   0 1148.48   42.54
  -1 -12  -1 1220.68   48.46
   1 -12   1 1209.13   41.04
  -1 -12  -2 1228.51   51.65
   1 -12   2 1179.21   39.14
  -1 -12  -3  717.29   41.47
  -1 -12  -4  657.97   42.47
  -1 -12  -5  589.69   42.73
  -1 -12  -8  193.31   35.41
   1 -11  -9  153.53   30.43
   1 -11  -8   55.34   24.76
   1 -11  -7  231.71   28.13
  -1 -11   5   95.70    8.40
  -1 -11   4  158.87   10.84
  -1 -11   4  169.88   18.50
   1 -11  -4  151.69   20.73
  -1 -11   3  166.32   18.56
   1 -11  -3  179.67   19.97
  -1 -11   3  170.88   12.84
  -1 -11   2  115.40   18.32
   1 -11  -2  132.18   16.75
  -1 -11   2  137.98   13.57
  -1 -11   1    6.77   10.89
   1 -11  -1    2.97   10.93
  -1 -11   0   14.90   14.92
   1 -11   0    7.89   10.29
  -1 -11   0   15.68   13.01
  -1 -11  -1   29.66   16.07
  -1 -11  -1    2.60   14.43
   1 -11   1    3.56    9.90
  -1 -11  -2  142.09   21.11
  -1 -11  -2  114.92   20.52
   1 -11   2  113.32   13.59
  -1 -11  -3  169.67   22.41
  -1 -11  -3  184.80   24.35
  -1 -11  -4  183.69   23.39
  -1 -11  -4  158.43   24.94
  -1 -11  -7  211.35   32.44
  -1 -11  -8   69.39   28.80
  -1 -11  -9  141.05   32.62
   1 -10 -10  119.02   28.75
   1 -10  -9  348.38   34.54
   1 -10  -8  408.60   34.10
   1 -10  -7  204.56   25.13
   1 -10  -6  405.12   29.98
  -1 -10   5  892.67   20.77
  -1 -10   5  755.71   31.35
  -1 -10   4  231.95   11.35
  -1 -10   4  231.46   18.55
  -1 -10   3  164.52   11.47
   1 -10  -3  163.89   17.52
  -1 -10   3  188.47   18.19
   1 -10  -2  714.62   31.19
  -1 -10   2  774.70   34.75
  -1 -10   2  815.07   27.80
  -1 -10   1  419.08   21.70
   1 -10  -1  362.77   20.42
   1 -10   0  140.18   13.31
  -1 -10   0  160.24   16.84
  -1 -10   0  151.60   18.39
  -1 -10  -1  373.36   24.55
  -1 -10  -1  366.79   25.64
   1 -10   1  345.42   18.70
  -1 -10  -2  792.35   37.36
  -1 -10  -2  825.84   37.94
   1 -10   2  741.33   27.29
  -1 -10  -3  171.92   22.07
  -1 -10  -3  186.00   21.00
  -1 -10  -4  206.97   22.09
  -1 -10  -4  218.30   24.88
  -1 -10  -5  727.85   36.02
  -1 -10  -6  469.34   36.59
  -1 -10  -7  180.11   28.96
  -1 -10  -8  347.75   36.62
  -1 -10  -9  409.39   39.69
  -1 -10 -10  115.16   30.64
   1  -9 -11   77.38   27.58
   1  -9 -10   75.52   24.02
   1  -9  -9  118.55   24.67
   1  -9  -8  246.90   26.80
   1  -9  -7   46.63   17.50
   1  -9  -6  108.58   18.06
  -1  -9   6  110.89   12.81
  -1  -9   5  273.78   17.57
   1  -9  -5  284.79   22.71
  -1  -9   4   38.53   11.34
  -1  -9   4   31.55    5.55
  -1  -9   3   53.29   12.21
  -1  -9   3   42.94    7.21
   1  -9  -3   42.17   11.53
  -1  -9   2  106.94   13.89
  -1  -9   2  108.61   10.74
   1  -9  -2  117.39   13.45
   1  -9  -1   91.50   11.15
  -1  -9   1  102.11   12.13
  -1  -9   0   20.39   10.96
   1  -9   0   14.86    7.11
   1  -9   1   77.28    9.74
  -1  -9  -1  100.01   14.86
  -1  -9  -2  115.25   15.60
   1  -9   2   89.02   10.21
  -1  -9  -3   53.27   14.00
  -1  -9  -4   39.62   14.12
  -1  -9  -5  274.65   22.33
  -1  -9  -6  109.99   16.14
  -1  -9  -6  106.45   21.54
  -1  -9  -7   54.49   21.60
  -1  -9  -8  162.96   26.94
  -1  -9  -9  115.58   27.31
  -1  -9 -10   95.59   28.66
   1  -8 -11   10.64   21.47
   1  -8 -10   45.42   20.55
   1  -8  -9  212.99   25.63
   1  -8  -8  132.69   20.33
   1  -8  -7  129.27   19.13
  -1  -8   6  587.52   22.55
   1  -8  -6  497.79   28.65
   1  -8  -5  926.37   38.04
  -1  -8   5 1145.83   34.29
  -1  -8   4  520.81   22.91
  -1  -8   4  498.05   13.97
  -1  -8   3  973.77   25.87
  -1  -8   3  950.19   32.65
   1  -8  -2 2288.47   58.27
  -1  -8   2 2321.73   59.92
   1  -8  -1 1878.09   48.47
  -1  -8   0  815.58   31.83
   1  -8   0  787.59   26.17
  -1  -8  -1 1779.76   52.56
   1  -8   1 1859.06   45.60
  -1  -8  -2 2187.16   61.64
   1  -8   2 2335.72   53.17
  -1  -8  -3  890.51   34.68
  -1  -8  -4  509.27   26.29
  -1  -8  -5 1090.39   39.95
  -1  -8  -6  624.23   36.80
  -1  -8  -6  592.43   28.20
  -1  -8  -7  105.98   21.28
  -1  -8  -8  154.01   25.40
  -1  -8  -9  243.79   30.23
  -1  -8 -10   56.00   24.14
   1  -8  10   45.47    9.87
  -1  -8 -11    9.75   22.25
   1  -7 -12  145.83   27.74
   1  -7 -11  182.43   25.86
   1  -7 -10   40.14   19.51
   1  -7  -9  210.29   23.39
   1  -7  -8  402.46   27.89
   1  -7  -7  449.42   27.62
  -1  -7   6   47.08    8.50
   1  -7  -6   31.30   11.74
   1  -7  -5  386.44   22.28
  -1  -7   5  401.03   18.21
  -1  -7   4 1245.09   26.11
  -1  -7   4 1270.66   36.28
   1  -7  -4 1170.85   39.03
  -1  -7   3   68.99    9.81
  -1  -7   2   37.46    8.56
   1  -7  -1  537.65   20.66
   1  -7   0   63.84    7.53
  -1  -7   0   65.56   10.26
  -1  -7  -1  559.71   24.47
   1  -7   1  567.55   19.67
  -1  -7  -2   28.36    8.93
   1  -7   2   33.34    6.25
  -1  -7  -3   59.35   10.33
  -1  -7  -4 1218.91   39.60
  -1  -7  -5  388.34   21.57
  -1  -7  -6   56.45   12.14
  -1  -7  -7  398.99   20.84
  -1  -7  -7  379.66   29.62
  -1  -7  -8  448.92   33.01
  -1  -7  -9  196.78   26.98
   1  -7  10   33.65    8.22
  -1  -7 -10   39.18   21.47
  -1  -7 -11  222.25   29.50
  -1  -7 -12  120.73   27.43
   1  -6 -13  124.71   27.49
   1  -6 -12  155.49   25.96
   1  -6 -11   68.63   20.70
   1  -6 -10  298.05   26.36
   1  -6 -10  263.33   15.10
   1  -6  -9  531.16   20.60
   1  -6  -9  534.24   31.35
   1  -6  -9  609.01   26.23
   1  -6  -8  275.94   22.17
   1  -6  -8  294.06   15.10
   1  -6  -7  282.20   21.30
   1  -6  -7  328.52   15.39
  -1  -6   7  305.24   13.47
  -1  -6   6  762.10   23.45
   1  -6  -6  640.00   29.44
   1  -6  -5  747.88   30.01
  -1  -6   5  822.78   25.17
  -1  -6   4  137.20   10.85
  -1  -6   4  150.67    5.37
  -1  -6   3  204.81   12.65
   1  -6  -3  227.43   13.84
  -1  -6   2  726.05   25.57
  -1  -6   0  151.27   12.07
   1  -6   0  136.92    9.00
  -1  -6  -1  180.68   13.34
   1  -6   1  182.37   10.02
  -1  -6  -2  699.70   26.51
   1  -6   2  678.96   20.62
  -1  -6  -3  182.11   13.65
  -1  -6  -4  136.33   12.52
  -1  -6  -5  752.03   27.72
  -1  -6  -6  728.60   27.46
  -1  -6  -7  317.72   17.23
  -1  -6  -8  218.91   23.39
  -1  -6  -9  562.38   35.36
   1  -6   9  561.95   19.29
   1  -6  10  304.38   12.85
  -1  -6 -10  269.04   28.00
  -1  -6 -11   77.08   22.71
  -1  -6 -12  169.12   26.80
  -1  -6 -13  132.76   27.43
   1  -5 -13   91.17   25.03
   1  -5 -12  150.16   24.28
   1  -5 -11  156.57   22.10
   1  -5 -11  163.67   14.17
   1  -5 -10  141.76   19.94
   1  -5 -10  137.62   13.08
  -1  -5  10  145.25    6.67
   1  -5  -9  159.48   12.56
   1  -5  -9  146.51   18.30
   1  -5  -9  147.99   12.40
   1  -5  -8  384.77   17.29
   1  -5  -8  383.04   24.31
   1  -5  -8  447.11   20.68
   1  -5  -7  214.37   12.54
  -1  -5   7  246.54   10.82
   1  -5  -7  208.96   17.60
  -1  -5   6  701.54   20.39
   1  -5  -6  625.30   21.35
   1  -5  -5  317.06   14.20
  -1  -5   5  293.79   13.03
  -1  -5   4  273.44   12.95
   1  -5  -4  259.97   14.78
   1  -5  -3  513.59   20.20
  -1  -5   3  590.86   20.66
   1  -5   0   15.34    4.31
  -1  -5   0    8.96    5.64
   1  -5   1  675.74   19.91
  -1  -5  -1  671.30   24.40
  -1  -5  -2  534.40   21.95
  -1  -5  -3  527.76   21.76
  -1  -5  -4  233.88   14.18
  -1  -5  -5  287.54   15.13
  -1  -5  -6  705.75   24.59
  -1  -5  -7  250.01   13.93
   1  -5   8  389.53   15.10
   1  -5   9  153.31    9.26
  -1  -5  -9  110.35    6.24
  -1  -5  -9  146.15   20.86
   1  -5  10  147.58    6.77
  -1  -5 -10  115.97    7.27
  -1  -5 -10  137.82    8.87
  -1  -5 -10  146.83   22.28
  -1  -5 -11  142.94   22.93
  -1  -5 -12  132.59   24.23
  -1  -5 -13   68.33   22.87
   1  -4 -13   89.18   23.86
   1  -4 -12   10.68   18.47
   1  -4 -11   61.35   18.10
   1  -4 -11   80.05   13.69
   1  -4 -10  112.02   13.50
   1  -4 -10  101.88   17.65
  -1  -4   9  152.92    7.06
   1  -4  -9  138.92    8.06
   1  -4  -9  160.36   14.23
   1  -4  -9  172.90   18.35
   1  -4  -8  115.50   14.97
   1  -4  -8  121.43   11.89
   1  -4  -8  124.92   10.15
   1  -4  -7  277.33   14.90
   1  -4  -7  233.42   13.82
  -1  -4   7  264.01   10.14
   1  -4  -7  218.28   16.97
   1  -4  -6  743.97   23.61
  -1  -4   6  735.36   19.88
  -1  -4   5  296.38   11.72
   1  -4  -5  270.76   12.74
   1  -4  -4 1310.80   31.60
  -1  -4   4 1165.55   22.94
   1  -4  -4 1096.21   32.85
  -1  -4   4 1253.40   31.05
  -1  -4   3 2356.26   49.27
   1  -4  -3 1902.94   48.51
   1  -4  -2 1333.33   33.44
  -1  -4   0 2304.65   54.64
  -1  -4  -1 1732.92   44.30
   1  -4   1 1731.96   38.92
  -1  -4  -2 1218.32   34.14
  -1  -4  -3 1952.72   47.71
  -1  -4  -4 1080.34   31.57
  -1  -4  -5  298.33   13.99
  -1  -4  -6  596.53   15.44
  -1  -4  -6  672.18   21.28
   1  -4   7  236.54   11.20
  -1  -4  -7  252.89   10.86
   1  -4   8  119.23    7.86
  -1  -4  -8  149.78    9.96
  -1  -4  -9  135.50   19.18
  -1  -4  -9  122.07   10.59
  -1  -4  -9  150.19    8.78
   1  -4   9  163.91    7.03
  -1  -4 -10  132.83   20.20
  -1  -4 -10  152.06   11.45
  -1  -4 -11   39.77   16.90
  -1  -4 -12   14.69   17.05
  -1  -4 -13   98.47   22.38
   1  -3 -13  132.78   24.10
   1  -3 -12   37.47   17.11
   1  -3 -12   51.71   15.04
   1  -3 -11  305.79   24.70
   1  -3 -11  323.90   22.68
   1  -3 -10  339.85   21.94
   1  -3 -10  294.96   22.11
   1  -3  -9  105.49   13.89
   1  -3  -9  100.73   14.29
   1  -3  -8  578.03   26.92
   1  -3  -8  546.00   24.91
   1  -3  -8  531.73   15.86
   1  -3  -7  786.18   29.19
  -1  -3   7  744.75   17.75
   1  -3  -6  115.12   10.38
   1  -3  -6  127.77    9.47
   1  -3  -6  121.44   11.35
  -1  -3   6  106.88    6.18
   1  -3  -5  567.06   19.81
  -1  -3   5  599.92   17.00
   1  -3  -4 1601.32   41.74
  -1  -3   4 1812.85   38.99
   1  -3  -4 1610.03   39.58
  -1  -3   4 1757.07   32.96
   1  -3  -3   75.77    6.72
  -1  -3   3   92.05    7.18
   1  -3  -3   80.65    6.65
   1  -3  -2   11.57    4.09
   1  -3  -2   10.02    3.48
   1  -3  -1 1519.42   34.48
  -1  -3   0  169.94    8.29
  -1  -3   0  212.64   11.44
  -1  -3  -1 1342.04   29.57
  -1  -3  -1 1424.92   36.44
  -1  -3  -2   16.81    4.60
  -1  -3  -3   80.28    7.48
  -1  -3  -4 1521.63   36.74
  -1  -3  -4 1425.69   29.65
  -1  -3  -5  542.10   18.57
  -1  -3  -5  548.38   16.86
  -1  -3  -6   89.26    7.20
  -1  -3  -6  106.48    9.01
   1  -3   6  109.05    7.18
  -1  -3  -7  680.72   19.62
  -1  -3  -7  597.45   23.79
   1  -3   8  552.61   14.49
  -1  -3  -8  645.45   17.37
  -1  -3  -9  102.99   13.70
  -1  -3  -9   85.21   14.81
  -1  -3 -10  227.64   21.94
  -1  -3 -10  280.75   19.83
  -1  -3 -11  293.72   24.41
  -1  -3 -11  400.46   22.48
  -1  -3 -12   47.80   17.17
  -1  -3 -13   84.36   20.48
   1  -2 -12   75.71   18.44
   1  -2 -12  109.97   19.32
   1  -2 -11  218.03   21.09
   1  -2 -11  200.51   21.51
   1  -2 -10  598.13   28.84
   1  -2 -10  668.32   32.41
   1  -2  -9  216.74   18.82
   1  -2  -9  248.75   17.32
   1  -2  -9  219.51   17.48
   1  -2  -8  140.73   13.29
   1  -2  -8  171.91   14.49
   1  -2  -8  138.55   14.91
  -1  -2   7 1632.09   30.51
   1  -2  -7 1579.20   42.71
  -1  -2   7 1568.12   31.19
  -1  -2   6  484.40   13.39
   1  -2  -6  649.35   22.05
   1  -2  -6  433.67   14.22
   1  -2  -6  557.33   21.80
   1  -2  -6  562.59   21.18
  -1  -2   6  494.97   12.97
   1  -2  -5   29.28    6.17
   1  -2  -5   26.02    6.78
  -1  -2   5   25.19    3.86
   1  -2  -5   24.47    4.68
   1  -2  -5   32.92    6.80
   1  -2  -4  968.26   24.93
   1  -2  -4  781.47   24.72
   1  -2  -4  832.67   25.28
  -1  -2   4 1094.64   23.79
   1  -2  -4  727.41   24.22
  -1  -2   4  944.98   19.53
  -1  -2   3 1079.36   28.37
  -1  -2   3 1095.62   23.94
  -1  -2   2  327.48   13.66
   1  -2  -2  354.15   12.50
   1  -2  -1   22.15    3.35
   1  -2  -1   32.23    4.38
  -1  -2   1   25.72    4.23
  -1  -2   0 2029.76   42.58
  -1  -2   0 2000.07   46.14
  -1  -2  -1   30.65    2.96
  -1  -2  -1   29.50    4.88
  -1  -2  -2  364.39   15.03
  -1  -2  -2  372.95    9.79
  -1  -2  -3  963.13   27.28
   1  -2   4  928.31   22.71
  -1  -2  -4  818.39   23.84
  -1  -2  -5   20.87    4.49
   1  -2   5   26.67    3.91
  -1  -2  -6  503.12   14.65
   1  -2   6  502.14   13.29
  -1  -2  -7 1584.65   31.97
  -1  -2  -7 1477.61   32.76
  -1  -2  -8  142.60   15.06
  -1  -2  -9  204.61   18.46
  -1  -2  -9  183.64   17.76
  -1  -2 -10  477.37   27.47
  -1  -2 -10  655.97   31.44
  -1  -2 -11  242.43   21.52
  -1  -2 -11  392.56   27.45
  -1  -2 -12   55.15   17.54
  -1  -2 -12   52.59   15.80
   1  -1 -13  212.73   26.57
   1  -1 -12   22.78   15.96
   1  -1 -12   19.53   18.69
   1  -1 -11  248.32   21.29
   1  -1 -11  288.11   26.42
   1  -1 -10  644.58   29.06
   1  -1 -10  707.50   35.62
   1  -1  -9   78.41   15.16
   1  -1  -9   73.90   12.37
   1  -1  -9   85.42   12.27
   1  -1  -8  113.91   12.05
   1  -1  -8  140.18   16.52
   1  -1  -8  144.45   12.94
   1  -1  -7  859.69   33.87
   1  -1  -7  886.83   29.11
  -1  -1   6  649.86   14.70
   1  -1  -6  625.60   22.07
  -1  -1   6  674.44   14.60
   1  -1  -6  631.10   22.36
   1  -1  -5   88.83    8.06
  -1  -1   5   90.85    5.37
   1  -1  -5   70.69    8.90
  -1  -1   5   70.01    4.08
   1  -1  -5   81.29    7.39
   1  -1  -5   68.00    4.48
   1  -1  -4  294.60   12.08
  -1  -1   4  262.51    8.60
  -1  -1   4  277.09    8.91
   1  -1  -4  287.43   13.84
   1  -1  -3  900.79   24.47
   1  -1  -3  934.30   23.05
  -1  -1   3  846.46   19.13
   1  -1  -3  803.60   20.81
   1  -1  -2  508.81   14.62
   1  -1  -2  511.62   15.02
   1  -1  -2  426.07   13.30
  -1  -1   2  408.32   15.48
   1  -1  -1   95.03    5.65
  -1  -1   1   78.35    6.00
   1  -1  -1   92.24    5.30
   1  -1  -1   87.38    5.41
   1  -1   0  113.71    6.09
  -1  -1   0  100.58    5.42
  -1  -1  -1   61.46    4.09
   1  -1   3  973.05   22.24
  -1  -1  -4  292.29   12.01
   1  -1   4  279.10    8.76
  -1  -1  -5   74.93    4.81
   1  -1   5   72.77    4.17
  -1  -1  -5   91.04    8.10
  -1  -1  -5   74.50    5.90
  -1  -1  -6  641.40   16.13
  -1  -1  -6  645.32   16.38
  -1  -1  -7  824.08   27.58
  -1  -1  -8  159.99   16.45
  -1  -1  -8  166.58   13.93
  -1  -1  -9   89.48   12.92
  -1  -1  -9   84.89   16.02
  -1  -1  -9   64.01   12.22
  -1  -1 -10  598.74   27.50
  -1  -1 -10  645.57   34.04
  -1  -1 -11  210.22   18.64
  -1  -1 -11  288.33   27.11
  -1  -1 -12   54.89   19.54
  -1  -1 -12   28.88   13.97
   1   0 -13   33.16   23.04
   1   0 -12    8.08   13.91
   1   0 -12   18.43   20.05
   1   0 -11   84.26   15.51
   1   0 -11   89.34   21.07
   1   0 -10  154.45   22.03
   1   0 -10  152.97   16.36
   1   0  -9   11.77   13.85
   1   0  -9   12.63    9.64
   1   0  -9    8.05    9.03
   1   0  -8   76.14   10.45
   1   0  -8   71.16   15.62
   1   0  -8   61.09   10.34
   1   0  -7  716.82   25.03
   1   0  -7  701.51   32.15
   1   0  -7  694.41   24.17
   1   0  -6  556.32   19.58
   1   0  -6  525.43   25.33
   1   0  -6  576.43   20.24
  -1   0   6  536.36   12.74
   1   0  -5   48.32    6.06
   1   0  -5   41.39    8.28
   1   0  -5   56.36    6.83
  -1   0   4 2334.16   45.69
   1   0  -4 2204.60   48.08
   1   0  -4 2247.48   48.38
   1   0  -4 2289.46   55.03
  -1   0   4 2247.36   43.82
  -1   0   4 2160.23   50.61
  -1   0   3 3066.75   56.89
  -1   0   3 3215.86   57.99
   1   0  -2  187.67    7.01
   1   0  -2  262.57   10.49
   1   0  -1 1707.67   38.53
   1   0  -1 1769.62   35.71
  -1   0   0 2569.55   55.14
  -1   0   0 2681.31   53.97
  -1   0  -1 1694.74   34.46
  -1   0  -2  186.31    6.52
  -1   0  -2  228.11    7.69
  -1   0  -3 3015.44   57.77
  -1   0  -3 2879.98   56.92
  -1   0  -4 2267.08   45.88
  -1   0  -4 2340.93   48.71
  -1   0  -5   20.72    5.53
  -1   0  -6  411.05   12.01
  -1   0  -6  488.44   17.89
  -1   0  -7  904.70   28.27
  -1   0  -8  177.95   13.32
  -1   0  -9   20.90    9.70
  -1   0  -9   14.83    8.92
  -1   0  -9   36.01   13.95
  -1   0 -10  246.91   17.61
  -1   0 -10  181.40   15.46
  -1   0 -11   73.71   12.71
  -1   0 -11  125.81   23.40
  -1   0 -12    2.80   19.85
  -1   0 -12    7.78   11.50
   1   1 -13  233.90   32.00
   1   1 -12   24.51   21.51
   1   1 -11  245.33   18.75
   1   1 -11  331.90   31.85
   1   1 -10  642.89   27.28
   1   1 -10  783.18   42.99
   1   1  -9  157.52   21.63
   1   1  -9  134.30   13.47
   1   1  -9  121.48   12.71
   1   1  -8  132.44   11.77
   1   1  -8  158.24   18.96
   1   1  -8  121.70   11.67
   1   1  -7 1027.63   30.99
   1   1  -7 1025.60   30.17
   1   1  -6  712.65   21.90
   1   1  -6  727.03   29.92
   1   1  -5   94.20   10.62
  -1   1   5   95.87    8.21
   1   1  -5  103.03    7.46
   1   1  -4  325.96   16.28
  -1   1   4  320.94   13.89
   1   1  -4  323.10   11.55
  -1   1   3 1012.71   24.60
   1   1  -3  975.56   27.62
   1   1  -2  570.79   18.90
  -1   1   2  642.91   16.40
  -1   1   1   73.24    4.83
   1   1  -1   83.31    5.40
  -1   1   0  138.22    6.89
   1   1   3  943.51   22.51
   1   1   4  329.09   12.32
  -1   1  -5   78.20    7.04
  -1   1  -6  792.51   23.99
  -1   1  -7  772.49   25.08
  -1   1  -8  183.56   13.52
  -1   1  -9   86.41   11.66
  -1   1  -9   89.13   10.63
  -1   1  -9  110.83   17.44
  -1   1 -10  518.99   23.96
  -1   1 -10  464.89   21.56
  -1   1 -11  211.72   15.94
  -1   1 -11  323.68   30.68
  -1   1 -12   45.56   23.11
  -1   1 -13  177.16   30.23
   1   2 -14   93.68   29.34
   1   2 -13  129.64   29.84
   1   2 -12  153.37   29.67
   1   2 -11  303.07   32.64
   1   2 -10  920.99   46.51
   1   2  -9  229.40   23.27
   1   2  -9  171.85   14.54
   1   2  -8  275.54   23.56
   1   2  -8  205.82   14.49
   1   2  -7 1521.74   42.46
  -1   2   7 1594.14   31.24
  -1   2   6  472.03   12.40
   1   2  -6  659.31   28.21
   1   2  -5   54.48    9.49
  -1   2   5   34.64    6.17
  -1   2   5   41.67    7.29
   1   2  -4  972.14   32.00
  -1   2   4 1039.74   27.54
  -1   2   4 1048.12   26.07
  -1   2   4  983.44   28.11
  -1   2   3 1334.78   30.44
   1   2  -3 1485.97   35.59
   1   2  -2  325.12   13.33
  -1   2   2  309.14   10.88
  -1   2   1   54.27    4.29
  -1   2   0 2388.95   47.90
   1   2   1   24.78    2.84
   1   2   3 1152.54   27.61
   1   2   4 1250.47   30.87
   1   2   5   32.28    6.28
  -1   2  -6  450.54   13.19
   1   2   6  462.97   19.26
  -1   2  -7 1773.98   35.16
  -1   2  -7 1549.98   41.80
  -1   2  -8  174.87   12.84
  -1   2  -9  154.02   13.24
  -1   2  -9  156.66   11.48
  -1   2 -10  518.21   20.32
  -1   2 -10  519.85   24.09
  -1   2 -11  257.73   15.27
  -1   2 -11  473.88   36.13
  -1   2 -12   77.72   25.89
  -1   2 -13   99.39   27.96
   1   3 -13  186.84   34.35
   1   3 -12   71.23   28.04
   1   3 -11  395.43   35.73
   1   3 -10  478.28   34.39
   1   3  -9   94.86   12.67
   1   3  -9  142.76   21.80
  -1   3   8  643.49   15.23
   1   3  -8  659.19   34.75
  -1   3   7  706.54   17.86
  -1   3   7  767.19   29.89
  -1   3   6  131.72    9.18
  -1   3   6  128.65    6.49
  -1   3   6  144.74   11.63
  -1   3   5  501.05   17.64
  -1   3   5  500.86   14.55
  -1   3   5  479.37   19.94
  -1   3   4 1699.91   43.19
  -1   3   4 1729.65   41.52
  -1   3   3  108.27    8.06
   1   3  -3  106.91    9.20
  -1   3   3  102.13    7.45
  -1   3   2   15.34    3.61
  -1   3   2   14.35    4.30
   1   3  -1 1704.99   39.68
  -1   3   1 1562.68   35.20
  -1   3   0  191.04    8.12
   1   3   0  226.96   10.91
  -1   3  -1 1684.42   35.75
   1   3   1 1677.67   33.45
  -1   3  -2   17.51    3.13
   1   3   4 1793.70   42.19
  -1   3  -5  537.44   16.48
   1   3   5  525.00   19.49
  -1   3  -6  111.61    7.19
   1   3   6  128.01   10.83
   1   3   7  678.65   25.33
  -1   3  -7  642.42   18.39
  -1   3  -8  599.34   17.18
  -1   3  -8  670.34   24.59
  -1   3  -9   70.84   10.47
  -1   3  -9   86.86    8.08
  -1   3 -10  398.14   29.85
  -1   3 -10  278.74   13.19
  -1   3 -11  450.24   35.84
  -1   3 -12   62.63   25.88
  -1   3 -13  128.13   31.78
  -1   3 -14  219.23   37.37
   1   4 -13  135.24   32.18
   1   4 -12    2.98   25.88
   1   4 -11  158.47   27.57
   1   4 -10  146.29   24.81
   1   4  -9  222.50   24.67
  -1   4   8  191.17    8.28
  -1   4   8  186.50   17.88
  -1   4   7  326.44   11.64
  -1   4   7  319.50   18.58
  -1   4   6  724.65   21.81
  -1   4   6  658.74   18.73
  -1   4   6  702.07   26.55
  -1   4   5  343.67   12.64
  -1   4   5  321.20   16.85
  -1   4   5  352.66   13.92
  -1   4   4 1204.96   31.96
  -1   4   4 1280.40   35.63
  -1   4   3 2147.92   46.62
   1   4  -3 2224.71   52.35
   1   4  -3 2184.63   52.53
  -1   4   3 2190.53   48.27
  -1   4   3 2160.02   48.29
  -1   4   2 1426.22   34.51
  -1   4   2 1441.53   35.73
   1   4  -1 2066.46   46.84
  -1   4   1 1889.74   42.30
   1   4   0 2777.65   60.79
   1   4   0 2831.08   56.45
  -1   4   0 2783.98   56.67
   1   4   1 2093.69   41.81
  -1   4  -1 2106.59   43.87
  -1   4  -2 1270.51   27.72
   1   4   2 1198.16   23.83
   1   4   3 2306.55   52.50
  -1   4  -3 2273.71   47.55
  -1   4  -4 1384.80   32.31
  -1   4  -4 1173.48   27.03
  -1   4  -5  450.56   16.25
   1   4   5  406.93   18.27
  -1   4  -6  714.06   21.10
   1   4   6  689.85   25.32
  -1   4  -7  362.72   14.57
   1   4   7  342.99   18.70
  -1   4  -8  192.48    8.22
  -1   4  -8  208.69   10.97
   1   4   8  200.20   16.33
  -1   4  -9   81.19    7.77
  -1   4  -9   79.16   12.07
  -1   4  -9   97.77    6.43
  -1   4 -10  138.76    7.02
  -1   4 -11  113.80   24.96
  -1   4 -12   25.29   26.44
  -1   4 -13  127.83   32.41
   1   5 -12  211.09   32.20
   1   5 -11  231.96   30.55
   1   5 -10  232.10   27.07
  -1   5   9  192.66   19.95
  -1   5   9  216.37   10.18
  -1   5   8  383.90   13.58
  -1   5   8  337.55   21.31
  -1   5   7  257.48   10.96
  -1   5   7  253.04   18.00
  -1   5   6  739.40   21.57
  -1   5   6  677.95   20.12
  -1   5   6  662.39   26.91
  -1   5   5  301.66   13.11
  -1   5   5  263.91   11.99
  -1   5   5  270.12   16.33
  -1   5   4  265.26   15.45
   1   5  -4  273.64   15.85
  -1   5   4  276.67   12.51
  -1   5   4  254.10   11.85
  -1   5   3  593.92   19.52
   1   5  -3  595.20   22.66
  -1   5   3  585.44   19.54
  -1   5   2  628.25   20.25
  -1   5   2  608.07   20.81
   1   5  -1  771.46   25.15
  -1   5   1  772.42   22.53
   1   5  -1  814.41   23.03
   1   5   0   12.78    3.79
  -1   5   0   10.36    4.11
   1   5   0   10.18    5.17
  -1   5   0    8.33    4.34
   1   5   1  699.29   17.73
  -1   5  -1  730.13   22.86
  -1   5  -1  668.25   19.15
   1   5   2  522.94   12.41
  -1   5  -2  560.01   19.62
  -1   5  -2  513.11   15.48
  -1   5  -3  636.48   17.25
   1   5   3  609.02   21.45
   1   5   4  275.47   13.65
  -1   5  -4  272.63   13.59
  -1   5  -4  243.12    9.19
   1   5   5  260.39   16.42
  -1   5  -5  294.81   13.95
  -1   5  -5  276.68    8.88
   1   5   6  736.48   28.08
  -1   5  -6  785.64   17.03
  -1   5  -6  794.43   24.16
  -1   5  -7  277.33   13.85
   1   5   7  267.33   18.07
  -1   5  -8  377.70   16.44
   1   5   8  361.84   21.52
   1   5   9  179.91   17.90
  -1   5  -9  182.32   12.56
  -1   5 -11  208.94   28.86
  -1   5 -12  225.26   33.38
  -1   5 -13  139.40   33.76
   1   6 -12  268.21   35.06
   1   6 -11  140.73   28.84
   1   6 -10  453.48   35.91
  -1   6   9  545.01   29.23
  -1   6   9  611.94   19.13
  -1   6   8  325.07   13.39
  -1   6   8  279.38   20.39
  -1   6   7  341.54   13.78
  -1   6   7  307.23   11.96
  -1   6   7  300.99   20.18
  -1   6   6  650.19   19.61
  -1   6   6  643.64   20.53
  -1   6   6  616.66   27.10
   1   6  -5  921.52   32.13
  -1   6   5  887.45   24.51
  -1   6   5  869.25   25.27
  -1   6   4  222.54   11.41
  -1   6   4  235.48   12.32
   1   6  -4  231.28   15.35
   1   6  -3  263.62   15.56
  -1   6   3  284.54   13.58
  -1   6   3  235.57   12.76
   1   6  -2  815.17   25.43
  -1   6   2  881.75   26.03
   1   6  -2  815.63   27.66
   1   6  -1  348.57   14.04
   1   6  -1  330.84   16.12
  -1   6   1  327.45   14.40
   1   6   0  180.11    9.25
  -1   6   0  185.13   10.40
  -1   6   0  187.87   11.94
   1   6   0  158.05   10.92
  -1   6  -1  269.37   14.66
  -1   6  -1  266.40   11.89
   1   6   1  261.77    9.99
  -1   6  -2  945.04   24.00
  -1   6  -2 1017.38   29.76
   1   6   3  235.62   13.02
  -1   6  -3  208.18    9.32
  -1   6  -3  220.35   13.38
   1   6   4  246.55   13.93
  -1   6  -4  270.04    9.70
  -1   6  -4  265.74   14.56
   1   6   5  900.11   27.36
  -1   6  -5  864.59   27.39
  -1   6  -5  867.90   19.51
   1   6   6  620.32   26.71
  -1   6  -6  702.10   23.80
  -1   6  -7  351.66   16.81
   1   6   7  332.16   20.52
  -1   6  -8  307.65   16.45
   1   6   8  291.01   20.48
   1   6   9  595.31   29.83
  -1   6  -9  661.88   24.35
   1   6  10  260.98   22.93
  -1   6 -11  160.17   27.12
  -1   6 -12  234.17   34.20
   1   7 -11  284.35   33.38
  -1   7  10   29.63    8.13
  -1   7  10   32.74   16.48
   1   7 -10   55.85   23.62
  -1   7   9  176.79   11.38
  -1   7   9  191.77   20.44
  -1   7   8  367.80   24.57
  -1   7   8  416.90   16.51
  -1   7   7  366.93   12.72
  -1   7   7  357.37   15.41
  -1   7   7  351.65   22.37
  -1   7   6   36.13    7.68
  -1   7   6   24.51    5.74
   1   7  -6    5.89   13.48
  -1   7   6   15.34   10.17
   1   7  -6   15.98   10.29
   1   7  -5  389.53   21.15
  -1   7   5  390.68   14.54
  -1   7   5  349.48   15.84
  -1   7   4 1157.50   31.61
  -1   7   4 1233.23   33.58
   1   7  -4 1259.97   38.95
   1   7  -3   45.94    9.15
   1   7  -3   50.58    8.76
  -1   7   3   51.85    7.83
  -1   7   3   45.33    7.90
   1   7  -2   35.70    7.77
   1   7  -2   44.54    7.29
   1   7  -1  513.28   18.39
   1   7  -1  510.28   21.11
  -1   7   0   80.39    9.40
   1   7   0   68.30    8.65
   1   7   0   82.37    7.02
   1   7   1  622.19   18.13
  -1   7  -1  653.09   24.17
  -1   7  -1  632.29   20.62
  -1   7  -2   25.00    7.60
   1   7   2   26.37    3.96
  -1   7  -2   28.65    5.88
   1   7   3   57.42    8.41
  -1   7  -3   57.05    9.09
   1   7   3   59.88    2.88
  -1   7  -3   65.18    6.40
   1   7   4 1216.79   34.99
  -1   7  -4 1262.09   36.60
   1   7   5  364.62   17.49
  -1   7  -5  344.14   17.61
   1   7   6   24.01    8.02
  -1   7  -6   48.82    9.71
   1   7   6   28.22   11.45
   1   7   7  282.86   20.23
  -1   7  -7  302.80   17.11
  -1   7  -8  471.49   21.26
   1   7   8  376.51   23.92
   1   7   9  152.16   17.77
  -1   7  -9  174.97   14.87
   1   7  10   26.82   14.30
  -1   7 -11  261.27   30.88
   1   7  11  187.60   23.11
   1   8 -11   13.70   24.37
  -1   8  10   29.51   15.94
   1   8 -10   48.96   23.64
  -1   8  10   42.16    9.59
  -1   8   9  221.48   13.34
  -1   8   9  209.76   21.35
  -1   8   8  203.80   12.70
  -1   8   8  156.60   18.76
  -1   8   7   46.05    8.71
   1   8  -7   17.59   17.49
  -1   8   7   39.28    5.39
  -1   8   7   45.97   13.93
  -1   8   6  584.44   17.61
  -1   8   6  592.66   21.64
   1   8  -6  592.16   28.01
  -1   8   5 1108.00   32.69
   1   8  -5 1158.70   39.64
  -1   8   5 1126.77   28.50
   1   8  -4  581.09   26.02
  -1   8   4  509.12   19.28
  -1   8   4  556.72   21.70
  -1   8   3  827.76   27.83
  -1   8   3  872.91   27.97
   1   8  -3  872.24   29.81
   1   8  -3  817.35   31.07
   1   8  -2 2624.79   59.89
   1   8  -2 2489.61   62.83
   1   8  -1 2140.56   49.22
   1   8  -1 2033.63   53.41
   1   8   0  790.62   23.09
  -1   8   0  832.44   28.76
   1   8   1 2184.85   47.42
  -1   8  -1 2263.58   56.16
   1   8   2 2578.11   52.40
  -1   8  -2 2646.99   63.43
   1   8   3  897.27   30.08
   1   8   3  926.86   19.73
   1   8   4  503.19   21.53
  -1   8  -4  508.33   22.45
  -1   8  -5 1324.69   39.26
   1   8   5 1205.17   36.20
  -1   8  -6  664.80   26.59
   1   8   6  614.65   23.93
  -1   8  -7   54.08   11.44
   1   8   7   36.24   12.40
   1   8   8  163.91   18.96
  -1   8  -8  216.18   16.62
   1   8   9  207.29   21.05
  -1   8  -9  234.53   17.86
   1   8  10   42.78   17.28
   1   8  11   13.50   17.33
  -1   8 -11    9.46   22.85
  -1   9  10   73.53   11.48
   1   9 -10  101.10   26.69
  -1   9  10   61.43   19.25
   1   9  -9  181.17   25.97
  -1   9   9  139.44   12.53
  -1   9   9  138.13   20.29
  -1   9   8  217.81   14.06
  -1   9   8  174.42   20.62
  -1   9   7   39.33    9.41
  -1   9   7   37.34    5.08
  -1   9   7   31.53   14.06
  -1   9   6  121.50   11.76
   1   9  -6  109.07   15.60
  -1   9   6  122.62    8.40
  -1   9   6  101.33   15.81
   1   9  -5  333.45   22.37
  -1   9   5  337.30   14.00
  -1   9   5  319.84   17.96
  -1   9   4   56.54   10.29
   1   9  -4   74.45   12.89
  -1   9   4   47.16    8.16
   1   9  -4   63.95   12.16
   1   9  -3   47.01   10.13
  -1   9   3   32.94    9.40
  -1   9   3   39.31    8.71
   1   9  -3   40.39   11.15
   1   9  -2  170.95   13.13
   1   9  -2  156.88   14.53
   1   9  -1  108.85   10.19
   1   9  -1  101.50   12.29
  -1   9   0   15.41    8.78
   1   9   0   14.08    6.17
   1   9   0   13.79    8.39
   1   9   1   71.79    7.53
  -1   9  -1   64.12   11.01
   1   9   2  101.91    7.19
  -1   9  -2   95.18   12.22
   1   9   3   41.45    9.86
  -1   9  -3   43.76   10.79
   1   9   3   41.56    4.44
   1   9   4   51.64   10.01
  -1   9  -4   58.95   11.51
   1   9   5  286.33   17.06
  -1   9  -5  276.67   19.42
  -1   9  -6  134.49   14.63
   1   9   6  112.09   12.60
   1   9   7   35.45   13.75
  -1   9  -7   62.28   13.06
  -1   9  -8  181.30   16.43
   1   9   8  179.50   19.80
  -1   9  -9  139.90   16.41
   1   9   9  117.59   18.72
   1   9  10   56.44   18.16
  -1  10  10  105.93   13.15
  -1  10   9  322.52   27.28
  -1  10   9  369.98   18.87
  -1  10   8  339.72   17.66
  -1  10   8  310.40   24.99
  -1  10   7  166.93   14.81
  -1  10   7  126.92   18.23
  -1  10   6  400.93   13.65
  -1  10   6  298.66   24.31
   1  10  -6  468.84   28.96
  -1  10   6  374.59   19.51
   1  10  -6  371.01   24.94
  -1  10   5  795.60   29.71
  -1  10   5  889.05   24.73
   1  10  -5  853.29   36.46
  -1  10   4  211.04   13.34
  -1  10   4  233.89   17.13
   1  10  -4  254.09   19.19
   1  10  -4  220.64   19.04
   1  10  -3  142.29   15.95
  -1  10   3  146.98   14.65
  -1  10   3  125.93   12.14
   1  10  -3  163.02   15.28
   1  10  -2  850.68   29.42
   1  10  -2  837.38   32.88
  -1  10   2  828.31   31.03
   1  10  -1  459.73   19.81
   1  10  -1  438.16   23.21
   1  10   0   86.95    9.82
   1  10   0   76.42   12.20
  -1  10   0   71.92   12.55
  -1  10  -1  356.47   21.24
   1  10   1  374.90   15.56
   1  10   2  962.53   24.68
  -1  10  -2  981.94   35.24
  -1  10  -3  143.47   15.31
   1  10   3  128.43    7.04
   1  10   3  124.56   13.72
  -1  10  -4  223.60   18.64
   1  10   4  196.79   15.63
   1  10   5  773.07   29.55
  -1  10  -5  778.13   31.48
   1  10   6  409.58   21.39
  -1  10  -6  466.90   24.63
   1  10   7  117.91   18.38
  -1  10  -7  170.78   17.63
  -1  10  -8  341.91   22.20
   1  10   8  276.71   24.43
  -1  10  -9  428.95   25.90
   1  10   9  305.40   25.16
   1  10  10   90.15   20.04
  -1  11  10   72.12   13.73
  -1  11   9   70.01   19.19
  -1  11   9  122.45   14.14
  -1  11   8   21.92   16.57
  -1  11   8   52.68   11.57
  -1  11   7  168.37   15.51
   1  11  -7  161.47   21.02
   1  11  -6  247.28   24.62
  -1  11   6  212.29   16.96
  -1  11   6  214.24    9.96
   1  11  -6  191.02   20.74
   1  11  -5   90.97   17.07
   1  11  -5  119.02   18.37
  -1  11   5   94.24   13.79
  -1  11   5   85.96    9.15
  -1  11   4  133.51   11.79
  -1  11   4  129.01   14.67
   1  11  -4  133.51   17.79
   1  11  -4  143.36   18.23
   1  11  -3  142.25   17.30
  -1  11   3  145.31   15.89
   1  11  -3  145.62   16.30
  -1  11   3  118.90   12.38
  -1  11   2  137.78   15.93
   1  11  -2  129.94   13.79
   1  11  -2  125.74   16.31
   1  11  -1    7.38   11.01
   1  11  -1    7.92    9.17
  -1  11   0    8.37   11.38
   1  11   0   13.94    8.10
   1  11   0    4.80   10.73
   1  11   1    4.88    7.46
  -1  11  -1    5.92   11.69
  -1  11  -2   88.62   15.50
   1  11   2   78.25    8.52
   1  11   2   97.00   14.21
   1  11   3  132.50   15.19
  -1  11  -3  135.09   17.05
   1  11   3  122.51    7.43
   1  11   4  119.85   14.70
  -1  11  -4  131.23   16.38
   1  11   5   67.01   12.72
  -1  11  -5   44.12   14.76
  -1  11  -6  255.27   20.80
   1  11   6  211.80   17.51
  -1  11  -7  153.03   18.81
   1  11   7   96.59   18.84
  -1  11  -8   62.30   15.22
   1  11   8   45.71   16.59
  -1  11  -9  108.49   18.59
   1  11   9   85.45   20.21
  -1  12   9   59.74   14.06
  -1  12   8  163.49   16.48
  -1  12   8  146.19   21.86
  -1  12   7  100.90   18.97
   1  12  -7  166.17   25.92
   1  12  -7  137.98   20.38
  -1  12   7  130.40   15.40
  -1  12   6  196.68    9.06
  -1  12   6  213.51   18.57
   1  12  -6  180.83   21.77
  -1  12   5  619.74   19.75
  -1  12   5  556.26   26.77
   1  12  -5  570.26   31.97
  -1  12   4  643.13   23.50
   1  12  -4  577.57   31.40
  -1  12   4  599.05   28.60
   1  12  -4  678.90   33.00
   1  12  -3  612.18   29.36
   1  12  -3  573.63   30.98
  -1  12   3  588.39   28.44
  -1  12   3  525.40   22.79
  -1  12   2 1063.85   39.41
   1  12  -2 1100.99   42.50
   1  12  -1 1261.03   38.45
   1  12  -1 1175.49   43.54
  -1  12   0  947.39   37.61
   1  12   0  926.64   30.28
   1  12   0  850.96   36.01
  -1  12  -1 1196.94   43.46
   1  12   1 1202.52   33.43
   1  12   2 1020.42   39.05
   1  12   2 1121.30   29.10
  -1  12  -2 1096.53   41.17
  -1  12  -3  665.83   31.93
   1  12   3  608.42   29.02
   1  12   3  620.18   17.78
   1  12   4  528.50   26.63
  -1  12  -4  584.23   30.75
  -1  12  -5  650.84   31.60
   1  12   5  565.19   27.42
   1  12   6  208.81   18.27
  -1  12  -6  266.12   22.87
  -1  12  -7  166.25   19.22
   1  12   8  105.66   19.61
  -1  12  -8  193.33   21.61
  -1  13   9   44.02   14.53
  -1  13   8   40.58   14.10
  -1  13   7   20.02   17.27
   1  13  -7   40.67   21.93
  -1  13   7   38.36   12.88
   1  13  -6   87.97   19.63
  -1  13   6  101.55   16.05
   1  13  -5   66.29   19.31
  -1  13   5   85.19   16.94
   1  13  -5   93.37   21.81
  -1  13   5   83.62    9.08
  -1  13   4   67.14   15.63
  -1  13   4   75.36   10.99
   1  13  -4   74.96   18.19
   1  13  -4   64.80   18.12
  -1  13   3   95.42   16.43
   1  13  -3   92.22   18.61
   1  13  -3   90.76   17.31
  -1  13   3   82.76   12.37
   1  13  -2   45.66   16.66
   1  13  -2   69.36   14.68
  -1  13   2   55.29   16.25
   1  13  -1   36.51   15.65
   1  13  -1   36.23   13.02
   1  13   0    8.95   10.72
   1  13   0   12.14   14.46
  -1  13   0   12.27   15.06
   1  13   1   55.57   10.17
  -1  13  -1   51.34   16.18
   1  13   2   42.45    8.72
   1  13   2   35.10   14.83
  -1  13  -2   45.20   16.72
   1  13   3   79.70    7.68
   1  13   3   75.64   15.37
  -1  13  -3   89.85   18.29
  -1  13  -4   81.10   18.42
   1  13   4   62.85   15.57
  -1  13  -5   76.66   19.51
   1  13   5   65.30   15.87
   1  13   6   79.06   15.92
  -1  13  -6  105.11   19.22
  -1  13  -7   36.70   17.10
  -1  13  -8   56.26   19.21
  -1  14   8  239.22   20.67
  -1  14   7  184.95   19.23
   1  14  -6  115.20   23.10
   1  14  -6  153.29   25.28
  -1  14   6  121.48   17.39
  -1  14   5  242.78   22.01
   1  14  -5  215.66   25.26
  -1  14   4  289.46   23.66
   1  14  -4  269.96   26.99
   1  14  -4  280.96   27.33
  -1  14   3  184.42   21.39
   1  14  -3  163.61   22.74
  -1  14   3  157.62   14.67
   1  14  -3  171.48   22.56
   1  14  -2  155.97   21.74
   1  14  -2  145.51   20.43
  -1  14   2  180.64   21.08
  -1  14   2  144.97   14.14
   1  14  -1  193.93   22.67
   1  14  -1  189.53   19.51
  -1  14   0  153.76   20.49
   1  14   0  140.05   15.81
   1  14   0  167.84   21.72
   1  14   1  171.26   14.92
  -1  14  -1  180.84   21.64
   1  14   2  177.63   20.82
  -1  14  -2  207.54   22.71
   1  14   2  173.57   12.40
   1  14   3  138.24    9.31
   1  14   3  165.01   20.13
  -1  14  -3  167.84   23.02
  -1  14  -4  309.00   27.58
   1  14   4  237.80   22.14
   1  14   5  221.69   21.53
  -1  14  -5  246.36   25.47
  -1  14  -6  145.91   20.49
   1  14   6  121.07   18.11
  -1  14  -7  189.83   24.18
  -1  14  -8  216.53   25.46
   1  15  -5   38.77   21.20
  -1  15   5   47.92   16.30
   1  15  -5   52.71   22.94
  -1  15   4   30.69   17.30
   1  15  -4   13.47   18.84
   1  15  -4   20.01   19.34
  -1  15   3   77.26   19.18
   1  15  -3   66.24   21.36
   1  15  -3   52.92   18.87
   1  15  -2   58.61   18.40
   1  15  -2   54.63   21.12
  -1  15   2   87.07   20.59
   1  15  -1   18.14   18.56
   1  15  -1   18.91   14.49
  -1  15   0    5.63   17.59
   1  15   0    3.96   16.88
   1  15   0    9.62   13.31
  -1  15  -1   36.78   19.46
   1  15   1   17.38   11.09
  -1  15  -2   39.70   20.74
   1  15   2   42.17   18.32
   1  15   2   30.12    9.59
  -1  15  -3   70.69   21.35
   1  15   3   55.91   18.75
   1  15   4    4.46   16.00
  -1  15  -4   28.79   19.37
   1  15   5   37.98   17.74
  -1  15  -5   30.43   17.95
   1  16  -4  337.07   29.47
   1  16  -3  369.05   28.47
   1  16  -2  385.00   27.40
   1  16  -1  470.03   27.09
   1  16   0  532.57   25.59
   1  17  -3   39.48   20.75
   1  17  -2   15.99   19.21
  -2 -17   0   11.36   28.93
   2 -16  -2  346.31   38.75
  -2 -16   2  371.20   32.93
  -2 -16   1  507.14   37.69
   2 -16  -1  489.23   41.74
   2 -16   0  413.65   35.73
  -2 -16   0  428.13   39.35
  -2 -16  -1  511.62   45.59
  -2 -16  -2  360.68   42.50
  -2 -15   3  111.03   20.27
   2 -15  -3  132.24   28.79
   2 -15  -2   61.08   26.06
  -2 -15   2   56.81   20.11
  -2 -15   1   26.08   21.61
   2 -15  -1   32.53   23.45
   2 -15   0    2.68   20.03
  -2 -15   0    8.05   23.28
  -2 -15  -1   35.14   26.87
  -2 -15  -2   53.76   30.60
  -2 -15  -3  118.12   35.20
  -2 -15  -4   17.97   31.68
   2 -14  -5  268.14   34.43
   2 -14  -4  356.94   36.90
  -2 -14   4  351.56   21.84
  -2 -14   3  277.07   22.30
   2 -14  -3  274.74   30.17
  -2 -14   2  186.51   22.83
   2 -14  -2  171.49   26.93
   2 -14  -1  192.92   25.58
  -2 -14   1  227.94   26.34
   2 -14   0  360.17   28.78
  -2 -14   0  427.52   34.84
  -2 -14  -1  204.55   31.69
  -2 -14  -2  217.86   34.70
  -2 -14  -3  280.06   38.17
  -2 -14  -4  350.74   43.00
  -2 -14  -5  224.24   39.12
   2 -13  -6  116.52   28.49
  -2 -13   5  116.98   12.27
   2 -13  -5  123.00   27.40
  -2 -13   4   47.67   12.51
   2 -13  -4   49.57   21.92
  -2 -13   3   52.99   14.66
   2 -13  -3   40.22   20.52
   2 -13  -2   60.23   19.54
  -2 -13   2   57.96   17.50
   2 -13  -1   70.87   19.40
  -2 -13   1   58.86   19.97
   2 -13   0   21.26   16.26
  -2 -13   0    1.21   19.42
  -2 -13  -1   57.12   23.57
  -2 -13  -2   35.74   24.27
  -2 -13  -3   61.01   27.59
  -2 -13  -4   27.10   28.03
  -2 -13  -5  102.20   32.72
  -2 -13  -6  115.53   36.12
   2 -12  -7  214.98   30.48
   2 -12  -5  481.92   36.27
  -2 -12   5  575.41   19.93
   2 -12  -4  690.08   38.92
  -2 -12   4  672.10   25.70
   2 -12  -3  645.20   36.72
  -2 -12   3  827.16   31.67
   2 -12  -2  870.02   40.90
  -2 -12   2 1117.71   40.77
   2 -12  -1 1045.54   43.61
  -2 -12   1 1276.87   47.91
   2 -12   0  982.41   39.99
   2 -12   1 1019.25   39.06
  -2 -12  -5  584.47   47.56
   2 -11  -8  129.09   26.97
   2 -11  -7  120.63   25.72
   2 -11  -6  179.04   25.40
  -2 -11   5   98.12    9.17
   2 -11  -4   51.50   17.58
  -2 -11   4   57.70   10.55
   2 -11  -3  180.35   20.80
  -2 -11   3  177.73   16.46
   2 -11  -2   54.00   15.49
   2 -11  -1   28.29   12.87
   2 -11   0   13.07   12.22
   2 -11   1   27.26   12.05
  -2 -11  -7  143.62   32.83
  -2 -11  -8   43.55   28.37
   2 -10  -9  311.97   33.08
   2 -10  -8  407.17   34.45
  -2 -10   8  409.54   23.05
   2 -10  -7  385.28   31.89
  -2 -10   7  484.00   26.39
   2 -10  -6  445.85   31.56
  -2 -10   6  574.01   29.00
  -2 -10   5  781.80   34.10
  -2 -10   5  740.94   20.61
  -2 -10   4  605.72   31.63
  -2 -10   4  657.77   23.28
   2 -10  -3  670.82   32.32
  -2 -10   3  669.38   33.37
   2 -10  -2  663.87   31.20
  -2 -10   2  690.21   34.71
   2 -10  -1  504.29   26.11
   2 -10   0  776.04   31.10
  -2 -10   0  720.81   36.81
   2 -10   1  476.18   24.75
  -2 -10  -1  498.10   30.82
  -2 -10  -2  644.25   35.72
  -2 -10  -3  591.48   35.08
  -2 -10  -4  576.73   34.59
  -2 -10  -5  694.08   38.49
  -2 -10  -6  513.97   34.01
  -2 -10  -7  440.30   32.59
  -2 -10  -8  394.87   31.62
  -2 -10  -8  377.80   41.54
  -2 -10  -9  365.60   42.05
   2 -10   9  311.59   20.49
   2  -9 -10   31.40   23.84
   2  -9  -9  175.91   27.33
   2  -9  -8  143.88   23.71
  -2  -9   8  172.48   15.65
  -2  -9   7   70.73   13.62
   2  -9  -7   67.37   19.04
   2  -9  -6   84.86   17.68
  -2  -9   6  113.67   15.63
  -2  -9   5  268.21   20.66
  -2  -9   5  297.33   11.96
  -2  -9   4  148.96   16.90
  -2  -9   3   71.15   14.45
   2  -9  -2  126.42   14.72
  -2  -9   2   90.71   15.84
   2  -9  -1   47.85   11.24
   2  -9   0   13.98    9.65
  -2  -9   0    6.44   12.00
   2  -9   1   38.12   10.22
  -2  -9  -1   46.02   14.26
  -2  -9  -2  106.90   17.36
  -2  -9  -3   57.88   16.05
  -2  -9  -4  147.40   19.39
  -2  -9  -5  222.32   22.58
  -2  -9  -6   98.84   18.87
  -2  -9  -7   48.06   17.61
  -2  -9  -8  189.50   22.57
  -2  -9  -9  117.22   30.91
   2  -9   9  168.79   15.77
  -2  -9 -10   25.79   29.20
   2  -8 -11   24.04   23.91
   2  -8 -10   80.23   24.24
   2  -8  -9  282.21   28.49
   2  -8  -8  187.16   23.51
   2  -8  -8  245.04   23.80
  -2  -8   8  252.47   16.69
   2  -8  -7  216.59   22.71
  -2  -8   7  301.64   18.22
   2  -8  -6  743.76   36.42
  -2  -8   6 1041.12   34.10
   2  -8  -5 1262.35   46.27
  -2  -8   5 1491.85   43.91
   2  -8  -4  788.45   33.86
  -2  -8   4  988.55   35.52
  -2  -8   3 1589.00   50.31
  -2  -8   2 3023.08   77.03
   2  -8  -2 2600.83   68.71
   2  -8  -1 2338.50   60.51
   2  -8   0 1729.74   47.87
  -2  -8   0 1666.14   54.99
  -2  -8  -1 2214.80   66.11
  -2  -8  -2 2622.67   74.93
  -2  -8  -3 1338.03   48.76
  -2  -8  -4  850.51   37.42
  -2  -8  -5 1234.65   45.32
  -2  -8  -6  877.21   38.10
  -2  -8  -7  301.48   24.05
   2  -8   8  195.91   15.41
  -2  -8  -8  255.21   22.55
   2  -8   9  297.84   18.23
  -2  -8 -10  109.97   29.39
  -2  -8 -11   23.80   28.28
   2  -7 -12  158.84   30.09
   2  -7 -11   97.81   25.29
   2  -7 -10   48.33   22.25
   2  -7  -9   94.39   16.57
  -2  -7   9   99.89   10.72
   2  -7  -9   94.30   20.42
   2  -7  -8  370.94   27.50
  -2  -7   8  391.86   18.71
   2  -7  -8  421.55   26.93
   2  -7  -7  145.51   18.77
  -2  -7   7  161.01   13.61
   2  -7  -6   51.18   13.82
  -2  -7   6   39.17   10.15
  -2  -7   5  404.94   21.20
   2  -7  -5  309.51   21.69
   2  -7  -4  426.70   22.98
  -2  -7   4  404.65   22.74
  -2  -7   3   47.49   11.29
  -2  -7   2   30.68   11.06
   2  -7  -1  473.96   21.65
  -2  -7   0   45.79   12.79
   2  -7   0   41.97    8.78
  -2  -7  -1  448.51   26.13
  -2  -7  -2   27.03   11.84
  -2  -7  -3   38.56   12.43
  -2  -7  -4  366.93   24.02
  -2  -7  -5  338.53   22.97
  -2  -7  -6   31.16   12.58
  -2  -7  -7  149.80   16.70
  -2  -7  -8  357.88   23.78
   2  -7   8  380.26   18.90
   2  -7   9   97.33   11.43
  -2  -7  -9  100.23   15.56
  -2  -7 -10   29.39   24.77
   2  -7  10   56.25   10.44
  -2  -7 -11   65.74   26.40
   2  -6 -12  141.54   26.40
   2  -6 -11  172.92   26.81
   2  -6 -10  410.01   32.42
   2  -6 -10  370.85   21.59
   2  -6  -9  849.84   40.39
  -2  -6   9  845.08   24.50
   2  -6  -9  811.07   30.25
   2  -6  -9  787.16   32.54
   2  -6  -8  487.26   29.76
   2  -6  -8  507.24   26.52
   2  -6  -8  537.06   24.08
  -2  -6   8  579.25   20.82
   2  -6  -7  581.72   28.82
   2  -6  -7  527.72   23.46
  -2  -6   7  561.71   21.29
  -2  -6   6 1624.72   44.26
  -2  -6   6 1635.94   31.44
  -2  -6   5 1132.02   35.17
   2  -6  -5 1003.31   37.26
  -2  -6   4  957.94   33.56
   2  -6  -4  845.34   32.30
  -2  -6   3 1440.29   44.84
   2  -6  -3 1309.19   40.76
  -2  -6   2 1564.43   49.21
   2  -6   0  681.46   25.35
  -2  -6   0  703.16   31.77
  -2  -6  -1 1294.05   44.52
  -2  -6  -2 1441.87   48.24
  -2  -6  -3 1263.71   44.56
  -2  -6  -4  796.68   33.79
  -2  -6  -5  997.79   37.24
  -2  -6  -6 1295.12   43.46
   2  -6   7  530.08   21.54
  -2  -6  -7  486.38   24.63
   2  -6   8  496.60   20.21
  -2  -6  -8  543.83   25.30
  -2  -6  -9  842.72   31.18
   2  -6   9  865.90   27.00
   2  -6  10  396.91   16.51
  -2  -6 -11   87.00   25.66
  -2  -6 -12  160.89   30.48
   2  -5 -13   60.93   25.56
   2  -5 -12   92.70   25.67
   2  -5 -11  151.09   16.33
   2  -5 -11  176.08   25.19
   2  -5 -10  107.86   20.96
   2  -5 -10   92.95   14.00
  -2  -5  10  132.86    9.88
  -2  -5   9  143.23    9.71
   2  -5  -9  114.86   12.51
   2  -5  -9  144.43   19.75
   2  -5  -9  148.61   14.68
  -2  -5   9  163.12   12.58
   2  -5  -8  200.04   19.81
   2  -5  -8  206.90   15.84
  -2  -5   8  263.79   12.80
   2  -5  -8  216.09   17.13
   2  -5  -7  188.48   16.17
   2  -5  -7  197.26   18.55
   2  -5  -7  215.13   15.58
  -2  -5   7  186.40   12.17
  -2  -5   6  597.08   14.90
  -2  -5   6  584.10   22.70
   2  -5  -6  631.23   24.73
   2  -5  -6  636.32   27.95
  -2  -5   5  240.68   10.41
   2  -5  -5  235.90   16.91
   2  -5  -5  270.29   16.35
  -2  -5   4  400.88   20.49
   2  -5  -4  367.64   19.95
   2  -5  -3  631.44   26.04
  -2  -5   3  857.52   30.16
   2  -5  -2  317.88   16.56
  -2  -5   2  256.88   17.90
  -2  -5   0  118.72   13.42
  -2  -5   0   89.39    9.11
  -2  -5  -1  615.62   27.80
  -2  -5  -1  599.28   21.32
  -2  -5  -2  211.00   11.28
  -2  -5  -2  293.44   19.30
  -2  -5  -3  740.33   19.63
  -2  -5  -3  683.34   29.46
  -2  -5  -4  326.24   20.16
  -2  -5  -5  165.20   15.96
   2  -5   6  546.08   21.26
  -2  -5  -6  449.11   23.73
   2  -5   7  167.29   11.94
  -2  -5  -7  163.88   14.70
  -2  -5  -8  244.02   16.30
   2  -5   8  213.38   13.03
   2  -5   9  124.46    9.88
  -2  -5  -9  140.45   13.30
  -2  -5  -9  144.50   13.66
   2  -5  10   99.45    8.44
  -2  -5 -10  132.25   12.96
  -2  -5 -11  156.41   27.22
  -2  -5 -12   68.97   26.20
  -2  -5 -13   48.17   24.90
   2  -4 -13  103.06   25.95
   2  -4 -12   76.17   22.66
   2  -4 -11   48.78   14.37
   2  -4 -11   47.80   20.10
   2  -4 -10  294.80   25.89
   2  -4 -10  262.00   20.17
  -2  -4  10  282.24   10.44
   2  -4  -9  391.27   27.06
  -2  -4   9  430.09   13.92
   2  -4  -9  374.02   21.74
  -2  -4   9  426.54   15.38
   2  -4  -8  203.03   19.35
   2  -4  -8  183.06   15.84
   2  -4  -8  179.27   13.23
  -2  -4   8  229.28   11.16
   2  -4  -7  820.92   35.33
   2  -4  -7  919.21   32.99
   2  -4  -7  919.76   31.64
   2  -4  -6 1501.86   44.30
   2  -4  -6 1448.64   47.17
  -2  -4   6 1674.75   34.19
  -2  -4   6 1729.48   43.14
   2  -4  -6 1622.32   44.79
   2  -4  -5 1563.00   45.39
   2  -4  -5 1532.01   42.32
  -2  -4   5 1580.65   41.89
  -2  -4   5 1665.58   35.26
   2  -4  -4 2519.91   61.26
   2  -4  -4 2471.43   58.10
  -2  -4   3 3450.83   82.93
   2  -4  -3 3298.63   78.20
   2  -4  -2 3127.11   68.03
  -2  -4   2 3076.82   73.56
  -2  -4   1 2835.75   67.25
  -2  -4   0 3893.43   87.30
  -2  -4   0 4509.31   96.87
  -2  -4  -1 3053.88   67.24
  -2  -4  -1 3222.21   77.56
  -2  -4  -2 2933.39   61.93
  -2  -4  -2 2946.84   73.39
  -2  -4  -3 2950.58   73.14
  -2  -4  -3 2863.71   57.87
   2  -4   4 2406.78   53.95
  -2  -4  -4 2184.55   43.91
   2  -4   5 1529.00   38.46
  -2  -4  -5 1419.31   29.60
   2  -4   6 1553.13   38.56
  -2  -4  -6 1515.67   32.48
  -2  -4  -7  880.26   32.05
  -2  -4  -7 1296.66   29.97
  -2  -4  -7 1194.86   27.65
   2  -4   7  868.55   27.98
  -2  -4  -8  262.92   15.33
   2  -4   8  168.50   10.65
  -2  -4  -8  295.30   14.08
  -2  -4  -8  212.26   13.96
  -2  -4  -9  427.83   18.01
  -2  -4  -9  432.42   17.87
   2  -4   9  367.34   14.05
  -2  -4  -9  427.00   18.65
  -2  -4 -10  329.54   15.41
  -2  -4 -10  358.43   17.00
  -2  -4 -11   89.63   23.16
  -2  -4 -12   41.20   22.49
  -2  -4 -13   80.41   24.31
   2  -3 -12   34.77   16.79
   2  -3 -12   34.05   20.45
   2  -3 -11  121.34   18.60
   2  -3 -11  131.05   22.00
   2  -3 -10  276.22   24.93
   2  -3 -10  269.13   21.72
  -2  -3   9   30.29    5.36
   2  -3  -9   30.49   13.77
  -2  -3   9   39.88    5.06
   2  -3  -9   42.43   13.02
  -2  -3   8  354.46   13.05
   2  -3  -8  324.26   22.37
   2  -3  -8  309.25   20.19
  -2  -3   8  336.05   13.43
  -2  -3   7  323.80   14.37
   2  -3  -7  353.54   21.66
  -2  -3   7  336.64   11.79
   2  -3  -7  360.83   20.10
  -2  -3   7  323.24   13.94
   2  -3  -6  168.65   14.96
  -2  -3   6  151.72    7.71
   2  -3  -6  167.02   13.52
  -2  -3   6  165.16   10.77
  -2  -3   6  154.31   11.06
   2  -3  -6  148.12   11.78
   2  -3  -5  448.78   20.25
  -2  -3   5  479.07   14.78
   2  -3  -5  415.75   19.71
   2  -3  -4  888.01   29.77
  -2  -3   4  906.43   30.70
   2  -3  -4  876.86   28.71
   2  -3  -4  985.65   29.18
   2  -3  -3  236.07   14.07
   2  -3  -3  282.51   15.71
  -2  -3   3  205.43   15.15
   2  -3  -3  279.68   14.93
  -2  -3   3  232.39   15.35
   2  -3  -2   22.98    5.79
   2  -3  -2   29.93    7.59
  -2  -3   2   13.43    6.74
   2  -3  -2   31.85    6.91
   2  -3  -1  872.07   28.00
  -2  -3   1  667.83   25.30
   2  -3   0   98.86    9.93
  -2  -3   0   83.82    8.63
  -2  -3  -1  621.15   19.97
  -2  -3  -2   13.55    4.26
   2  -3   3  251.50   13.50
  -2  -3  -3  218.29    9.53
  -2  -3  -3  221.47   15.54
  -2  -3  -4  787.40   30.29
   2  -3   4  880.21   26.00
  -2  -3  -4  826.68   21.91
   2  -3   5  428.59   17.68
  -2  -3  -5  462.34   22.17
  -2  -3  -6  122.54   12.18
   2  -3   6  146.90    9.62
  -2  -3  -7  320.58   15.63
   2  -3   7  309.56   12.86
  -2  -3  -8  322.85   15.85
   2  -3   8  286.01   12.06
  -2  -3  -8  329.19   15.72
  -2  -3  -9   32.65    7.65
  -2  -3  -9   38.66   11.37
  -2  -3  -9   37.18    6.85
  -2  -3 -10  194.67   17.67
  -2  -3 -12   33.17   19.42
  -2  -3 -13   70.65   21.61
   2  -2 -12  102.64   20.75
   2  -2 -12  123.87   21.33
   2  -2 -11  373.36   28.52
   2  -2 -11  439.31   29.26
   2  -2 -10  721.70   35.38
   2  -2 -10  731.75   35.54
   2  -2  -9  710.43   32.40
   2  -2  -9  688.46   32.06
  -2  -2   8  783.22   20.99
   2  -2  -8  772.94   33.49
   2  -2  -8  744.29   33.18
   2  -2  -7 1690.76   52.50
  -2  -2   7 2066.83   44.44
  -2  -2   7 2041.02   42.38
   2  -2  -7 1752.33   53.12
  -2  -2   7 1847.80   42.00
   2  -2  -6 1713.58   47.57
  -2  -2   6 1744.17   41.87
  -2  -2   6 1637.34   35.60
  -2  -2   6 1601.16   37.31
   2  -2  -6 1726.84   47.23
   2  -2  -5  746.67   23.76
   2  -2  -5  677.48   26.21
  -2  -2   5  694.34   19.37
   2  -2  -5  755.95   26.88
  -2  -2   5  714.53   21.32
   2  -2  -4 2448.97   61.99
  -2  -2   4 2746.41   56.32
   2  -2  -4 2329.86   58.49
  -2  -2   4 2260.83   64.34
   2  -2  -4 2758.69   62.40
  -2  -2   4 2919.75   58.25
   2  -2  -4 3012.66   59.69
   2  -2  -3 2939.96   68.22
   2  -2  -3 2881.38   68.20
  -2  -2   3 3004.41   72.52
  -2  -2   2  968.39   32.36
   2  -2  -2 1067.03   32.13
   2  -2  -1 1803.56   44.12
  -2  -2   1 1735.36   45.15
   2  -2  -1 1795.77   45.70
   2  -2   0 3120.65   65.43
  -2  -2   0 2800.88   63.40
  -2  -2  -1 1693.65   39.56
  -2  -2  -2 1013.31   26.15
   2  -2   3 3528.64   72.97
  -2  -2  -3 3429.82   70.68
  -2  -2  -4 2894.64   60.85
  -2  -2  -4 2914.73   62.02
  -2  -2  -5  743.51   23.00
   2  -2   5  628.52   19.83
  -2  -2  -6 1695.19   40.16
   2  -2   6 1639.00   36.33
  -2  -2  -7 1376.71   40.52
  -2  -2  -7 1835.65   41.39
  -2  -2  -8  846.27   24.83
  -2  -2  -8  752.14   24.18
  -2  -2  -9  408.21   23.52
  -2  -2  -9  444.29   13.73
  -2  -2 -10 1022.74   41.50
  -2  -2 -11  507.18   30.22
  -2  -2 -12   82.74   20.16
   2  -1 -13  128.37   25.08
   2  -1 -12   12.99   19.34
   2  -1 -11  198.63   24.35
   2  -1 -10  409.56   26.12
   2  -1 -10  465.08   30.87
   2  -1  -9   36.32   13.24
  -2  -1   9   31.14    2.63
   2  -1  -9   27.78   14.63
   2  -1  -8   26.58   11.56
  -2  -1   8   42.29    5.28
   2  -1  -8   24.02   11.55
   2  -1  -7  649.95   27.08
  -2  -1   7  494.78   15.84
   2  -1  -7  637.39   28.71
  -2  -1   7  524.05   18.95
  -2  -1   7  544.78   17.77
  -2  -1   6  325.79   12.77
   2  -1  -6  429.36   20.49
  -2  -1   6  285.54   17.21
   2  -1  -6  435.15   21.88
  -2  -1   6  335.94   12.92
   2  -1  -5  151.98   12.25
  -2  -1   5  132.15    8.30
   2  -1  -5  103.35    7.91
   2  -1  -5  140.29   12.12
  -2  -1   5  125.72    7.93
   2  -1  -5  169.88   10.87
  -2  -1   4  251.58   11.35
   2  -1  -4  317.78   15.69
   2  -1  -4  198.69   10.88
   2  -1  -4  360.32   13.73
  -2  -1   4  236.48   10.89
  -2  -1   3  536.74   17.99
   2  -1  -3  633.74   21.73
  -2  -1   3  523.53   22.30
  -2  -1   3  546.47   17.76
   2  -1  -3  458.92   17.80
   2  -1  -3  686.64   18.37
  -2  -1   2  108.39    9.99
   2  -1  -2  117.12    8.77
   2  -1  -2  101.08    7.83
   2  -1  -1   50.47    4.34
  -2  -1   1   81.18    7.94
   2  -1  -1   66.28    7.71
   2  -1  -1  100.53    7.47
  -2  -1   0  203.77   11.06
  -2  -1   0  209.27   10.48
   2  -1   0  185.73   10.12
  -2  -1  -1  124.77    8.17
  -2  -1  -1  107.73    7.69
  -2  -1  -2  116.41    8.05
  -2  -1  -2  111.09    8.48
  -2  -1  -3  542.55   18.40
   2  -1   3  535.43   17.24
   2  -1   4  254.17   10.90
  -2  -1  -4  250.33   12.21
   2  -1   5  112.44    7.13
  -2  -1  -5  120.66    8.68
  -2  -1  -6  330.47   14.76
  -2  -1  -7  490.92   17.69
  -2  -1  -7  372.90   17.76
  -2  -1  -8   36.46    6.58
  -2  -1  -9   34.57    3.78
  -2  -1 -10  265.96   23.23
  -2  -1 -11  190.04   23.85
  -2  -1 -12    5.36   15.32
  -2  -1 -12    1.61   18.40
   2   0 -13   44.76   24.33
   2   0 -12   56.77   22.70
   2   0 -11   80.89   20.49
   2   0 -10  481.25   32.25
   2   0  -9   85.59   17.15
  -2   0   8  341.62   12.64
   2   0  -8  199.98   20.32
  -2   0   7 2571.57   52.88
   2   0  -7 1898.03   62.26
  -2   0   6 1184.92   29.80
  -2   0   6 1125.23   36.58
   2   0  -6 1165.62   39.54
  -2   0   5  845.28   30.60
  -2   0   5  834.57   22.80
  -2   0   5  782.87   21.65
  -2   0   4 4028.78   76.00
  -2   0   4 4090.16   76.67
   2   0  -4 3467.36   76.40
   2   0  -4 3512.92   82.69
  -2   0   3 5225.55  104.91
   2   0  -3 5321.88  109.28
  -2   0   3 5277.85  103.79
  -2   0   2 1896.51   47.87
   2   0  -2 2020.80   46.63
  -2   0   1 3438.90   71.03
   2   0  -1 3283.35   68.76
   2   0  -1 3346.37   61.62
   2   0   0 8660.42  175.12
  -2   0   0 9165.15  175.98
  -2   0  -1 3655.78   72.82
  -2   0  -1 3291.37   69.92
  -2   0  -2 2064.94   47.04
  -2   0  -2 1954.15   44.85
  -2   0  -3 5154.62   97.45
  -2   0  -3 5359.91  102.86
  -2   0  -4 4052.75   87.19
  -2   0  -4 4564.76   84.41
  -2   0  -5  788.45   24.79
  -2   0  -5  962.54   25.40
  -2   0  -6 1254.63   34.06
  -2   0  -7 2946.29   66.16
  -2   0  -8  242.34   12.70
  -2   0  -8  379.74   18.73
  -2   0  -9   90.62   13.44
  -2   0 -10  577.95   26.82
  -2   0 -11  390.64   31.64
  -2   0 -12   11.88   14.43
  -2   0 -12   25.13   20.40
   2   1 -13  128.91   27.39
   2   1 -12   -3.91   21.93
   2   1 -11  193.64   27.33
   2   1 -10  525.41   35.03
   2   1  -9   52.74   16.85
  -2   1   9   44.83    2.85
  -2   1   9   60.61    3.68
   2   1  -8   48.84   14.68
  -2   1   7  556.20   19.84
  -2   1   7  511.68   22.70
  -2   1   6  420.62   16.32
  -2   1   6  404.80   20.41
   2   1  -5  190.70   14.79
  -2   1   5  158.62   13.61
  -2   1   5  168.56    9.93
  -2   1   4  253.33   16.13
  -2   1   4  251.18   11.93
  -2   1   3  592.58   18.24
  -2   1   3  559.73   18.47
   2   1  -3  618.91   21.66
   2   1  -2  118.46    8.86
   2   1  -1   78.86    6.81
  -2   1   1   98.38    8.27
  -2   1   0  219.42   11.80
  -2   1   0  217.49    5.96
  -2   1  -1  105.38    7.57
  -2   1  -1  113.39    8.54
  -2   1  -2  117.25    8.10
   2   1   2  107.97    4.77
  -2   1  -3  588.87   19.59
  -2   1  -3  555.12   14.58
   2   1   3  617.87   15.29
  -2   1  -4  199.27    9.33
   2   1   4  244.00   10.17
  -2   1  -5  157.99    9.10
  -2   1  -6  339.66   15.12
  -2   1  -7  479.99   19.20
  -2   1  -8   43.60    9.66
  -2   1  -9   58.86    4.20
  -2   1  -9   47.32    4.90
  -2   1 -10  291.82   19.06
  -2   1 -11  198.22   25.11
  -2   1 -12   16.82   21.61
   2   2 -13  238.31   33.67
   2   2 -12  142.06   27.39
   2   2 -11  539.08   38.01
   2   2 -10  905.38   46.01
  -2   2   9  476.62   12.04
   2   2  -9  876.06   40.64
   2   2  -8  938.82   41.71
  -2   2   7 1904.93   51.05
   2   2  -7 1996.89   61.47
  -2   2   6 1562.33   45.39
  -2   2   6 1602.85   40.64
  -2   2   5  609.86   24.90
  -2   2   5  592.14   20.00
  -2   2   4 2638.14   57.56
  -2   2   4 2726.55   59.94
  -2   2   3 2979.89   70.27
  -2   2   3 3025.13   65.11
   2   2  -2  963.73   29.03
  -2   2   2 1111.10   26.59
  -2   2   1 1544.57   37.41
  -2   2   1 1510.72   32.92
  -2   2   0 3307.37   71.73
   2   2   1 1614.41   37.68
   2   2   3 3551.60   69.37
   2   2   4 2846.54   58.67
   2   2   5  673.50   20.71
   2   2   6 1718.62   40.09
  -2   2  -6 1334.62   35.29
  -2   2  -7 2035.89   48.66
  -2   2  -8  947.59   29.70
  -2   2  -9  414.11   12.55
  -2   2  -9  346.70   19.00
  -2   2 -10  843.90   30.60
  -2   2 -11  341.90   19.99
  -2   2 -12  130.59   27.67
  -2   2 -13  194.07   32.61
   2   3 -13  200.01   32.65
   2   3 -12   48.30   25.15
   2   3 -11  153.03   27.20
   2   3 -10  424.12   34.13
   2   3  -9   64.12   20.06
  -2   3   9   36.26    4.50
  -2   3   8  262.58   15.64
  -2   3   8  272.75   10.85
  -2   3   7  302.62   17.56
   2   3  -7  436.73   27.76
  -2   3   6  170.42   13.54
   2   3  -6  201.27   18.64
  -2   3   6  162.72   11.50
  -2   3   6  182.01   14.69
   2   3  -5  338.08   20.86
  -2   3   5  382.01   16.07
  -2   3   5  330.39   16.55
   2   3  -4  899.14   31.72
  -2   3   4  819.49   25.52
   2   3  -3  258.70   15.01
  -2   3   3  266.86   12.53
  -2   3   2   28.53    5.28
  -2   3   2   33.44    7.50
  -2   3   2   42.81    5.57
  -2   3   1  650.50   21.10
  -2   3   0   66.67    7.15
   2   3   0   64.02    5.80
   2   3   1  525.91   16.17
   2   3   2    8.39    4.51
   2   3   4  667.41   20.76
   2   3   5  467.13   17.65
   2   3   6  184.01   12.43
  -2   3  -7  226.73   13.86
   2   3   7  282.61   15.89
  -2   3  -8  323.00   13.98
  -2   3  -8  282.23   15.37
  -2   3  -9   21.95    9.42
  -2   3  -9   29.60    6.01
  -2   3 -10  178.94   15.55
  -2   3 -12   63.45   23.71
  -2   3 -13  168.68   33.45
   2   4 -12   94.74   28.28
   2   4 -11  105.89   26.86
  -2   4  10  263.13    9.09
   2   4 -10  383.05   34.02
   2   4  -9  503.13   34.62
  -2   4   9  343.36   12.14
  -2   4   8  243.61   10.93
  -2   4   8  248.88   15.58
  -2   4   7  888.05   24.97
  -2   4   7  952.75   34.82
  -2   4   6 1521.48   40.49
  -2   4   6 1488.07   42.59
  -2   4   6 1423.44   43.14
  -2   4   5 1335.83   39.20
   2   4  -5 1485.21   45.68
  -2   4   5 1361.55   39.79
  -2   4   5 1405.39   37.22
   2   4  -4 2265.17   59.38
  -2   4   4 2099.78   53.11
  -2   4   3 3239.18   69.71
  -2   4   3 3436.06   74.91
  -2   4   3 3268.45   70.22
  -2   4   2 3188.76   69.50
  -2   4   2 3483.63   74.75
   2   4  -1 3851.88   75.63
  -2   4   1 3657.94   79.39
  -2   4   0 5007.29  102.15
   2   4   0 5364.82  100.09
  -2   4  -1 3711.32   74.19
   2   4   1 3476.62   70.17
   2   4   2 2354.49   51.72
  -2   4  -2 2891.68   56.41
   2   4   5 1452.43   38.25
   2   4   6 1530.31   40.99
  -2   4  -7 1130.91   31.31
   2   4   7 1064.33   34.08
  -2   4  -8  283.49   14.23
   2   4   8  249.61   17.39
  -2   4  -9  312.82   17.69
  -2   4  -9  383.40   15.36
  -2   4 -10  260.82   11.72
  -2   4 -10  265.10   17.66
  -2   4 -13  129.89   32.77
   2   5 -12  178.14   31.50
   2   5 -11  235.55   32.43
   2   5 -10  174.96   27.78
  -2   5  10  159.15    8.84
  -2   5   9  164.96    9.64
   2   5  -9  264.96   27.37
  -2   5   8  214.14   11.09
  -2   5   8  233.08   14.94
  -2   5   8  225.96   18.81
  -2   5   7  224.24   11.93
  -2   5   7  218.04   14.74
  -2   5   7  206.31   17.14
  -2   5   6  725.96   27.11
  -2   5   6  633.33   21.47
  -2   5   6  691.25   28.04
   2   5  -5  317.70   20.34
  -2   5   5  270.94   16.23
  -2   5   4  361.82   18.16
  -2   5   4  362.53   17.65
  -2   5   3  786.14   25.45
  -2   5   3  932.54   30.21
  -2   5   2  345.92   15.44
  -2   5   2  345.66   17.59
  -2   5   1  560.47   20.22
   2   5  -1  589.32   21.01
  -2   5   1  635.07   23.20
  -2   5   0  106.47    8.83
   2   5   0  133.16    8.28
  -2   5  -1  704.10   22.31
   2   5   1  771.63   20.17
  -2   5  -2  288.34   13.20
   2   5   2  254.93    9.67
  -2   5  -3  898.73   25.68
  -2   5  -4  336.76   14.15
   2   5   5  180.55   14.09
  -2   5  -6  686.22   24.54
   2   5   6  655.25   25.22
  -2   5  -7  230.98   14.52
   2   5   7  230.11   16.35
  -2   5  -8  260.19   14.84
   2   5   8  247.47   18.13
  -2   5  -9  167.66   12.37
   2   5   9  178.86   17.44
  -2   5 -10  175.97   12.34
   2   6 -11  314.41   34.78
   2   6 -10  573.50   40.05
  -2   6  10  423.09   15.55
  -2   6   9  780.42   23.91
  -2   6   9  807.45   37.28
  -2   6   8  585.25   22.38
  -2   6   8  521.78   18.23
  -2   6   8  521.28   27.07
  -2   6   7  547.84   21.98
  -2   6   7  507.92   18.87
  -2   6   7  472.88   24.86
   2   6  -6 1327.74   55.49
  -2   6   6 1559.94   42.48
  -2   6   6 1544.04   38.93
  -2   6   6 1377.64   43.92
  -2   6   5 1066.87   32.70
  -2   6   5 1072.46   30.93
  -2   6   5 1006.16   34.47
  -2   6   4  806.19   28.81
  -2   6   4  855.82   28.27
  -2   6   4  831.38   29.16
   2   6  -3 1378.36   39.89
  -2   6   3 1400.39   40.25
  -2   6   2 1518.96   40.71
  -2   6   2 1584.11   45.00
  -2   6   1 1252.31   34.63
  -2   6   1 1255.33   37.52
  -2   6   0  625.17   21.87
   2   6   0  697.76   21.01
   2   6   1 1537.43   33.92
  -2   6  -1 1413.83   37.16
  -2   6  -2 1496.88   36.97
   2   6   2 1462.49   31.98
  -2   6  -3 1210.37   29.98
   2   6   3 1013.29   24.18
  -2   6  -4  786.91   23.40
  -2   6  -5 1156.54   30.22
  -2   6  -5 1222.49   36.42
   2   6   6 1388.60   41.96
  -2   6  -6 1415.21   34.74
  -2   6  -7  505.80   16.88
   2   6   7  477.59   23.62
  -2   6  -8  551.55   16.69
  -2   6  -8  571.17   22.52
   2   6   8  571.15   26.96
  -2   6  -9  687.72   16.95
   2   6   9  730.48   31.06
   2   6  10  409.56   26.53
   2   7 -11  102.05   27.86
  -2   7  10   51.72   19.03
  -2   7  10   47.66    8.40
   2   7 -10   58.83   23.09
  -2   7   9  100.66    9.71
  -2   7   9  121.14   18.05
  -2   7   8  339.50   17.11
  -2   7   8  316.46   22.51
  -2   7   8  335.05   15.65
  -2   7   7  129.92   12.05
  -2   7   7  112.88   10.77
  -2   7   7  117.48   15.58
  -2   7   6   40.12   11.72
  -2   7   6   50.03    9.44
  -2   7   6   46.31    9.91
  -2   7   5  309.95   17.58
  -2   7   5  340.96   16.97
  -2   7   4  375.95   19.61
  -2   7   4  388.22   18.53
  -2   7   4  357.04   18.75
  -2   7   3   58.78    9.56
  -2   7   3   41.74    9.75
   2   7  -3   70.87   11.02
  -2   7   3   56.25    9.46
   2   7  -2   68.03    9.65
  -2   7   2   50.72    9.23
  -2   7   2   42.75    9.96
   2   7  -1  600.68   21.12
  -2   7   1  501.43   20.39
  -2   7   0   37.04    7.28
   2   7   0   40.32    6.84
  -2   7  -1  385.32   16.63
   2   7   1  361.66   13.39
  -2   7  -2   41.88    7.55
   2   7   2   35.59    4.70
  -2   7  -3   31.88    7.10
   2   7   3   18.15    3.65
  -2   7  -3   32.40    9.74
  -2   7  -4  315.00   14.35
  -2   7  -4  334.11   19.04
  -2   7  -5  322.45   13.91
  -2   7  -5  367.26   19.98
   2   7   6   39.14   11.28
  -2   7  -6   37.73   10.47
  -2   7  -6   38.37    6.73
  -2   7  -7  135.59    8.29
  -2   7  -7  153.58   14.06
   2   7   7  120.87   14.86
  -2   7  -8  278.98    8.83
   2   7   8  286.40   20.54
  -2   7  -8  309.64   18.09
  -2   7  -9   91.64   12.32
   2   7   9   86.00   15.81
   2   7  10   34.06   15.23
  -2   8  10   65.86   17.70
  -2   8  10   91.34   10.45
   2   8 -10   93.38   26.01
  -2   8   9  315.01   15.82
   2   8  -9  365.76   31.29
  -2   8   9  292.63   25.27
  -2   8   8  215.77   14.16
  -2   8   8  207.25   13.42
  -2   8   8  185.36   20.21
  -2   8   7  218.06   14.50
  -2   8   7  196.90   13.76
  -2   8   7  178.79   18.81
  -2   8   6  909.56   28.80
  -2   8   6  807.48   28.07
  -2   8   5 1430.63   40.17
  -2   8   5 1413.78   40.13
  -2   8   4  882.51   31.02
   2   8  -4  858.62   33.36
  -2   8   4  811.60   29.91
   2   8  -3 1436.85   42.46
  -2   8   3 1350.75   40.17
  -2   8   3 1349.23   41.73
  -2   8   3 1431.13   42.36
  -2   8   2 2775.81   66.59
  -2   8   2 2759.52   68.86
   2   8  -1 2415.97   56.95
  -2   8   1 2505.89   59.14
  -2   8   0 1706.73   45.02
   2   8   0 1825.58   43.64
  -2   8   0 1804.68   50.32
  -2   8  -1 2365.83   55.57
   2   8   1 2349.71   50.75
  -2   8  -1 2400.67   62.08
   2   8   2 3058.58   60.56
  -2   8  -2 3202.41   75.94
  -2   8  -2 3027.17   67.19
   2   8   3 1175.17   26.36
  -2   8  -3 1339.73   34.29
  -2   8  -4  890.17   26.40
  -2   8  -4  987.50   35.27
  -2   8  -5 1395.91   35.12
  -2   8  -5 1587.06   46.18
  -2   8  -6 1008.35   34.75
  -2   8  -6  919.46   24.62
  -2   8  -7  233.15    9.55
  -2   8  -7  235.92   17.42
  -2   8  -8  217.51   17.40
   2   8   8  175.30   18.86
  -2   8  -9  392.16   21.95
   2   8   9  325.60   24.34
   2   8  10   79.21   17.92
   2   8  11   26.19   18.04
  -2   9  10   37.20   17.24
  -2   9  10   36.07    9.62
   2   9 -10   42.17   23.97
  -2   9   9  169.20   13.41
  -2   9   9  140.78   20.11
  -2   9   8  191.51   14.69
  -2   9   8  177.74   12.44
  -2   9   8  156.87   20.25
  -2   9   7   62.27   15.42
  -2   9   7   70.50   11.09
  -2   9   7   60.27   11.21
   2   9  -6  150.06   19.63
  -2   9   6  148.88   13.07
  -2   9   6  138.07   13.06
  -2   9   5  399.69   19.96
  -2   9   5  393.97   20.15
  -2   9   4  169.16   14.78
  -2   9   4  164.05   14.58
   2   9  -4  171.27   17.15
  -2   9   3   87.47   12.60
  -2   9   3   80.23   12.62
   2   9  -3   67.23   12.01
   2   9  -2  171.06   14.12
  -2   9   2  108.98   13.18
   2   9  -1   73.57   10.21
   2   9  -1   55.96   12.33
  -2   9   1   61.57   10.58
  -2   9   0   20.89   10.83
  -2   9   0   14.84    9.14
   2   9   0   14.01    7.13
   2   9   0   14.15    9.47
  -2   9  -1   48.41   12.67
   2   9   1   46.95    7.05
  -2   9  -1   53.01    9.96
   2   9   2   60.48    6.21
  -2   9  -2   84.70   10.59
  -2   9  -2   95.65   14.16
   2   9   3   84.30    5.29
  -2   9  -3  100.82   14.42
  -2   9  -3   94.58   10.22
  -2   9  -4  154.72   11.60
  -2   9  -4  153.99   16.31
  -2   9  -5  288.45   14.06
  -2   9  -5  276.97   20.04
  -2   9  -6  123.81   14.80
   2   9   7   39.63   14.03
  -2   9  -7   51.32   13.58
  -2   9  -8  174.24   17.74
   2   9   8  136.85   18.07
  -2   9  -9  176.60   18.15
   2   9   9  151.47   19.40
   2   9  10   29.19   16.66
  -2  10  10  143.06   13.45
  -2  10   9  355.27   19.30
  -2  10   9  292.16   25.82
  -2  10   8  377.18   19.98
  -2  10   8  372.12   15.79
  -2  10   8  325.04   24.90
  -2  10   7  344.85   19.81
  -2  10   7  376.50   18.04
   2  10  -6  526.03   30.85
  -2  10   6  493.52   20.93
  -2  10   6  434.90   21.99
   2  10  -5  859.51   36.63
  -2  10   5  827.49   29.12
   2  10  -4  558.04   28.01
  -2  10   4  474.35   23.18
  -2  10   4  546.62   25.10
  -2  10   3  510.87   24.37
  -2  10   3  558.07   26.67
   2  10  -2  687.97   31.94
   2  10  -2  752.13   28.23
  -2  10   2  677.28   28.41
  -2  10   2  713.06   30.69
   2  10  -1  572.82   22.81
   2  10  -1  494.37   26.86
   2  10   0  629.03   22.47
  -2  10   0  678.90   30.29
   2  10   1  479.59   17.93
  -2  10  -1  490.80   26.61
   2  10   2  680.30   19.46
  -2  10  -2  773.48   33.01
  -2  10  -2  772.80   27.27
   2  10   2  700.00   30.09
   2  10   3  495.32   13.31
  -2  10  -3  576.35   28.71
  -2  10  -4  473.44   26.19
  -2  10  -5  760.31   32.67
  -2  10  -6  505.99   26.70
   2  10   7  260.52   22.73
  -2  10  -7  389.91   24.13
  -2  10  -8  379.18   23.65
   2  10   8  271.82   23.96
  -2  10  -9  380.40   24.54
   2  10   9  265.65   23.88
   2  10  10  137.67   21.53
  -2  11   9   90.70   14.16
  -2  11   8   73.28   18.40
  -2  11   8  103.73   14.19
  -2  11   7   78.53   17.25
  -2  11   7  108.07   14.75
  -2  11   7  109.04   11.69
   2  11  -7  109.09   22.34
  -2  11   6  113.15   18.40
  -2  11   6  133.38   15.62
  -2  11   6  154.62   13.32
   2  11  -5  128.56   19.01
  -2  11   5   91.78   12.81
  -2  11   5   93.94   14.33
  -2  11   4   44.22   12.05
  -2  11   4   44.23   12.61
   2  11  -4   60.20   15.78
  -2  11   3  154.18   15.49
   2  11  -3  179.60   17.63
  -2  11   3  160.39   16.83
   2  11  -2   43.79   14.73
  -2  11   2   56.14   14.20
   2  11  -2   64.98   12.37
  -2  11   2   43.45   11.65
   2  11  -1   23.55   12.49
   2  11  -1   32.58   10.07
   2  11   0   17.70    8.69
  -2  11   0   12.65   12.56
   2  11   0    5.27   11.46
  -2  11  -1   29.99   13.79
   2  11   1   21.24    7.99
   2  11   2   17.26   12.35
   2  11   2   16.29    6.17
  -2  11  -2   31.71   14.14
   2  11   3  105.00    6.19
  -2  11  -3  138.15   17.28
  -2  11  -4   30.87   14.06
  -2  11  -5   77.29   16.84
  -2  11  -6  111.53   18.15
   2  11   7   80.74   17.61
  -2  11  -7  141.58   18.77
   2  11   8   66.75   16.70
  -2  11  -8   64.03   17.33
   2  11   9   65.28   18.84
  -2  12   9   67.22   14.13
  -2  12   8  149.49   16.76
  -2  12   7  182.20   17.83
  -2  12   7  145.41   20.04
  -2  12   6  150.27   20.64
  -2  12   6  185.84   18.56
   2  12  -6  185.84   24.34
  -2  12   6  207.01   14.60
  -2  12   5  448.77   25.88
   2  12  -5  502.61   30.88
  -2  12   5  507.28   22.40
   2  12  -4  632.55   31.79
  -2  12   4  592.21   25.80
  -2  12   4  599.75   29.40
   2  12  -3  583.95   29.00
  -2  12   3  597.99   26.38
  -2  12   3  568.25   29.22
  -2  12   2  788.14   31.78
   2  12  -2  853.85   37.86
  -2  12   2  850.52   35.50
   2  12  -1 1101.80   34.82
   2  12  -1  973.78   40.69
   2  12   0  933.79   29.82
   2  12   0  849.58   36.98
  -2  12   0  935.21   38.02
   2  12   1  843.87   26.43
  -2  12  -1  932.21   38.45
   2  12   2  910.17   37.32
   2  12   2  955.56   25.01
   2  12   3  606.05   15.49
  -2  12  -3  729.93   34.24
  -2  12  -4  579.83   31.74
  -2  12  -5  521.86   30.70
  -2  12  -6  281.21   24.03
  -2  12  -7  192.94   21.92
   2  12   8  119.83   18.96
  -2  12  -8  163.47   21.59
  -2  13   9   75.12   14.86
  -2  13   8   66.56   15.72
  -2  13   7   49.31   14.92
   2  13  -7   74.09   24.23
  -2  13   6   77.65   19.42
  -2  13   6  102.29   17.32
   2  13  -6  112.14   22.98
  -2  13   5  116.28   17.57
   2  13  -5  107.78   20.69
  -2  13   4   51.45   16.86
   2  13  -4   56.75   17.42
  -2  13   4   57.90   13.05
  -2  13   3   68.26   17.29
   2  13  -3   60.66   16.43
  -2  13   3   60.53   12.75
  -2  13   2   64.18   17.23
   2  13  -2   49.45   17.04
   2  13  -2   60.15   14.32
  -2  13   2   36.13   12.21
   2  13  -1   74.31   13.13
   2  13  -1   55.74   16.79
  -2  13   0   13.82   15.59
   2  13   0   -0.32   14.62
   2  13   0    8.21   10.20
   2  13   1   51.66    9.80
  -2  13  -1   63.56   17.07
  -2  13  -2   34.19   17.02
   2  13   2   24.84   14.71
   2  13   2   11.96    6.91
   2  13   3   45.36    5.38
  -2  13  -3   70.28   19.43
  -2  13  -4   29.42   17.63
  -2  13  -5  112.16   20.00
  -2  13  -6  136.79   21.77
  -2  13  -7   45.45   18.31
  -2  13  -8   82.42   20.75
  -2  14   7  218.91   21.24
  -2  14   6  122.20   18.89
   2  14  -6  116.01   24.54
  -2  14   5  183.18   21.39
   2  14  -5  211.02   25.57
  -2  14   4  237.50   22.19
   2  14  -4  285.60   26.14
  -2  14   3  200.80   22.58
   2  14  -3  174.60   21.23
  -2  14   3  170.41   16.95
  -2  14   2  140.15   20.95
   2  14  -2  112.68   17.28
  -2  14   2   97.78   14.88
   2  14  -1  171.13   16.92
   2  14  -1  152.88   21.87
  -2  14   0  266.82   25.12
   2  14   0  252.18   24.27
   2  14   0  234.75   17.30
  -2  14  -1  169.80   22.53
   2  14   1  117.56   11.85
  -2  14  -2  182.10   23.40
   2  14   2  132.00    9.90
  -2  14  -3  198.66   24.59
  -2  14  -4  229.18   24.38
  -2  14  -5  168.70   23.93
  -2  14  -6  146.93   23.45
  -2  14  -7  223.60   25.93
   2  15  -5   51.78   21.30
   2  15  -4   15.98   18.12
  -2  15   3   91.65   20.87
   2  15  -3   91.97   18.86
   2  15  -2   48.73   15.52
  -2  15   2   43.64   18.42
   2  15  -1    6.33   13.75
   2  15   0    5.60   11.74
  -2  15   0    6.47   17.59
  -2  15  -1   39.56   19.36
   2  15   1   29.89    9.75
  -2  15  -2   16.61   18.68
  -2  15  -3   74.38   21.80
   2  16  -4  236.78   25.69
   2  16  -3  214.50   22.95
   2  16  -2  276.62   23.88
   2  16  -1  372.66   23.47
  -3 -16   1  361.89   38.87
  -3 -16   0  421.01   43.99
  -3 -16  -1  332.61   43.92
  -3 -15   2   46.44   24.22
  -3 -15   1   22.53   26.63
  -3 -15   0    3.11   27.37
  -3 -15  -1    9.12   29.12
  -3 -15  -2   11.89   32.21
   3 -14  -4  267.20   33.44
   3 -14  -3  132.98   26.48
  -3 -14   3  168.53   24.84
   3 -14  -2  103.12   24.06
  -3 -14   2  131.87   25.66
  -3 -14   1  166.61   30.01
   3 -13  -5   44.36   25.17
   3 -13  -4   23.38   23.16
  -3 -13   4   21.60   15.19
   3 -13  -3   34.30   21.82
  -3 -13   3   28.18   18.06
   3 -13  -2   21.02   19.73
   3 -12  -5  285.63   31.91
  -3 -12   5  390.30   20.25
   3 -12  -4  427.41   33.68
   3 -12  -3  387.01   31.58
   3 -12  -2  569.32   35.12
   3 -11  -7  148.29   28.46
   3 -11  -6  106.55   24.45
  -3 -11   6  115.37    9.84
   3 -11  -4   79.96   20.62
   3 -11  -3  114.93   20.56
   3 -11  -2   79.84   16.77
   3 -10  -8  280.93   33.22
   3 -10  -7  170.90   27.15
   3 -10  -6  253.61   28.46
   3 -10  -3  134.88   19.90
   3 -10  -2  329.74   24.86
  -3 -10   0  173.03   23.85
   3  -9  -9   90.94   25.77
   3  -9  -8  200.76   26.05
   3  -9  -8  243.28   29.82
  -3  -9   8  151.66   18.67
  -3  -9   7   85.05   16.52
   3  -9  -7   44.38   20.89
   3  -9  -7   23.95   20.08
  -3  -9   6   58.21   16.43
   3  -9  -6   52.05   17.97
   3  -9  -6   55.81   19.02
  -3  -9   5  126.91   19.85
   3  -9  -5  208.01   22.88
  -3  -9   4   69.79   17.86
  -3  -9   3   18.09   15.17
   3  -9  -2   83.88   15.06
  -3  -9   2   71.14   17.89
  -3  -9   0   30.83   16.17
  -3  -9  -1   93.86   19.79
  -3  -9  -2   79.53   19.21
  -3  -9  -3   16.30   16.77
  -3  -9  -4   58.49   19.55
  -3  -9  -5  129.06   21.48
   3  -9   6   51.09   13.40
  -3  -9  -6   29.11   18.54
  -3  -9  -7   60.59   18.91
   3  -9   7   39.81   13.62
   3  -9   8  216.41   18.19
  -3  -9  -8   83.40   21.37
   3  -9   9   76.86   15.04
   3  -8 -10   35.24   24.60
  -3  -8  10   94.28   22.15
   3  -8  -9  145.13   26.64
  -3  -8   9  213.40   17.81
   3  -8  -8   88.94   20.13
   3  -8  -8   64.31   21.12
  -3  -8   8  109.64   15.51
  -3  -8   7   88.12    6.56
   3  -8  -7   72.30   19.34
   3  -8  -7   52.48   18.83
  -3  -8   7  106.28   16.18
  -3  -8   6  594.73   22.02
  -3  -8   6  505.36   28.89
   3  -8  -6  280.55   26.76
   3  -8  -6  359.43   29.07
  -3  -8   5  850.08   36.21
   3  -8  -5  683.02   37.01
   3  -8  -4  377.50   26.20
  -3  -8   4  404.70   27.07
  -3  -8   3  800.60   37.67
  -3  -8   2 1688.29   56.65
   3  -8  -2 1232.35   45.29
  -3  -8   0  686.11   36.65
  -3  -8  -1 1163.54   48.48
  -3  -8  -2 1500.51   56.43
  -3  -8  -3  668.31   36.12
  -3  -8  -4  361.01   27.43
  -3  -8  -5  621.07   35.16
   3  -8   5  603.49   28.27
  -3  -8  -6  387.27   29.55
   3  -8   6  295.57   20.21
   3  -8   7   60.74   13.66
  -3  -8  -7   97.17   18.61
   3  -8   8   70.64   13.37
  -3  -8  -8  117.77   20.46
   3  -8   9  136.83   15.94
   3  -7 -11  152.93   29.50
  -3  -7  10   62.24   17.24
   3  -7 -10   78.54   25.49
   3  -7  -9  156.76   25.00
  -3  -7   9  169.10   20.86
  -3  -7   9  105.07   13.95
   3  -7  -8  328.83   26.59
   3  -7  -8  269.62   28.11
   3  -7  -7  279.47   24.05
   3  -7  -7  339.62   28.00
  -3  -7   7  294.99   11.59
   3  -7  -6   23.57   14.67
  -3  -7   6   22.04    9.62
  -3  -7   6   18.58   12.91
   3  -7  -6   12.42   14.32
   3  -7  -5  351.22   25.09
   3  -7  -5  384.51   27.54
  -3  -7   5  349.10   24.97
   3  -7  -4  564.72   29.94
   3  -7  -4  675.68   34.30
  -3  -7   4  621.84   32.79
  -3  -7   3   70.26   15.70
  -3  -7   2   56.98   14.99
  -3  -7   0  220.26   20.53
  -3  -7  -1  305.34   23.54
  -3  -7  -2   46.22   14.79
  -3  -7  -3   68.64   15.48
   3  -7   4  534.71   26.51
  -3  -7  -4  552.92   32.00
   3  -7   5  325.08   20.11
  -3  -7  -5  291.02   25.62
   3  -7   6   21.12   11.18
  -3  -7  -6   12.28   14.53
   3  -7   7  304.54   18.50
  -3  -7  -7  140.73   20.82
   3  -7   8  293.13   19.05
  -3  -7  -8  301.71   24.08
  -3  -7  -9   90.42   17.45
   3  -7   9  137.84   13.99
   3  -6 -12  117.68   28.74
   3  -6 -11   48.77   24.22
   3  -6 -10  224.78   28.87
   3  -6 -10  194.80   20.56
  -3  -6  10  222.79   17.99
   3  -6  -9  368.58   31.29
  -3  -6   9  407.50   19.88
   3  -6  -9  381.23   24.37
  -3  -6   8  222.16   17.54
   3  -6  -8  251.73   25.30
  -3  -6   8  243.93    9.77
   3  -6  -8  243.07   20.31
   3  -6  -8  228.68   21.14
   3  -6  -7  198.04   20.91
   3  -6  -7  194.13   22.51
  -3  -6   7  199.25   17.66
  -3  -6   7  226.84   11.08
   3  -6  -7  222.77   18.66
   3  -6  -6  536.38   29.60
   3  -6  -6  496.01   30.65
   3  -6  -5  478.02   27.92
   3  -6  -5  550.02   29.98
  -3  -6   5  501.17   27.06
   3  -6  -4  174.03   19.39
  -3  -6   4  195.57   18.86
   3  -6  -3  274.87   19.89
   3  -6  -3  298.06   22.11
  -3  -6   3  228.25   21.18
   3  -6  -2  611.00   30.03
  -3  -6   2  594.17   31.06
  -3  -6   1  281.67   19.60
  -3  -6   0   62.27   11.48
  -3  -6   0  101.66   17.14
  -3  -6  -1  175.18   15.57
  -3  -6  -1  317.36   24.12
   3  -6   2  543.58   26.11
  -3  -6  -2  509.51   29.42
   3  -6   3  244.07   17.76
  -3  -6  -3  202.39   20.09
   3  -6   4  156.84   15.74
  -3  -6  -4  150.04   17.94
  -3  -6  -4  161.70   10.55
  -3  -6  -5  429.70   26.40
  -3  -6  -5  381.51   13.36
   3  -6   6  499.44   23.17
  -3  -6  -6  471.41   28.64
   3  -6   7  182.19   15.34
  -3  -6  -7  136.13   18.39
  -3  -6  -8  218.56   19.65
   3  -6   8  233.69   15.93
  -3  -6  -9  523.57   27.23
   3  -6   9  350.62   18.60
   3  -5 -11  170.68   27.78
   3  -5 -11  153.53   19.33
   3  -5 -10  135.59   24.13
  -3  -5  10  120.97   11.04
   3  -5 -10  120.53   17.36
  -3  -5  10  120.72   13.15
   3  -5  -9  116.42   21.57
   3  -5  -9  129.63   17.15
   3  -5  -9  100.30   14.22
  -3  -5   9  139.88   14.77
  -3  -5   9  105.80   12.19
   3  -5  -8  272.98   25.18
  -3  -5   8  263.62   17.76
  -3  -5   8  287.05   12.18
   3  -5  -8  302.83   22.24
  -3  -5   8  319.68   20.03
   3  -5  -8  231.25   18.83
   3  -5  -7  147.67   20.05
  -3  -5   7  187.09   10.89
  -3  -5   7  175.78   16.54
   3  -5  -7  169.96   17.11
   3  -5  -7  161.31   17.37
   3  -5  -6  337.04   23.39
  -3  -5   6  392.98   17.43
   3  -5  -6  317.38   21.32
  -3  -5   6  410.03   22.89
   3  -5  -5  227.16   19.21
   3  -5  -5  198.65   18.58
   3  -5  -5  222.66   18.31
  -3  -5   5  255.16   20.23
  -3  -5   4  269.77   21.71
   3  -5  -4  268.46   19.94
   3  -5  -4  295.36   21.37
   3  -5  -3  392.84   24.32
  -3  -5   3  455.15   26.45
   3  -5  -2  321.06   21.60
  -3  -5   2  280.28   20.72
   3  -5  -1  391.97   23.49
  -3  -5   1  318.55   20.42
  -3  -5   0    2.84   10.59
   3  -5   0   -1.60    9.75
  -3  -5   0    1.88    7.87
  -3  -5  -1  215.74   15.60
  -3  -5  -1  322.87   23.50
   3  -5   2  256.84   17.95
  -3  -5  -2  234.88   20.59
   3  -5   3  350.96   20.98
  -3  -5  -3  333.68   23.41
  -3  -5  -3  358.37   16.90
  -3  -5  -4  219.44   20.18
  -3  -5  -4  172.88   11.43
   3  -5   5  206.25   15.71
  -3  -5  -5  191.74   10.19
  -3  -5  -5  190.43   19.15
   3  -5   6  290.60   17.89
  -3  -5  -6  307.55   11.66
  -3  -5  -6  293.77   21.68
  -3  -5  -7  142.15    7.70
  -3  -5  -7  182.90   16.63
  -3  -5  -7  151.98   17.64
   3  -5   7  141.42   12.99
  -3  -5  -8  174.87    7.69
  -3  -5  -8  167.42   18.22
  -3  -5  -8  224.08    9.70
  -3  -5  -8  274.68   19.76
   3  -5   8  240.99   14.79
   3  -5   9  117.55   11.36
  -3  -5  -9  129.27   16.99
  -3  -5  -9   81.47   14.31
   3  -4 -11   68.03   17.32
  -3  -4  10   99.96   10.48
   3  -4 -10   66.51   20.97
   3  -4 -10   60.22   16.98
  -3  -4  10  114.76    9.73
   3  -4  -9  167.58   18.76
   3  -4  -9  169.99   23.25
  -3  -4   9  125.44   11.64
  -3  -4   9  152.96   13.51
  -3  -4   8  118.63    9.18
  -3  -4   8  147.99   13.93
   3  -4  -8   56.31   16.53
   3  -4  -8   66.81   12.50
   3  -4  -8   61.26   14.16
  -3  -4   8  124.08   13.02
   3  -4  -7  225.01   21.28
  -3  -4   7  345.44   14.72
   3  -4  -7  243.15   19.84
  -3  -4   7  397.56   20.59
  -3  -4   7  369.84   19.63
   3  -4  -7  248.87   18.39
   3  -4  -6  456.87   27.14
  -3  -4   6  560.22   20.51
   3  -4  -6  536.30   25.80
  -3  -4   6  619.29   25.70
   3  -4  -6  430.11   23.92
  -3  -4   6  539.10   27.09
  -3  -4   5  281.39   21.77
   3  -4  -5  289.83   20.38
   3  -4  -5  328.78   21.48
   3  -4  -4  867.32   34.45
  -3  -4   4  915.65   37.16
   3  -4  -4  958.41   34.51
   3  -4  -3 1391.65   44.09
   3  -4  -3 1335.82   43.20
   3  -4  -2 1084.99   37.71
  -3  -4   2  999.08   37.87
   3  -4  -1 1297.24   40.97
  -3  -4   1  997.89   37.56
   3  -4   0 1934.34   52.61
  -3  -4   0 1562.11   48.90
  -3  -4  -1 1118.62   35.12
   3  -4   2 1035.95   34.11
  -3  -4  -2  865.06   28.48
   3  -4   3 1256.56   38.68
  -3  -4  -3 1213.38   32.74
  -3  -4  -3 1128.74   41.57
  -3  -4  -4  715.02   22.59
  -3  -4  -4  664.06   31.59
  -3  -4  -5  324.72   22.65
   3  -4   5  302.41   17.32
  -3  -4  -6  393.30   24.84
  -3  -4  -6  419.80   16.33
   3  -4   6  443.31   19.94
  -3  -4  -7  359.93   15.20
  -3  -4  -7  265.49   20.24
  -3  -4  -7  365.72   21.09
   3  -4   7  238.37   14.99
  -3  -4  -8   91.28   14.18
  -3  -4  -8  133.76   10.88
  -3  -4  -8  130.87   15.48
  -3  -4  -9  117.08   11.34
  -3  -4  -9  102.20   12.10
  -3  -4  -9  133.92   15.96
  -3  -4 -13   49.32   27.29
   3  -3 -12   55.85   19.70
   3  -3 -11  166.96   21.68
   3  -3 -10  327.76   25.06
  -3  -3  10  211.97   11.32
  -3  -3   9   87.36    9.95
  -3  -3   9   94.40   10.55
   3  -3  -9  118.67   18.05
  -3  -3   8  519.02   18.15
  -3  -3   8  479.35   20.08
  -3  -3   7  426.68   23.53
  -3  -3   7  525.78   18.74
   3  -3  -7  421.58   21.27
  -3  -3   7  534.95   21.53
  -3  -3   6  143.92   10.90
  -3  -3   6  124.19   15.43
  -3  -3   6  146.21   12.89
   3  -3  -6  109.29   12.72
  -3  -3   5  429.27   19.79
  -3  -3   5  402.92   25.62
   3  -3  -5  402.73   21.69
  -3  -3   5  470.78   21.18
   3  -3  -5  353.20   20.14
  -3  -3   4  680.98   32.81
   3  -3  -4  905.34   31.84
  -3  -3   4  914.85   30.50
   3  -3  -4  679.10   28.98
  -3  -3   3  198.18   17.66
   3  -3  -3  211.56   15.97
   3  -3  -2   18.23    8.89
  -3  -3   2   18.22    9.81
   3  -3  -2   14.08    8.69
   3  -3  -1  696.29   28.05
  -3  -3   1  586.47   27.38
   3  -3   0  489.18   23.06
  -3  -3   0  357.78   19.45
  -3  -3  -1  593.70   22.74
   3  -3   2   17.65    8.21
  -3  -3  -2   23.39    6.84
  -3  -3  -3  162.79   11.47
   3  -3   3  230.97   15.01
  -3  -3  -4  752.34   28.65
   3  -3   4  772.70   26.52
  -3  -3  -5  438.02   18.35
  -3  -3  -5  452.95   21.96
  -3  -3  -6  109.78   11.61
  -3  -3  -6  130.44   13.80
   3  -3   6  131.78   11.11
  -3  -3  -7  393.58   20.83
  -3  -3  -7  432.45   22.06
  -3  -3  -8  671.69   26.70
  -3  -3  -8  597.51   26.27
  -3  -3  -9   85.26   13.23
  -3  -3  -9   64.67   11.99
  -3  -3  -9   81.05   14.03
  -3  -3 -10  151.97   16.59
   3  -2 -12   91.74   22.63
   3  -2 -11  131.28   22.28
  -3  -2  10  335.08   13.28
   3  -2 -10  427.05   29.16
  -3  -2   9  133.84   10.12
  -3  -2   9  125.22   11.14
   3  -2  -8  249.84   17.57
  -3  -2   8  178.13   11.89
  -3  -2   8  228.70   16.44
  -3  -2   8  197.13   12.32
   3  -2  -8  216.16   20.36
   3  -2  -7  817.94   29.91
  -3  -2   7  738.67   34.57
   3  -2  -7  781.95   34.17
  -3  -2   7  834.46   27.30
   3  -2  -6  657.12   23.41
  -3  -2   6  449.43   18.21
   3  -2  -6  579.15   26.53
   3  -2  -6  361.30   19.29
  -3  -2   6  458.17   19.22
   3  -2  -5  114.69   10.89
  -3  -2   5   83.61    9.60
   3  -2  -5   88.97   11.90
   3  -2  -5   50.79    9.64
  -3  -2   5   67.90    9.42
   3  -2  -4  508.80   20.78
  -3  -2   4  804.26   33.05
   3  -2  -4  573.87   26.70
  -3  -2   4  764.07   25.47
   3  -2  -4  716.40   25.97
  -3  -2   3  789.23   33.33
   3  -2  -3 1114.25   33.81
  -3  -2   3 1029.64   30.98
   3  -2  -3  691.60   27.91
  -3  -2   2   97.27   12.81
   3  -2  -2  100.74   11.57
   3  -2  -2   86.28   10.10
  -3  -2   1   96.77   11.12
   3  -2  -1  107.01   10.83
  -3  -2   0 1131.51   36.27
   3  -2   0 1192.56   36.58
  -3  -2  -1  113.47   10.42
  -3  -2  -1  144.19   11.95
  -3  -2  -2   76.83    9.18
  -3  -2  -2   80.58   10.12
   3  -2   2   81.66    9.49
  -3  -2  -3  780.40   27.21
  -3  -2  -3  819.26   29.30
  -3  -2  -4  894.75   27.72
  -3  -2  -4  962.73   30.15
  -3  -2  -5   60.13   10.70
   3  -2   5   70.73    8.48
  -3  -2  -5   62.76   10.44
  -3  -2  -6  402.01   21.01
   3  -2   6  452.99   17.63
  -3  -2  -6  406.01   20.38
  -3  -2  -7  684.33   29.40
  -3  -2  -7  950.81   31.72
  -3  -2  -8  170.90   14.70
  -3  -2  -8  142.79   14.83
  -3  -2  -9  111.00   13.85
  -3  -2  -9   83.58   11.41
   3  -1 -13  233.60   30.21
   3  -1 -12   28.86   21.44
   3  -1 -11  224.75   26.09
  -3  -1  10  371.58   13.93
   3  -1 -10  559.72   33.28
  -3  -1   9   97.23   11.13
   3  -1  -9   92.85   18.09
  -3  -1   8   85.93   10.43
   3  -1  -8   97.86   16.58
  -3  -1   8  125.67   13.53
   3  -1  -8   95.14   12.99
  -3  -1   7  525.51   19.60
  -3  -1   7  529.33   20.04
  -3  -1   6  484.91   19.47
  -3  -1   6  532.10   20.00
  -3  -1   6  444.63   27.46
   3  -1  -6  539.38   26.63
   3  -1  -6  571.23   22.01
   3  -1  -5  108.44   12.73
  -3  -1   5  102.32   10.30
   3  -1  -5  105.45    9.95
  -3  -1   5   98.89    9.71
  -3  -1   4  182.01   12.80
  -3  -1   4  188.37   12.29
  -3  -1   3  693.49   31.30
   3  -1  -3  792.18   28.35
   3  -1  -3  524.57   22.54
  -3  -1   3  683.77   24.18
   3  -1  -3  956.57   23.30
  -3  -1   2  207.90   16.09
   3  -1  -2  169.61   12.21
  -3  -1   1   53.85    9.30
   3  -1  -1   53.45    8.96
   3  -1  -1   34.21    7.17
  -3  -1   0  177.99   14.13
   3  -1   0  202.16   14.38
   3  -1   0  213.00   12.76
  -3  -1  -1   26.88    7.66
  -3  -1  -1   44.34    7.90
  -3  -1  -2  168.00   12.98
   3  -1   2  187.06   11.76
  -3  -1  -2  158.50   12.04
  -3  -1  -3  580.40   23.54
  -3  -1  -3  566.17   23.04
  -3  -1  -4  142.44   13.81
  -3  -1  -4  126.23   11.73
  -3  -1  -5   93.73   10.49
  -3  -1  -6  463.02   21.64
  -3  -1  -7  437.87   21.08
  -3  -1  -9   71.56   11.47
   3   0 -13   24.33   24.35
   3   0 -12   14.16   22.33
   3   0 -11   66.78   22.26
  -3   0  10  187.55   10.23
   3   0 -10   54.68   19.66
   3   0  -9   35.84   16.46
  -3   0   9   31.00    9.73
   3   0  -8   41.67   10.91
  -3   0   8  119.96   15.98
  -3   0   8  139.18   11.91
   3   0  -8   43.37   14.84
  -3   0   7  714.12   32.64
  -3   0   7  657.39   21.99
   3   0  -7  450.75   27.66
   3   0  -7  430.03   21.56
  -3   0   6  256.20   13.61
  -3   0   6  246.21   20.66
  -3   0   6  270.86   14.72
   3   0  -5   25.93    7.61
  -3   0   5   42.41    7.14
  -3   0   5   55.10    8.54
  -3   0   5   56.28   12.60
   3   0  -5   35.01    9.64
  -3   0   4 1358.68   35.99
  -3   0   4 1326.68   37.05
   3   0  -4 1302.84   40.81
   3   0  -4 1395.59   34.48
  -3   0   3 1673.06   42.88
   3   0  -3 1570.39   45.94
   3   0  -3 1652.72   38.36
   3   0  -2  392.41   18.89
  -3   0   2  325.06   19.78
   3   0  -1  947.26   30.31
   3   0  -1  821.98   20.22
  -3   0   0 2197.48   60.09
   3   0   0 2250.87   55.46
  -3   0   0 2780.51   59.82
   3   0   0 2595.10   46.89
  -3   0  -1 1357.40   39.13
  -3   0  -1 1329.14   37.10
  -3   0  -2  186.47   13.93
  -3   0  -2  222.36   13.39
  -3   0  -3 1900.30   48.66
  -3   0  -3 1887.53   50.08
  -3   0  -4 1409.10   39.74
  -3   0  -5   68.24    9.27
  -3   0  -6  222.86   15.12
  -3   0  -9   14.89    8.42
   3   1 -13  228.85   32.18
   3   1 -12   28.63   23.58
   3   1 -11  192.84   27.29
  -3   1  10  379.57   16.17
   3   1 -10  621.53   37.09
   3   1  -9  121.94   20.88
  -3   1   8  100.59   15.75
  -3   1   8   95.55   11.68
   3   1  -8   69.84   16.61
   3   1  -8   78.63   12.71
   3   1  -7  807.03   35.14
  -3   1   7  533.81   21.95
  -3   1   7  519.37   28.90
   3   1  -7  865.15   27.32
  -3   1   6  502.34   27.71
  -3   1   6  521.80   20.35
   3   1  -6  528.11   27.51
   3   1  -6  564.17   21.57
  -3   1   5  119.97   10.61
  -3   1   5  113.82   14.97
   3   1  -5  138.88   14.08
   3   1  -5  150.19   11.09
  -3   1   4  174.20   11.92
  -3   1   4  170.89   11.25
  -3   1   4  140.88   15.21
  -3   1   3  703.25   25.16
  -3   1   3  703.57   23.65
   3   1  -3  726.38   26.38
  -3   1   2  200.51   16.04
   3   1  -2  236.23   14.01
  -3   1   1   27.67    7.96
  -3   1   0  266.49   13.97
  -3   1   0  333.45   17.94
  -3   1  -1   21.87    5.97
  -3   1  -1   23.85    7.43
   3   1   1   18.64    7.47
  -3   1  -2  169.63   11.78
   3   1   2  166.16    5.29
  -3   1  -3  534.75   21.68
  -3   1  -4  135.04   11.64
  -3   1  -4   78.73    6.15
  -3   1  -5   91.24    7.76
  -3   1  -6  521.00   18.91
  -3   1  -7  389.45   17.79
  -3   1  -8  140.96   13.08
  -3   1  -9   87.99   13.07
  -3   1 -10  359.03   22.06
   3   2 -12  124.12   27.81
   3   2 -11  164.23   27.97
   3   2 -10  472.55   32.95
  -3   2  10  306.63   11.44
  -3   2   9  122.50   15.48
   3   2  -9  182.86   22.25
  -3   2   8  224.58   20.03
   3   2  -8  257.25   22.87
  -3   2   8  223.69   15.24
   3   2  -8  282.32   17.54
   3   2  -7  806.05   35.80
  -3   2   7  867.19   28.36
   3   2  -7  812.62   29.22
  -3   2   6  360.10   23.39
  -3   2   6  391.94   18.08
   3   2  -6  533.86   26.08
   3   2  -6  622.38   23.44
  -3   2   5   63.10    8.84
   3   2  -5   95.97   12.13
  -3   2   5   59.51   13.13
  -3   2   4  736.32   24.78
   3   2  -4  642.84   27.40
   3   2  -3 1076.20   34.04
  -3   2   2   30.95    5.73
  -3   2   1   80.43   11.55
  -3   2   1  116.81    6.62
  -3   2   0 1159.59   33.93
  -3   2   0 1217.23   24.90
  -3   2  -1   90.83    9.47
   3   2   1  106.11   10.07
  -3   2  -1  122.50   11.70
  -3   2  -2   32.58    7.96
  -3   2  -3  499.46   13.83
   3   2   3  677.91   16.13
  -3   2  -4 1186.14   26.20
   3   2   4 1102.52   26.73
  -3   2  -5   11.85    5.30
   3   2   5   39.88    6.92
  -3   2  -6  252.05   13.09
  -3   2  -7 1041.59   29.86
  -3   2  -8  218.15   14.42
  -3   2  -9  110.10   12.86
  -3   2 -10  301.90   14.41
  -3   2 -10  304.63   19.05
   3   3 -12   75.16   25.71
   3   3 -11  250.95   29.83
  -3   3  10  232.74   10.95
   3   3 -10  434.88   33.02
  -3   3   9  101.38   15.41
   3   3  -9  184.18   23.97
  -3   3   8  446.89   24.99
  -3   3   8  399.24   19.89
  -3   3   7  428.71   25.44
   3   3  -7  414.49   34.21
  -3   3   7  445.30   20.49
  -3   3   6  127.69   15.87
  -3   3   6  138.71   12.07
   3   3  -6  119.39   19.63
   3   3  -5  357.36   21.67
  -3   3   5  339.27   16.76
  -3   3   5  359.95   22.62
  -3   3   4  650.59   29.68
  -3   3   4  692.55   24.69
   3   3  -4  806.24   28.80
  -3   3   4  753.19   25.27
  -3   3   3  172.46   15.81
  -3   3   3  271.19   13.61
  -3   3   2   13.95    5.45
  -3   3   2   13.60    7.23
   3   3  -1  539.51   19.48
  -3   3   1  488.65   15.74
   3   3   0  353.86   15.23
  -3   3   0  322.06   18.98
   3   3   1  560.13   20.19
  -3   3  -1  529.48   23.70
   3   3   2   18.62    6.83
   3   3   4  591.41   18.52
   3   3   5  402.81   15.89
  -3   3  -6   58.07    7.59
   3   3   6   98.90    9.34
  -3   3  -7  233.58   13.67
  -3   3  -8  573.48   21.79
  -3   3  -9   82.48   11.59
  -3   3 -10  169.64   15.70
   3   4 -12   17.18   25.37
   3   4 -11  130.12   27.15
  -3   4  10   90.38    8.32
   3   4 -10   52.84   22.66
  -3   4   9  133.10   16.24
  -3   4   9  110.65    9.56
  -3   4   8  160.05   17.54
  -3   4   8  142.67   13.92
  -3   4   7  394.11   23.34
  -3   4   7  347.04   18.90
  -3   4   6  418.65   25.22
  -3   4   6  376.32   19.15
  -3   4   6  437.73   22.76
  -3   4   5  316.75   16.40
   3   4  -5  287.46   20.08
  -3   4   4  851.60   33.94
  -3   4   4  858.67   28.04
  -3   4   3 1287.72   40.51
  -3   4   3  932.72   29.34
  -3   4   2  976.98   30.78
  -3   4   2 1085.77   36.73
  -3   4   2 1074.68   29.29
  -3   4   1 1005.67   31.43
   3   4  -1 1034.73   30.27
  -3   4   0 1835.86   44.89
   3   4   0 1631.09   41.52
  -3   4  -1 1226.95   33.95
   3   4   1 1164.29   31.59
  -3   4  -1 1157.23   36.12
   3   4   2  574.13   20.48
   3   4   5  425.39   17.28
   3   4   6  426.34   18.58
  -3   4  -7  398.05   17.54
   3   4   7  403.82   18.63
   3   4   8  153.10   14.81
  -3   4  -8  155.11   11.56
  -3   4  -9   83.36   11.58
  -3   4  -9   57.19   10.86
  -3   4 -10  182.17   15.31
   3   5 -11  184.17   29.35
   3   5 -10  192.17   26.47
  -3   5  10  123.05    9.85
  -3   5   9  144.62   17.04
  -3   5   9  127.31   10.91
  -3   5   8  252.23   19.88
   3   5  -8  123.34   28.03
  -3   5   7  214.39   19.46
  -3   5   7  159.27   14.76
  -3   5   7  194.05   17.68
  -3   5   6  354.61   18.62
  -3   5   6  373.33   23.23
  -3   5   6  311.23   18.88
  -3   5   5  206.56   14.65
  -3   5   5  205.13   17.29
  -3   5   5  233.94   16.03
  -3   5   4  232.83   19.32
  -3   5   4  249.52   15.40
  -3   5   3  327.73   17.13
   3   5  -3  351.97   18.72
  -3   5   3  379.29   21.83
  -3   5   3  297.68   15.78
  -3   5   2  351.08   15.72
  -3   5   2  299.87   15.99
  -3   5   2  324.95   20.11
  -3   5   1  288.84   15.77
  -3   5   1  304.76   19.33
  -3   5   0    3.21    6.59
   3   5   0    1.33    4.91
  -3   5  -1  235.54   14.28
   3   5   1  173.86   10.36
  -3   5  -2  163.75   11.90
   3   5   2   44.52    8.61
  -3   5  -3  362.21   16.99
   3   5   5  185.33   12.98
   3   5   6  384.54   18.47
   3   5   7  173.98   14.26
   3   5   8  209.95   15.90
  -3   5  -9  100.36   12.80
  -3   5  -9   75.60   11.00
  -3   5 -10  116.10   13.05
   3   6 -11  103.96   26.62
  -3   6  10  192.56   16.19
  -3   6  10  176.38   11.65
  -3   6   9  431.60   23.75
   3   6  -9  455.76   33.36
  -3   6   9  365.11   17.23
  -3   6   8  291.83   20.79
  -3   6   8  262.81   15.17
  -3   6   8  291.29   23.33
  -3   6   7  208.67   19.29
  -3   6   7  208.53   16.52
  -3   6   7  196.21   18.08
  -3   6   6  580.42   28.15
  -3   6   6  532.06   24.40
  -3   6   6  507.03   24.39
  -3   6   5  549.61   27.19
  -3   6   5  489.71   22.94
   3   6  -4  269.24   18.30
  -3   6   4  213.72   14.76
  -3   6   4  258.63   19.63
  -3   6   4  218.28   15.45
  -3   6   3  273.38   15.90
  -3   6   3  293.14   16.37
  -3   6   3  329.87   20.38
  -3   6   2  492.88   21.34
   3   6  -2  513.45   21.35
  -3   6   2  515.29   25.17
  -3   6   1  388.36   18.53
  -3   6   1  355.81   21.09
  -3   6   0  104.94   10.22
   3   6   0  115.12    9.18
  -3   6   0   97.91   12.12
  -3   6  -1  298.65   15.72
   3   6   1  242.23   11.94
  -3   6  -2  561.44   21.62
   3   6   2  484.85   17.22
  -3   6  -3  221.94   13.44
   3   6   3  109.08    9.55
  -3   6  -4  261.04   14.91
  -3   6  -5  421.95   18.85
  -3   6  -6  517.05   20.62
   3   6   6  530.19   22.45
  -3   6  -7  178.72   12.78
   3   6   7  191.88   15.25
  -3   6  -8  195.29   13.37
  -3   6  -8  208.37   17.14
   3   6   8  215.59   17.13
  -3   6  -9  444.59   22.06
   3   6   9  369.70   22.08
  -3   7  10   42.80    9.33
   3   7 -10   77.18   23.94
  -3   7   9  139.93   16.30
  -3   7   9  106.49   11.54
  -3   7   9  115.27   19.23
  -3   7   8  325.73   21.48
   3   7  -8  312.24   28.31
  -3   7   8  276.76   16.87
  -3   7   8  241.66   21.22
  -3   7   7  267.06   21.10
  -3   7   7  240.42   16.06
  -3   7   7  258.28   19.46
  -3   7   6   19.45   11.67
  -3   7   6   11.49   10.22
  -3   7   6   13.02   12.26
  -3   7   5  314.22   21.65
  -3   7   5  302.45   19.45
   3   7  -4  657.28   27.91
  -3   7   4  509.34   23.11
  -3   7   4  615.66   29.00
  -3   7   4  478.85   22.26
   3   7  -3   73.45   11.42
  -3   7   3   58.06   10.06
  -3   7   3   65.21   13.00
  -3   7   2   37.43    8.89
   3   7  -2   42.92    9.11
  -3   7   2   35.08   11.46
  -3   7   1  267.45   15.90
   3   7  -1  287.06   15.05
  -3   7   1  277.07   18.49
  -3   7   0  207.10   14.47
   3   7   0  207.43   12.04
  -3   7   0  182.41   15.25
  -3   7  -1  309.72   16.61
   3   7   1  344.38   13.98
   3   7   2   29.13    5.74
  -3   7  -2   37.27    8.57
  -3   7  -3   53.78    9.45
   3   7   3   28.18    6.67
  -3   7  -4  476.30   19.89
  -3   7  -5  272.40   15.32
   3   7   6   11.85   10.36
  -3   7  -6   12.31    8.32
  -3   7  -7  167.14   12.59
  -3   7  -7  130.24   16.22
   3   7   7  179.91   16.07
  -3   7  -8  367.84   22.34
   3   7   8  324.52   21.35
  -3   7  -9   86.30   14.09
   3   7   9   93.47   16.01
   3   7  10   40.93   16.11
  -3   8  10   38.42   10.84
   3   8 -10   43.45   23.86
  -3   8   9  185.70   16.62
  -3   8   9  145.92   19.74
  -3   8   9  154.12   13.47
  -3   8   8  120.95   15.66
  -3   8   8   72.32   11.86
  -3   8   8  102.21   16.91
  -3   8   7   60.93   15.39
  -3   8   7   80.41   15.07
  -3   8   7   63.89   12.08
   3   8  -6  377.55   27.51
  -3   8   6  338.60   19.69
  -3   8   6  324.30   21.86
   3   8  -5  762.96   34.55
  -3   8   5  828.97   33.50
  -3   8   5  669.92   27.47
  -3   8   5  603.19   28.12
  -3   8   4  353.22   20.52
  -3   8   4  392.95   21.16
   3   8  -3  523.98   24.85
  -3   8   3  514.16   23.95
   3   8  -2 1609.26   42.96
  -3   8   2 1523.33   47.42
  -3   8   1 1106.75   35.24
  -3   8   1 1102.17   38.26
  -3   8   0  620.80   24.57
   3   8   0  628.68   21.00
  -3   8  -1 1145.00   34.56
   3   8   1 1097.73   28.92
  -3   8  -2 1569.91   42.17
   3   8   2 1491.49   34.82
  -3   8  -3  711.41   25.64
   3   8   3  727.25   20.43
  -3   8  -4  332.71   17.08
  -3   8  -5  816.82   27.00
  -3   8  -5  927.17   35.29
  -3   8  -6  435.61   18.33
  -3   8  -6  478.26   25.50
   3   8   7   67.66   13.62
  -3   8  -7   80.47    9.84
  -3   8  -7   86.62   15.68
  -3   8  -8  130.45   16.62
   3   8   8   93.03   15.00
  -3   8  -9  201.34   18.52
   3   8   9  175.57   18.63
   3   8  10   40.81   15.19
   3   8  11   10.35   17.24
  -3   9  10   37.31   11.02
  -3   9   9   74.89   18.35
  -3   9   9   88.61   12.52
  -3   9   8  210.65   18.26
  -3   9   8  176.00   15.35
  -3   9   8  174.98   20.26
  -3   9   7   33.48   13.62
  -3   9   7   31.27   11.93
   3   9  -7   33.90   18.65
  -3   9   7   36.90   13.54
  -3   9   6   53.23   14.01
  -3   9   6   51.54   13.07
   3   9  -6   77.89   18.15
  -3   9   6   61.22   13.83
  -3   9   5  210.61   19.23
  -3   9   5  233.97   18.23
  -3   9   5  175.02   16.95
  -3   9   4   72.05   13.73
   3   9  -4  114.10   16.25
  -3   9   4   63.84   13.01
  -3   9   4   90.31   15.14
  -3   9   3   10.55   10.13
   3   9  -3    5.60   10.83
  -3   9   3   16.77   12.33
  -3   9   3    5.71   10.56
   3   9  -2  139.74   12.95
  -3   9   2   91.67   12.68
  -3   9   2  106.18   14.41
  -3   9   2   93.81   14.16
   3   9  -1  160.23   12.24
  -3   9   1  129.79   13.37
  -3   9   0   20.15    9.82
   3   9   0   16.79    6.81
  -3   9  -1   61.81   11.16
   3   9   1   21.35    6.50
   3   9   2   22.32    6.08
  -3   9  -2   54.01   10.68
  -3   9  -2   39.78   13.59
  -3   9  -3   24.39    9.47
   3   9   3   18.78    5.59
  -3   9  -3   16.85   12.00
  -3   9  -4   62.71   10.48
  -3   9  -4   55.50   14.36
  -3   9  -5  133.49   12.33
  -3   9  -5  106.92   17.54
  -3   9  -6   59.95   15.98
  -3   9  -6   57.06    9.71
   3   9   7   39.44   13.06
  -3   9  -7   59.07   15.19
  -3   9  -8  118.59   17.45
   3   9   8  115.12   16.99
   3   9   9   56.01   15.95
  -3   9  -9   71.53   16.07
   3   9  10   26.59   16.55
  -3  10   9  228.93   17.91
  -3  10   9  216.38   23.49
  -3  10   8  230.14   22.86
  -3  10   8  237.72   17.71
   3  10  -7  207.58   25.21
  -3  10   7  173.74   17.34
  -3  10   7  111.90   14.83
  -3  10   7  111.76   17.97
  -3  10   6  278.59   20.24
   3  10  -6  306.70   26.13
  -3  10   6  242.26   21.33
  -3  10   5  375.14   23.78
   3  10  -5  581.16   30.64
  -3  10   5  512.34   26.90
  -3  10   5  458.04   25.45
   3  10  -4  266.78   21.53
  -3  10   4  209.98   19.35
  -3  10   4  216.25   19.23
   3  10  -3  198.47   17.71
  -3  10   3  168.16   18.01
  -3  10   3  152.05   17.72
   3  10  -2  422.01   21.70
  -3  10   2  437.42   23.99
  -3  10   2  424.76   26.13
  -3  10   2  507.44   26.00
  -3  10   1  420.36   22.70
  -3  10   1  355.78   22.70
   3  10   0   94.17   10.10
  -3  10   0   79.81   12.46
  -3  10   0   87.41   16.19
  -3  10  -1  306.50   18.83
   3  10   1  237.90   12.50
  -3  10  -1  281.61   23.10
  -3  10  -2  576.72   24.85
   3  10   2  603.04   18.13
  -3  10  -3  172.82   14.51
  -3  10  -3  149.52   19.62
   3  10   3  126.50    7.68
  -3  10  -4  173.09   13.98
  -3  10  -4  166.32   20.31
  -3  10  -5  400.52   19.18
  -3  10  -5  397.64   27.31
  -3  10  -6  390.65   26.36
   3  10   7  104.00   16.66
  -3  10  -7  119.98   18.24
  -3  10  -8  211.87   20.64
   3  10   8  203.08   20.19
   3  10   9  221.94   21.07
   3  10  10   59.40   17.76
  -3  11   9   53.46   13.85
  -3  11   8   71.98   18.71
   3  11  -8   90.24   24.22
  -3  11   8   61.59   13.84
  -3  11   7  110.32   15.91
  -3  11   7   85.89   18.03
  -3  11   6   73.18   16.62
   3  11  -6   98.58   21.31
  -3  11   6  115.74   16.97
  -3  11   6   98.09   15.97
  -3  11   5   79.35   15.38
   3  11  -5  146.51   19.81
  -3  11   5  114.31   17.08
  -3  11   5  115.79   16.50
  -3  11   4   51.41   15.02
  -3  11   4   62.12   14.82
   3  11  -4   87.02   16.98
   3  11  -3  141.98   16.61
  -3  11   3  113.13   16.12
  -3  11   3   94.28   16.45
   3  11  -2  104.77   13.52
  -3  11   2   80.75   16.54
  -3  11   2   50.77   14.00
   3  11  -1    6.79    8.94
  -3  11   1    6.32   11.30
  -3  11   0   30.83   15.62
  -3  11   0   32.78   12.21
   3  11   0   29.87    8.97
  -3  11  -1   -8.82   14.81
  -3  11  -1    5.54   10.84
   3  11   1   -0.33    6.80
  -3  11  -2   27.95   15.47
  -3  11  -2   46.62   12.51
   3  11   2   13.54    6.04
   3  11   3   60.38    6.47
  -3  11  -3   82.09   17.48
  -3  11  -3   88.45   12.99
  -3  11  -4   48.28   17.22
  -3  11  -4   44.59   11.42
  -3  11  -5   36.42   16.35
  -3  11  -6  116.51   19.17
   3  11   7   65.34   16.56
  -3  11  -7   67.83   17.69
   3  11   8   36.64   16.06
  -3  11  -8   48.80   17.59
   3  11   9   33.38   16.17
  -3  12   9   54.60   15.13
  -3  12   8  101.81   17.14
   3  12  -7  117.16   25.04
  -3  12   7   91.75   18.43
  -3  12   7  111.78   16.79
   3  12  -6  103.84   22.21
  -3  12   6  132.72   16.91
  -3  12   6  101.47   18.32
  -3  12   5  262.82   22.94
   3  12  -5  336.88   27.66
  -3  12   5  345.17   24.22
   3  12  -4  498.49   28.92
  -3  12   4  418.01   25.17
  -3  12   4  418.72   26.26
   3  12  -3  331.69   23.64
  -3  12   3  417.56   24.69
  -3  12   3  379.78   25.73
   3  12  -2  683.05   28.20
  -3  12   2  618.19   29.93
  -3  12   2  675.12   33.65
   3  12  -1  689.99   25.60
  -3  12   1  580.91   29.00
   3  12   0  591.12   22.35
  -3  12   0  634.43   33.73
   3  12   1  568.28   19.74
  -3  12  -1  692.48   34.62
   3  12   2  628.25   19.01
  -3  12  -2  762.08   36.13
   3  12   3  469.84   13.83
  -3  12  -3  585.43   31.79
  -3  12  -4  370.45   27.53
  -3  12  -5  449.73   29.75
  -3  12  -6  198.75   21.49
   3  12   7  121.31   19.10
  -3  12  -7  123.80   20.66
  -3  12  -8  137.12   22.64
   3  12   8  106.62   18.45
  -3  13   8   48.56   15.42
  -3  13   7   27.43   16.61
  -3  13   6   64.81   16.98
  -3  13   6   70.85   17.50
   3  13  -6   83.24   21.36
  -3  13   5   38.25   16.24
  -3  13   5   35.58   15.22
   3  13  -5   48.85   19.63
  -3  13   4   28.07   15.78
   3  13  -4   34.95   17.39
  -3  13   4   35.56   15.17
  -3  13   3   25.06   16.36
   3  13  -3   31.80   14.91
  -3  13   2   49.72   17.23
   3  13  -2   49.65   13.38
   3  13  -1   15.03   10.40
  -3  13   0   22.26   16.47
   3  13   0    6.06    9.13
  -3  13  -1   72.67   19.00
   3  13   1   46.53    8.54
  -3  13  -2   17.58   17.05
   3  13   2   14.76    6.66
  -3  13  -3   34.01   18.20
   3  13   3   18.28    5.36
  -3  13  -4   11.52   17.23
  -3  13  -5   39.78   18.16
  -3  13  -6   52.13   19.62
  -3  13  -7   41.90   20.77
  -3  13  -8   30.08   19.13
   3  14  -5  201.77   25.51
   3  14  -4  263.01   24.52
  -3  14   4  233.95   23.96
   3  14  -3  149.84   19.14
  -3  14   3  144.73   20.90
   3  14  -2  108.42   16.05
  -3  14   2  133.39   20.69
   3  14  -1  200.83   16.00
  -3  14   0  177.81   22.37
   3  14   0  134.44   12.84
   3  14   1   95.19   10.28
  -3  14  -1  144.34   22.07
  -3  14  -2  168.19   22.87
  -3  14  -3  168.02   23.20
  -3  14  -4  187.34   25.34
  -3  14  -5  149.40   23.49
   3  15  -4   20.26   17.37
   3  15  -3   51.73   17.24
   3  15  -2   64.30   15.10
   3  15  -1   16.96   12.09
   3  15   0    9.17    9.58
   3  16  -3  229.19   21.76
   3  16  -2  231.77   19.65
  -4  -9   9  129.13   30.35
  -4  -8  10  139.86   26.19
  -4  -8   9  332.09   32.90
  -4  -8   8  300.30   32.02
  -4  -8   7  310.50   20.78
   4  -8  -5  658.11   38.05
   4  -8  -4  653.24   37.56
  -4  -8   4  758.33   39.78
   4  -8  -3  957.46   45.11
  -4  -8   3 1034.47   45.31
   4  -8  -2 1475.45   56.07
  -4  -8   2 1580.33   57.75
   4  -8  -1 1484.49   54.93
   4  -8   0 1040.38   44.17
  -4  -8   0  969.57   44.89
  -4  -8  -1 1315.57   51.97
   4  -8   2 1398.69   50.28
  -4  -8  -2 1328.87   52.62
   4  -8   3  866.11   37.65
  -4  -8  -3  803.15   40.36
   4  -8   4  533.23   29.74
  -4  -8  -4  569.25   35.10
  -4  -8  -8  245.78   25.89
  -4  -8  -9  371.26   29.51
  -4  -7  10   38.09   20.39
  -4  -7   9   60.16   16.92
  -4  -7   9  123.51   23.65
  -4  -7   8  186.05   21.84
  -4  -7   8  205.01   13.88
   4  -7  -8  173.93   22.18
  -4  -7   7  122.92   15.78
   4  -7  -7   80.77   19.85
  -4  -7   7   97.19   19.01
  -4  -7   6   50.87   17.68
   4  -7  -6   63.40   18.05
   4  -7  -5  151.53   22.42
  -4  -7   5  129.85   21.03
   4  -7  -4  314.13   26.22
  -4  -7   4  291.08   26.71
   4  -7  -3   60.42   17.27
  -4  -7   3   75.92   19.03
  -4  -7   2   43.36   17.15
   4  -7  -2   46.32   16.32
  -4  -7   2   27.35   14.44
   4  -7  -1  198.27   22.50
  -4  -7   1  204.92   20.85
  -4  -7   0   65.21   17.50
   4  -7   0   61.42   16.31
  -4  -7   0   49.88   14.40
  -4  -7  -1   60.72   15.19
  -4  -7  -1  187.55   21.91
  -4  -7  -2   53.00   16.80
   4  -7   2   45.59   14.71
  -4  -7  -2   28.70   11.46
   4  -7   3   53.13   15.02
  -4  -7  -3   56.91   11.70
  -4  -7  -3   67.45   17.12
   4  -7   4  264.27   20.43
  -4  -7  -4  231.14   24.19
  -4  -7  -5   83.63   10.18
  -4  -7  -5  105.10   18.69
  -4  -7  -6   25.66   15.04
   4  -7   6   52.26   13.87
  -4  -7  -7   74.68   19.30
   4  -7   7   84.87   14.53
  -4  -7  -8  172.99   23.09
   4  -7   8  189.80   16.99
  -4  -7  -9   68.04   20.85
   4  -7   9   94.75   14.33
   4  -6 -10  244.24   23.80
  -4  -6  10  305.29   24.12
  -4  -6   9  562.24   29.05
   4  -6  -9  570.16   31.79
  -4  -6   8  359.41   18.04
  -4  -6   8  398.39   26.50
   4  -6  -8  295.02   24.69
  -4  -6   8  401.50   28.64
   4  -6  -8  271.50   24.38
  -4  -6   7  660.50   26.33
  -4  -6   7  530.39   30.70
   4  -6  -7  500.70   30.39
  -4  -6   7  704.39   36.01
   4  -6  -7  396.25   28.47
  -4  -6   6 1327.55   41.86
  -4  -6   6 1371.03   49.29
  -4  -6   6 1000.94   43.75
   4  -6  -6  860.71   42.32
  -4  -6   5 1119.05   45.68
   4  -6  -5  872.38   42.03
   4  -6  -4  673.01   36.13
  -4  -6   4  797.63   39.60
   4  -6  -3  889.42   39.93
  -4  -6   3 1019.64   43.94
   4  -6  -2 1303.35   48.10
  -4  -6   2 1403.72   53.05
   4  -6  -1  950.03   38.95
  -4  -6   1  600.34   33.16
   4  -6   0  715.86   33.95
  -4  -6   0  696.46   36.47
  -4  -6  -1  826.76   34.01
  -4  -6  -1  857.50   40.70
   4  -6   2 1223.10   42.96
  -4  -6  -2 1143.47   46.53
   4  -6   3  874.92   35.54
  -4  -6  -3  773.60   38.18
   4  -6   4  655.50   30.63
  -4  -6  -4  598.48   34.05
  -4  -6  -5  723.16   26.34
  -4  -6  -5  713.99   36.87
  -4  -6  -6  691.28   23.93
  -4  -6  -6  910.67   39.03
  -4  -6  -6  689.58   36.05
   4  -6   6  826.53   32.75
  -4  -6  -7  369.05   26.92
   4  -6   7  396.35   21.89
  -4  -6  -8  268.45   24.79
   4  -6   8  211.50   17.63
   4  -6   9  480.36   23.06
  -4  -6  -9  550.94   33.81
   4  -5 -11   71.57   20.99
  -4  -5  10   94.01   17.10
   4  -5 -10  113.22   20.56
  -4  -5   9   77.65   10.97
  -4  -5   9   85.02   16.50
   4  -5  -9   84.47   19.20
  -4  -5   9   89.09   17.06
  -4  -5   8  209.96   14.85
  -4  -5   8  231.75   20.69
   4  -5  -8  139.78   20.25
   4  -5  -8  123.87   18.19
  -4  -5   8  209.67   21.02
  -4  -5   7  173.02   15.57
   4  -5  -7  162.36   20.77
  -4  -5   7  211.85   21.47
  -4  -5   7  161.80   20.62
   4  -5  -7  127.08   18.23
  -4  -5   6  276.87   25.52
  -4  -5   6  311.12   21.01
   4  -5  -6  228.31   22.28
  -4  -5   6  292.45   22.94
   4  -5  -6  214.46   20.80
  -4  -5   5  115.53   18.99
  -4  -5   5  171.26   21.95
   4  -5  -5  191.03   19.50
  -4  -5   5  207.47   21.65
   4  -5  -5  146.96   18.75
  -4  -5   4  114.52   19.71
  -4  -5   4   95.00   18.83
   4  -5  -4  109.73   17.39
  -4  -5   3  131.84   20.18
   4  -5  -3  181.22   20.54
   4  -5  -2  205.06   21.05
  -4  -5   2  202.03   21.76
  -4  -5   2  180.89   20.86
   4  -5  -1  313.11   23.56
  -4  -5   1  150.01   18.52
   4  -5   0  118.10   17.58
  -4  -5   0   79.18   14.59
  -4  -5  -1  298.32   21.32
  -4  -5  -1  239.02   21.91
  -4  -5  -2  101.28   14.04
  -4  -5  -2  148.75   18.52
  -4  -5  -3  174.01   14.60
  -4  -5  -3  163.88   18.93
   4  -5   3  171.02   18.15
  -4  -5  -4   84.50   11.22
  -4  -5  -4   89.63   16.56
   4  -5   4  112.42   14.95
  -4  -5  -5   97.26   17.19
  -4  -5  -5   96.05   11.28
  -4  -5  -5  143.28   18.67
   4  -5   5  150.00   15.39
  -4  -5  -6  161.42   20.30
  -4  -5  -6  167.22   12.27
   4  -5   6  189.23   16.58
  -4  -5  -7   98.59   10.40
  -4  -5  -7  140.58   19.68
   4  -5   7  138.32   14.57
  -4  -5  -7  101.47   17.32
  -4  -5  -8  154.33   18.62
   4  -5   8  132.34   14.39
  -4  -5  -9   68.66   18.84
   4  -5   9   80.81   11.76
   4  -4 -11   52.19   21.14
  -4  -4  10  162.09   16.29
   4  -4 -10  166.28   22.26
  -4  -4   9  277.35   20.58
  -4  -4   9  323.90   17.20
  -4  -4   9  315.26   21.43
   4  -4  -9  305.09   26.22
   4  -4  -8  231.17   23.73
   4  -4  -8  248.01   20.59
  -4  -4   8  306.97   21.83
  -4  -4   7  593.18   24.15
   4  -4  -7  415.65   28.69
   4  -4  -7  401.30   25.46
  -4  -4   7  543.04   28.15
  -4  -4   6 1574.60   44.00
  -4  -4   6  920.65   45.97
  -4  -4   6 1379.76   49.16
   4  -4  -6 1245.47   46.26
  -4  -4   6 1410.03   44.99
   4  -4  -6  909.89   39.47
  -4  -4   5  790.46   43.14
   4  -4  -5 1033.23   40.49
  -4  -4   5 1157.98   41.08
  -4  -4   5 1211.61   45.92
   4  -4  -5  831.53   37.12
  -4  -4   4 1057.64   48.58
   4  -4  -4 1420.86   50.07
  -4  -4   4 1847.62   53.18
   4  -4  -4 1486.51   49.02
  -4  -4   3 1769.35   63.05
   4  -4  -3 1968.11   61.60
  -4  -4   2 1745.28   58.90
   4  -4  -2 2091.40   60.59
  -4  -4   1 1989.94   65.47
   4  -4  -1 2604.88   68.41
  -4  -4   0 2029.07   62.23
   4  -4   0 2513.81   66.77
  -4  -4  -1 1963.64   55.74
  -4  -4  -2 2422.46   62.75
   4  -4   2 2136.62   58.18
  -4  -4  -3 1701.28   50.08
   4  -4   3 2018.74   56.54
  -4  -4  -4 1574.54   44.01
   4  -4   4 1278.90   44.63
  -4  -4  -5  956.59   31.16
   4  -4   5  886.03   32.69
  -4  -4  -6 1008.85   32.15
   4  -4   6  959.50   33.76
  -4  -4  -7  452.49   27.78
  -4  -4  -7  599.83   22.78
   4  -4   7  352.63   20.38
  -4  -4  -7  732.48   33.14
  -4  -4  -8  362.37   18.04
   4  -4   8  198.74   15.12
  -4  -4  -8  276.13   22.29
  -4  -4  -8  435.02   26.98
  -4  -4  -9  324.33   26.13
   4  -3 -12   36.37   21.59
   4  -3 -11   95.65   22.74
  -4  -3  10  133.53   14.00
   4  -3 -10  181.91   24.17
  -4  -3   9   85.26   13.12
  -4  -3   9   88.32   12.38
   4  -3  -9   77.62   19.00
  -4  -3   9   88.24   16.19
  -4  -3   8  130.91   13.52
   4  -3  -8  104.22   18.80
  -4  -3   7  171.08   15.11
   4  -3  -7  228.89   21.24
  -4  -3   7  139.76   19.25
   4  -3  -7  147.89   15.47
  -4  -3   7  199.10   17.44
  -4  -3   6  186.25   16.66
  -4  -3   6  127.05   21.91
   4  -3  -6  191.35   19.46
   4  -3  -6  128.11   15.30
  -4  -3   6  155.78   16.44
  -4  -3   5   78.68   13.87
  -4  -3   5   93.51   18.91
   4  -3  -5   73.92   14.48
   4  -3  -5   94.15   14.02
  -4  -3   5  118.22   15.07
  -4  -3   4  407.75   29.14
   4  -3  -4  595.80   29.50
  -4  -3   4  531.21   26.54
   4  -3  -4  404.05   24.30
  -4  -3   3  178.79   20.25
   4  -3  -3  227.24   20.41
  -4  -3   3  253.19   19.37
   4  -3  -3  222.33   18.18
   4  -3  -2   29.79   11.14
  -4  -3   2   16.98   13.21
   4  -3  -2   27.68   11.90
  -4  -3   1  179.29   17.74
   4  -3  -1  151.57   15.60
  -4  -3   0  101.43   13.72
  -4  -3   0  111.21   14.72
   4  -3   0  120.50   14.31
  -4  -3  -1  106.35   12.98
  -4  -3  -1  137.80   16.17
  -4  -3  -2   34.49   12.34
   4  -3   2   32.95   10.72
  -4  -3  -2   27.69    9.68
  -4  -3  -3  233.65   16.25
   4  -3   3  214.18   16.92
  -4  -3  -4  369.02   20.43
  -4  -3  -4  392.70   24.58
   4  -3   4  441.29   22.00
  -4  -3  -5  144.71   13.99
  -4  -3  -5  173.40   18.23
  -4  -3  -6  104.04   13.82
   4  -3   6  142.43   12.68
  -4  -3  -6  122.38   17.20
  -4  -3  -7  115.39   14.99
  -4  -3  -7   68.41   14.13
  -4  -3  -7  108.68   16.76
  -4  -3  -8  150.63   19.05
  -4  -3  -8  156.67   16.36
  -4  -3  -9   72.67   17.00
   4  -2 -12  133.10   26.65
   4  -2 -11  221.30   28.34
   4  -2 -10  349.53   30.21
  -4  -2  10  491.77   22.95
  -4  -2   9  407.61   25.25
  -4  -2   9  394.75   19.70
  -4  -2   9  457.41   21.51
  -4  -2   8  411.09   21.04
   4  -2  -8  448.84   30.14
  -4  -2   7 1069.53   38.05
   4  -2  -7 1282.96   47.92
  -4  -2   6 1107.47   35.74
   4  -2  -6 1128.92   42.53
  -4  -2   5  836.52   40.31
   4  -2  -5  894.99   36.08
  -4  -2   5  824.40   31.61
  -4  -2   4 1359.95   53.13
   4  -2  -4 1347.27   44.34
  -4  -2   3 1684.97   59.73
   4  -2  -3 2076.40   56.77
   4  -2  -3 1586.47   49.98
  -4  -2   3 1981.47   53.42
  -4  -2   2 1060.25   41.82
   4  -2  -2  945.65   35.83
  -4  -2   1  675.44   32.89
   4  -2  -1 1099.57   35.35
   4  -2   0 2275.43   58.51
  -4  -2   0 2245.89   61.05
  -4  -2  -1 1034.03   38.31
  -4  -2  -1 1473.10   44.10
   4  -2   2 1134.22   35.46
  -4  -2  -2 1012.30   37.69
  -4  -2  -3 1758.17   49.54
   4  -2   3 1646.30   47.62
  -4  -2  -4 1607.63   46.99
   4  -2   4 1399.93   42.39
  -4  -2  -5  899.76   32.83
  -4  -2  -5  859.69   34.12
  -4  -2  -6  840.43   32.82
  -4  -2  -6  753.72   33.50
  -4  -2  -7 1603.02   51.57
  -4  -2  -7 1589.26   49.87
  -4  -2  -8  577.83   28.78
  -4  -2  -8  567.04   29.37
  -4  -2  -9  336.75   24.48
  -4  -2  -9  346.05   25.23
   4  -1 -12   33.58   22.66
   4  -1 -11   72.59   23.03
  -4  -1  10  195.17   18.42
  -4  -1  10  239.24   17.74
  -4  -1   9   59.91   15.47
  -4  -1   9   57.77   12.12
   4  -1  -9   44.13   17.64
  -4  -1   8    5.04    8.75
  -4  -1   8   22.77   10.52
   4  -1  -8   10.43   13.82
  -4  -1   7  302.75   17.91
  -4  -1   7  248.26   25.88
  -4  -1   7  323.71   18.86
   4  -1  -7  387.84   25.69
   4  -1  -7  465.05   21.17
  -4  -1   6  231.27   16.00
  -4  -1   6  259.78   17.30
  -4  -1   6  207.23   22.96
   4  -1  -6  291.35   21.69
   4  -1  -5   19.72    8.46
  -4  -1   5    9.60    9.21
  -4  -1   5   19.54   10.20
   4  -1  -5   10.90   10.75
  -4  -1   4  156.98   15.76
  -4  -1   4  129.57   20.33
   4  -1  -4  177.94   16.50
  -4  -1   4  155.19   14.20
   4  -1  -4  201.57   12.30
   4  -1  -3  332.79   20.77
  -4  -1   3  309.43   19.11
  -4  -1   2  100.83   15.85
   4  -1  -2  135.24   14.23
   4  -1  -2  109.91   12.27
   4  -1  -1   46.35   12.07
  -4  -1   1   56.36   12.80
  -4  -1   0  201.68   16.69
   4  -1   0  201.38   15.09
  -4  -1   0  193.44   15.91
  -4  -1  -1   90.07   13.29
  -4  -1  -1  117.79   13.16
  -4  -1  -2  107.76   12.90
   4  -1   2  112.11   11.63
  -4  -1  -2  111.66   13.42
  -4  -1  -3  183.16   16.99
  -4  -1  -3  113.26   14.52
  -4  -1  -4  110.21   14.57
  -4  -1  -4   90.19   13.84
  -4  -1  -5    8.70   11.28
  -4  -1  -5   11.33   11.50
  -4  -1  -6  165.28   16.60
  -4  -1  -6  206.74   19.44
  -4  -1  -7  214.82   19.49
  -4  -1  -7  248.61   21.90
  -4  -1  -8   35.68   13.66
  -4  -1  -8   31.46   14.51
  -4  -1  -9   34.56   12.34
  -4  -1  -9   46.50   16.16
   4   0 -12   44.50   25.05
   4   0 -11   84.67   25.04
   4   0 -10  221.93   27.78
  -4   0  10  362.89   21.94
  -4   0   9   86.84   13.37
   4   0  -9   70.08   20.01
  -4   0   8  475.27   21.68
   4   0  -8  295.05   25.99
  -4   0   7 1283.14   51.71
  -4   0   7 1135.05   35.08
   4   0  -7  821.44   38.83
   4   0  -7  856.48   32.52
  -4   0   6 1023.00   33.46
  -4   0   6 1034.48   45.38
   4   0  -6  957.45   39.13
  -4   0   5  680.33   26.41
   4   0  -5  596.51   21.62
  -4   0   4 1873.18   50.14
   4   0  -4 1917.96   55.35
   4   0  -4 1802.48   44.65
  -4   0   3 3071.14   75.58
  -4   0   3 3048.09   84.21
   4   0  -3 3121.52   78.23
  -4   0   2 1256.37   45.71
   4   0  -2 1271.56   41.81
  -4   0   1 2447.14   64.30
   4   0  -1 2122.14   43.39
  -4   0   0 3741.97   92.27
  -4   0   0 4149.24   91.17
  -4   0  -1 2925.77   70.39
  -4   0  -1 2596.96   69.19
  -4   0  -2 1101.79   38.38
  -4   0  -2 1275.37   41.20
  -4   0  -3 2729.29   72.29
  -4   0  -3 3152.12   75.13
  -4   0  -4 3073.82   74.94
  -4   0  -4 3042.13   76.54
  -4   0  -5  599.94   27.65
  -4   0  -5  661.00   29.93
  -4   0  -6  965.08   36.39
  -4   0  -6  943.94   36.58
  -4   0  -7 1271.44   44.33
   4   1 -11  102.02   24.11
   4   1 -10  333.51   30.62
  -4   1   9   69.51   13.80
   4   1  -9   64.60   19.42
  -4   1   8   18.98   10.61
   4   1  -8   14.80   14.40
  -4   1   7  293.58   27.01
  -4   1   7  297.22   18.46
  -4   1   6  284.98   17.38
  -4   1   6  252.27   25.09
   4   1  -5   35.10    8.90
  -4   1   5   20.49    8.66
  -4   1   5   19.55    9.41
  -4   1   5   31.28   15.88
   4   1  -5    9.28   12.26
  -4   1   4  198.43   15.81
  -4   1   4  179.16   14.20
   4   1  -4  209.53   16.80
  -4   1   3  291.61   18.10
  -4   1   3  299.81   17.64
   4   1  -3  284.69   18.17
  -4   1   2   99.18   15.68
   4   1  -2  178.54    9.06
  -4   1   1   92.32   13.64
   4   1  -1   22.02    4.73
  -4   1   0  171.73   14.12
  -4   1   0  188.48   16.78
   4   1   0  186.92   14.35
   4   1   0  194.17    6.71
  -4   1  -1  125.98   12.47
  -4   1  -1  141.40   15.18
   4   1   1  127.94   13.41
  -4   1  -2  122.47   13.27
  -4   1  -2  136.90   14.13
  -4   1  -3   95.59   12.51
  -4   1  -3  193.85   16.80
  -4   1  -4   91.84   13.42
  -4   1  -4  131.74   15.84
  -4   1  -5   11.94    9.72
  -4   1  -5   20.92   11.47
   4   2 -11  274.02   31.91
   4   2 -10  388.40   32.22
   4   2  -9  572.48   35.71
  -4   2   8  481.53   22.91
   4   2  -8  437.43   30.30
  -4   2   7 1444.04   53.22
  -4   2   7 1337.70   38.77
   4   2  -7 1358.73   39.27
  -4   2   6  843.51   30.35
  -4   2   6  815.34   40.90
  -4   2   5  799.52   28.46
  -4   2   5  803.30   38.50
  -4   2   4 1573.58   44.05
  -4   2   4 1591.92   53.69
   4   2  -4 1459.68   46.28
  -4   2   3 1483.29   43.51
  -4   2   1 1156.38   38.80
   4   2  -1  780.03   29.05
  -4   2   0 2179.96   55.59
  -4   2   0 2176.05   60.09
   4   2   0 2040.64   53.57
  -4   2  -1 1125.44   36.01
  -4   2  -1 1002.95   37.10
   4   2   1 1065.95   36.17
  -4   2  -2  685.03   28.30
  -4   2  -2  742.69   31.42
  -4   2  -3 1761.69   52.51
   4   2   3 1830.00   35.93
  -4   2  -4 1466.71   45.46
   4   3 -11   84.07   25.55
   4   3 -10  286.25   29.36
   4   3  -9   99.98   20.78
  -4   3   8  100.64   13.72
  -4   3   8   93.03   19.35
   4   3  -8   80.71   18.38
  -4   3   7  128.85   21.29
  -4   3   7  144.26   14.60
  -4   3   6  141.11   14.12
  -4   3   6  123.63   20.07
  -4   3   5   86.11   11.76
  -4   3   5   95.73   17.02
  -4   3   4  349.06   18.91
  -4   3   4  354.95   25.14
  -4   3   3  237.94   21.33
  -4   3   2   11.56    8.83
   4   3  -2   10.81    8.09
  -4   3   1  178.36   14.04
   4   3  -1  154.38   12.63
  -4   3   0   76.85   13.92
   4   3   0   82.26   10.32
  -4   3   0  115.90    6.51
   4   3   1   62.85    9.96
  -4   3  -1   62.99    3.90
  -4   3  -2   23.31   10.63
   4   3   3  232.27    9.63
  -4   3  -3  207.28   17.04
  -4   3  -4  243.01    8.82
   4   3   4  308.64   11.51
   4   3   5  110.21    8.18
  -4   3  -5  144.47    8.03
  -4   3  -6   83.44    8.50
  -4   3  -7   54.02    9.30
  -4   3  -8  123.29   11.96
   4   4 -10  219.39   28.62
   4   4  -9  294.61   28.68
  -4   4   8  393.51   29.36
   4   4  -8  295.50   26.63
  -4   4   7  598.61   35.16
  -4   4   7  460.75   22.13
  -4   4   6 1056.87   33.39
  -4   4   6 1098.37   45.74
  -4   4   5  833.91   30.57
  -4   4   5  845.27   39.12
  -4   4   4 1606.29   52.02
  -4   4   4  979.29   35.11
   4   4  -3 2176.55   55.09
  -4   4   3 2335.84   64.04
  -4   4   2 1920.71   48.80
   4   4  -2 1879.14   47.95
  -4   4   2 1757.22   54.93
  -4   4   1 2105.14   54.87
  -4   4   1 1959.34   45.98
  -4   4   0 2240.51   54.48
  -4   4   0 2206.25   58.50
  -4   4  -1 2486.20   48.63
  -4   4  -1 2463.24   64.36
  -4   4  -2 1691.56   46.74
   4   4   2 1168.72   37.68
  -4   4  -3 1787.31   51.19
   4   4   4 1719.95   39.14
  -4   4  -5  929.88   23.68
   4   4   5  898.55   25.40
  -4   4  -6 1023.15   26.56
   4   4   6  998.69   28.95
   4   4   7  584.01   22.50
  -4   4  -7  636.81   20.68
  -4   4  -8  407.43   17.69
   4   5 -10  140.08   25.43
  -4   5  10   85.63   11.04
   4   5  -9  141.22   23.32
  -4   5   8  179.72   22.80
   4   5  -8  160.60   21.21
  -4   5   7  138.70   22.25
   4   5  -7  189.22   20.91
  -4   5   6  261.98   17.58
  -4   5   6  283.43   25.06
  -4   5   5  131.07   13.75
  -4   5   5  145.50   19.47
  -4   5   5  159.05   14.43
   4   5  -4  182.37   15.76
  -4   5   4  129.28   18.85
  -4   5   4  154.01   13.70
  -4   5   3  144.06   13.43
   4   5  -3  144.66   13.81
  -4   5   2  256.23   20.98
  -4   5   2  275.82   14.07
  -4   5   1  238.16   15.93
   4   5  -1  170.26   13.42
  -4   5   1  271.42   19.76
  -4   5   1  149.36   10.43
  -4   5   0   80.22   10.89
   4   5   0   80.49    9.13
  -4   5  -1  305.02   18.24
   4   5   1  308.46   15.26
  -4   5  -1  260.98   18.69
  -4   5  -2  134.49   13.66
  -4   5  -2  104.97   13.77
   4   5   5   83.85   10.13
   4   5   6  266.21   14.89
  -4   5  -7  126.39   10.65
   4   5   7  138.22   12.46
   4   5   8  157.80   14.70
  -4   5  -8  172.92   12.43
   4   6 -10  265.05   28.42
  -4   6  10  209.40   15.11
   4   6  -9  683.48   36.74
  -4   6   9  408.82   20.44
  -4   6   8  310.41   26.09
   4   6  -8  285.15   26.12
  -4   6   7  515.95   32.81
   4   6  -7  525.00   29.81
  -4   6   7  451.50   26.98
  -4   6   6  860.46   39.81
  -4   6   6  733.04   30.63
   4   6  -5  873.37   34.19
  -4   6   5  768.88   30.57
   4   6  -4  723.96   29.23
  -4   6   4  667.88   33.61
  -4   6   3  717.91   28.55
   4   6  -3  818.58   29.59
  -4   6   3  888.13   36.55
  -4   6   3  632.90   25.12
  -4   6   2 1112.17   36.66
   4   6  -2 1378.60   37.71
  -4   6   2 1286.70   45.39
  -4   6   2 1111.41   33.26
  -4   6   1  703.62   26.27
   4   6  -1  665.18   23.82
  -4   6   1  711.10   30.91
  -4   6   0  697.26   26.54
   4   6   0  666.50   23.36
  -4   6   0  623.70   29.81
  -4   6  -1  841.26   30.66
   4   6   1  901.37   27.62
   4   6   2  905.93   28.78
  -4   6  -2  970.90   35.02
  -4   6  -3  723.67   27.74
  -4   6  -4  526.84   23.49
   4   6   5  749.04   25.78
  -4   6  -5  845.09   29.48
  -4   6  -6  699.52   27.11
   4   6   6  642.12   23.91
   4   6   7  433.66   20.56
   4   6   8  259.04   17.00
  -4   6  -9  416.89   24.41
  -4   7  10   28.81   11.15
  -4   7   9   75.42   12.90
   4   7  -9  138.83   23.70
   4   7  -8  295.56   26.20
  -4   7   8  154.43   14.52
  -4   7   7   63.87   15.16
  -4   7   7   60.58   19.03
  -4   7   6   53.59   13.80
  -4   7   6   36.02   17.83
   4   7  -6   68.17   15.66
   4   7  -5  186.63   17.49
  -4   7   5  142.98   20.57
  -4   7   5  137.93   15.21
   4   7  -4  324.17   19.68
  -4   7   4  291.55   24.11
  -4   7   4  250.55   17.15
  -4   7   3   27.81    9.59
  -4   7   3   39.02   10.96
   4   7  -3   40.32   11.32
  -4   7   3   60.58   14.81
  -4   7   2   33.29    9.11
   4   7  -2   41.53   10.07
  -4   7   2   35.34   10.93
  -4   7   2   50.68   14.72
  -4   7   1  195.54   15.24
  -4   7   1  160.97   17.73
   4   7   0   42.97    8.68
  -4   7   0   35.62   10.12
  -4   7   0   25.50   12.04
  -4   7  -1  106.13   12.97
  -4   7  -1   99.06   14.36
  -4   7  -2   44.01   10.89
   4   7   2   40.94    8.01
  -4   7  -3   61.77   11.59
   4   7   3   53.53    9.20
  -4   7  -4  183.97   15.37
  -4   7  -5  104.81   13.20
   4   7   6   20.53    9.98
  -4   7  -6   27.25   11.10
  -4   7  -7   63.92   12.19
   4   7   7   66.39   11.96
  -4   7  -8  105.66   16.28
   4   7   8  144.94   14.83
   4   7   9   40.55   13.04
  -4   7  -9   50.78   16.22
  -4   8  10   59.65   12.74
   4   8  -9  164.38   26.30
  -4   8   9  181.00   16.46
  -4   8   8  165.17   16.53
  -4   8   8  151.18   18.99
   4   8  -7  119.94   20.76
  -4   8   7   88.03   14.68
  -4   8   7  114.13   16.81
   4   8  -6  573.35   31.22
  -4   8   6  432.39   25.56
   4   8  -5  657.00   30.41
  -4   8   5  799.02   36.87
   4   8  -4  505.78   25.21
  -4   8   4  418.11   22.37
   4   8  -3  787.25   29.66
  -4   8   3  627.69   26.37
  -4   8   2 1235.79   39.76
   4   8  -2 1309.44   38.43
  -4   8   1 1441.47   42.76
   4   8  -1 1408.94   38.53
  -4   8   1 1354.62   46.10
  -4   8   0  803.48   30.22
   4   8   0  852.64   26.23
  -4   8   0  767.52   32.43
  -4   8  -1 1312.20   38.77
   4   8   1 1207.07   32.05
  -4   8  -2 1320.60   39.73
   4   8   2 1337.03   34.26
  -4   8  -3  825.22   29.35
   4   8   3  759.35   24.20
  -4   8  -4  582.53   24.54
  -4   8  -5  688.87   26.53
   4   8   6  594.97   25.23
  -4   8  -6  680.66   25.84
  -4   8  -7  143.63   19.12
   4   8   7  130.55   14.39
  -4   8  -8  201.02   21.52
   4   8   8  180.32   17.55
  -4   8  -9  265.22   22.71
   4   8   9  214.60   19.22
   4   8  10   67.41   16.17
  -4   9   9   82.18   20.71
  -4   9   9   66.70   13.51
  -4   9   8  134.29   15.93
  -4   9   8  111.96   19.00
  -4   9   7   53.48   15.58
   4   9  -7   75.01   18.07
  -4   9   7   49.71   13.97
  -4   9   6   50.56   14.80
   4   9  -6   64.65   16.78
  -4   9   6   43.31   17.06
  -4   9   6   39.54   13.38
  -4   9   5  218.68   23.06
  -4   9   5  180.29   17.32
   4   9  -4  121.49   15.32
  -4   9   4  123.73   19.71
  -4   9   4   83.08   13.11
  -4   9   3    0.60    9.98
   4   9  -3   -0.58    9.77
  -4   9   3    1.86   13.73
   4   9  -2  134.57   13.25
  -4   9   2   90.22   16.68
  -4   9   1   84.38   12.68
   4   9  -1  111.65   11.54
  -4   9   1   78.21   14.99
  -4   9   0   15.88   11.17
   4   9   0   11.60    7.89
  -4   9   0   12.44   12.24
  -4   9  -1   46.20   11.62
   4   9   1   30.77    8.05
  -4   9  -2   82.18   13.56
   4   9   2   42.36    7.76
  -4   9  -3    9.10   10.11
   4   9   3   12.99    7.56
  -4   9  -4   80.89   12.42
  -4   9  -5  122.27   13.86
   4   9   6   34.98   12.90
  -4   9  -6   26.07   15.65
   4   9   7   38.58   12.68
  -4   9  -7   50.10   17.63
  -4   9  -8   83.92   18.49
   4   9   8   91.68   15.00
   4   9   9   44.03   15.02
   4   9  10   16.47   14.72
  -4  10   9  183.05   18.02
  -4  10   8  174.41   17.96
  -4  10   8  173.25   21.46
  -4  10   7  237.34   20.12
  -4  10   7  238.86   21.85
  -4  10   6  219.84   20.44
  -4  10   6  204.12   19.84
  -4  10   5  383.00   24.43
  -4  10   5  360.27   22.90
   4  10  -4  402.37   23.51
  -4  10   4  312.06   23.03
  -4  10   4  388.38   27.48
  -4  10   4  290.99   19.76
   4  10  -3  345.48   20.37
  -4  10   3  402.91   27.15
   4  10  -2  439.42   21.37
   4  10  -1  345.41   17.66
   4  10   0  380.84   17.18
  -4  10  -1  280.04   19.09
   4  10   1  253.10   13.44
  -4  10  -2  453.41   22.66
   4  10   2  406.49   15.95
  -4  10  -3  355.80   20.32
   4  10   3  340.49   14.68
  -4  10  -4  287.87   18.62
  -4  10  -4  240.86   23.46
  -4  10  -5  368.89   27.66
  -4  10  -6  272.18   25.06
  -4  10  -7  228.96   24.01
   4  10   7  197.96   17.81
  -4  10  -8  157.10   21.90
   4  10   8  148.99   17.37
   4  10   9  197.75   20.05
  -4  11   9   56.80   14.88
  -4  11   8   82.05   15.49
  -4  11   7   59.19   17.74
  -4  11   7   52.88   15.67
   4  11  -7   84.22   20.58
  -4  11   6   74.45   16.58
  -4  11   6   73.92   16.80
   4  11  -6  121.70   19.55
  -4  11   5   64.07   16.12
  -4  11   5   45.05   14.23
   4  11  -5   87.12   17.42
  -4  11   4   66.60   13.98
   4  11  -4   98.20   16.35
  -4  11   4   91.40   17.92
   4  11  -3   50.35   12.84
  -4  11   3   38.29   15.52
   4  11  -2   87.74   13.04
  -4  11   2   71.46   16.94
   4  11  -1   38.45   10.40
   4  11   0   12.14    8.22
  -4  11   0    9.40   14.69
   4  11   1   20.88    7.76
  -4  11  -1   24.36   15.34
   4  11   2    7.09    6.95
  -4  11  -2   18.54   16.13
  -4  11  -3   18.02   11.68
   4  11   3    4.54    7.02
  -4  11  -3    8.45   15.91
  -4  11  -4   43.54   18.77
  -4  11  -5    3.41   16.88
  -4  11  -6   22.20   18.02
   4  11   7   73.51   15.10
  -4  11  -7   74.72   19.71
   4  11   8   38.77   16.29
  -4  11  -8   28.68   17.91
   4  11   9   45.81   17.01
  -4  12   8   92.13   17.27
  -4  12   7  116.14   18.05
   4  12  -6  105.37   20.24
  -4  12   6  113.03   19.13
  -4  12   6  126.06   18.44
   4  12  -5  206.61   21.71
  -4  12   5  171.25   21.17
  -4  12   5  177.83   19.65
   4  12  -4  356.43   23.37
  -4  12   4  343.16   25.63
   4  12  -3  296.05   20.00
  -4  12   3  294.52   25.73
   4  12  -2  286.02   18.57
  -4  12   2  310.00   25.44
   4  12  -1  592.17   23.32
   4  12   0  497.81   19.83
  -4  12   0  535.57   32.16
   4  12   1  349.04   15.50
  -4  12  -1  383.93   28.20
   4  12   2  444.06   16.16
  -4  12  -2  474.83   31.15
  -4  12  -3  470.65   31.47
   4  12   3  391.60   14.35
  -4  12  -4  290.85   27.63
  -4  12  -5  225.94   25.46
  -4  12  -6  215.08   25.03
   4  12   7  149.43   18.34
  -4  12  -7  133.74   22.49
  -4  13   5   50.29   15.64
   4  13  -5   95.35   18.68
  -4  13   4    9.33   14.23
  -4  13   4   28.46   16.48
   4  13  -4   31.38   15.58
  -4  13   3   38.51   18.02
   4  13  -3   47.49   14.45
  -4  13   2   31.84   18.08
   4  13  -2   27.38   12.20
   4  13  -1   17.77   10.14
  -4  13   0    5.36   17.32
   4  13   0    6.73    9.00
  -4  13  -1    5.10   17.83
   4  13   1    5.94    7.74
  -4  13  -2    1.83   18.24
   4  13   2    6.75    6.91
  -4  13  -3   40.46   19.61
  -4  13  -4   10.61   18.22
   4  14  -4  197.20   20.71
   4  14  -3  133.05   17.16
   4  14  -2   76.83   14.71
   4  14  -1  134.12   13.95
   4  14   0  157.05   12.84
   4  15  -3   18.62   14.10
   4  15  -2   54.00   14.66
  -5 -10   8  203.10   40.14
  -5 -10  -8   94.52   27.42
  -5  -9   9   93.99   32.62
  -5  -9   8  188.21   36.51
  -5  -9   7   53.50   32.68
  -5  -9  -7   18.80   20.57
  -5  -9  -8   36.92   24.15
  -5  -8   9  114.03   31.80
  -5  -8   8   53.36   29.67
  -5  -8   7   73.35   27.94
  -5  -8   6  185.09   33.19
  -5  -8   1  270.90   24.73
  -5  -8   0  243.18   23.95
  -5  -8  -1  299.17   24.02
  -5  -8  -2  487.02   27.57
  -5  -8  -3  281.32   20.59
  -5  -8  -6  310.80   30.81
  -5  -8  -7  112.35   24.15
  -5  -8  -8   78.29   23.92
  -5  -7   9   88.11   26.89
  -5  -7   8  259.63   32.72
  -5  -7   7  199.03   25.49
  -5  -7   7  194.44   30.06
  -5  -7   6   61.48   25.74
  -5  -7   5  265.08   32.65
  -5  -7   2   16.38   17.27
  -5  -7   1  142.17   22.57
  -5  -7   0   57.45   17.45
  -5  -7  -1   43.94   16.49
  -5  -7  -2   22.83   14.29
  -5  -7  -3    7.84   12.18
  -5  -7  -4   83.81   22.33
  -5  -7  -4   47.66   13.50
  -5  -7  -5  157.25   24.92
  -5  -7  -6    2.87   18.41
  -5  -7  -7   44.38   21.30
  -5  -7  -8  201.85   28.89
   5  -6 -10   80.90   22.65
  -5  -6   9  201.67   27.31
  -5  -6   8  177.11   27.26
  -5  -6   7  134.01   22.42
  -5  -6   7  144.19   26.05
  -5  -6   6  526.53   33.46
  -5  -6   6  366.79   34.29
  -5  -6   5  285.09   30.92
  -5  -6   4  210.59   27.83
  -5  -6   3  130.48   24.36
  -5  -6   3  247.64   28.31
  -5  -6   2  230.36   26.30
  -5  -6   2  373.63   31.74
  -5  -6   1  200.18   24.08
  -5  -6   0   55.27   16.36
  -5  -6  -1  157.76   19.60
  -5  -6  -2  162.78   19.08
  -5  -6  -2  254.82   26.69
  -5  -6  -3  129.24   18.19
  -5  -6  -3  147.63   24.02
  -5  -6  -4  112.14   16.43
  -5  -6  -4  141.71   24.72
  -5  -6  -5  201.50   18.26
  -5  -6  -5  230.22   27.20
  -5  -6  -6  300.85   29.86
  -5  -6  -7  101.73   22.43
  -5  -6  -8  136.47   24.91
   5  -5 -11   98.30   25.87
  -5  -5  10   72.45   19.27
   5  -5 -10   81.68   23.38
   5  -5  -9  141.80   25.24
  -5  -5   9  134.79   23.56
  -5  -5   8  179.44   19.68
   5  -5  -8  174.03   24.76
  -5  -5   8  162.33   24.01
  -5  -5   7  167.84   21.45
   5  -5  -7  138.04   22.12
  -5  -5   7  133.17   24.00
  -5  -5   6  133.87   22.40
   5  -5  -6  113.55   21.00
   5  -5  -6   88.70   19.33
  -5  -5   6  142.14   24.10
  -5  -5   5   75.50   22.65
  -5  -5   5  148.63   23.06
   5  -5  -5   95.81   19.25
  -5  -5   4  120.05   22.91
   5  -5  -4  121.56   20.31
  -5  -5   3   73.47   20.67
  -5  -5   3   87.10   21.57
   5  -5  -3  113.45   19.44
   5  -5  -2   52.58   16.67
  -5  -5   2   55.63   19.42
   5  -5  -1   75.73   17.39
  -5  -5   1   69.65   17.18
  -5  -5   0   35.19   19.09
   5  -5   0   28.56   14.98
  -5  -5   0   35.30   16.63
  -5  -5  -1   68.38   20.00
  -5  -5  -1   41.23   16.14
  -5  -5  -2   12.84   17.73
  -5  -5  -2   13.39   13.49
  -5  -5  -3  105.24   15.34
   5  -5   3   78.92   16.36
  -5  -5  -4   89.40   14.86
  -5  -5  -4   78.77   17.28
  -5  -5  -4   87.67   21.27
  -5  -5  -5   62.55   20.00
  -5  -5  -5   48.47   17.43
  -5  -5  -5   45.13   13.41
   5  -5   5  102.78   16.18
  -5  -5  -6   85.26   21.63
  -5  -5  -6   60.45   12.69
  -5  -5  -7   58.93   20.42
  -5  -5  -8  142.13   24.31
  -5  -5  -9   54.75   23.28
   5  -4 -11   18.05   22.59
  -5  -4  10   25.63   16.22
   5  -4 -10   37.98   22.87
  -5  -4   9   97.03   18.59
   5  -4  -9  115.35   23.54
  -5  -4   9  112.26   21.64
  -5  -4   8   19.44   18.18
  -5  -4   8   72.62   16.47
   5  -4  -8   22.63   20.05
  -5  -4   7  293.80   24.12
  -5  -4   7  293.92   29.55
   5  -4  -7  178.74   24.52
   5  -4  -7  174.01   20.54
  -5  -4   7  185.47   23.28
   5  -4  -6  242.48   25.83
   5  -4  -6  173.11   19.49
  -5  -4   6  233.81   27.67
  -5  -4   6  239.50   24.10
   5  -4  -5  208.10   23.47
   5  -4  -5  184.28   21.27
  -5  -4   5  195.06   23.65
  -5  -4   4  278.33   28.09
   5  -4  -4  297.30   26.33
   5  -4  -4  325.01   24.81
  -5  -4   4  321.74   28.01
  -5  -4   3  450.53   31.34
   5  -4  -3  450.92   29.18
  -5  -4   2  430.91   31.30
   5  -4  -2  455.26   28.90
  -5  -4   1  281.06   25.85
   5  -4  -1  410.06   26.84
  -5  -4   0  604.06   34.07
   5  -4   0  677.80   33.76
  -5  -4  -1  435.35   27.75
  -5  -4  -1  657.39   36.10
  -5  -4  -2  537.71   33.99
   5  -4   2  456.62   27.00
  -5  -4  -3  412.76   23.84
   5  -4   3  431.77   26.51
  -5  -4  -4  384.73   23.52
  -5  -4  -4  483.35   30.91
  -5  -4  -5  297.58   21.00
  -5  -4  -5  342.36   28.08
  -5  -4  -6  181.86   17.33
   5  -4   6  180.97   17.18
  -5  -4  -7  164.26   21.21
   5  -4   7  150.69   15.60
  -5  -4  -8   62.10   17.38
  -5  -4  -8  135.47   23.81
  -5  -4  -9  117.10   24.13
   5  -3 -11  103.03   25.99
  -5  -3  10  187.55   19.75
   5  -3 -10  235.56   28.79
  -5  -3   9  100.35   17.93
  -5  -3   9   93.68   16.62
  -5  -3   9   89.12   21.58
   5  -3  -9  115.97   22.66
  -5  -3   8  227.46   20.41
  -5  -3   8  239.48   27.06
   5  -3  -8  174.62   24.89
  -5  -3   7  259.82   24.13
  -5  -3   7  290.47   22.73
   5  -3  -7  303.17   27.08
  -5  -3   6  201.65   22.36
   5  -3  -6  200.78   23.38
  -5  -3   6  185.08   21.68
  -5  -3   5  213.63   22.97
   5  -3  -5  163.59   21.76
   5  -3  -5  171.01   19.62
  -5  -3   5  172.69   21.37
  -5  -3   4  172.23   25.14
   5  -3  -4  239.44   23.16
   5  -3  -4  136.99   18.01
  -5  -3   4  257.43   22.65
  -5  -3   3  224.81   26.08
   5  -3  -3  164.46   19.04
   5  -3  -2   11.87   12.72
  -5  -3   2   15.82   15.85
  -5  -3   2   21.17   17.56
  -5  -3   1  127.81   18.76
   5  -3  -1  120.89   16.65
  -5  -3   0  150.66   19.00
   5  -3   0  136.41   16.87
  -5  -3   0  180.94   21.93
  -5  -3  -1   90.24   15.32
  -5  -3  -1  114.23   19.50
   5  -3   2    9.15   10.90
  -5  -3  -2   13.74   14.88
  -5  -3  -2    0.30   12.87
  -5  -3  -3   41.60   17.59
  -5  -3  -3   72.87   14.91
  -5  -3  -4   83.24   15.50
  -5  -3  -4   55.19   18.45
  -5  -3  -5  253.20   20.53
  -5  -3  -5  254.86   25.19
  -5  -3  -6   52.55   19.31
  -5  -3  -6   71.19   16.11
  -5  -3  -7   97.85   22.38
  -5  -3  -7  112.40   18.59
  -5  -3  -8  252.98   25.84
  -5  -3  -8  128.28   18.78
  -5  -3  -9   66.79   22.99
   5  -2 -11   58.56   25.55
   5  -2 -10  124.65   26.00
  -5  -2   9  103.72   16.44
  -5  -2   9  105.32   16.87
  -5  -2   9   72.58   21.07
   5  -2  -9  121.96   22.97
  -5  -2   8  125.13   17.32
   5  -2  -8  138.23   23.22
  -5  -2   7  169.93   18.38
   5  -2  -7  229.22   24.60
  -5  -2   6  337.04   24.78
  -5  -2   6  339.96   24.67
   5  -2  -6  361.77   26.68
  -5  -2   5   86.45   17.32
  -5  -2   5   69.04   16.05
   5  -2  -5   92.61   17.90
  -5  -2   4  299.58   29.01
  -5  -2   4  256.58   21.76
  -5  -2   3  348.28   30.28
   5  -2  -3  298.32   21.83
   5  -2  -2   65.35   14.36
  -5  -2   2   80.21   17.53
  -5  -2   2  120.85   17.91
  -5  -2   1  101.92   17.23
   5  -2  -1  161.77   17.06
  -5  -2   0  269.20   22.55
   5  -2   0  282.75   20.64
  -5  -2  -1  201.17   20.25
  -5  -2  -1  277.83   22.90
  -5  -2  -2   28.12   14.55
  -5  -2  -2   33.99   13.61
  -5  -2  -3  259.53   21.62
  -5  -2  -3  258.20   23.52
  -5  -2  -4  490.78   27.42
  -5  -2  -4  549.00   31.32
  -5  -2  -5   74.93   18.43
  -5  -2  -5   81.36   16.05
  -5  -2  -6  139.42   21.84
  -5  -2  -6  203.51   21.37
  -5  -2  -7  356.66   27.90
  -5  -2  -7  381.43   27.34
  -5  -2  -8  206.38   24.79
  -5  -2  -9   45.44   20.34
   5  -1 -10  304.94   32.54
   5  -1  -9  125.86   24.42
  -5  -1   8   38.55   13.37
  -5  -1   8   44.51   15.22
   5  -1  -8   37.43   18.68
  -5  -1   7  269.79   20.45
  -5  -1   7  264.31   21.17
   5  -1  -7  325.00   27.01
  -5  -1   6  303.26   21.87
  -5  -1   6  346.63   24.53
   5  -1  -6  334.88   25.98
   5  -1  -5   34.68   10.99
  -5  -1   5   19.40   13.20
  -5  -1   5   32.77   15.19
   5  -1  -5    7.05   14.63
  -5  -1   4  110.95   16.49
  -5  -1   4  105.67   17.75
  -5  -1   4   63.30   20.38
  -5  -1   3  453.57   26.29
  -5  -1   3  338.02   28.47
  -5  -1   2   43.94   14.38
  -5  -1   2   40.58   15.22
   5  -1  -2    3.59   13.67
  -5  -1   1    8.35   13.81
  -5  -1   0  107.46   16.65
  -5  -1   0  121.12   16.64
  -5  -1  -1   46.72   14.77
  -5  -1  -1   28.25   12.54
  -5  -1  -2   49.36   15.29
  -5  -1  -2   51.14   14.64
  -5  -1  -3   97.62   17.28
  -5  -1  -3  219.82   20.14
  -5  -1  -4   10.59   14.33
  -5  -1  -4   50.02   15.15
  -5  -1  -5   37.90   15.36
  -5  -1  -5   54.96   16.20
  -5  -1  -6  159.10   21.06
  -5  -1  -6  210.22   22.11
  -5  -1  -7  106.31   19.96
  -5  -1  -7  153.99   22.67
  -5  -1  -8   49.82   18.44
  -5  -1  -8   48.63   19.23
   5   0 -10   19.16   21.48
   5   0  -9   33.94   18.93
   5   0  -8   25.31   17.56
   5   0  -7  169.52   21.86
   5   0  -7  146.40   17.49
  -5   0   6   82.84   13.70
  -5   0   6   93.93   15.89
   5   0  -6  101.20   17.90
   5   0  -6  111.54   13.64
  -5   0   5   97.21   16.22
  -5   0   5   62.11   13.43
   5   0  -5   79.30   11.44
  -5   0   4  265.69   20.34
  -5   0   4  335.06   31.13
   5   0  -4  323.08   16.76
  -5   0   3  459.44   24.87
  -5   0   3  368.00   30.11
  -5   0   2  213.55   18.85
  -5   0   2  161.25   21.09
  -5   0   1  252.41   22.83
  -5   0   0  920.94   37.80
  -5   0   0 1027.09   40.87
  -5   0  -1  579.83   28.87
  -5   0  -1  482.96   29.29
  -5   0  -2  155.14   17.69
  -5   0  -2  192.79   20.03
  -5   0  -3  542.76   29.35
  -5   0  -3  624.01   31.79
  -5   0  -4  761.71   34.80
  -5   0  -4  731.29   34.05
  -5   0  -5  144.29   19.07
  -5   0  -5  119.34   18.54
  -5   0  -6   87.51   17.33
  -5   0  -6   90.83   18.52
  -5   0  -7  492.29   31.35
  -5   0  -8  118.44   20.97
   5   1 -10  337.89   32.22
   5   1  -9   97.35   23.11
   5   1  -8   50.60   18.74
   5   1  -7  330.42   26.63
   5   1  -7  450.82   22.92
  -5   1   6  311.29   20.86
   5   1  -6  434.16   20.68
  -5   1   5   34.61   12.29
  -5   1   5   44.72   14.32
  -5   1   5   52.34   19.93
   5   1  -5    7.73   13.43
   5   1  -5   70.87   11.48
  -5   1   4   97.37   15.18
  -5   1   4   86.23   13.62
   5   1  -4  134.30   11.71
  -5   1   3  517.04   27.33
  -5   1   3  471.78   25.27
  -5   1   3  354.74   27.71
   5   1  -3  636.45   20.05
  -5   1   2   42.58   12.78
  -5   1   2   32.68   15.65
   5   1  -2   65.54    7.28
   5   1  -1    8.03    4.59
  -5   1   1    7.33   13.21
   5   1  -1    3.02   10.60
  -5   1   0  106.38   15.02
  -5   1   0  127.85   18.50
   5   1   0  115.37   15.15
  -5   1  -1   40.20   12.87
  -5   1  -1   45.90   13.06
  -5   1  -2   34.69   13.12
  -5   1  -2   52.51   14.50
  -5   1  -3  109.56   16.62
  -5   1  -3  245.80   20.69
  -5   1  -4    8.13   12.97
  -5   1  -4   31.30   14.77
  -5   1  -5   49.67   15.27
  -5   1  -5   38.36   16.26
  -5   1  -6  170.40   22.35
  -5   1  -7  125.28   21.32
   5   2 -10  102.19   26.02
   5   2  -9  124.14   23.40
   5   2  -8  176.74   22.96
   5   2  -7  264.99   24.87
   5   2  -7  293.33   20.69
   5   2  -6  358.50   25.49
   5   2  -6  422.59   21.10
  -5   2   5   63.06   13.26
  -5   2   5   70.19   20.59
   5   2  -5   97.22   12.71
  -5   2   4  285.10   21.78
   5   2  -4  305.79   16.13
  -5   2   3  433.61   25.22
   5   2  -3  496.34   18.25
  -5   2   2   63.91   12.85
   5   2  -2   56.94   11.45
  -5   2   2   48.16   16.38
   5   2  -2   91.81    8.47
   5   2  -1   75.27   12.91
   5   2  -1  109.31    7.88
  -5   2   0  307.76   21.39
  -5   2   0  413.23   25.44
   5   2   0  310.31   20.95
   5   2   0  375.54   10.94
  -5   2  -1  212.98   18.38
  -5   2  -1  195.97   20.79
   5   2   1  188.32   16.24
  -5   2  -2    7.39   12.19
  -5   2  -2   22.80   13.31
  -5   2  -3  317.88   23.04
  -5   2  -4  449.12   27.44
  -5   2  -5   31.55   15.00
  -5   2  -6  114.78   20.03
   5   3  -9  123.77   23.46
   5   3  -8  137.12   21.65
   5   3  -7  310.91   25.29
   5   3  -6  210.13   21.38
   5   3  -6  245.10   17.44
   5   3  -5   34.21   16.32
   5   3  -5  136.10   14.79
  -5   3   4  163.99   17.04
  -5   3   4  153.73   21.39
   5   3  -2   37.46   10.37
  -5   3   1  147.07   15.80
  -5   3   1  112.85   18.46
   5   3  -1  136.43   13.33
  -5   3   0   95.10   16.64
   5   3   0  111.57   12.83
  -5   3  -1  148.49   17.37
   5   3   1   63.84   12.61
  -5   3  -2   11.29   12.28
  -5   3  -3   63.26   15.51
   5   3   3   79.72    4.95
  -5   3  -4   78.93   16.42
  -5   3  -5  150.99   18.37
   5   4  -9   96.20   21.04
   5   4  -8   36.50   19.23
   5   4  -7  248.89   23.90
   5   4  -6  172.99   19.81
  -5   4   4  421.31   31.60
  -5   4   3  457.31   30.78
   5   4  -3  450.81   23.20
  -5   4   2  435.25   23.95
   5   4  -2  519.98   23.51
  -5   4   1  363.24   22.09
   5   4  -1  307.81   17.99
  -5   4   0  921.97   34.18
  -5   4   0 1072.86   41.02
  -5   4  -1  412.32   26.13
   5   4   1  404.57   21.37
  -5   4  -2  472.07   26.61
   5   4   3  493.78   14.50
  -5   4  -3  421.62   26.46
  -5   4  -4  367.58   24.68
   5   4   4  449.86   14.00
   5   4   5  272.46   11.47
   5   5  -9  135.32   23.68
   5   5  -8  186.25   23.52
   5   5  -7  151.71   20.71
   5   5  -4  206.28   18.45
  -5   5   3  124.66   20.85
   5   5  -3  121.19   14.07
  -5   5   2   77.31   12.67
  -5   5   2   79.85   18.04
   5   5  -2  105.81   12.25
  -5   5   2  101.52   10.85
  -5   5   1   87.05   13.61
   5   5  -1   95.23   12.15
  -5   5   1   74.89    8.53
  -5   5   0   27.22    6.34
  -5   5   0   20.07   11.49
   5   5   0   20.65    9.49
  -5   5  -1   61.83   13.60
   5   5   1   49.85   11.10
  -5   5  -1   60.50   13.53
  -5   5  -1   56.81    5.82
  -5   5  -2   30.76   11.93
  -5   5  -2   33.04   12.82
   5   5   2    7.92    9.84
  -5   5  -2   21.83    4.19
  -5   5  -3  103.34    4.57
  -5   5  -4   67.57    4.34
   5   5   4   68.74    7.58
  -5   5  -5   52.84    5.65
   5   5   5   70.08    8.26
   5   5   6   69.26    9.05
   5   6  -8  202.93   23.98
   5   6  -5  277.34   21.30
   5   6  -4  230.69   18.47
  -5   6   4  194.53   16.44
   5   6  -3  259.00   18.13
  -5   6   3  195.73   14.29
   5   6  -2  265.70   17.38
  -5   6   2  258.84   23.67
  -5   6   2  227.44   14.00
  -5   6   1  287.88   19.61
   5   6  -1  325.98   17.47
  -5   6   1  316.14   24.55
  -5   6   1  300.35   14.80
  -5   6   0   90.42   14.24
   5   6   0   91.41   11.27
  -5   6   0   87.09    8.52
  -5   6  -1  235.83   18.42
   5   6   1  199.96   14.90
  -5   6  -1  237.36   10.82
  -5   6  -2  257.61   19.21
   5   6   2  209.63   15.69
  -5   6  -3  215.11   18.30
  -5   6  -4  151.35   16.29
  -5   6  -5  220.66   18.86
   5   6   5  181.63   11.89
  -5   6  -6  306.38   21.57
   5   6   6  311.71   15.66
   5   6   7   64.20   10.26
   5   7  -6   41.96   15.35
   5   7  -5  203.46   19.20
  -5   7   5  149.83   15.99
   5   7  -4  230.85   18.14
  -5   7   4  170.13   15.29
   5   7  -3   85.74   12.95
  -5   7   3   69.19   11.54
  -5   7   2   19.27    9.19
   5   7  -2   23.76   10.81
   5   7  -1  165.68   13.45
  -5   7   1  143.14   11.49
   5   7   0   67.23   10.86
  -5   7   0   61.22    8.32
  -5   7  -1   69.06   13.72
   5   7   1   36.15    9.49
  -5   7  -2   22.25   12.06
   5   7   2   20.13    9.66
  -5   7  -3   35.12   12.57
  -5   7  -4   99.19   14.81
   5   7   5  120.41   11.36
  -5   7  -5  143.95   16.58
   5   7   6   15.99    9.01
  -5   7  -6   14.04   12.81
   5   7   7   52.15   10.54
   5   7   8  123.83   13.34
  -5   8   9   60.03   14.86
   5   8  -7   94.78   18.80
   5   8  -6  126.16   18.87
  -5   8   6  121.78   17.21
   5   8  -5  281.05   21.46
  -5   8   5  221.24   18.59
   5   8  -4  205.24   18.16
  -5   8   4  150.16   15.43
   5   8  -3  215.39   16.94
  -5   8   3  195.19   15.71
   5   8  -2  506.80   22.79
  -5   8   2  453.31   20.57
   5   8  -1  418.48   19.40
  -5   8   1  351.54   17.19
  -5   8   0  354.42   16.84
   5   8   0  396.63   18.56
   5   8   1  345.06   17.11
   5   8   2  656.04   24.23
   5   8   6  200.55   14.81
   5   8   7   89.33   12.68
   5   8   8   43.92   12.11
   5   8   9  116.33   15.37
  -5   9   9   57.08   15.82
  -5   9   8  104.08   16.25
  -5   9   7   39.63   16.64
   5   9  -7   41.63   18.18
  -5   9   6   34.18   13.83
   5   9  -6   29.47   16.17
   5   9  -5  177.80   18.33
  -5   9   5  117.61   15.52
   5   9  -4  130.35   16.21
  -5   9   4   83.88   14.12
  -5   9   3    2.25   10.60
   5   9  -3    0.41   10.76
  -5   9   2   42.75   11.11
   5   9  -2   63.27   12.14
  -5   9   1   78.98   11.03
   5   9  -1  107.28   12.13
   5   9   0    7.73    8.87
   5   9   1    8.97    8.10
   5   9   2   22.21    9.20
   5   9   6   14.06   10.56
   5   9   7   31.34   12.03
  -5   9  -7   23.67   15.88
   5   9   8   68.56   14.16
  -5   9  -8   37.72   18.46
  -5  10   9   81.60   17.20
  -5  10   8  117.21   18.17
  -5  10   7   70.19   17.45
  -5  10   7   82.86   16.83
   5  10  -6  181.33   21.48
  -5  10   6  138.16   18.67
  -5  10   6  161.26   19.24
   5  10  -5  196.06   19.79
  -5  10   5  171.86   18.60
   5  10  -4  223.60   18.78
  -5  10   4  157.36   16.24
   5  10  -3  144.44   15.94
  -5  10   3  127.01   14.72
   5  10  -2  178.73   15.32
  -5  10   2  138.98   14.22
  -5  10   1  248.11   16.99
   5  10  -1  321.43   17.11
   5  10   0   86.10   10.74
   5  10   1  167.53   12.28
   5  10   2  244.96   14.46
   5  10   6  225.95   16.63
  -5  10  -6  198.74   23.71
  -5  10  -7   52.66   19.24
   5  10   7   81.14   13.65
  -5  10  -8   97.64   22.75
   5  10   8  112.82   15.58
  -5  11   6   37.60   15.31
  -5  11   6   34.19   16.17
  -5  11   5   65.24   15.47
   5  11  -5   92.83   17.16
  -5  11   5   49.79   16.86
  -5  11   4   28.12   13.12
   5  11  -4   42.14   14.17
  -5  11   4   38.37   15.40
  -5  11   3   41.82   12.95
   5  11  -3   87.02   14.43
  -5  11   2   21.47   11.50
   5  11  -2   28.76   11.15
   5  11  -1   42.91   10.72
   5  11   0   20.59    9.18
   5  11   1    7.16    8.59
   5  11   2   13.58    8.83
  -5  11  -4   11.47   16.96
  -5  11  -5   16.58   17.99
   5  11   6   30.87   13.12
  -5  11  -6    0.72   17.46
   5  11   7   36.14   14.22
  -5  12   5  129.24   17.90
   5  12  -4  201.34   18.87
  -5  12   4  160.86   18.08
   5  12  -3  161.89   16.74
  -5  12   3  131.60   16.35
  -5  12   2  196.27   17.21
   5  12  -2  248.10   17.09
  -5  12   2  194.02   22.68
   5  12  -1  303.22   17.56
  -5  12   0  294.76   25.62
   5  12   0  302.60   15.90
  -5  12  -1  203.27   23.22
   5  12   1  199.34   13.04
  -5  12  -2  314.51   26.90
   5  12   6  153.51   17.19
   5  12   7  108.74   15.62
  -5  13   4   17.35   14.23
  -5  13   3   10.21   12.87
   5  13  -3    8.82   12.77
  -5  13   2   33.54   13.85
   5  13  -2   43.67   12.08
   5  13  -1    6.94   10.71
   5  13   0    8.25    9.29
   5  14  -2   68.93   13.25
  -6  -9   5  151.90   38.58
  -6  -9   4  107.56   35.99
  -6  -9   3   22.91   30.17
  -6  -9   2   43.82   30.14
  -6  -9  -1   11.11   24.57
  -6  -9  -2   10.23   24.50
  -6  -9  -3    0.51   24.10
  -6  -9  -4   14.92   26.35
  -6  -9  -5    2.95   23.11
  -6  -8   8  111.15   36.88
  -6  -8   7  103.94   35.36
  -6  -8   6  291.16   41.24
  -6  -8   5  372.55   41.53
  -6  -8   4  341.96   41.49
  -6  -8   3  462.73   43.96
  -6  -8   2  738.09   50.44
  -6  -8   0  562.35   42.93
  -6  -8  -1  433.08   32.75
  -6  -8  -1  600.21   43.54
  -6  -8  -2  679.01   45.30
  -6  -8  -3  596.65   43.39
  -6  -8  -4  449.47   38.49
  -6  -8  -5  408.88   37.91
  -6  -8  -6  427.64   37.92
  -6  -8  -7  205.04   30.90
  -6  -8  -8  161.87   31.25
  -6  -7   9   98.90   34.09
  -6  -7   8  131.38   33.37
  -6  -7   7  102.88   33.03
  -6  -7   6   60.36   30.66
  -6  -7   5  141.64   32.99
  -6  -7   4  196.31   33.67
  -6  -7   3   23.06   27.94
  -6  -7   2   45.94   26.71
  -6  -7   0   54.52   26.82
  -6  -7  -1   12.01   24.46
  -6  -7  -1    5.29   18.29
  -6  -7  -2   27.54   23.99
  -6  -7  -2   25.23   18.08
  -6  -7  -3   61.21   25.00
  -6  -7  -4   63.08   25.43
  -6  -7  -5    6.75   24.22
  -6  -7  -6    7.42   24.20
  -6  -7  -7   27.06   27.02
  -6  -7  -8   57.23   26.63
  -6  -6   9  263.14   35.53
  -6  -6   8  174.19   32.79
  -6  -6   7  314.74   37.59
  -6  -6   6  570.09   43.34
  -6  -6   5  584.85   44.42
  -6  -6   4  330.67   37.55
  -6  -6   3  570.61   42.75
  -6  -6   2  812.61   49.44
  -6  -6   0  550.03   40.84
  -6  -6  -1  480.40   33.49
  -6  -6  -1  727.68   45.62
  -6  -6  -2  459.49   31.78
  -6  -6  -2  625.01   42.53
  -6  -6  -3  343.46   28.44
  -6  -6  -3  418.69   36.56
  -6  -6  -4  414.65   36.70
  -6  -6  -5  471.99   38.77
  -6  -6  -6  400.99   35.98
  -6  -6  -7  310.12   34.32
  -6  -6  -8  262.99   34.50
  -6  -5   9   51.23   25.33
  -6  -5   8  101.88   28.41
  -6  -5   7  101.71   28.57
  -6  -5   6   86.29   27.96
  -6  -5   5   97.37   26.36
  -6  -5   4  110.62   27.56
  -6  -5   3   66.06   24.65
  -6  -5   2   84.99   25.49
  -6  -5   0   34.85   22.96
  -6  -5   0   31.81   20.91
  -6  -5  -1   50.55   24.14
  -6  -5  -1   42.78   19.74
  -6  -5  -2   13.66   22.38
  -6  -5  -2   12.55   17.38
  -6  -5  -3   56.28   23.60
  -6  -5  -3   46.88   17.59
  -6  -5  -4   11.96   21.72
  -6  -5  -4   21.34   15.34
  -6  -5  -5   58.38   23.82
  -6  -5  -6   65.62   26.07
  -6  -5  -7   32.17   26.50
  -6  -5  -8   72.80   28.61
  -6  -4   9  151.25   26.35
  -6  -4   8  141.75   25.25
   6  -4  -8  148.23   27.50
  -6  -4   7  145.87   26.54
   6  -4  -7  172.55   27.56
   6  -4  -6  533.86   37.65
  -6  -4   6  523.90   36.74
  -6  -4   5  468.35   35.99
  -6  -4   4  479.10   38.06
  -6  -4   3  886.93   47.82
  -6  -4   2 1182.85   54.61
  -6  -4   0  702.33   41.69
  -6  -4   0 1000.52   49.30
  -6  -4  -1 1015.07   47.52
  -6  -4  -1 1443.29   59.21
  -6  -4  -2  755.97   39.26
  -6  -4  -2  962.98   48.43
  -6  -4  -3  804.70   39.96
  -6  -4  -3  948.99   48.80
  -6  -4  -4  769.50   36.79
  -6  -4  -4  985.40   49.21
  -6  -4  -5  607.96   33.47
  -6  -4  -5  797.49   44.54
  -6  -4  -6  623.84   40.90
  -6  -4  -7  448.10   37.27
  -6  -4  -8  381.05   35.36
  -6  -3   9  107.81   23.28
  -6  -3   8   31.25   21.09
   6  -3  -8   37.18   22.98
  -6  -3   7  141.61   23.76
   6  -3  -7  124.80   23.75
  -6  -3   6  133.22   24.96
   6  -3  -6  125.82   22.89
  -6  -3   5   29.87   21.01
   6  -3  -5   33.55   17.97
   6  -3  -4  149.28   22.20
  -6  -3   4  173.91   25.75
  -6  -3   3  113.83   23.36
  -6  -3   2   61.47   22.17
  -6  -3   0   72.79   19.44
  -6  -3   0  101.22   23.09
  -6  -3  -1   32.11   20.65
  -6  -3  -1    1.63   17.87
  -6  -3  -2   12.05   19.88
  -6  -3  -2    6.15   15.61
  -6  -3  -3   90.49   22.99
  -6  -3  -3   70.74   19.53
  -6  -3  -4   61.32   21.81
  -6  -3  -4   60.63   18.63
  -6  -3  -5   17.20   21.91
  -6  -3  -5   23.99   17.50
  -6  -3  -6   12.26   21.68
  -6  -3  -7   21.63   22.36
  -6  -3  -8   60.02   25.94
  -6  -2   8  212.52   24.07
   6  -2  -8  254.21   30.43
  -6  -2   7  411.86   30.44
   6  -2  -7  523.02   36.42
  -6  -2   6  439.05   30.39
   6  -2  -6  478.37   33.30
  -6  -2   5  596.08   35.86
   6  -2  -5  608.76   36.27
  -6  -2   4  614.68   37.75
   6  -2  -4  598.27   36.09
   6  -2  -3  700.20   38.34
  -6  -2   3  914.64   44.55
  -6  -2   2  889.50   44.25
  -6  -2   0  859.84   44.01
  -6  -2   0 1259.85   51.77
  -6  -2  -1  661.50   38.16
  -6  -2  -1  894.99   44.51
  -6  -2  -2  597.61   35.10
  -6  -2  -2  685.47   40.21
  -6  -2  -3  713.92   37.77
  -6  -2  -3  768.01   43.09
  -6  -2  -4  972.20   48.13
  -6  -2  -4  896.96   42.14
  -6  -2  -5  551.99   37.95
  -6  -2  -5  522.34   33.79
  -6  -2  -6  306.51   30.53
  -6  -2  -6  362.30   29.81
  -6  -2  -7  807.39   45.17
  -6  -2  -8  362.70   34.28
   6  -1  -8   18.95   20.24
  -6  -1   7  155.89   20.05
   6  -1  -7  151.90   22.65
  -6  -1   6  162.97   21.89
   6  -1  -6  154.12   21.82
  -6  -1   5   10.88   16.89
   6  -1  -5    7.52   15.58
  -6  -1   4   52.69   18.47
   6  -1  -4   51.70   16.96
  -6  -1   3  233.46   24.46
   6  -1  -3  189.97   22.07
  -6  -1   2   68.51   19.42
  -6  -1   0   98.86   21.64
  -6  -1   0   87.05   20.34
  -6  -1  -1   62.71   20.45
  -6  -1  -1   59.51   18.68
  -6  -1  -2   13.31   18.34
  -6  -1  -2   21.04   17.83
  -6  -1  -3   -0.40   17.69
  -6  -1  -3   23.13   18.38
  -6  -1  -4   42.94   19.35
  -6  -1  -4   53.47   19.90
  -6  -1  -5   13.29   19.61
  -6  -1  -5   28.65   19.32
  -6  -1  -6   51.14   22.99
  -6  -1  -7   23.18   20.31
   6   0  -8  188.72   26.34
   6   0  -7  283.87   28.09
   6   0  -6  505.63   23.80
  -6   0   6  403.09   27.60
   6   0  -6  443.87   30.66
   6   0  -5  332.34   19.09
  -6   0   5  284.57   24.14
   6   0  -5  303.63   25.86
  -6   0   4  613.82   33.47
   6   0  -4  663.06   34.71
  -6   0   3 1085.09   44.72
  -6   0   2  735.77   36.84
   6   0  -1  971.48   40.74
  -6   0   0 1474.38   54.31
  -6   0  -1 1565.84   55.75
  -6   0  -1 1452.30   55.15
  -6   0  -2  608.85   35.42
  -6   0  -2  591.09   35.58
  -6   0  -3 1211.48   50.83
  -6   0  -3 1351.70   51.81
  -6   0  -4 1463.47   56.16
  -6   0  -5  515.45   34.23
  -6   0  -6  456.31   33.47
   6   1  -8   15.97   19.23
   6   1  -7  172.35   22.87
   6   1  -6  161.55   21.33
   6   1  -6  222.34   17.94
   6   1  -5    5.19   10.63
   6   1  -5   15.70   15.24
  -6   1   4   92.18   17.67
   6   1  -4   83.25   16.48
   6   1  -4  101.88   12.01
  -6   1   3  175.16   20.68
   6   1  -3  216.80   12.54
  -6   1   2   84.40   17.37
   6   1  -2   62.58   14.86
   6   1  -1   -4.67   12.40
  -6   1   0   85.80   18.18
  -6   1  -1   60.59   17.32
  -6   1  -2   11.49   16.41
  -6   1  -3    5.46   16.03
  -6   1  -4   30.67   17.83
   6   2  -8  231.95   25.80
   6   2  -7  524.27   33.30
   6   2  -6  440.78   29.99
   6   2  -6  469.92   23.61
   6   2  -5  550.07   30.81
   6   2  -5  600.70   24.68
   6   2  -4  583.60   22.48
   6   2  -3  842.36   25.66
   6   2  -2  663.23   31.08
   6   2  -2  700.76   20.59
   6   2  -1  384.00   24.75
   6   2  -1  446.26   13.49
   6   2   0  762.89   33.55
   6   3  -8   45.77   20.23
   6   3  -7  111.57   19.84
   6   3  -6  129.16   19.93
   6   3  -6  141.62   16.94
   6   3  -5   28.31   11.92
   6   3  -4  128.40   13.63
   6   3  -3  146.62   16.50
   6   3  -3  146.67   12.23
   6   3  -2   32.57   11.91
   6   3  -2   40.36    8.37
   6   3  -1   26.58    6.80
   6   3  -1   17.50   11.74
   6   3   0   51.71   14.28
   6   3   0   66.27    5.63
   6   4  -7  131.97   21.78
   6   4  -5  367.17   20.82
   6   4  -4  509.81   27.62
   6   4  -4  531.14   24.11
   6   4  -3  727.55   31.12
   6   4  -2  839.98   32.35
   6   4  -1  797.04   31.59
   6   4   0  658.29   28.98
   6   4   1 1036.99   37.15
   6   4   2  542.33   12.37
   6   5  -5  102.49   16.98
   6   5  -4  113.13   16.13
   6   5  -3   55.88   13.55
   6   5  -2  102.07   14.09
   6   5  -1   82.44   12.87
   6   5   0   24.46   12.18
   6   5   1   36.80   12.38
   6   5   3   41.51    5.69
   6   5   4   24.54    6.10
   6   6  -6  385.21   25.48
   6   6  -5  470.44   26.43
   6   6  -4  281.59   20.49
   6   6  -3  448.03   23.88
   6   6  -2  611.92   26.76
   6   6  -1  333.61   19.21
   6   6   0  447.65   22.54
   6   6   1  476.21   23.33
   6   6   4  273.94   11.87
   6   6   5  367.14   13.96
   6   7  -6   34.79   16.03
   6   7  -5  120.05   17.09
   6   7  -4  147.68   16.70
   6   7  -3   16.75   12.11
   6   7  -2   39.69   12.42
   6   7  -1   87.28   12.67
  -6   7   1   93.88   10.93
   6   7   0   31.99   11.30
   6   7   1    7.11   10.90
   6   7   4   53.74    8.30
   6   7   5   25.63    8.19
   6   8  -5  234.03   20.82
   6   8  -4  249.14   19.86
   6   8  -3  324.94   20.39
  -6   8   3  282.35   18.21
   6   8  -2  461.77   22.25
  -6   8   2  391.60   18.80
   6   8  -1  523.97   22.97
   6   8   0  339.60   18.50
   6   8   1  542.09   23.28
   6   8   2  480.46   22.10
   6   8   5  289.85   14.72
   6   9  -5  132.40   17.49
   6   9  -4   87.76   15.46
   6   9  -3   28.84   12.49
   6   9  -2   53.77   12.27
   6   9  -1   91.74   13.30
   6   9   0    8.12    9.82
   6   9   1   -2.88    9.83
   6   9   2   14.65   10.54
   6  10  -4  220.65   19.08
   6  10  -3  204.54   17.31
   6  10  -2  203.72   16.17
   6  10  -1  196.41   15.63
   6  10   0  243.63   15.82
   6  10   1  154.85   13.80
   6  10   2  207.14   14.84
   6  11  -3   24.05   12.89
   6  11  -2   44.17   12.65
   6  11  -1   12.94   11.18
   6  11   0   10.06    9.94
   6  11   1    7.13   10.23
   6  12  -2  109.68   14.08
   6  12  -1  215.83   16.16
   6  12   0  212.75   15.15
  -7  -7   0   21.69   31.50
  -7  -7  -1    8.11   30.57
  -7  -6   4  128.59   36.08
  -7  -6   3  136.15   35.02
  -7  -6   2  192.94   37.18
  -7  -6   0   89.75   32.37
  -7  -6  -1  168.61   34.46
  -7  -6  -2  141.73   32.42
  -7  -6  -3  147.67   31.99
  -7  -6  -4   83.97   31.16
  -7  -5   6   89.78   33.78
  -7  -5   5  168.92   36.93
  -7  -5   4  102.14   32.92
  -7  -5   3   36.49   31.10
  -7  -5   2   59.54   30.11
  -7  -5   0   49.13   27.81
  -7  -5  -1   27.77   27.65
  -7  -5  -2   -0.57   26.03
  -7  -5  -3   32.50   28.86
  -7  -5  -4    8.56   27.85
  -7  -5  -5   14.07   28.40
  -7  -5  -6   16.10   28.47
  -7  -4   7   60.46   29.64
  -7  -4   6   93.35   33.63
  -7  -4   5  138.60   32.66
  -7  -4   4   81.78   31.66
  -7  -4   3  234.49   36.01
  -7  -4   2  220.78   34.10
  -7  -4   0  255.10   36.76
  -7  -4  -1  257.39   35.22
  -7  -4  -2  293.37   36.57
  -7  -4  -3  179.79   32.21
  -7  -4  -4  307.01   38.26
  -7  -4  -5  226.98   35.16
  -7  -4  -6  152.38   34.24
  -7  -4  -7  170.44   33.55
  -7  -3   8  101.32   29.18
  -7  -3   7  137.60   30.52
  -7  -3   6  204.98   31.71
  -7  -3   5   81.02   27.31
  -7  -3   4  133.85   31.92
  -7  -3   3  200.55   33.33
  -7  -3   2   41.75   27.12
  -7  -3   0   35.21   26.95
  -7  -3  -1   19.62   26.29
  -7  -3  -2    2.23   25.06
  -7  -3  -3    6.12   26.07
  -7  -3  -4   -3.95   27.52
  -7  -3  -5   67.29   28.00
  -7  -3  -6   32.31   27.75
  -7  -3  -7   39.18   29.47
  -7  -3  -8   40.47   31.12
  -7  -2   8   53.51   25.94
  -7  -2   7   94.20   26.79
  -7  -2   6  155.10   28.75
  -7  -2   5   68.18   26.34
   7  -2  -5   59.91   21.23
  -7  -2   4  146.25   27.86
  -7  -2   3  102.84   27.08
  -7  -2   2  179.38   30.63
  -7  -2   0  163.58   30.97
  -7  -2  -1  216.14   32.82
  -7  -2  -2   37.54   24.81
  -7  -2  -3  192.72   31.41
  -7  -2  -4  169.11   30.15
  -7  -2  -5   86.66   28.79
  -7  -2  -6   72.80   28.96
  -7  -2  -7  165.64   33.29
  -7  -2  -8  164.59   33.64
  -7  -1   6  211.68   28.58
  -7  -1   5   52.81   22.97
   7  -1  -5   12.53   19.25
  -7  -1   4   77.16   25.32
   7  -1  -4   33.48   17.57
  -7  -1   3  243.99   30.51
  -7  -1   2   56.14   22.73
  -7  -1   0   84.67   24.21
  -7  -1  -1   50.76   23.79
  -7  -1  -2    1.45   21.47
  -7  -1  -3   15.02   23.81
  -7  -1  -4   22.70   25.39
  -7  -1  -5    7.60   24.44
  -7  -1  -6   54.06   27.02
  -7   0   5   93.50   22.27
   7   0  -5   48.60   19.08
  -7   0   4   61.13   22.15
   7   0  -4   43.72   19.78
  -7   0   3  218.56   27.85
  -7   0   2   67.17   22.12
  -7   0   0  321.73   31.22
  -7   0  -1  186.69   27.98
  -7   0  -2  177.39   27.14
  -7   0  -3  183.21   28.80
  -7   0  -4  386.60   35.38
  -7   0  -5   88.35   25.20
   7   1  -5   29.06   18.46
   7   1  -3  185.60   22.64
  -7   1   2   57.88   21.16
   7   1  -2   24.12   16.03
  -7   1   0   53.21   20.97
  -7   1  -1   71.15   22.55
  -7   1  -2    2.66   20.56
   7   2  -3   82.07   18.49
   7   2  -2   92.78   17.37
   7   2  -1   40.73   15.57
   7   3  -4   92.74   17.22
   7   3  -3  114.88   18.43
   7   3  -2   38.63   15.63
   7   3  -1   45.19   15.62
   7   4  -5   90.22   18.83
   7   4  -4   78.87   16.58
   7   4  -3  210.39   20.17
   7   4  -2  128.81   17.94
   7   4  -1  119.13   17.94
   7   4   0  249.71   21.23
   7   5  -4   84.47   16.69
   7   5  -3   55.51   15.53
   7   5  -2   46.27   14.91
   7   5  -1   44.10   14.36
   7   5   0   27.06   13.66
   7   6  -4  126.89   17.88
   7   6  -3  103.89   15.96
   7   6  -2  179.15   18.11
   7   6  -1  124.05   16.31
   7   6   0   86.39   15.45
   7   7  -3   36.62   14.28
   7   7  -2   25.99   12.82
   7   7  -1   74.80   14.80
   7   7   0   17.50   12.96
   7   7   1    3.59   12.17
   7   8  -3  140.41   16.75
   7   8  -2  133.55   16.05
   7   8  -1  189.43   17.54
   7   8   0  157.61   16.12
   7   8   1  138.37   15.90
   7   9  -2   16.86   12.87
   7   9  -1   42.87   13.11
   7   9   0   14.88   12.24
   7   9   1   13.62   12.19
   7  10  -1  133.72   15.20
   7  10   0   73.76   13.57
   0   0   0    0.00    0.00
;
_shelx_hkl_checksum              72070
loop_
_space_group_symop_operation_xyz
'x, y, z'
'-x, y+1/2, -z'
loop_
_atom_site_label
_atom_site_type_symbol
_atom_site_fract_x
_atom_site_fract_y
_atom_site_fract_z
_atom_site_U_iso_or_equiv
_atom_site_adp_type
_atom_site_occupancy
_atom_site_site_symmetry_order
_atom_site_calc_flag
_atom_site_refinement_flags_posn
_atom_site_refinement_flags_adp
_atom_site_refinement_flags_occupancy
_atom_site_disorder_assembly
_atom_site_disorder_group
Pb1 Pb 0.49638(6) 0.37217(3) 0.51089(3) 0.02154(8) Uani 1 1 d . U . . .
Br1 Br 0.4974(2) 0.43890(12) 0.22295(12) 0.0368(3) Uani 1 1 d . U . . .
Br2 Br 0.4928(2) 0.62562(11) 0.54423(13) 0.0431(4) Uani 1 1 d . U . . .
Br3 Br 0.4727(3) 0.33934(12) 0.80380(15) 0.0564(5) Uani 1 1 d . U . . .
Br4 Br -0.0017(2) 0.35492(14) 0.49205(13) 0.0435(4) Uani 1 1 d . U . . .
P1 P 0.0918(7) 0.6434(4) -0.0728(4) 0.0518(12) Uani 1 1 d . U . . .
C5 C 0.046(2) 0.6602(10) 0.1985(9) 0.0415(16) Uani 1 1 d D U . . .
H5A H -0.0689 0.7156 0.1874 0.050 Uiso 1 1 calc R U . . .
H5B H 0.1880 0.6983 0.2011 0.050 Uiso 1 1 calc R U . . .
N1 N 0.013(3) 0.6039(9) 0.3266(8) 0.071(5) Uani 1 1 d D U . . .
H1A H 0.0168 0.6533 0.3928 0.106 Uiso 1 1 calc R U . . .
H1B H -0.1187 0.5701 0.3262 0.106 Uiso 1 1 calc R U . . .
H1F H 0.1198 0.5540 0.3389 0.106 Uiso 1 1 calc R U . . .
C3 C 0.422(2) 0.6500(12) -0.1037(15) 0.0415(16) Uani 1 1 d . U . . .
H3A H 0.4913 0.6909 -0.0324 0.062 Uiso 1 1 calc R U . . .
H3B H 0.4815 0.5763 -0.1059 0.062 Uiso 1 1 calc R U . . .
H3C H 0.4512 0.6861 -0.1876 0.062 Uiso 1 1 calc R U . . .
C1 C 0.012(2) 0.7899(12) -0.0867(15) 0.0415(16) Uani 1 1 d . U . . .
H1C H 0.0577 0.8287 -0.0073 0.062 Uiso 1 1 calc R U . . .
H1D H 0.0832 0.8221 -0.1634 0.062 Uiso 1 1 calc R U . . .
H1E H -0.1462 0.7955 -0.0967 0.062 Uiso 1 1 calc R U . . .
C4 C 0.043(2) 0.5879(11) 0.0841(14) 0.0415(16) Uani 1 1 d . U . . .
H4A H -0.1016 0.5522 0.0814 0.050 Uiso 1 1 calc R U . . .
H4B H 0.1522 0.5303 0.0993 0.050 Uiso 1 1 calc R U . . .
C2 C 0.018(2) 0.5703(12) -0.2070(14) 0.0415(16) Uani 1 1 d . U . . .
H2A H 0.0552 0.6109 -0.2865 0.062 Uiso 1 1 calc R U . . .
H2B H 0.0962 0.5009 -0.2068 0.062 Uiso 1 1 calc R U . . .
H2C H -0.1389 0.5569 -0.2050 0.062 Uiso 1 1 calc R U . . .
loop_
_atom_site_aniso_label
_atom_site_aniso_U_11
_atom_site_aniso_U_22
_atom_site_aniso_U_33
_atom_site_aniso_U_23
_atom_site_aniso_U_13
_atom_site_aniso_U_12
Pb1 0.02112(15) 0.01817(14) 0.02533(14) 0.00177(18) 0.00139(13) 0.00102(17)
Br1 0.0445(7) 0.0394(6) 0.0265(5) 0.0055(5) -0.0031(5) 0.0003(6)
Br2 0.0671(8) 0.0179(4) 0.0443(6) -0.0018(7) 0.0010(6) -0.0122(7)
Br3 0.0884(12) 0.0483(9) 0.0324(6) 0.0072(5) -0.0022(7) 0.0106(8)
Br4 0.0210(5) 0.0528(10) 0.0568(7) 0.0088(6) -0.0009(5) -0.0016(6)
P1 0.054(2) 0.046(2) 0.055(2) 0.0015(17) -0.0079(18) -0.002(2)
C5 0.032(3) 0.042(3) 0.050(3) 0.005(2) -0.004(2) 0.010(2)
N1 0.112(10) 0.040(7) 0.060(8) 0.001(6) -0.005(8) 0.027(7)
C3 0.032(3) 0.042(3) 0.050(3) 0.005(2) -0.004(2) 0.010(2)
C1 0.032(3) 0.042(3) 0.050(3) 0.005(2) -0.004(2) 0.010(2)
C4 0.032(3) 0.042(3) 0.050(3) 0.005(2) -0.004(2) 0.010(2)
C2 0.032(3) 0.042(3) 0.050(3) 0.005(2) -0.004(2) 0.010(2)
loop_
_atom_type_symbol
_atom_type_description
_atom_type_scat_dispersion_real
_atom_type_scat_dispersion_imag
_atom_type_scat_source
C C 0.0033 0.0016 'International Tables Vol C Tables 4.2.6.8 and 6.1.1.4'
H H 0.0000 0.0000 'International Tables Vol C Tables 4.2.6.8 and 6.1.1.4'
N N 0.0061 0.0033 'International Tables Vol C Tables 4.2.6.8 and 6.1.1.4'
P P 0.1023 0.0942 'International Tables Vol C Tables 4.2.6.8 and 6.1.1.4'
Br Br -0.2901 2.4595 'International Tables Vol C Tables 4.2.6.8 and 6.1.1.4'
Pb Pb -3.3944 10.1111 'International Tables Vol C Tables 4.2.6.8 and 6.1.1.4'
loop_
_geom_angle_atom_site_label_1
_geom_angle_atom_site_label_2
_geom_angle_atom_site_label_3
_geom_angle
_geom_angle_site_symmetry_1
_geom_angle_site_symmetry_3
_geom_angle_publ_flag
Br3 Pb1 Br1 171.63(4) . . ?
Br3 Pb1 Br4 90.12(5) . . ?
Br1 Pb1 Br4 87.88(4) . . ?
Br3 Pb1 Br2 92.80(4) . 2_646 ?
Br1 Pb1 Br2 95.20(4) . 2_646 ?
Br4 Pb1 Br2 86.70(4) . 2_646 ?
Br3 Pb1 Br4 95.89(5) . 1_655 ?
Br1 Pb1 Br4 87.39(4) . 1_655 ?
Br4 Pb1 Br4 169.34(6) . 1_655 ?
Br2 Pb1 Br4 84.23(4) 2_646 1_655 ?
Br3 Pb1 Br2 91.50(4) . . ?
Br1 Pb1 Br2 80.53(4) . . ?
Br4 Pb1 Br2 93.92(4) . . ?
Br2 Pb1 Br2 175.658(15) 2_646 . ?
Br4 Pb1 Br2 94.71(4) 1_655 . ?
Pb1 Br2 Pb1 163.25(5) 2_656 . ?
Pb1 Br4 Pb1 169.34(6) . 1_455 ?
C2 P1 C4 118.5(7) . . ?
C2 P1 C1 112.4(7) . . ?
C4 P1 C1 113.3(7) . . ?
C2 P1 C3 99.1(7) . . ?
C4 P1 C3 109.0(7) . . ?
C1 P1 C3 102.0(7) . . ?
C4 C5 N1 114.2(10) . . ?
C5 C4 P1 118.8(10) . . ?
loop_
_geom_bond_atom_site_label_1
_geom_bond_atom_site_label_2
_geom_bond_distance
_geom_bond_site_symmetry_2
_geom_bond_publ_flag
Pb1 Br3 2.9537(15) . ?
Pb1 Br1 2.9844(12) . ?
Pb1 Br4 3.0101(13) . ?
Pb1 Br2 3.0292(14) 2_646 ?
Pb1 Br4 3.0337(13) 1_655 ?
Pb1 Br2 3.0795(14) . ?
Br2 Pb1 3.0292(14) 2_656 ?
Br4 Pb1 3.0337(13) 1_455 ?
P1 C2 1.663(15) . ?
P1 C4 1.729(15) . ?
P1 C1 1.839(15) . ?
P1 C3 2.014(14) . ?
C5 C4 1.437(17) . ?
C5 N1 1.463(12) . ?
