#------------------------------------------------------------------------------
#$Date: 2021-01-04 05:13:17 +0200 (Mon, 04 Jan 2021) $
#$Revision: 260427 $
#$URL: file:///home/coder/svn-repositories/cod/cif/4/13/54/4135409.cif $
#------------------------------------------------------------------------------
#
# This file is available in the Crystallography Open Database (COD),
# http://www.crystallography.net/
#
# All data on this site have been placed in the public domain by the
# contributors.
#
data_4135409
loop_
_publ_author_name
'Tang, Yuan-Yuan'
'Xie, Yongfa'
'Ai, Yong'
'Liao, Wei-Qiang'
'Li, Peng-Fei'
'Nakamura, Takayoshi'
'Xiong, Ren-Gen'
_publ_section_title
;
 Organic Ferroelectric Vortex-Antivortex Domain Structure.
;
_journal_issue                   52
_journal_name_full               'Journal of the American Chemical Society'
_journal_page_first              21932
_journal_page_last               21937
_journal_paper_doi               10.1021/jacs.0c11416
_journal_volume                  142
_journal_year                    2020
_chemical_formula_moiety         'C7 H13 F N, O4 Re'
_chemical_formula_sum            'C7 H13 F N O4 Re'
_chemical_formula_weight         380.39
_space_group_crystal_system      monoclinic
_space_group_IT_number           7
_space_group_name_Hall           'P -2yac'
_space_group_name_H-M_alt        'P 1 n 1'
_atom_sites_solution_hydrogens   geom
_audit_creation_method           SHELXL-2014/7
_cell_angle_alpha                90
_cell_angle_beta                 90.030(3)
_cell_angle_gamma                90
_cell_formula_units_Z            2
_cell_length_a                   8.8138(2)
_cell_length_b                   6.01270(10)
_cell_length_c                   9.2590(2)
_cell_measurement_reflns_used    12519
_cell_measurement_temperature    173(2)
_cell_measurement_theta_max      31.6600
_cell_measurement_theta_min      3.1620
_cell_volume                     490.678(17)
_computing_cell_refinement       'CrysAlisPro 1.171.39.46 (Rigaku OD, 2018)'
_computing_data_collection       'CrysAlisPro 1.171.39.46 (Rigaku OD, 2018)'
_computing_data_reduction        'CrysAlisPro 1.171.39.46 (Rigaku OD, 2018)'
_computing_molecular_graphics    'DIAMOND (Brandenburg & Putz, 2005)'
_computing_publication_material  'SHELXL-2014/7 (Sheldrick, 2014)'
_computing_structure_refinement  'SHELXL-2014/7 (Sheldrick, 2014)'
_computing_structure_solution    'SHELXL-2014/7 (Sheldrick, 2014)'
_diffrn_ambient_temperature      173(2)
_diffrn_measured_fraction_theta_full 1.000
_diffrn_measured_fraction_theta_max 1.000
_diffrn_measurement_device_type  'XtaLAB Synergy R, DW system, HyPix'
_diffrn_measurement_method       'four-circle diffractometer'
_diffrn_radiation_type           MoK\a
_diffrn_radiation_wavelength     0.71073
_diffrn_reflns_av_R_equivalents  0.0856
_diffrn_reflns_av_unetI/netI     0.0439
_diffrn_reflns_Laue_measured_fraction_full 1.000
_diffrn_reflns_Laue_measured_fraction_max 1.000
_diffrn_reflns_limit_h_max       11
_diffrn_reflns_limit_h_min       -11
_diffrn_reflns_limit_k_max       7
_diffrn_reflns_limit_k_min       -7
_diffrn_reflns_limit_l_max       11
_diffrn_reflns_limit_l_min       -11
_diffrn_reflns_number            12079
_diffrn_reflns_point_group_measured_fraction_full 1.000
_diffrn_reflns_point_group_measured_fraction_max 1.000
_diffrn_reflns_theta_full        25.242
_diffrn_reflns_theta_max         26.749
_diffrn_reflns_theta_min         3.190
_diffrn_source                   'Rotating-anode X-ray tube'
_exptl_absorpt_coefficient_mu    12.387
_exptl_absorpt_correction_T_max  0.093
_exptl_absorpt_correction_T_min  0.084
_exptl_absorpt_correction_type   multi-scan
_exptl_absorpt_process_details   'CrysAlisPro 1.171.39.46 (Rigaku OD, 2018)'
_exptl_crystal_colour            colourless
_exptl_crystal_density_diffrn    2.575
_exptl_crystal_description       block
_exptl_crystal_F_000             356
_exptl_crystal_size_max          0.210
_exptl_crystal_size_mid          0.210
_exptl_crystal_size_min          0.200
_refine_diff_density_max         0.746
_refine_diff_density_min         -1.343
_refine_diff_density_rms         0.195
_refine_ls_abs_structure_details
;
 Refined as an inversion twin.
;
_refine_ls_abs_structure_Flack   0.03(3)
_refine_ls_extinction_method     none
_refine_ls_goodness_of_fit_ref   1.001
_refine_ls_hydrogen_treatment    constr
_refine_ls_matrix_type           full
_refine_ls_number_parameters     128
_refine_ls_number_reflns         2079
_refine_ls_number_restraints     8
_refine_ls_restrained_S_all      1.002
_refine_ls_R_factor_all          0.0312
_refine_ls_R_factor_gt           0.0310
_refine_ls_shift/su_max          0.005
_refine_ls_shift/su_mean         0.001
_refine_ls_structure_factor_coef Fsqd
_refine_ls_weighting_details
'w=1/[\s^2^(Fo^2^)+(0.0496P)^2^+1.0500P] where P=(Fo^2^+2Fc^2^)/3'
_refine_ls_weighting_scheme      calc
_refine_ls_wR_factor_gt          0.0749
_refine_ls_wR_factor_ref         0.0751
_reflns_Friedel_coverage         0.993
_reflns_Friedel_fraction_full    1.000
_reflns_Friedel_fraction_max     1.000
_reflns_number_gt                2055
_reflns_number_total             2079
_reflns_threshold_expression     'I > 2\s(I)'
_cod_data_source_file            ja0c11416_si_004.cif
_cod_data_source_block           Pn
_cod_depositor_comments
'Adding full bibliography for 4135405--4135410.cif.'
_cod_original_sg_symbol_H-M      'P n'
_cod_database_code               4135409
_shelx_shelxl_version_number     2014/7
_shelx_space_group_comment
;
The symmetry employed for this shelxl refinement is uniquely defined
by the following loop, which should always be used as a source of
symmetry information in preference to the above space-group names.
They are only intended as comments.
;
_shelx_estimated_absorpt_t_min   0.181
_shelx_estimated_absorpt_t_max   0.191
_shelx_res_file
;

    Pn.res created by SHELXL-2014/7

TITL Pn in Pn
CELL 0.71073   8.8138   6.0127   9.2590  90.000  90.030  90.000
ZERR    2.00   0.0002   0.0001   0.0002   0.000   0.000   0.000
LATT -1
SYMM 0.5+X, -Y, 0.5+Z
SFAC C  H  N  O  F  Re
UNIT 14 26 2 8 2 2
OMIT  -3.00  53.50
L.S. 25
ACTA
BOND
FMAP 2
PLAN 10
HTAB C7 O1_$5
HTAB C7 O4_$3
HTAB C5 O3_$2
HTAB C5 O1_$6
EQIV $6 x+1/2, -y, z-1/2
HTAB C5 F1_$5
EQIV $5 x+1/2, -y+1, z-1/2
HTAB C3 O4_$4
EQIV $4 x-1/2, -y, z-1/2
HTAB C3 O3_$2
HTAB C3 F1_$3
EQIV $3 x-1/2, -y+1, z-1/2
HTAB N1 O3_$2
EQIV $2 x, y, z-1
HTAB N1 O2_$1
EQIV $1 x, y+1, z-1
TWIN
CONF
ISOR 0.001 Re1
SIZE 0.20 0.21 0.21
TEMP -100
WGHT    0.049600    1.050000
BASF  -0.02571
FVAR       0.43958
MOLE 1
RE1   6    1.000013    0.018673    0.999911    11.00000    0.01395    0.01712 =
         0.01327   -0.00251    0.00036    0.00040
O1    4    0.838789    0.030358    0.895410    11.00000    0.02057    0.03265 =
         0.03619    0.00033   -0.00492    0.00394
O2    4    1.000285   -0.225364    1.097233    11.00000    0.04651    0.02526 =
         0.02040    0.00717   -0.00114   -0.00112
O3    4    0.999474    0.238663    1.118879    11.00000    0.06827    0.02793 =
         0.02061   -0.01414   -0.00037   -0.00021
O4    4    1.159523    0.030130    0.892831    11.00000    0.02646    0.03136 =
         0.03329   -0.00206    0.00750   -0.00082
F1    5    1.000068    0.519957    0.787264    11.00000    0.03427    0.04304 =
         0.01433   -0.00209    0.00166    0.00206
C1    1    1.002805    0.527251    0.635074    11.00000    0.01814    0.01500 =
         0.00445   -0.00255   -0.00284   -0.00087
N1    3    1.002343    0.552260    0.363999    11.00000    0.01024    0.03038 =
         0.01900    0.00342    0.00139   -0.00602
AFIX  13
H1    2    1.002316    0.561660    0.256168    11.00000   -1.20000
AFIX   0
C3    1    0.860935    0.427148    0.413468    11.00000    0.01498    0.03647 =
         0.01943    0.00212   -0.00796   -0.01325
AFIX  23
H3A   2    0.768793    0.506203    0.380202    11.00000   -1.20000
H3B   2    0.860225    0.275804    0.371361    11.00000   -1.20000
AFIX   0
C2    1    0.861318    0.412594    0.576160    11.00000    0.01584    0.04505 =
         0.03010    0.00005   -0.00100   -0.01930
AFIX  23
H2A   2    0.860415    0.254705    0.606476    11.00000   -1.20000
H2B   2    0.769354    0.485335    0.615325    11.00000   -1.20000
AFIX   0
C5    1    1.140044    0.428807    0.412361    11.00000    0.02278    0.03500 =
         0.01024   -0.00525    0.00373    0.00022
AFIX  23
H5A   2    1.232456    0.506595    0.378607    11.00000   -1.20000
H5B   2    1.139791    0.277185    0.370675    11.00000   -1.20000
AFIX   0
C4    1    1.140364    0.415039    0.577862    11.00000    0.02567    0.04190 =
         0.02243    0.00953    0.00850    0.01034
AFIX  23
H4A   2    1.141297    0.257358    0.608631    11.00000   -1.20000
H4B   2    1.232493    0.487982    0.616607    11.00000   -1.20000
AFIX   0
C7    1    1.000094    0.776639    0.423968    11.00000    0.01948    0.02249 =
         0.02980    0.00398    0.00013    0.00114
AFIX  23
H7A   2    0.908468    0.855557    0.389300    11.00000   -1.20000
H7B   2    1.090163    0.859411    0.389485    11.00000   -1.20000
AFIX   0
C6    1    1.000038    0.772652    0.588469    11.00000    0.06064    0.02251 =
         0.01846   -0.00458    0.00087    0.00042
AFIX  23
H6A   2    0.907976    0.846896    0.626212    11.00000   -1.20000
H6B   2    1.090311    0.851360    0.626405    11.00000   -1.20000
AFIX   0
HKLF 4

REM  Pn in Pn
REM R1 =  0.0310 for    2055 Fo > 4sig(Fo)  and  0.0312 for all    2079 data
REM    128 parameters refined using      8 restraints

END

WGHT      0.0496      0.0000

REM Highest difference peak  0.746,  deepest hole -1.343,  1-sigma level  0.195
Q1    1   0.9603 -0.0008  0.8517  11.00000  0.05    0.75
Q2    1   1.0428 -0.0017  1.1478  11.00000  0.05    0.73
Q3    1   1.0021  0.8137  0.4993  11.00000  0.05    0.57
Q4    1   1.0446  1.0181  0.2400  11.00000  0.05    0.57
Q5    1   0.9576  0.0175  0.7593  11.00000  0.05    0.56
Q6    1   1.1568  0.1936  0.5360  11.00000  0.05    0.53
Q7    1   0.8485  0.1937  0.4594  11.00000  0.05    0.53
Q8    1   0.8527  0.1638  1.1147  11.00000  0.05    0.51
Q9    1   1.1588  0.1759  0.8868  11.00000  0.05    0.51
Q10   1   0.7989  0.2990  0.3489  11.00000  0.05    0.48
;
_shelx_res_checksum              20
_shelx_hkl_file
;
 -12   0   0  447.51   43.82
 -11   0   0    0.41    5.12
 -11   0   0   -2.27    9.12
 -10   0   0  554.08   47.04
 -10   0   0  719.66   33.55
  -9   0   0    0.34    3.96
  -9   0   0   -1.01    8.31
  -8   0   0 2111.98   63.28
  -8   0   0 2100.27   62.54
  -8   0   0 1481.31   79.20
  -8   0   0 1221.50   76.93
  -8   0   0 2104.59   62.07
  -7   0   0    1.26    2.74
  -7   0   0    1.67    6.22
  -7   0   0    0.26    2.89
  -7   0   0    1.65    2.77
  -6   0   0 4066.28  106.60
  -6   0   0 3955.21  107.15
  -6   0   0 4188.14  107.26
  -5   0   0    1.33    2.38
  -5   0   0    1.51    2.06
  -5   0   0    0.20    2.07
  -4   0   0 3207.29   85.39
  -4   0   0 3428.87   85.35
  -3   0   0    1.15    1.38
  -3   0   0    0.12    1.08
  -2   0   0 5859.24  133.44
  -2   0   0 5480.94  133.51
   2   0   0 5572.75  130.77
   2   0   0 5388.10  135.73
   3   0   0    0.26    2.29
   3   0   0    0.27    1.20
   4   0   0 3122.58   81.52
   4   0   0 2956.04   89.55
   5   0   0    1.27    3.41
   5   0   0   -0.23    2.10
   6   0   0 3736.95  102.40
   6   0   0 3854.93   99.36
   7   0   0   -0.26    2.71
   7   0   0   -0.99    2.90
   7   0   0   -1.72    4.62
   8   0   0 1691.96   72.26
   8   0   0 1775.84   62.27
   9   0   0    1.63    4.23
   9   0   0    0.97    3.61
  10   0   0  697.57   32.23
  10   0   0  609.45   45.72
  11   0   0    1.90    4.59
  11   0   0   -2.02    8.86
 -12   1   0  270.24   37.67
 -12  -1   0  313.54   32.59
 -11  -1   0    2.87    4.94
 -11   1   0    1.36    9.55
 -11  -1   0   -0.89    8.30
 -11   1   0   -0.42    5.41
 -10  -1   0  571.83   29.41
 -10   1   0  622.47   31.12
  -9   1   0   -1.22    9.37
  -9  -1   0    0.68    3.90
  -9  -1   0    3.87    6.79
  -9   1   0    1.10    4.16
  -8  -1   0  606.22   28.36
  -8  -1   0  620.80   27.90
  -8   1   0  376.35   39.40
  -8  -1   0  442.50   39.93
  -8   1   0  736.55   32.46
  -8  -1   0  740.37   25.57
  -8  -1   0  703.60   30.37
  -8   1   0  649.93   28.32
  -8  -1   0  583.77   39.16
  -7  -1   0   18.42    7.71
  -7  -1   0   21.42    4.82
  -7  -1   0   20.55    4.81
  -7   1   0   18.89    7.62
  -7  -1   0   20.55    4.91
  -7   1   0   18.84    4.67
  -7   1   0   19.08    5.29
  -7  -1   0   21.82    5.16
  -6  -1   0 1355.62   44.47
  -6   1   0 1461.60   48.65
  -6   1   0 1389.14   45.04
  -6   1   0 1632.70   50.14
  -6  -1   0 1351.97   45.02
  -6  -1   0 1181.49   55.39
  -6  -1   0 1506.49   43.97
  -6  -1   0 1466.64   46.80
  -5  -1   0    2.93    2.22
  -5  -1   0    2.90    3.34
  -5  -1   0    2.60    2.23
  -5  -1   0    1.73    2.19
  -5   1   0    3.96    3.14
  -5   1   0    1.93    4.24
  -5  -1   0    3.08    2.09
  -5   1   0    2.01    5.00
  -5   1   0    2.71    2.33
  -4   1   0 1930.72   65.16
  -4   1   0 1813.08   51.00
  -4  -1   0 1871.25   52.31
  -4  -1   0 1746.26   50.68
  -4  -1   0 1942.41   48.90
  -4  -1   0 1616.99   58.06
  -4  -1   0 1754.27   50.40
  -4   1   0 1915.48   54.30
  -3  -1   0  127.03    7.20
  -3  -1   0  133.22    8.04
  -3   1   0  124.24    7.30
  -3   1   0  139.56    8.91
  -3   1   0  130.36   11.95
  -3  -1   0  123.60    7.21
  -3  -1   0   99.85    8.77
  -2   1   0 2100.70   51.72
  -2   1   0 2162.68   56.09
  -2  -1   0 1952.94   51.26
  -2   1   0 2331.84   61.40
  -2   1   0 2321.36   61.97
  -2  -1   0 2051.60   51.89
  -2  -1   0 1967.06   51.39
  -1   1   0    4.66    2.04
  -1  -1   0    2.59    2.13
  -1   1   0    3.25    1.24
  -1   1   0    3.09    2.59
  -1   1   0    3.66    1.78
  -1  -1   0    3.10    0.91
   0  -1   0 1705.63   42.31
   0   1   0 1735.90   40.30
   0  -1   0 1776.69   49.56
   0   1   0 1643.29   43.71
   0   1   0 1681.51   41.13
   0  -1   0 1681.28   43.77
   1  -1   0    3.34    1.46
   1   1   0    3.64    0.92
   1  -1   0    4.80    1.67
   1  -1   0    4.80    1.30
   2   1   0 2013.91   50.65
   2   1   0 2080.04   60.95
   2   1   0 2029.49   50.37
   2   1   0 2102.42   51.65
   2  -1   0 1902.54   57.33
   2  -1   0 1978.31   58.88
   3   1   0  126.32    7.22
   3   1   0  120.55    6.91
   3   1   0  127.76    7.61
   3   1   0  118.27   11.39
   3  -1   0   99.72   10.29
   3  -1   0  109.15   11.26
   4  -1   0 1355.70   56.64
   4   1   0 1709.98   46.05
   4  -1   0 1702.33   46.57
   4   1   0 1857.19   59.41
   4  -1   0 1344.69   54.79
   5  -1   0    2.63    4.33
   5   1   0    2.61    4.18
   5  -1   0    0.46    3.76
   5  -1   0    1.88    1.98
   5   1   0    2.00    2.21
   6   1   0 1242.32   51.18
   6   1   0 1331.63   44.29
   6  -1   0 1031.34   51.04
   6  -1   0 1269.08   41.84
   6  -1   0 1115.89   55.21
   7  -1   0   16.48    4.59
   7   1   0   18.94    5.30
   7   1   0   25.92    8.75
   7  -1   0   16.96    7.38
   7  -1   0   10.73    7.12
   7   1   0    8.54    5.39
   8  -1   0  587.38   41.69
   8   1   0  550.94   36.01
   8  -1   0  520.00   36.70
   8   1   0  615.99   27.92
   8  -1   0  633.50   28.35
   8   1   0  594.74   29.89
   9  -1   0   -0.89    7.01
   9   1   0    1.33    6.59
   9  -1   0    0.33    3.52
   9   1   0    0.32    3.44
   9   1   0   -0.40    4.29
  10   1   0  534.39   31.03
  10  -1   0  493.10   41.93
  10  -1   0  523.07   27.98
  10   1   0  571.76   28.70
  11  -1   0    4.14    8.52
  11   1   0    3.34    5.74
  11   1   0    0.38    4.24
  11  -1   0   -0.39    5.15
 -11  -2   0   52.46   12.12
 -11   2   0   34.44   17.21
 -11  -2   0   48.96    9.54
 -11   2   0   59.80   10.54
 -10   2   0  498.44   28.31
 -10  -2   0  428.99   25.04
 -10  -2   0  431.40   30.38
  -9  -2   0   36.83    9.64
  -9  -2   0   23.85   10.72
  -9  -2   0   38.32    7.55
  -9   2   0   22.93   12.87
  -9   2   0   44.90    8.94
  -9   2   0   50.28   13.29
  -8   2   0  945.29   36.02
  -8  -2   0  679.51   48.51
  -8   2   0 1169.45   58.57
  -8  -2   0  930.98   43.13
  -8  -2   0  992.63   38.19
  -8   2   0 1368.94   64.72
  -7  -2   0   41.69    6.44
  -7   2   0   46.29    7.77
  -7   2   0   55.13   12.08
  -7   2   0   19.22   10.99
  -7   2   0   48.22   14.02
  -7  -2   0   37.65    6.25
  -7  -2   0   39.32    8.01
  -7   2   0   37.66    5.95
  -6   2   0 2149.48   61.22
  -6  -2   0 1818.57   54.55
  -6  -2   0 1813.73   58.93
  -6   2   0 1495.56   60.27
  -6   2   0 2052.62   77.03
  -6   2   0 1371.58   76.37
  -6  -2   0 1828.46   55.42
  -6   2   0 1873.90   54.58
  -5   2   0  247.58   15.23
  -5   2   0  207.60   15.91
  -5  -2   0  212.66   12.48
  -5   2   0  167.50   22.54
  -5   2   0  233.52   12.44
  -5  -2   0  196.53   12.64
  -5   2   0  241.27   21.07
  -5  -2   0  200.84   11.91
  -4   2   0 1413.23   48.21
  -4   2   0 1599.66   57.55
  -4  -2   0 1425.34   42.30
  -4   2   0 1583.91   56.95
  -4   2   0 1382.85   63.81
  -4   2   0 1447.59   41.69
  -3   2   0  395.73   22.50
  -3   2   0  397.07   22.35
  -3  -2   0  322.16   21.80
  -3   2   0  351.20   13.87
  -3  -2   0  340.34   14.15
  -3   2   0  339.23   25.81
  -3   2   0  345.30   17.29
  -2   2   0 1773.94   49.22
  -2   2   0 1893.57   62.39
  -2   2   0 1865.22   54.84
  -2  -2   0 1748.00   45.62
  -2  -2   0 1698.04   59.63
  -2  -2   0 1754.48   46.16
  -2  -2   0 1678.63   46.11
  -2   2   0 1902.77   55.68
  -1   2   0   77.97    5.44
  -1  -2   0   69.11    4.34
  -1  -2   0   66.48    3.93
  -1   2   0   75.93    7.03
  -1   2   0   80.52    7.14
  -1  -2   0   70.95    9.60
  -1   2   0   65.28    7.48
  -1  -2   0   57.63    3.89
  -1  -2   0   77.24    5.04
   0   2   0 4069.19   93.58
   0  -2   0 4392.69   99.74
   0   2   0 4118.89   97.14
   0   2   0 3813.36   95.49
   0  -2   0 3794.22   97.10
   0  -2   0 3951.20  111.78
   0   2   0 4664.42  115.32
   0   2   0 3998.49   94.98
   0   2   0 3957.49  100.34
   0  -2   0 3619.93   99.47
   1  -2   0   76.47    7.15
   1   2   0   69.89    6.29
   1  -2   0   74.03    6.60
   1   2   0   74.92    4.57
   1   2   0   79.84    4.90
   2  -2   0 1674.08   52.53
   2  -2   0 1848.46   47.41
   2  -2   0 1646.44   51.30
   2   2   0 1851.69   62.30
   2   2   0 1677.65   44.27
   3  -2   0  328.76   15.84
   3   2   0  334.48   13.59
   3   2   0  342.63   13.44
   3  -2   0  314.02   20.00
   3  -2   0  310.27   18.97
   3   2   0  372.51   24.64
   3   2   0  342.48   14.59
   4   2   0 1373.92   39.70
   4   2   0 1416.77   41.16
   4  -2   0 1135.31   50.00
   4   2   0 1374.15   38.89
   4  -2   0 1109.63   47.56
   4   2   0 1633.67   59.34
   5  -2   0  160.25   17.50
   5  -2   0  152.62   15.85
   5   2   0  224.77   20.77
   5   2   0  197.80   11.84
   5   2   0  209.38   11.64
   5   2   0  209.43   12.57
   6  -2   0 1243.78   61.67
   6  -2   0 1214.72   57.92
   7  -2   0   30.63    5.88
   7  -2   0   22.92    8.92
   7  -2   0   17.46    7.51
   7   2   0   35.68    5.84
   8  -2   0  779.93   49.73
   8  -2   0  873.00   36.38
   9  -2   0   36.51    7.26
   9   2   0   37.65    8.31
   9   2   0   62.59   14.42
   9  -2   0   30.09   11.14
  10   2   0  451.54   27.26
  10   2   0  437.58   24.90
  11  -2   0   40.14   14.05
  11   2   0   52.23   10.35
  11   2   0   54.25    9.39
 -10  -3   0  314.55   21.70
 -10   3   0  367.16   24.74
  -9  -3   0   27.42   10.84
  -9   3   0   63.87   18.35
  -9  -3   0   50.71    8.91
  -9   3   0   60.27   15.07
  -8   3   0  592.81   41.65
  -8  -3   0  537.89   26.64
  -7  -3   0  235.40   15.95
  -7   3   0  360.31   35.07
  -7   3   0  240.79   14.65
  -7  -3   0  255.96   11.79
  -7   3   0  147.26   24.37
  -7   3   0  298.76   27.90
  -6   3   0  887.71   31.37
  -6   3   0 1015.35   50.41
  -6  -3   0  893.22   33.38
  -6   3   0 1017.20   37.36
  -6   3   0  819.29   37.70
  -6   3   0  693.21   51.06
  -5   3   0  126.98   12.19
  -5  -3   0  138.65   10.42
  -5   3   0  111.90   18.46
  -5   3   0  152.04   17.12
  -5   3   0  140.63   16.73
  -5   3   0  134.97    9.42
  -4   3   0  769.99   26.25
  -4   3   0  846.27   40.19
  -4  -3   0  878.85   27.88
  -4  -3   0  671.16   38.97
  -4   3   0  823.90   39.52
  -4  -3   0  785.82   27.74
  -4   3   0  773.85   31.34
  -4  -3   0  738.47   27.49
  -4   3   0  745.11   44.74
  -3   3   0   38.48    7.24
  -3   3   0   29.10    4.93
  -3  -3   0   26.91    3.99
  -3   3   0   33.24    7.17
  -3  -3   0   33.74    4.02
  -3  -3   0   23.19    3.72
  -3   3   0   29.23    8.31
  -3  -3   0   29.76    7.98
  -2  -3   0  926.60   27.77
  -2   3   0 1019.60   41.57
  -2  -3   0  907.41   25.73
  -2   3   0 1002.97   37.36
  -2  -3   0  854.60   43.91
  -2  -3   0  888.03   29.03
  -2   3   0 1110.10   32.82
  -2  -3   0  863.63   27.38
  -2   3   0  988.03   37.39
  -1   3   0  491.90   18.30
  -1   3   0  508.22   22.40
  -1  -3   0  394.35   14.18
  -1   3   0  511.02   22.99
  -1  -3   0  441.88   29.61
  -1   3   0  496.41   22.18
  -1   3   0  409.15   13.86
  -1  -3   0  420.68   15.47
   0   3   0 1282.36   42.04
   0   3   0 1338.81   38.05
   0   3   0 1294.02   42.40
   0  -3   0 1208.94   54.17
   0  -3   0 1196.54   38.79
   0  -3   0 1139.94   41.06
   0   3   0 1316.02   36.26
   0   3   0 1356.55   34.50
   0   3   0 1433.24   40.18
   0   3   0 1253.20   36.90
   0   3   0 1501.04   58.19
   1   3   0  471.03   16.57
   1   3   0  506.21   19.56
   1  -3   0  469.86   18.46
   1  -3   0  472.70   23.15
   1   3   0  490.99   22.31
   1   3   0  485.63   17.45
   1  -3   0  460.48   19.92
   2  -3   0  849.85   33.50
   2   3   0  878.42   32.66
   2  -3   0  918.76   31.06
   2   3   0  861.76   26.15
   2   3   0  910.67   27.69
   2  -3   0  877.58   35.57
   3   3   0   29.59    4.08
   3  -3   0   27.77    6.27
   3   3   0   35.48    9.53
   3  -3   0   22.06    7.31
   3  -3   0   24.55    5.83
   3  -3   0   33.16    5.03
   3   3   0   30.34    4.01
   4  -3   0  645.69   33.02
   4   3   0  760.35   26.23
   4  -3   0  691.96   27.86
   4  -3   0  666.88   40.12
   4  -3   0  665.11   35.12
   4   3   0  732.54   27.07
   4   3   0  753.96   25.37
   5  -3   0  120.59   16.85
   5  -3   0  104.41   14.02
   5   3   0  127.57   10.27
   5  -3   0  104.77   10.45
   5   3   0  126.05    9.18
   5   3   0  126.81    9.70
   5  -3   0   95.39   12.80
   6  -3   0  631.97   37.38
   6   3   0  812.94   29.99
   6  -3   0  560.96   29.86
   6  -3   0  645.32   40.14
   6   3   0  810.81   28.65
   6   3   0  816.89   31.09
   7   3   0  214.33   14.83
   7   3   0  217.48   15.14
   8  -3   0  313.54   30.67
   8   3   0  373.82   20.88
   9   3   0   65.07   15.67
   9  -3   0   36.90   12.19
  10  -3   0  358.14   30.98
  10   3   0  297.23   21.58
  11  -3   0   10.47    8.72
 -11  -4   0  164.24   16.35
 -10  -4   0  496.72   26.68
 -10  -4   0  296.91   22.72
  -9   4   0  205.68   31.82
  -9  -4   0  179.12   15.16
  -9   4   0  171.09   24.12
  -9  -4   0  143.96   14.06
  -8  -4   0  481.01   27.60
  -8  -4   0  638.12   29.86
  -8  -4   0  476.17   33.43
  -8   4   0  725.10   47.34
  -8   4   0  826.51   58.76
  -8  -4   0  758.04   31.22
  -7  -4   0  208.62   15.29
  -7   4   0  186.01   12.61
  -7   4   0  242.62   25.41
  -7  -4   0  241.91   15.64
  -7  -4   0  154.48   17.32
  -7  -4   0  138.38   13.19
  -7   4   0  278.05   33.40
  -6  -4   0 1372.10   41.83
  -6   4   0 1131.94   38.30
  -6  -4   0 1219.64   42.19
  -6   4   0 1386.69   61.61
  -6  -4   0 1025.74   45.86
  -6  -4   0 1127.86   41.18
  -6   4   0  980.21   61.70
  -5   4   0  415.92   23.38
  -5   4   0  419.96   18.58
  -5   4   0  507.51   33.43
  -5   4   0  514.35   33.27
  -5  -4   0  345.63   18.97
  -5  -4   0  460.55   19.62
  -5   4   0  381.43   33.83
  -5  -4   0  455.09   21.34
  -4   4   0 1787.85   64.69
  -4  -4   0 1567.85   47.40
  -4  -4   0 1630.03   46.59
  -4  -4   0 1378.56   66.49
  -4   4   0 1755.41   64.95
  -4   4   0 1528.07   45.96
  -4   4   0 1586.77   52.25
  -4  -4   0 1576.32   49.10
  -4   4   0 1593.01   69.16
  -3  -4   0  557.41   22.75
  -3   4   0  610.56   31.95
  -3  -4   0  518.98   16.60
  -3   4   0  645.12   32.58
  -3  -4   0  497.74   36.40
  -3  -4   0  587.05   21.02
  -3   4   0  580.17   34.52
  -3  -4   0  497.39   20.43
  -2   4   0 2094.11   66.49
  -2   4   0 2070.30   65.98
  -2  -4   0 1738.67   77.03
  -2   4   0 2220.68   59.32
  -2  -4   0 1872.13   53.10
  -2   4   0 2056.66   68.15
  -2  -4   0 1889.76   51.54
  -2   4   0 1879.33   50.41
  -1   4   0  632.80   28.85
  -1   4   0  640.86   27.17
  -1  -4   0  512.85   18.36
  -1   4   0  512.50   18.01
  -1   4   0  630.82   23.78
  -1   4   0  645.84   28.98
  -1   4   0  633.66   22.39
  -1  -4   0  519.23   37.47
   0   4   0 2553.00   62.29
   0   4   0 2497.28   68.11
   0   4   0 2476.00   65.70
   0   4   0 2944.87   97.89
   0  -4   0 2084.37   72.16
   0   4   0 2599.60   74.87
   0  -4   0 2330.66   65.39
   0  -4   0 2119.88   89.35
   0   4   0 2427.87   64.42
   0   4   0 2499.20   73.82
   0   4   0 2466.29   65.99
   1   4   0  663.65   25.63
   1   4   0  601.85   21.18
   1  -4   0  547.22   24.96
   1  -4   0  544.40   28.40
   1   4   0  605.44   22.15
   1  -4   0  585.01   23.38
   1   4   0  620.57   28.64
   2  -4   0 1795.92   55.69
   2  -4   0 1561.79   73.83
   2   4   0 1957.17   61.04
   2   4   0 1682.59   52.80
   2   4   0 2056.28   56.50
   2  -4   0 1674.68   56.94
   2   4   0 1932.02   52.13
   2   4   0 2369.90   85.22
   2  -4   0 1792.31   63.62
   3   4   0  574.33   27.88
   3  -4   0  511.95   29.92
   3  -4   0  511.60   27.71
   3  -4   0  539.04   25.50
   3   4   0  563.44   24.38
   3  -4   0  452.65   35.66
   3   4   0  590.90   22.02
   4   4   0 1559.32   45.31
   4   4   0 1452.44   47.22
   4   4   0 1586.44   46.76
   4  -4   0 1292.27   57.19
   4  -4   0 1535.73   49.84
   4  -4   0 1384.89   68.08
   4  -4   0 1342.27   54.70
   5  -4   0  375.62   26.30
   5   4   0  520.29   39.63
   5  -4   0  382.99   21.31
   5  -4   0  332.17   26.87
   5   4   0  397.22   20.55
   5   4   0  426.62   20.04
   5  -4   0  404.79   34.20
   5   4   0  450.89   19.34
   6   4   0 1169.21   38.93
   6  -4   0  826.99   48.07
   6  -4   0 1261.28   63.07
   6  -4   0  885.85   38.49
   6   4   0 1101.75   39.67
   7  -4   0  120.42   12.58
   7  -4   0  209.00   25.03
   7  -4   0  129.06   18.31
   7   4   0  272.53   30.16
   7   4   0  175.60   13.47
   7   4   0  198.76   14.65
   8   4   0  867.61   53.99
   8   4   0  555.48   26.38
   8   4   0  550.56   26.50
   8  -4   0  360.78   32.65
   8  -4   0  703.63   45.66
   9  -4   0   87.09   16.94
   9  -4   0   57.69    9.77
   9  -4   0  149.89   22.44
   9   4   0  140.88   13.47
  10  -4   0  469.56   38.61
 -10  -5   0  216.86   17.16
  -9  -5   0   33.46    8.23
  -9  -5   0   56.95    9.15
  -8  -5   0  443.09   22.49
  -8  -5   0  340.81   22.15
  -8   5   0  428.31   37.23
  -8  -5   0  412.08   24.31
  -7  -5   0  201.43   13.92
  -7  -5   0  134.95   12.94
  -7  -5   0  143.90   13.04
  -7   5   0  193.11   23.71
  -7  -5   0  172.71   14.75
  -6   5   0  631.42   41.64
  -6  -5   0  563.73   26.05
  -6  -5   0  644.51   25.76
  -6  -5   0  607.72   28.15
  -6  -5   0  519.47   22.63
  -5   5   0  149.13   21.35
  -5  -5   0  156.25   10.91
  -5   5   0  174.29   20.06
  -5  -5   0  126.81    5.74
  -5  -5   0  112.35    5.83
  -5  -5   0  125.87   10.70
  -5   5   0  138.56   10.11
  -5  -5   0  138.43   12.02
  -4  -5   0  487.74   23.33
  -4  -5   0  418.11   36.61
  -4   5   0  498.24   35.88
  -4  -5   0  487.47   20.98
  -4  -5   0  514.15   21.36
  -4   5   0  549.72   34.03
  -3  -5   0   69.99    6.65
  -3  -5   0   60.15   14.12
  -3   5   0   80.11   12.57
  -3   5   0   67.37    5.74
  -3   5   0   75.62   12.07
  -3   5   0   88.73   13.53
  -2   5   0  841.05   37.71
  -2   5   0  804.58   30.12
  -2   5   0  884.83   33.06
  -2  -5   0  763.46   25.60
  -2   5   0  856.28   38.93
  -2   5   0  845.82   39.45
  -2   5   0  761.42   24.53
  -1   5   0  300.23   17.86
  -1   5   0  261.25   12.04
  -1   5   0  298.34   15.97
  -1   5   0  307.86   21.13
  -1   5   0  309.79   15.51
  -1  -5   0  248.38   28.32
  -1   5   0  311.98   17.04
  -1   5   0  296.79   21.23
   0   5   0 1234.85   34.87
   0  -5   0 1076.48   37.87
   0   5   0 1215.15   38.99
   0   5   0 1197.85   46.73
   0   5   0 1155.62   36.79
   0   5   0 1230.62   40.90
   0   5   0 1220.19   47.21
   1   5   0  267.72   19.48
   1   5   0  314.28   20.72
   1  -5   0  280.50   16.17
   1   5   0  310.29   14.86
   1   5   0  307.16   15.60
   1   5   0  345.80   18.97
   1  -5   0  248.30   19.32
   1  -5   0  258.59   17.50
   2   5   0  824.63   36.93
   2   5   0  673.06   29.34
   2   5   0  887.30   34.90
   2   5   0  998.83   57.06
   2   5   0  879.14   32.91
   2  -5   0  698.55   32.26
   2   5   0  753.00   27.83
   2  -5   0  636.61   47.38
   2  -5   0  733.39   30.96
   2  -5   0  676.79   37.35
   3  -5   0   70.02   12.00
   3   5   0   82.65    7.88
   3   5   0   95.42    9.94
   3  -5   0   77.73    9.63
   3  -5   0   53.41    8.75
   3   5   0   74.48   10.94
   3   5   0  103.13   19.28
   3  -5   0   63.82   15.38
   4   5   0  646.44   46.53
   4  -5   0  391.31   25.59
   4   5   0  569.55   26.30
   4  -5   0  412.00   30.10
   4  -5   0  431.08   38.75
   4   5   0  513.79   22.82
   5   5   0  154.74   12.09
   5  -5   0  106.78   15.93
   5  -5   0  126.52   21.43
   5   5   0  146.14   12.37
   6   5   0  588.40   26.22
   6   5   0  515.54   22.09
   6  -5   0  615.78   45.93
   6   5   0  568.29   26.95
   7  -5   0  116.33   12.61
   7   5   0  163.68   13.44
   7  -5   0  104.53   17.23
   7  -5   0  183.66   25.49
   7   5   0  156.77   13.80
   8   5   0  375.62   22.06
   8   5   0  363.85   21.21
   8  -5   0  204.23   17.66
   8  -5   0  466.02   39.42
   8  -5   0  226.77   26.35
   9  -5   0   47.01   15.52
  10  -5   0  189.44   27.02
  -9  -6   0  148.63   13.45
  -8  -6   0  169.36   13.72
  -8  -6   0  130.56   13.48
  -7   6   0  216.39   25.83
  -7  -6   0  216.20   15.04
  -7  -6   0  196.79   16.54
  -7  -6   0  167.53   14.38
  -6  -6   0  250.98   15.65
  -6  -6   0  222.76   17.24
  -6   6   0  254.48   27.33
  -6  -6   0  214.39   14.98
  -5  -6   0  269.56   15.86
  -5  -6   0  224.85   14.57
  -5   6   0  279.36   26.59
  -4   6   0  410.33   30.97
  -4   6   0  387.05   30.56
  -4   6   0  339.67   15.17
  -4  -6   0  307.31   33.52
  -4  -6   0  375.78   17.71
  -3  -6   0  215.60   28.68
  -3   6   0  313.84   24.36
  -3   6   0  234.63   11.82
  -3   6   0  307.25   25.12
  -3  -6   0  235.47   13.05
  -2   6   0  421.38   28.64
  -2   6   0  393.37   24.27
  -2   6   0  377.59   19.73
  -2   6   0  427.69   23.01
  -2   6   0  376.31   15.53
  -1   6   0  316.89   14.45
  -1   6   0  396.90   21.32
  -1  -6   0  313.18   34.67
  -1   6   0  370.06   19.68
  -1   6   0  425.20   27.94
  -1   6   0  382.52   18.65
  -1  -6   0  359.29   18.75
   0   6   0  335.35   19.45
   0  -6   0  314.22   17.81
   0   6   0  345.37   24.46
   0   6   0  313.31   16.39
   1   6   0  395.79   18.81
   1  -6   0  365.71   20.41
   1   6   0  409.66   30.42
   1  -6   0  317.80   24.85
   1   6   0  404.29   26.45
   2   6   0  424.02   23.27
   2  -6   0  299.16   21.09
   2  -6   0  265.68   32.79
   2   6   0  377.74   25.23
   2  -6   0  335.85   20.41
   2  -6   0  277.74   23.50
   2   6   0  306.99   18.74
   3  -6   0  179.22   27.41
   3  -6   0  222.46   18.45
   3  -6   0  230.62   22.73
   3  -6   0  274.59   19.08
   4  -6   0  289.96   22.32
   4  -6   0  302.89   27.33
   4  -6   0  332.29   36.59
   4   6   0  370.88   19.96
   5   6   0  228.33   16.36
   5  -6   0  211.76   29.60
   5  -6   0  191.13   22.16
   5   6   0  258.79   16.69
   6  -6   0  212.00   29.42
   6   6   0  226.76   16.68
   6  -6   0  129.87   16.33
   6   6   0  237.27   16.46
   6  -6   0  131.04   19.72
   7   6   0  170.42   14.54
   7   6   0  170.86   15.03
   7  -6   0  120.57   19.63
   7  -6   0  193.18   28.80
   8  -6   0  172.13   27.22
   9  -6   0  123.08   23.91
  -7  -7   0  114.43   11.78
  -6  -7   0  128.96   11.54
  -5  -7   0  146.86   25.33
  -5   7   0  112.12   29.47
  -5  -7   0  170.71   12.61
  -5   7   0  200.33   24.03
  -4  -7   0   95.03    8.66
  -4   7   0   62.45   21.88
  -4  -7   0   77.09   19.27
  -4   7   0  103.14   17.19
  -3  -7   0  130.08   25.19
  -3   7   0  208.51   22.25
  -3   7   0  118.58   26.70
  -3  -7   0  175.50   13.32
  -2   7   0  118.63   25.50
  -2   7   0  169.82   19.61
  -2  -7   0  129.82   11.68
  -2  -7   0  109.31   22.24
  -1   7   0  265.74   32.95
  -1   7   0  284.24   24.34
  -1  -7   0  228.70   15.83
   0   7   0  240.14   22.13
   0  -7   0  228.51   16.21
   0  -7   0  160.24   26.82
   0   7   0  232.35   27.26
   1   7   0  272.69   24.85
   1  -7   0  239.22   17.74
   1   7   0  264.26   23.09
   2  -7   0  128.66   13.49
   2  -7   0  115.90   16.28
   2  -7   0   77.98   20.04
   3  -7   0  108.19   23.28
   3  -7   0  128.99   17.36
   3  -7   0  137.15   15.44
   4  -7   0   80.03   12.39
   4   7   0  109.73   11.52
   4  -7   0   79.49   15.28
   4  -7   0   93.20   22.28
   5  -7   0  165.22   29.08
   5  -7   0  125.86   19.68
   5  -7   0  120.13   15.79
   5   7   0  180.06   15.29
   5   7   0  198.77   15.62
   6  -7   0  140.81   26.89
  -4  -8   0  117.89   11.89
  -4   8   0   72.60   23.65
  -3   8   0  179.89   33.28
  -3  -8   0  226.32   16.43
  -2  -8   0  137.00   13.03
  -1  -8   0  326.34   20.80
   0  -8   0  103.14   12.16
   1  -8   0  328.12   22.22
   2  -8   0  119.11   14.08
 -12   0  -1   -1.15    9.28
 -12   0   1   -1.19   11.27
 -11   0  -1  449.39   42.89
 -11   0   1  472.48   44.63
 -10   0  -1    0.60    6.53
 -10   0   1    0.38    4.81
 -10   0   1    1.12    9.20
 -10   0  -1    3.15    8.65
  -9   0  -1  507.30   43.02
  -9   0   1  562.08   46.41
  -8   0  -1    3.74    6.96
  -8   0  -1    1.80    3.49
  -8   0   1   -0.31    3.36
  -8   0   1    1.43    3.13
  -8   0  -1    0.89    6.99
  -8   0   1    0.58    3.21
  -7   0  -1 1301.35   42.68
  -7   0   1 1180.39   42.05
  -7   0   1 1255.57   41.80
  -7   0  -1  884.94   54.71
  -7   0  -1  830.60   54.59
  -7   0   1 1207.06   41.39
  -6   0  -1    0.46    2.52
  -6   0  -1    1.39    5.17
  -6   0  -1   -0.72    5.69
  -6   0   1    0.95    2.44
  -6   0   1   -0.22    2.48
  -6   0   1   -0.45    2.42
  -5   0  -1 2055.20   83.39
  -5   0  -1 2487.73   65.96
  -5   0   1 2321.82   65.19
  -5   0   1 2505.08   65.43
  -5   0  -1 1865.60   79.65
  -5   0   1 2363.84   65.71
  -4   0  -1    0.93    3.85
  -4   0  -1    0.64    1.54
  -4   0  -1    2.43    4.90
  -4   0   1    0.82    1.69
  -4   0   1    1.02    1.95
  -3   0   1 3373.60   80.53
  -3   0   1 3227.25   81.27
  -3   0  -1 3208.73   81.33
  -2   0   1    0.66    1.05
  -2   0  -1   -0.17    0.99
  -2   0   1    0.75    0.90
  -1   0  -1 2624.39   56.44
  -1   0   1 2145.43   55.94
   1   0   1 2475.20   61.80
   1   0   1 2547.48   57.07
   1   0   1 2190.58   56.43
   1   0   1 2189.25   58.94
   1   0   1 2409.67   62.53
   1   0  -1 2336.36   71.34
   1   0   1 2472.15   56.95
   2   0   1   -0.24    2.50
   2   0   1    0.47    0.98
   2   0   1    1.25    2.60
   2   0  -1    3.47    4.18
   2   0   1    1.06    1.75
   2   0   1    0.62    1.00
   3   0   1 3141.74   76.33
   3   0  -1 3185.39   74.76
   3   0   1 2983.11   76.74
   4   0  -1    0.83    1.36
   4   0   1   -0.17    1.56
   4   0  -1    0.76    3.64
   4   0   1    2.09    2.74
   4   0   1    0.56    1.83
   5   0   1 1967.08   73.32
   5   0   1 2161.80   64.82
   6   0  -1    1.24    2.26
   6   0   1    1.54    4.24
   6   0   1    1.44    2.82
   7   0   1 1079.37   42.91
   7   0   1  971.04   49.49
   8   0   1    0.37    3.66
   8   0  -1    0.54    3.17
   8   0   1    0.65    5.01
   8   0   1    0.31    3.46
   9   0  -1  663.78   29.99
   9   0   1  742.21   32.91
   9   0   1  654.50   33.66
  10   0   1    2.62    4.70
  10   0  -1   -1.51    6.05
  10   0  -1   -1.34    4.07
  10   0   1   -1.89    7.25
  11   0  -1  559.29   28.49
  11   0   1  545.06   29.69
  11   0   1  499.92   42.72
 -12   1   1    1.43   12.77
 -12   1  -1    4.10   12.70
 -12  -1  -1    3.73    8.51
 -11   1  -1  310.41   39.00
 -11  -1  -1  383.77   35.10
 -11   1   1  360.42   43.31
 -11  -1   1  464.19   27.07
 -11  -1   1  393.90   36.42
 -11   1   1  477.62   27.75
 -10  -1  -1   13.35    9.04
 -10   1   1   14.77   11.80
 -10  -1   1   22.77    7.00
 -10   1  -1   11.36   11.10
 -10   1   1   25.16    7.57
 -10  -1   1   19.98   10.25
  -9  -1   1  694.72   46.10
  -9   1   1  873.21   36.81
  -9  -1  -1  652.70   43.89
  -9  -1  -1  901.36   35.86
  -9  -1   1  795.74   34.49
  -8  -1  -1    5.97    6.70
  -8   1  -1   12.44    4.64
  -8   1  -1    7.03    8.28
  -8  -1   1   11.66    4.55
  -8  -1   1   16.07    5.20
  -8  -1  -1   13.69    7.70
  -8  -1  -1   14.09    5.11
  -8   1  -1   15.39   10.04
  -8   1   1   15.79    5.11
  -8   1   1   12.87    5.51
  -8  -1   1    7.40    7.01
  -8   1  -1    6.40    4.96
  -8  -1  -1   13.62    5.60
  -7  -1   1 1875.76   59.18
  -7   1  -1 2654.78   69.12
  -7   1   1 1998.19   58.78
  -7   1  -1 1994.76   59.30
  -7  -1  -1 2075.51   65.26
  -7   1  -1 1560.55   63.28
  -7  -1   1 1865.01   58.24
  -7  -1  -1 2127.42   61.87
  -7   1   1 2658.27   87.87
  -7  -1  -1 1400.72   73.36
  -7   1  -1 1054.92   73.48
  -7  -1  -1 1685.71   72.02
  -7   1   1 2109.09   63.66
  -6  -1   1   42.59    5.92
  -6  -1  -1   34.98    8.56
  -6  -1  -1   24.10    9.06
  -6   1  -1   23.98   10.27
  -6   1  -1   60.99    9.63
  -6   1  -1   32.82    6.98
  -6   1   1   47.26    7.06
  -6   1  -1   48.55    6.51
  -6  -1   1   43.08    5.91
  -6   1   1   48.12    7.14
  -6  -1  -1   45.19    7.82
  -6  -1  -1   53.00    7.05
  -6   1   1   47.92   12.99
  -6   1   1   41.03    5.74
  -5  -1  -1 2302.34   64.45
  -5   1   1 2284.91   62.31
  -5   1   1 3203.74  100.65
  -5   1  -1 1472.30   79.38
  -5   1  -1 1985.63   67.51
  -5   1   1 2553.01   67.47
  -5   1  -1 2310.08   63.22
  -5  -1  -1 1914.57   77.49
  -5  -1  -1 2395.39   69.34
  -5  -1   1 2304.45   62.88
  -5  -1  -1 2086.94   72.82
  -5  -1   1 2208.50   62.07
  -5   1   1 2518.10   81.21
  -4  -1  -1  153.21   15.67
  -4   1   1  211.99   17.31
  -4   1   1  254.63   24.78
  -4   1  -1  166.06   18.51
  -4  -1  -1  199.26   13.65
  -4   1   1  211.31   12.54
  -4  -1   1  189.69   10.41
  -4  -1   1  189.55   10.33
  -4   1  -1  198.90   10.84
  -4  -1  -1  162.94   13.77
  -4   1   1  195.92   10.45
  -3  -1  -1 1551.88   52.30
  -3  -1   1 1861.30   48.36
  -3   1   1 2036.22   61.19
  -3   1   1 1963.93   48.16
  -3  -1   1 1867.25   48.11
  -3  -1  -1 1561.35   56.37
  -3   1  -1 1669.53   63.06
  -3   1   1 2049.96   51.96
  -3   1  -1 1656.39   48.12
  -3  -1  -1 1667.04   54.30
  -2   1   1  255.64   14.48
  -2  -1   1  184.44   11.37
  -2  -1  -1  195.84   11.62
  -2   1  -1  233.68    9.53
  -2   1   1  257.84   14.72
  -2   1   1  216.64    8.39
  -2  -1   1  216.42   10.58
  -2   1  -1  212.96   15.07
  -2  -1   1  230.08    8.97
  -2   1  -1  197.31   16.83
  -2  -1   1  217.29    8.77
  -1  -1   1 4908.51  123.93
  -1  -1  -1 4778.87  114.49
  -1   1   1 5117.01  121.06
  -1   1   1 5147.31  121.87
  -1  -1   1 4659.74  116.01
  -1   1  -1 5381.69  131.07
  -1   1  -1 5471.16  125.45
  -1   1  -1 4960.16  117.75
  -1   1  -1 5324.65  115.06
  -1   1   1 5456.30  124.89
  -1  -1  -1 4974.35  121.63
  -1  -1  -1 4988.17  116.45
   0  -1  -1  101.34    5.38
   0  -1   1  102.09    5.54
   0   1  -1   89.14    6.79
   0   1  -1   91.33    6.05
   0  -1  -1   99.74    4.08
   0   1   1   95.24    8.39
   0  -1   1  100.14    4.67
   0  -1  -1  109.72    5.73
   0   1   1  102.01    5.64
   0  -1   1   99.94    4.15
   0   1   1  104.91    3.82
   0   1   1  103.11    5.43
   0   1  -1  101.94    4.66
   0   1   1   89.80    4.42
   0   1   1  105.81    5.64
   1   1   1 5159.49  130.63
   1   1  -1 4844.73  118.28
   1  -1   1 4983.52  121.36
   1   1   1 4683.25  121.08
   1  -1   1 5063.81  118.88
   1  -1  -1 5769.02  122.45
   1  -1   1 5198.63  122.07
   1   1   1 5431.63  118.64
   1   1   1 5258.83  118.15
   1   1   1 4749.52  116.82
   1   1   1 4858.70  117.78
   2  -1  -1  214.91    8.32
   2   1   1  199.91   12.25
   2  -1   1  204.69   13.07
   2   1   1  201.47   15.33
   2  -1   1  212.88   12.76
   2   1  -1  204.53   12.51
   2   1   1  222.70    8.77
   2   1   1  198.23   10.90
   2   1   1  228.06    8.70
   2  -1  -1  195.78   11.93
   2   1   1  234.64    9.75
   2  -1   1  225.89   10.89
   3   1   1 1977.89   55.97
   3   1   1 1386.23   52.21
   3  -1   1 1626.10   57.17
   3   1   1 1870.92   46.75
   3   1   1 1887.05   47.14
   3   1   1 1933.56   48.78
   3   1  -1 1754.42   53.77
   3  -1   1 1624.79   55.84
   3  -1  -1 1609.87   45.62
   4  -1  -1  181.05    9.92
   4   1   1  196.43   11.23
   4   1   1  196.48   10.47
   4  -1   1  142.83   14.98
   4   1  -1  182.77   13.70
   4  -1   1  141.41   14.14
   5   1  -1 1981.41   68.86
   5   1  -1 2605.47   71.46
   5  -1  -1 2110.90   58.54
   5   1   1 2215.57   60.02
   5  -1   1 1612.20   68.59
   5   1   1 2287.69   61.42
   5  -1   1 1700.11   71.94
   5   1  -1 2084.96   58.74
   6   1  -1   51.13    8.87
   6   1   1   31.29    7.76
   6  -1   1   37.85    5.96
   6   1  -1   41.35    5.78
   6   1   1   44.74    6.71
   6   1   1   36.58    5.87
   6  -1  -1   38.83    5.51
   6  -1   1   36.06    9.33
   6  -1   1   22.80    7.25
   6   1  -1   30.42    6.56
   7  -1   1 1759.97   57.62
   7  -1   1 1514.59   68.77
   7   1   1 1741.41   68.90
   7  -1  -1 1903.86   56.64
   7   1  -1 1859.16   56.63
   7  -1   1 1472.01   72.00
   7   1   1 1839.98   60.09
   8  -1   1    7.38    7.35
   8   1  -1   22.43    8.03
   8   1  -1   11.37    4.47
   8  -1   1    7.98    4.24
   8   1   1   14.94    5.31
   8  -1   1    9.63    6.73
   8  -1  -1   10.37    4.13
   8   1   1   10.01    6.22
   9  -1   1  768.24   34.43
   9   1  -1  711.71   31.80
   9   1   1  726.88   35.59
   9  -1   1  627.10   46.68
   9   1  -1 1014.82   45.01
   9  -1  -1  704.65   31.70
   9   1   1 1048.63   54.08
  10   1   1   25.74   11.49
  10   1   1   26.31    7.09
  10   1  -1   19.66    6.02
  10  -1   1   21.29    6.64
  10  -1  -1   18.55    5.91
  10   1   1   24.73    7.65
  10   1  -1   25.35    8.90
  10  -1   1   14.94    9.75
  11   1   1  427.50   27.99
  11  -1  -1  422.76   24.47
  11  -1   1  429.61   26.09
  11  -1   1  392.38   38.36
  11   1  -1  382.41   26.29
  11   1   1  441.89   25.98
  11   1  -1  415.86   24.20
 -11  -2   1  445.19   26.77
 -11   2   1  499.11   28.86
 -11  -2  -1  445.54   32.56
 -10  -2  -1    9.85    7.49
 -10   2   1   14.26    6.79
 -10  -2   1    8.84    5.49
 -10  -2   1   11.15    7.00
 -10   2  -1    4.41   10.32
  -9   2  -1  830.38   40.55
  -9  -2  -1  370.54   35.45
  -9  -2   1  561.08   28.49
  -9  -2  -1  590.44   35.29
  -9   2   1  864.00   51.62
  -9   2   1  705.10   33.49
  -9  -2   1  590.48   34.86
  -9   2  -1  269.82   38.18
  -8   2   1   73.82    8.48
  -8  -2  -1   63.63   11.01
  -8   2   1   96.90   16.76
  -8   2  -1   34.94   14.65
  -8   2   1  118.12   21.45
  -8  -2  -1   53.09   12.95
  -8  -2   1   65.84   11.22
  -8  -2   1   79.03    9.57
  -8   2  -1  106.40   17.24
  -7  -2  -1 1079.79   44.39
  -7  -2  -1  813.94   48.19
  -7   2  -1  788.44   55.08
  -7   2   1 1492.11   74.52
  -7   2  -1 1149.48   38.08
  -7   2   1  984.91   35.84
  -7   2  -1  969.55   42.99
  -7   2  -1 1653.37   62.73
  -7  -2   1  979.02   36.51
  -7  -2   1  996.37   37.52
  -7  -2   1 1051.74   43.51
  -7   2   1 1171.71   56.71
  -7   2  -1  561.88   52.54
  -7   2   1 1177.26   42.37
  -6   2   1  151.30   12.55
  -6  -2   1  132.33   10.54
  -6   2   1  129.47    9.80
  -6   2  -1  137.02   10.33
  -6   2   1  130.45   17.42
  -6  -2  -1  132.25   12.57
  -6   2  -1  100.87   18.22
  -6  -2   1  133.29   10.24
  -6   2   1  179.40   25.26
  -6  -2  -1  101.57   14.57
  -6  -2   1  107.95   11.16
  -5  -2   1 1496.36   46.59
  -5   2  -1 1566.68   70.31
  -5   2   1 1779.58   65.62
  -5   2   1 1308.90   52.07
  -5   2   1 1737.82   51.87
  -5   2  -1 1677.24   47.09
  -5   2   1 1500.72   45.20
  -5  -2   1 1479.57   45.85
  -5  -2   1 1541.36   48.32
  -5  -2  -1 1512.45   58.83
  -4   2   1   11.60    5.34
  -4   2   1   14.46    5.60
  -4  -2   1   10.95    2.42
  -4   2   1    7.99    3.55
  -4   2   1   11.71    2.64
  -4   2   1   12.51    8.24
  -4   2  -1    2.99    4.70
  -4  -2  -1    2.99    3.31
  -4  -2   1   14.34    3.00
  -4  -2   1    8.20    2.63
  -4   2  -1    6.57    2.27
  -3  -2  -1 1696.18   48.73
  -3  -2  -1 1839.91   53.43
  -3   2   1 1932.45   60.99
  -3   2  -1 1869.40   48.66
  -3   2  -1 1968.44   68.10
  -3  -2   1 1750.42   48.16
  -3  -2  -1 1857.60   50.60
  -3   2  -1 1953.99   53.15
  -3   2   1 1626.28   52.97
  -3   2   1 1927.86   61.15
  -3  -2   1 1611.76   58.26
  -3   2   1 1647.28   46.48
  -2   2   1   92.32    8.86
  -2   2   1   90.70    7.28
  -2  -2   1   73.22    9.50
  -2  -2  -1   75.17    4.82
  -2  -2   1   90.28    5.82
  -2   2  -1   88.43    6.82
  -2   2   1   87.42    8.94
  -2  -2  -1   82.82    4.68
  -2  -2  -1   71.06    5.42
  -2   2  -1   84.78   10.28
  -2  -2  -1   87.02   11.30
  -1  -2  -1 2456.79   58.77
  -1  -2  -1 2599.47   78.98
  -1   2  -1 2716.14   60.90
  -1  -2   1 2244.78   62.89
  -1  -2   1 2176.83   60.35
  -1   2   1 2624.30   76.49
  -1  -2   1 2225.86   73.85
  -1  -2  -1 2628.35   60.88
  -1   2  -1 2794.93   70.90
  -1   2   1 2250.78   65.88
  -1   2   1 2350.29   66.18
  -1   2   1 2392.03   61.56
   0  -2  -1  674.31   21.83
   0  -2   1  570.92   15.64
   0  -2   1  622.70   22.96
   0  -2   1  574.89   29.98
   0  -2   1  602.47   22.16
   0  -2  -1  685.08   18.93
   0  -2   1  648.11   19.74
   0   2  -1  619.13   27.52
   0   2  -1  755.85   20.81
   0   2  -1  675.70   22.70
   0   2   1  670.00   23.21
   0   2   1  708.23   32.08
   0   2   1  562.58   18.30
   0   2  -1  708.54   19.88
   0   2   1  658.29   19.47
   1   2   1 2001.96   61.91
   1  -2   1 2360.94   68.91
   1  -2   1 2240.90   64.99
   1  -2  -1 2890.28   64.82
   1   2   1 2447.45   77.69
   1   2  -1 2543.92   60.20
   1  -2   1 2092.60   63.25
   1   2  -1 2630.69   62.66
   1   2   1 2270.16   58.96
   1   2   1 2307.83   57.31
   1  -2  -1 2753.78   62.69
   1  -2  -1 2529.07   64.03
   1   2   1 2399.26   59.57
   1   2   1 2113.32   65.15
   2   2   1   85.33    5.97
   2  -2   1   79.75    8.31
   2  -2   1   88.04   10.83
   2  -2   1   91.96    8.50
   2  -2  -1   92.41    7.67
   2   2  -1   85.61   10.68
   2  -2   1   87.84    5.52
   2  -2  -1   76.93   10.05
   2   2   1   85.75    5.54
   3   2   1 1686.69   46.16
   3  -2   1 1706.52   51.81
   3  -2   1 1561.45   54.89
   3   2   1 1820.82   66.41
   3  -2   1 1801.62   47.28
   3  -2  -1 1741.25   60.01
   3   2   1 1566.93   53.59
   3   2   1 1789.99   49.14
   3  -2   1 1584.01   56.98
   3   2   1 1721.12   46.68
   3   2   1 1761.49   48.34
   4   2   1    8.34    2.86
   4   2   1   12.17    2.84
   4   2  -1    8.19    5.08
   4   2   1   11.12    6.41
   4   2   1   11.12    3.56
   4  -2   1    3.04    4.05
   4  -2   1    9.74    4.22
   4   2   1   10.54    2.59
   4  -2  -1    4.05    4.03
   5   2   1  939.63   46.84
   5  -2   1 1169.68   54.90
   5  -2   1 1107.47   51.23
   5   2   1 1705.00   66.48
   5   2   1 1471.64   44.57
   5   2   1 1509.88   42.52
   5   2  -1 2009.12   63.88
   5   2   1 1473.68   43.18
   6  -2   1   95.43   14.92
   6   2   1  126.02    9.91
   6   2   1   88.08    9.74
   6   2  -1  174.38   18.12
   6   2   1  124.11   10.64
   6  -2  -1  125.04    9.91
   6   2   1  130.92   18.03
   6  -2   1   82.94   12.85
   7  -2   1  679.40   45.76
   7   2  -1  923.95   41.22
   7   2   1  978.70   37.22
   7   2  -1 1468.14   56.56
   7  -2  -1 1023.50   36.05
   7   2   1 1003.21   35.98
   7  -2   1  682.60   43.00
   7   2   1 1271.97   59.89
   7   2  -1  960.84   35.86
   8  -2  -1   65.95    8.50
   8   2   1   88.83   17.22
   8  -2   1   56.31   13.70
   8   2   1   82.17    9.78
   8   2   1   82.11   10.62
   8   2  -1   69.62    8.72
   8   2  -1   95.43   14.95
   9   2   1  585.51   30.81
   9   2   1  813.68   49.81
   9   2  -1  837.15   43.42
   9  -2  -1  578.16   27.93
   9   2  -1  567.27   28.14
   9  -2   1  465.11   39.58
  10   2  -1   13.60    8.48
  10  -2   1    5.86    7.86
  10  -2  -1    6.47    4.75
  10  -2  -1    9.27    7.11
  10   2  -1   10.61    5.00
  10   2   1   15.23    6.62
  10   2   1   20.98   11.89
  11  -2   1  341.14   35.78
  11   2   1  392.42   26.65
  11   2  -1  397.64   26.32
  11   2  -1  405.18   23.88
 -10  -3   1   85.24   11.43
 -10  -3  -1   37.82    8.98
 -10   3   1   86.62   12.54
 -10   3  -1   41.55   18.28
  -9   3  -1  229.92   37.41
  -9  -3   1  729.69   26.08
  -9   3   1  721.09   54.97
  -9  -3   1  532.52   27.54
  -9   3   1  601.59   43.01
  -9  -3  -1  338.15   30.84
  -9   3  -1  702.84   47.30
  -9  -3  -1  319.64   23.50
  -8   3  -1   17.85   12.86
  -8  -3  -1   34.00   10.15
  -8  -3   1   67.92    6.55
  -8   3   1   53.33    7.22
  -8   3   1   67.43   14.18
  -8  -3  -1   36.15    7.84
  -8   3  -1   78.14   16.86
  -8   3   1   69.58   20.74
  -8  -3   1   56.35    8.48
  -8  -3  -1   63.08    8.54
  -7  -3  -1 1168.24   37.33
  -7   3   1  993.23   34.61
  -7  -3  -1  759.23   43.18
  -7   3   1 1520.80   79.64
  -7   3   1 1087.54   56.08
  -7  -3  -1  847.12   36.92
  -7  -3   1  997.90   37.46
  -7   3   1  618.80   53.06
  -7   3  -1 1021.18   35.51
  -6   3   1   69.04   17.07
  -6   3  -1  128.92    9.90
  -6  -3  -1   96.28   10.20
  -6  -3  -1  135.89    9.83
  -6  -3  -1  119.69   14.06
  -6   3   1  140.95   12.38
  -6   3  -1  116.75   12.40
  -6   3   1  113.98    8.99
  -6   3  -1  105.58   18.48
  -6  -3   1  114.85   10.24
  -6   3   1  123.59   17.14
  -6   3   1  109.94   12.70
  -5   3   1 1379.95   42.66
  -5   3   1 1569.20   62.35
  -5   3   1 1137.29   66.42
  -5   3   1 1312.77   50.30
  -5   3  -1 1486.98   50.82
  -5  -3   1 1423.79   45.58
  -5  -3  -1 1272.55   49.95
  -5   3  -1 1371.82   67.09
  -5  -3  -1 1319.47   45.42
  -5  -3   1 1637.04   47.32
  -5   3   1 1588.11   63.31
  -5  -3  -1 1744.32   45.26
  -5   3  -1 1452.38   44.08
  -4   3  -1  273.50   24.88
  -4   3  -1  280.34   16.71
  -4  -3  -1  209.88   13.35
  -4   3   1  269.58   26.98
  -4   3   1  270.93   16.96
  -4   3   1  310.21   22.91
  -4   3   1  332.14   23.65
  -4  -3   1  315.14   15.37
  -4  -3  -1  317.75   13.52
  -4  -3  -1  250.46   15.02
  -4   3   1  264.86   12.62
  -4   3  -1  282.87   13.91
  -4  -3   1  295.60   14.72
  -4  -3   1  257.93   21.87
  -3   3   1 1438.58   39.87
  -3  -3  -1 1367.10   38.93
  -3   3   1 1617.82   54.81
  -3  -3   1 1425.88   58.04
  -3  -3  -1 1337.99   37.87
  -3  -3  -1 1301.14   59.22
  -3   3   1 1622.56   55.15
  -3  -3   1 1507.10   42.70
  -3   3  -1 1442.18   45.24
  -3   3  -1 1476.86   59.33
  -3   3   1 1525.07   46.17
  -3  -3  -1 1398.46   41.88
  -3  -3   1 1528.28   42.26
  -3   3   1 1466.39   63.26
  -2  -3   1  170.78    8.88
  -2  -3   1  210.81   11.52
  -2   3   1  231.53   12.31
  -2   3   1  243.02   16.30
  -2  -3   1  209.77   10.56
  -2  -3  -1  212.96    9.27
  -2  -3   1  222.97   11.21
  -2   3   1  218.48   19.03
  -2   3  -1  251.46   11.96
  -2  -3  -1  185.68   19.59
  -2  -3  -1  180.63   10.01
  -2   3  -1  228.75   17.85
  -2  -3   1  196.89   19.19
  -2   3   1  228.46   15.71
  -1  -3   1 2203.68   82.00
  -1  -3   1 2323.41   65.29
  -1   3   1 2690.48   74.61
  -1  -3  -1 2385.74   61.74
  -1   3  -1 2497.65   57.93
  -1  -3  -1 2294.06   84.27
  -1   3   1 2427.80   70.32
  -1   3  -1 2565.32   72.35
  -1  -3   1 2391.01   59.30
  -1  -3   1 2290.69   62.80
  -1   3   1 2810.93   86.73
  -1   3   1 2642.15   67.26
  -1   3  -1 2456.49   63.39
  -1   3   1 2402.43   70.10
  -1   3   1 2406.30   61.48
   0   3   1  114.92    6.96
   0  -3   1  125.96   10.31
   0   3  -1  153.36   15.04
   0   3   1  142.63    8.22
   0  -3  -1  159.03    8.23
   0   3  -1  158.44    8.49
   0  -3   1  116.88   14.86
   0   3   1  121.32   10.10
   0  -3   1  129.38   10.30
   0   3   1  134.08   10.32
   0   3   1  141.13    8.25
   0   3  -1  160.02   10.32
   0  -3  -1  142.44    9.92
   0   3   1  134.61    7.22
   0   3   1  144.90   16.24
   1   3   1 2274.52   59.07
   1  -3  -1 2265.21   66.08
   1   3  -1 2710.11   86.82
   1  -3   1 1989.05   80.96
   1   3   1 2387.40   61.39
   1   3  -1 2517.68   69.29
   1   3   1 2682.89   87.52
   1   3  -1 2374.20   61.45
   1  -3   1 2275.80   64.01
   1  -3   1 2229.37   69.56
   1   3  -1 2536.32   63.78
   1  -3   1 2422.66   73.32
   1  -3  -1 2414.05   63.70
   1   3   1 2371.49   68.36
   1   3   1 2445.36   61.21
   2  -3   1  216.72   15.55
   2  -3  -1  210.60   20.15
   2  -3  -1  217.04   13.33
   2  -3   1  204.43   14.30
   2  -3   1  215.30   18.55
   2   3  -1  243.94   21.67
   2  -3  -1  202.59   12.68
   2   3   1  220.38   10.66
   2   3   1  196.52   11.56
   2   3   1  203.02   13.41
   3   3   1 1507.34   42.62
   3   3   1 1447.58   43.39
   3   3  -1 1710.16   64.52
   3  -3   1 1405.03   52.64
   3   3   1 1779.10   69.45
   3  -3  -1 1257.62   57.60
   3  -3  -1 1384.28   46.59
   3   3   1 1477.23   40.93
   3   3   1 1496.06   41.94
   3  -3   1 1358.65   49.98
   4  -3   1  273.97   14.09
   4   3  -1  326.76   26.24
   4   3  -1  268.00   14.31
   4  -3  -1  228.97   15.93
   4  -3  -1  250.06   22.45
   4   3   1  274.66   14.80
   4   3   1  249.32   17.78
   4   3   1  302.40   27.46
   4  -3   1  235.97   18.36
   4   3   1  285.28   14.04
   4   3   1  280.81   13.40
   4  -3   1  238.77   19.75
   5   3   1 1411.50   43.96
   5   3   1 1297.53   43.50
   5   3   1 1420.53   41.16
   5   3   1 1403.15   42.28
   5  -3  -1 1452.89   60.69
   5   3  -1 1845.18   68.11
   5   3   1 1618.29   69.90
   5   3  -1 1324.24   42.81
   5  -3  -1 1004.96   44.61
   5  -3   1 1147.17   51.08
   5  -3   1 1238.86   41.71
   5  -3   1 1093.44   52.85
   6  -3   1   85.24    9.20
   6   3   1  138.79   20.53
   6   3   1  104.46    9.98
   6   3  -1  149.18   18.90
   6  -3   1   91.04   14.60
   6   3   1   66.39   12.75
   6   3   1  120.61    9.45
   6   3   1  110.62    9.72
   6  -3  -1  128.87   16.76
   6  -3   1   76.23   12.40
   7   3   1  911.69   34.82
   7   3   1  674.34   37.38
   7   3  -1 1430.73   60.13
   7   3   1  947.58   34.54
   7   3   1 1393.86   65.27
   7  -3  -1 1244.65   53.84
   7  -3   1  617.03   42.87
   8   3   1   51.10    8.18
   8  -3   1   51.62   12.89
   8   3  -1   68.36   14.84
   8  -3  -1   49.57   12.30
   8   3   1   75.80   17.46
   9  -3   1  339.66   34.24
   9   3   1  739.96   49.83
   9   3  -1  435.37   24.76
   9   3   1  497.67   26.81
   9  -3  -1  626.44   38.56
   9   3  -1  753.31   44.41
  10  -3  -1   76.30   14.70
  10   3  -1   82.75   10.78
  10   3   1   80.66   10.99
  10   3   1   91.94   12.41
  10  -3   1   71.96   17.24
 -11  -4  -1  264.63   19.61
 -10  -4  -1   30.39    7.50
 -10  -4   1   23.37    7.84
 -10  -4  -1   19.60    7.24
 -10  -4   1   41.36    9.32
  -9  -4   1  467.44   25.62
  -9  -4   1  391.01   23.74
  -9  -4  -1  443.96   23.26
  -9   4   1  473.75   49.73
  -9   4   1  419.14   37.03
  -9  -4  -1  285.86   21.58
  -9  -4   1  281.52   28.78
  -8   4   1  155.38   21.82
  -8  -4   1  155.41   14.15
  -8   4   1  166.23   30.67
  -8  -4  -1  163.45   13.03
  -8  -4  -1   87.95   11.19
  -8  -4  -1   75.94   12.14
  -8  -4   1  125.33   12.66
  -8   4  -1  155.73   25.55
  -7  -4  -1  560.29   30.84
  -7   4   1 1019.47   68.09
  -7  -4  -1  877.98   30.59
  -7   4  -1  395.38   48.17
  -7  -4  -1  595.21   29.36
  -7   4   1  754.30   46.50
  -7   4   1  640.36   26.33
  -7  -4   1  707.89   30.95
  -7  -4   1  804.27   32.29
  -6   4   1  199.88   16.91
  -6   4   1  230.45   13.14
  -6   4  -1  191.77   25.87
  -6   4  -1  236.26   13.99
  -6  -4   1  236.31   15.56
  -6   4   1  333.17   38.01
  -6  -4   1  274.00   16.24
  -6  -4  -1  266.61   14.32
  -6  -4  -1  190.79   14.70
  -6  -4   1  178.99   14.04
  -6   4   1  173.12   25.62
  -6   4   1  245.06   24.33
  -6  -4  -1  190.77   14.57
  -5   4  -1  877.22   51.24
  -5   4   1  773.25   34.29
  -5   4   1  875.12   45.70
  -5  -4  -1  863.55   28.44
  -5  -4  -1  785.51   30.66
  -5   4   1  946.52   46.38
  -5   4  -1  792.83   29.03
  -5  -4   1  749.84   29.73
  -5   4   1  689.89   48.56
  -5   4   1  791.80   27.85
  -5  -4   1  898.89   31.40
  -5  -4   1  845.91   31.76
  -5   4  -1  857.52   35.30
  -5  -4  -1  765.88   27.91
  -5  -4   1  710.72   42.86
  -4  -4   1  100.78    9.15
  -4   4   1  107.95   10.60
  -4  -4   1   90.47    8.07
  -4   4   1  103.06   17.19
  -4   4   1  115.51   14.41
  -4   4  -1   87.67    7.67
  -4  -4   1   98.65   15.51
  -4  -4  -1   84.45    8.20
  -4   4   1  116.60   14.37
  -4   4   1   99.65    7.64
  -4  -4   1  107.64    8.71
  -4  -4  -1   95.04    7.14
  -4   4  -1   81.38   14.70
  -3  -4   1  931.73   29.27
  -3  -4  -1  875.34   30.07
  -3   4  -1  942.88   45.20
  -3   4   1  924.21   41.55
  -3  -4  -1  801.12   49.09
  -3  -4   1  858.31   47.84
  -3  -4   1  935.75   31.06
  -3  -4  -1  881.03   28.24
  -3  -4   1  934.79   30.96
  -3   4   1  957.46   47.79
  -3   4   1 1010.72   42.63
  -3  -4   1  924.64   32.15
  -3   4   1  938.09   33.72
  -2   4   1  152.33    9.01
  -2  -4   1  165.54   20.15
  -2   4  -1  197.34   11.83
  -2  -4   1  169.22   10.62
  -2   4   1  188.21   17.09
  -2  -4   1  158.58    8.54
  -2  -4   1  181.52   10.65
  -2  -4  -1  161.28   20.67
  -2   4   1  185.71   15.68
  -2   4  -1  155.88    7.04
  -2   4   1  217.53   14.15
  -2  -4  -1  147.17    9.31
  -2   4  -1  198.71   16.96
  -2   4   1  186.94   15.65
  -1   4   1 1590.08   50.94
  -1   4   1 1504.85   41.70
  -1   4  -1 1578.94   45.17
  -1   4   1 1639.77   48.37
  -1   4  -1 1531.01   38.42
  -1   4   1 1472.23   52.12
  -1   4   1 1553.54   52.64
  -1  -4  -1 1325.47   65.81
  -1  -4   1 1293.29   64.29
  -1   4  -1 1589.91   45.37
  -1   4  -1 1545.38   51.68
  -1   4   1 1815.73   71.34
  -1  -4   1 1453.46   39.09
  -1  -4  -1 1458.84   41.65
  -1  -4   1 1399.05   46.32
   0   4  -1  526.91   19.58
   0   4   1  493.59   18.01
   0   4   1  502.75   19.71
   0   4   1  549.88   37.13
   0  -4  -1  495.24   19.29
   0   4   1  510.23   18.05
   0   4   1  503.48   24.84
   0  -4   1  417.13   33.46
   0   4  -1  504.69   21.84
   0   4   1  524.59   22.17
   0  -4   1  418.72   23.63
   0  -4   1  452.76   23.95
   0   4  -1  481.37   31.82
   0   4   1  434.53   17.50
   0   4   1  481.55   24.17
   1  -4   1 1319.94   51.36
   1   4   1 1532.43   42.69
   1   4  -1 1635.70   55.06
   1   4  -1 1499.73   43.26
   1  -4   1 1368.20   45.99
   1  -4  -1 1387.14   48.06
   1   4   1 1449.90   41.10
   1   4  -1 1875.06   73.54
   1   4   1 1786.38   72.18
   1  -4   1 1550.81   56.38
   1  -4   1 1165.64   62.63
   1   4  -1 1665.87   47.23
   1   4   1 1522.73   43.51
   1   4   1 1622.73   48.29
   1   4   1 1545.27   51.51
   1  -4  -1 1436.35   45.01
   1  -4   1 1367.99   44.81
   2  -4  -1  151.75   20.19
   2  -4  -1  159.81   13.26
   2   4  -1  208.14   23.29
   2  -4  -1  174.14   12.52
   2   4   1  192.97   14.99
   2   4  -1  160.66   10.06
   2  -4   1  168.33   12.70
   2  -4   1  173.26   15.74
   2   4   1  158.25   11.99
   2  -4   1  180.62   12.35
   2   4  -1  182.23   11.98
   2   4   1  193.06   10.88
   2   4   1  196.98   12.98
   3  -4   1  849.35   34.04
   3   4   1 1154.29   58.24
   3  -4   1  826.10   37.26
   3   4   1  923.46   30.07
   3  -4   1  666.97   46.16
   3   4   1  859.61   35.72
   3  -4  -1  867.89   34.85
   3  -4   1  857.82   40.44
   3   4  -1 1173.99   56.90
   3  -4  -1  773.64   47.92
   3   4   1  968.29   34.35
   4  -4  -1   87.37    9.93
   4   4   1  101.30    8.27
   4   4  -1  124.39   18.83
   4   4   1  102.84    9.27
   4  -4  -1   92.32   16.17
   4  -4   1  100.03   12.32
   4   4   1  108.63    9.01
   4   4   1  118.86   19.62
   4  -4   1   83.32   12.45
   4  -4   1   83.76   16.18
   5   4   1 1029.82   57.87
   5   4   1  821.33   30.02
   5   4   1  758.75   30.57
   5   4  -1  778.07   30.49
   5  -4   1  717.46   29.28
   5   4   1  825.45   28.72
   5  -4  -1  894.04   50.13
   5  -4   1  640.04   38.79
   5  -4   1  718.14   48.52
   5   4  -1 1126.17   56.22
   5  -4  -1  635.89   31.46
   5   4   1  673.54   32.87
   5  -4   1  654.22   36.37
   6  -4   1  212.51   25.86
   6  -4  -1  265.15   26.58
   6  -4  -1  159.41   14.75
   6  -4   1  187.25   13.61
   6   4   1  265.85   30.69
   6   4  -1  219.82   14.99
   6   4  -1  331.22   30.78
   6   4   1  226.24   14.64
   6  -4   1  178.90   20.45
   6   4   1  216.38   15.22
   7   4  -1  991.12   53.98
   7   4   1  404.08   34.63
   7   4   1  926.07   56.99
   7  -4   1  477.60   24.66
   7   4   1  618.01   28.12
   7   4  -1  679.45   28.72
   7  -4   1  433.88   34.83
   7  -4  -1  834.95   47.37
   7  -4   1  785.69   49.98
   7  -4  -1  350.86   25.01
   7   4   1  670.96   28.03
   8  -4   1  137.07   22.09
   8  -4   1   70.54   15.24
   8   4  -1  155.98   22.44
   8  -4  -1   56.48   10.11
   8  -4   1   66.56    8.93
   8   4   1  118.51   11.81
   8   4   1  112.52   11.79
   8  -4  -1  125.45   19.02
   9  -4  -1  440.74   34.08
   9  -4   1  208.82   25.81
   9  -4   1  405.94   36.65
   9  -4   1  163.17   14.44
   9  -4  -1  136.50   15.96
   9   4   1  334.60   21.05
   9   4  -1  528.98   39.96
  10  -4  -1   12.41    6.44
  10  -4   1   32.60   14.00
  10  -4  -1   27.54   11.17
  11  -4   1  223.87   28.35
 -10  -5   1  156.73   15.38
 -10  -5  -1  140.79   13.31
  -9  -5  -1  269.45   17.02
  -9  -5   1  294.14   19.62
  -9  -5  -1  194.63   17.31
  -9  -5   1  189.05   17.11
  -8  -5   1  167.20   15.24
  -8  -5   1  115.77   12.81
  -8  -5  -1  126.71   13.63
  -8   5  -1   69.98   24.44
  -8   5   1  175.79   23.91
  -8  -5  -1  185.56   13.36
  -8  -5   1  185.13   14.88
  -7  -5  -1  367.46   18.29
  -7  -5  -1  304.30   19.63
  -7  -5   1  343.92   21.20
  -7  -5   1  381.29   20.45
  -7  -5  -1  297.07   14.64
  -7   5   1  388.86   33.26
  -7  -5   1  306.41   19.28
  -6   5   1  274.72   27.09
  -6  -5  -1  236.64   16.27
  -6   5   1  234.23   13.75
  -6  -5   1  302.47   17.28
  -6  -5   1  266.41   17.71
  -6  -5   1  210.32   15.08
  -6  -5  -1  280.90   14.92
  -5  -5  -1  558.18   25.16
  -5  -5   1  616.26   27.55
  -5  -5   1  642.66   24.48
  -5  -5   1  586.26   24.73
  -5   5  -1  622.68   43.15
  -5   5   1  649.58   39.95
  -5  -5   1  493.63   38.54
  -5   5   1  556.58   42.04
  -5  -5   1  640.93   26.15
  -5  -5  -1  612.47   23.45
  -5   5   1  590.51   23.05
  -4  -5   1  345.91   16.96
  -4  -5  -1  331.64   33.13
  -4  -5   1  414.39   19.28
  -4  -5   1  361.29   16.19
  -4   5   1  366.48   16.60
  -4   5   1  415.39   29.31
  -4  -5   1  368.08   19.81
  -4  -5  -1  375.49   16.77
  -4  -5  -1  328.40   17.36
  -4  -5   1  328.80   31.38
  -4   5   1  337.21   29.75
  -4   5  -1  389.60   30.94
  -3  -5   1  777.87   28.20
  -3   5  -1  687.43   21.62
  -3  -5   1  752.20   24.83
  -3   5   1  811.30   39.45
  -3   5  -1  760.60   40.13
  -3   5   1  785.92   41.57
  -3  -5  -1  560.57   44.44
  -3  -5   1  643.92   45.12
  -3  -5   1  715.25   25.08
  -3   5   1  795.90   39.59
  -3   5   1  715.24   25.14
  -3  -5  -1  681.82   25.71
  -2  -5  -1  376.56   16.80
  -2   5  -1  486.23   21.58
  -2   5  -1  467.40   27.14
  -2   5   1  452.99   26.78
  -2   5   1  366.06   15.96
  -2  -5  -1  342.20   33.45
  -2  -5   1  378.03   15.02
  -2  -5   1  360.83   33.65
  -2   5   1  454.82   26.70
  -2   5   1  497.58   24.09
  -2   5   1  468.40   27.90
  -2  -5   1  393.84   18.10
  -2   5  -1  349.79   13.15
  -2   5  -1  435.91   20.31
  -1   5  -1  734.81   28.01
  -1   5   1  760.63   25.54
  -1  -5   1  598.47   45.00
  -1   5   1  774.16   36.44
  -1  -5  -1  710.34   26.63
  -1   5   1  777.64   27.21
  -1   5   1  773.31   28.78
  -1   5  -1  713.71   31.82
  -1  -5  -1  606.47   45.86
  -1   5   1  801.24   30.86
  -1   5  -1  767.12   48.74
  -1   5   1  801.09   36.09
  -1   5  -1  756.14   28.81
  -1  -5   1  751.72   30.69
  -1   5   1  836.92   32.19
   0   5  -1  497.65   34.36
   0   5   1  402.45   17.49
   0   5   1  437.41   25.58
   0   5   1  477.07   20.55
   0   5   1  483.42   26.35
   0   5   1  444.15   18.27
   0   5  -1  459.56   21.18
   0   5   1  475.27   22.73
   0  -5  -1  437.47   19.74
   0  -5   1  351.84   34.31
   0   5  -1  454.06   19.62
   0   5   1  566.44   41.68
   0  -5   1  423.00   20.28
   1  -5   1  672.37   29.95
   1   5   1  736.64   34.17
   1   5   1  764.23   25.66
   1   5   1  781.46   30.97
   1   5  -1  741.14   27.13
   1   5   1  778.71   27.65
   1  -5  -1  701.11   28.64
   1  -5   1  594.15   32.19
   1   5   1  829.17   32.26
   1  -5   1  560.11   44.06
   1   5  -1  784.48   37.34
   1  -5  -1  631.96   30.71
   1  -5   1  721.30   28.97
   1   5   1  763.27   34.45
   2   5  -1  554.95   42.16
   2  -5  -1  349.45   34.47
   2   5   1  457.52   19.69
   2  -5   1  391.94   22.05
   2  -5   1  403.35   21.55
   2  -5  -1  395.00   21.39
   2   5  -1  419.64   19.85
   2   5   1  399.27   22.03
   2  -5   1  392.84   26.92
   2  -5  -1  370.11   22.81
   2   5  -1  469.13   22.45
   2   5   1  451.49   25.97
   2   5   1  464.66   23.17
   3  -5   1  705.51   31.57
   3  -5   1  494.20   42.60
   3   5   1  938.14   56.44
   3  -5   1  654.81   31.68
   3   5  -1  993.47   57.02
   3   5   1  798.31   32.18
   3  -5  -1  565.57   31.35
   3  -5  -1  585.64   45.63
   3   5   1  788.52   28.09
   3   5   1  768.52   35.94
   3   5  -1  796.79   31.17
   3  -5   1  664.39   37.81
   4   5  -1  402.02   21.52
   4   5   1  356.33   19.31
   4  -5  -1  332.97   33.66
   4   5  -1  500.26   40.58
   4  -5  -1  274.76   21.37
   4  -5   1  260.85   30.34
   4  -5   1  357.54   22.30
   4   5   1  387.99   19.29
   4  -5   1  283.38   20.84
   4   5   1  469.52   40.48
   4  -5   1  314.97   25.72
   4   5   1  402.20   22.07
   5   5  -1  572.16   26.46
   5  -5  -1  581.10   44.50
   5  -5   1  524.26   43.67
   5   5   1  578.08   26.61
   5   5   1  616.44   26.22
   6  -5  -1  183.93   16.70
   6  -5  -1  316.23   32.16
   6   5  -1  353.33   35.87
   6   5  -1  262.39   17.21
   6   5   1  213.46   16.44
   6   5   1  257.94   16.47
   6   5   1  229.79   16.32
   6  -5   1  196.37   22.54
   6  -5   1  285.47   32.22
   7  -5  -1  201.24   17.86
   7  -5   1  394.43   38.07
   7   5   1  318.72   19.87
   7  -5   1  214.83   24.47
   7   5  -1  299.44   19.21
   7   5   1  328.51   19.40
   7  -5  -1  390.76   35.87
   8  -5  -1  168.84   24.38
   8  -5  -1   77.23   11.62
   8  -5   1  171.31   26.28
   8  -5   1   89.77   17.30
   8   5  -1  145.21   13.51
   8   5   1  152.03   13.71
   8   5   1  155.36   14.23
   9  -5   1  284.80   33.10
   9  -5  -1  259.19   29.35
  10  -5   1  118.74   22.99
  -9  -6   1  169.47   15.15
  -8  -6  -1  142.60   11.88
  -8  -6   1  108.52   12.43
  -8  -6   1  151.42   13.58
  -8  -6  -1  106.29   12.46
  -7  -6  -1  333.83   17.81
  -7  -6   1  282.57   18.23
  -7   6   1  317.53   31.45
  -7  -6   1  298.08   18.79
  -7  -6  -1  295.84   19.28
  -7  -6   1  280.22   20.29
  -6  -6   1  263.11   16.84
  -6  -6  -1  266.18   15.20
  -6  -6   1  243.54   18.08
  -6   6  -1  145.25   32.02
  -6  -6   1  199.53   14.48
  -6   6   1  285.30   28.74
  -6  -6  -1  214.45   15.59
  -5  -6   1  280.06   15.82
  -5   6   1  280.61   27.12
  -5  -6   1  299.59   17.66
  -5  -6  -1  291.07   16.82
  -5   6  -1  245.06   37.62
  -5  -6   1  241.21   29.05
  -5   6   1  257.43   28.28
  -4   6   1  242.82   23.65
  -4  -6   1  197.91   26.62
  -4  -6  -1  193.85   13.19
  -4   6   1  206.14   22.83
  -4  -6   1  203.88   12.17
  -4   6  -1  159.40   30.39
  -4   6   1  176.23   11.34
  -4  -6  -1  167.05   25.29
  -4   6   1  202.47   12.19
  -4   6  -1  222.04   23.64
  -3   6   1  315.92   25.71
  -3   6  -1  252.78   34.78
  -3   6  -1  321.23   25.34
  -3  -6   1  218.01   28.37
  -3  -6  -1  271.62   32.45
  -3   6   1  278.68   23.26
  -3  -6   1  280.31   13.55
  -3   6   1  273.86   13.98
  -3   6  -1  304.00   11.65
  -3  -6  -1  305.21   15.63
  -2   6   1  299.76   24.24
  -2  -6   1  198.57   27.65
  -2  -6  -1  217.09   29.04
  -2   6   1  290.35   16.44
  -2   6  -1  244.57   31.70
  -2   6   1  313.20   20.06
  -2   6  -1  278.94   21.03
  -2  -6  -1  279.23   15.46
  -2   6   1  282.52   19.88
  -2   6   1  250.78   13.47
  -2   6  -1  335.44   19.25
  -1   6   1  526.63   20.73
  -1   6  -1  568.76   43.48
  -1  -6  -1  399.40   39.35
  -1   6   1  547.20   32.23
  -1  -6  -1  515.54   22.71
  -1  -6   1  357.07   37.64
  -1   6  -1  572.59   25.11
  -1   6  -1  545.21   23.57
  -1   6   1  505.86   22.32
  -1   6   1  494.61   21.73
  -1   6  -1  541.65   26.35
  -1  -6   1  470.50   23.17
   0   6  -1  410.05   19.75
   0   6   1  404.90   18.34
   0  -6  -1  394.74   20.14
   0   6   1  376.72   17.49
   0  -6   1  385.84   20.72
   0   6  -1  450.69   22.26
   0   6   1  401.52   26.66
   0   6  -1  440.38   33.74
   1   6   1  501.85   20.92
   1  -6   1  359.15   37.94
   1   6  -1  521.47   24.76
   1   6  -1  550.79   23.26
   1  -6   1  478.74   24.04
   1   6   1  384.38   28.09
   1   6  -1  562.89   32.07
   1  -6  -1  402.04   40.00
   1   6   1  484.05   29.44
   1  -6  -1  508.34   24.43
   1  -6   1  375.81   27.61
   2  -6  -1  204.86   28.66
   2  -6   1  267.29   18.09
   2  -6  -1  227.24   18.64
   2  -6   1  226.52   17.73
   2   6  -1  266.47   16.05
   2  -6  -1  252.79   17.52
   2   6   1  280.08   21.68
   2   6  -1  301.11   18.97
   2  -6   1  217.76   20.11
   2   6   1  233.91   17.10
   3   6   1  340.37   16.32
   3  -6   1  163.92   26.18
   3  -6   1  224.75   22.67
   3  -6   1  251.12   19.17
   3  -6   1  279.63   19.33
   3  -6  -1  213.86   29.32
   3  -6  -1  256.07   20.24
   4  -6   1  177.09   16.83
   4  -6   1  161.18   26.41
   4  -6   1  196.04   21.92
   4   6   1  217.99   15.52
   4  -6  -1  206.39   28.99
   4   6   1  238.04   15.71
   4  -6  -1  162.87   16.95
   5   6   1  271.78   17.93
   5  -6   1  204.43   19.16
   5  -6   1  199.42   22.97
   5  -6  -1  318.07   35.45
   5   6   1  289.30   17.85
   5  -6   1  240.64   31.73
   5  -6  -1  193.01   19.30
   5   6  -1  303.49   18.91
   6   6   1  218.96   16.42
   6  -6   1  133.80   16.58
   6  -6  -1  117.82   16.12
   6  -6  -1  250.15   31.71
   6   6   1  245.26   16.78
   6   6  -1  252.60   17.64
   6  -6   1  244.63   32.62
   6  -6   1  149.86   20.56
   7   6  -1  279.15   19.38
   7   6   1  260.26   18.89
   7  -6  -1  334.64   36.34
   7  -6   1  291.14   35.57
   7   6   1  303.58   19.59
   8  -6   1  131.46   25.63
   8  -6  -1  138.10   24.69
   9  -6  -1  152.41   25.83
  -7  -7   1  110.15   11.11
  -7  -7  -1   94.86   11.13
  -7  -7   1  120.22   12.44
  -6  -7   1  192.17   13.74
  -6  -7  -1  167.92   13.76
  -5   7   1  220.88   24.99
  -5  -7   1  144.30   24.77
  -5  -7  -1  182.22   13.36
  -5   7  -1  127.08   29.76
  -5  -7   1  179.99   12.32
  -4  -7   1  161.80   27.11
  -4   7   1  212.45   23.75
  -4   7  -1  150.45   30.74
  -4  -7   1  188.22   11.69
  -4  -7  -1  168.89   12.38
  -4  -7  -1  158.16   27.09
  -3   7   1  288.61   26.07
  -3   7  -1  218.40   33.89
  -3  -7  -1  186.03   29.03
  -3  -7   1  170.61   27.69
  -3  -7  -1  247.18   15.31
  -2   7  -1  252.48   33.56
  -2  -7  -1  247.31   15.59
  -2   7   1  283.13   25.18
  -2  -7  -1  195.82   30.33
  -2  -7   1  257.68   17.07
  -2  -7   1  182.61   28.79
  -1   7  -1  254.18   29.73
  -1  -7  -1  194.51   14.31
  -1  -7   1  163.75   27.28
  -1   7   1  268.81   23.77
  -1  -7   1  228.84   16.19
  -1  -7  -1  182.38   28.57
   0   7  -1  356.63   31.28
   0  -7   1  307.48   19.56
   0  -7  -1  314.32   19.34
   0   7   1  319.11   25.66
   0  -7   1  249.79   34.16
   1   7   1  231.19   21.53
   1  -7  -1  201.64   15.74
   1  -7   1  210.92   16.26
   1  -7   1  128.35   25.18
   1   7  -1  220.63   20.11
   1  -7  -1  144.81   26.28
   2  -7   1  196.00   21.43
   2   7   1  255.93   22.71
   2  -7   1  240.26   18.43
   2  -7  -1  239.20   18.25
   3  -7   1  227.54   18.63
   3  -7  -1  195.25   30.11
   3  -7   1  198.79   18.06
   3  -7   1  161.64   19.33
   3  -7   1  155.92   27.73
   3  -7  -1  187.47   18.44
   4  -7  -1  169.32   29.68
   4   7   1  187.25   15.32
   4   7   1  215.32   16.02
   4  -7   1  150.57   20.33
   4  -7   1  166.51   16.99
   4  -7  -1  138.18   16.43
   4  -7   1  121.48   25.09
   5  -7  -1  147.60   26.65
   5  -7   1  140.52   26.69
   5   7   1  199.65   15.58
   5  -7  -1  113.82   15.56
   5  -7   1  127.54   15.97
   5   7   1  166.48   14.76
   5   7  -1  178.40   15.32
   5  -7   1  121.45   19.63
   6  -7   1  111.47   15.62
   6  -7  -1  196.97   31.26
  -4  -8   1  149.31   13.97
  -4   8  -1  113.24   28.03
  -3   8  -1   81.82   22.79
  -3  -8   1   84.37   10.70
  -3  -8  -1  102.37   10.54
  -2  -8  -1  147.38   13.01
  -2  -8   1  155.54   14.32
  -1  -8  -1  129.65   12.81
  -1  -8   1  121.72   12.90
   0  -8  -1  179.16   15.47
   0  -8   1  142.01   14.17
   1  -8  -1  115.00   13.05
   1  -8   1  124.61   13.84
   2  -8   1  143.42   15.41
 -12   0  -2  264.53   33.60
 -12   0   2  306.76   36.88
 -11   0  -2   -0.40    4.98
 -11   0  -2    3.32    9.11
 -11   0   2    1.25    4.97
 -11   0   2    2.41    9.70
 -10   0  -2  545.00   38.06
 -10   0  -2  548.23   28.61
 -10   0   2  574.44   29.66
  -9   0  -2   -1.37    6.92
  -9   0   2    2.09    4.19
  -9   0  -2    2.99    4.24
  -9   0  -2    1.94    7.42
  -8   0   2 1122.12   42.10
  -8   0  -2 1146.50   40.68
  -8   0   2 1183.98   41.56
  -8   0  -2 1183.07   42.36
  -8   0  -2 1164.47   42.02
  -8   0  -2  808.48   54.19
  -8   0  -2  783.94   53.87
  -8   0   2 1139.17   41.28
  -7   0   2    0.74    2.93
  -7   0   2    0.28    2.96
  -7   0  -2    0.26    2.82
  -7   0  -2   -1.33    3.38
  -7   0  -2   -0.78    5.32
  -7   0  -2   -0.24    2.61
  -7   0   2   -1.03    2.99
  -7   0  -2    3.10    6.95
  -6   0   2 1804.79   55.64
  -6   0  -2 1446.32   70.16
  -6   0  -2 1815.55   55.15
  -6   0  -2 1915.24   54.91
  -6   0  -2 2006.90   56.67
  -6   0   2 1876.91   54.59
  -6   0   2 1740.77   54.41
  -6   0  -2 1629.11   72.37
  -5   0  -2    0.55    4.54
  -5   0  -2   -0.19    1.89
  -5   0  -2    0.55    2.08
  -5   0  -2   -0.57    4.03
  -5   0  -2    0.41    2.07
  -5   0   2   -0.60    1.76
  -5   0   2    0.17    1.89
  -5   0   2    0.39    1.91
  -4   0  -2 1729.19   50.52
  -4   0   2 1896.06   51.73
  -4   0  -2 1662.81   63.77
  -4   0   2 1964.46   50.75
  -4   0  -2 1920.85   60.36
  -4   0  -2 1574.71   64.14
  -3   0  -2    1.45    2.91
  -3   0  -2    0.74    1.65
  -3   0  -2    0.69    1.33
  -3   0   2    0.68    1.18
  -3   0   2   -0.12    1.23
  -3   0  -2    0.33    3.06
  -3   0  -2    1.46    4.01
  -2   0  -2 2789.54   67.01
  -2   0  -2 2707.75   66.87
  -2   0  -2 2594.88   66.27
  -2   0   2 2780.14   66.89
  -1   0   2    0.26    0.52
  -1   0  -2    0.67    0.82
  -1   0  -2    0.22    0.52
   0   0  -2 4512.28  107.98
   0   0  -2 4645.97   97.04
   0   0   2 4308.01  107.20
   0   0  -2 4072.87  123.06
   0   0  -2 4376.47  111.91
   1   0  -2    1.06    5.52
   1   0   2    1.81    0.90
   1   0  -2    0.13    0.59
   1   0   2    0.75    1.16
   1   0   2    0.20    0.69
   1   0  -2    0.09    0.96
   1   0   2    1.37    0.93
   1   0   2    2.85    0.87
   1   0   2    0.48    1.55
   1   0  -2    0.24    2.67
   1   0   2    2.04    2.32
   2   0  -2 2715.33   63.81
   2   0  -2 2430.30   90.46
   2   0  -2 2345.72   69.60
   2   0   2 2954.88   66.97
   2   0   2 2466.92   70.78
   2   0   2 2570.81   65.94
   2   0   2 2947.88   78.41
   2   0   2 2965.83   76.69
   2   0  -2 2453.71   65.11
   3   0  -2    0.40    1.25
   3   0   2    1.45    1.61
   3   0  -2   -0.62    4.99
   3   0   2    1.36    2.53
   3   0   2    3.30    3.35
   3   0  -2   -0.25    2.13
   3   0  -2   -0.27    0.97
   3   0   2    0.37    3.20
   3   0   2    0.99    1.60
   4   0  -2 1408.69   67.16
   4   0  -2 1531.89   56.27
   4   0   2 1886.39   50.83
   4   0   2 1787.27   51.22
   4   0   2 1669.16   58.75
   4   0  -2 1614.77   49.30
   4   0  -2 1795.90   47.31
   5   0  -2    0.83    3.17
   5   0   2    0.98    2.19
   5   0  -2   -0.29    1.92
   5   0   2    0.45    3.13
   5   0  -2    0.45    2.31
   5   0  -2   -0.16    1.64
   5   0   2   -0.22    1.81
   5   0  -2   -0.63    4.58
   6   0  -2 1471.21   65.43
   6   0  -2 1807.00   52.61
   6   0   2 1685.55   56.81
   6   0  -2 1591.85   64.50
   6   0   2 1509.62   64.65
   6   0   2 1706.54   55.22
   6   0  -2 1738.92   56.27
   7   0  -2   -0.31    3.31
   7   0   2   -0.34    3.05
   7   0  -2   -0.55    4.66
   7   0   2   -1.19    4.56
   7   0  -2    1.35    2.64
   7   0  -2    1.02    2.98
   8   0  -2  910.54   49.53
   8   0  -2 1090.19   38.79
   8   0   2  923.60   51.07
   8   0  -2  987.02   41.79
   8   0   2 1028.12   43.46
   9   0   2   -0.85    4.28
   9   0  -2    1.57    4.19
   9   0  -2    0.29    3.26
   9   0  -2   -2.11    4.27
  10   0   2  482.23   41.02
  10   0  -2  506.26   26.14
  10   0  -2  449.25   38.65
  11   0  -2    0.98    7.85
  11   0   2   -2.09    7.79
  11   0  -2   -1.36    3.96
  11   0   2    2.14    5.37
 -12  -1  -2  318.56   33.41
 -12   1  -2  247.69   35.62
 -12   1   2  378.92   44.80
 -11   1  -2    1.64    4.88
 -11  -1  -2   -0.91    8.90
 -11  -1  -2    4.39    5.34
 -11   1   2    2.54    5.26
 -11   1  -2   -1.31    9.23
 -11  -1   2    7.10    5.29
 -11  -1   2   -0.95    9.99
 -10   1   2  822.20   37.05
 -10  -1  -2  753.86   34.22
 -10  -1   2  769.18   35.31
 -10   1  -2  806.85   36.05
 -10  -1   2  737.40   50.37
  -9   1  -2    4.64    8.65
  -9  -1   2   10.00    5.25
  -9  -1  -2    3.27    4.19
  -9   1   2    9.27    5.37
  -9  -1  -2    3.92    7.02
  -9   1  -2    7.13    5.05
  -9  -1  -2    9.14    7.14
  -8  -1  -2  757.40   49.92
  -8  -1   2 1059.67   38.77
  -8  -1  -2  882.83   50.49
  -8  -1  -2 1047.71   38.98
  -8   1  -2  633.39   52.53
  -8  -1   2 1063.15   39.82
  -8   1   2 1150.03   42.52
  -8   1   2 1080.03   38.21
  -8  -1  -2 1084.63   48.18
  -8   1  -2  887.20   42.26
  -8   1  -2 1134.02   41.73
  -8  -1  -2 1021.00   37.73
  -7  -1  -2   15.91    8.25
  -7   1  -2   20.96    6.34
  -7   1  -2    7.72    7.20
  -7   1   2   19.67    4.69
  -7   1  -2   23.40    5.57
  -7  -1   2   20.68    4.88
  -7  -1  -2   20.61    4.96
  -7   1  -2   16.04    8.66
  -7   1  -2   19.55    5.08
  -7  -1   2   16.96    4.47
  -7   1   2   22.53    5.94
  -7  -1  -2   15.30    7.61
  -7   1  -2   25.57    6.19
  -7  -1  -2   17.02    7.26
  -7  -1  -2   23.77    4.97
  -6  -1  -2 1952.71   67.70
  -6  -1  -2 1829.44   53.57
  -6  -1   2 1767.82   53.82
  -6  -1  -2 1540.77   67.98
  -6   1  -2 1225.58   71.52
  -6   1  -2 1722.95   59.71
  -6   1   2 1860.18   53.66
  -6   1  -2 1880.67   55.50
  -6   1   2 2644.41   99.79
  -6  -1  -2 1646.28   66.87
  -6  -1  -2 1818.46   54.20
  -6  -1   2 1761.78   54.45
  -6   1  -2 2035.53   58.68
  -6   1   2 1934.66   58.54
  -5  -1  -2    8.42    5.23
  -5  -1   2    7.91    2.99
  -5   1   2   10.39    3.90
  -5  -1   2    8.90    2.74
  -5  -1  -2    5.18    4.02
  -5   1   2   11.29    5.98
  -5  -1  -2    7.49    2.71
  -5   1  -2   11.62    3.22
  -5   1   2   10.11    2.83
  -5  -1  -2    5.67    4.70
  -5   1  -2   11.76    3.71
  -5   1  -2    6.64    5.80
  -5   1  -2   11.65    5.79
  -5   1  -2    6.16    3.48
  -5   1   2   11.37   10.13
  -5  -1  -2    8.97    3.02
  -5  -1   2    8.76    2.99
  -4  -1  -2 2883.54   80.83
  -4  -1  -2 2810.80   90.82
  -4   1  -2 3107.25   84.55
  -4  -1   2 3127.41   79.92
  -4   1   2 3154.99   79.00
  -4   1   2 3345.56   84.02
  -4   1   2 3405.31   97.23
  -4  -1  -2 2984.75   79.04
  -4  -1  -2 2903.71   90.53
  -4  -1  -2 2965.02   78.82
  -4   1  -2 3148.74   80.95
  -4   1  -2 3257.60   83.27
  -4   1  -2 3354.31   95.74
  -4  -1   2 3140.49   79.69
  -4  -1  -2 3119.79   94.15
  -3  -1  -2    2.84    1.43
  -3  -1  -2    2.29    2.56
  -3   1  -2    2.85    1.91
  -3  -1   2    9.37    2.09
  -3   1  -2    2.12    2.00
  -3  -1   2    7.75    2.34
  -3  -1  -2    3.50    1.84
  -3   1  -2    3.02    2.81
  -3  -1  -2    2.86    1.52
  -3  -1  -2    4.57    1.99
  -3  -1   2   11.21    2.29
  -3   1  -2    3.16    1.71
  -3   1   2    8.30    1.85
  -3   1   2    9.18    3.94
  -3  -1  -2    2.54    3.67
  -3   1  -2    1.57    3.97
  -3   1   2    8.78    2.69
  -3  -1   2    9.30    3.90
  -2   1  -2 4011.73   99.60
  -2  -1  -2 3727.65   91.76
  -2  -1   2 3844.33   97.51
  -2  -1  -2 3397.41   89.05
  -2  -1   2 3731.45   89.67
  -2  -1  -2 3603.19   95.15
  -2   1  -2 3564.10  107.28
  -2   1   2 4018.16  100.08
  -2   1   2 4078.07  100.93
  -2  -1   2 3584.06   94.79
  -2   1  -2 3677.58  102.68
  -2  -1  -2 3752.43   91.28
  -2   1  -2 4094.89  100.36
  -2   1   2 3956.20   95.76
  -2   1   2 3748.02   88.32
  -1   1   2   34.12    4.16
  -1   1  -2   31.28    3.89
  -1   1  -2   33.77    3.88
  -1  -1   2   29.05    2.95
  -1  -1  -2   30.60    2.62
  -1  -1   2   30.65    2.34
  -1  -1  -2   26.08    2.84
  -1   1  -2   30.96    5.90
  -1   1  -2   22.66    1.72
  -1   1   2   24.42    4.44
  -1   1   2   31.71    3.84
  -1  -1  -2   29.18    2.26
  -1   1  -2   26.21    4.64
   0   1   2 4132.11   85.57
   0   1  -2 3349.46   78.28
   0   1   2 3286.73   77.39
   0   1   2 3270.83   80.68
   0  -1   2 3415.96   80.16
   0   1   2 3223.91   78.19
   0   1   2 3508.37   81.76
   0   1   2 3638.99  117.24
   0   1   2 3211.45   80.12
   0   1   2 3453.45   91.79
   0   1   2 3515.55   92.97
   0  -1  -2 3167.46   80.01
   0   1   2 3690.04   80.90
   0  -1   2 2738.55   79.32
   0   1  -2 3744.70   81.43
   0   1  -2 3627.59   80.82
   1   1   2   27.24    6.47
   1  -1  -2   28.42    3.41
   1  -1   2   31.98    3.57
   1   1   2   25.96    3.50
   1  -1   2   33.47    3.11
   1  -1  -2   25.14    4.90
   1  -1  -2   31.95    3.62
   1  -1   2   29.88    3.55
   1   1  -2   23.31    3.99
   1   1   2   26.38    2.60
   1   1   2   25.63    2.88
   1   1  -2   28.47    2.22
   1   1   2   28.98    4.86
   1   1   2   29.99    3.33
   1  -1  -2   24.07    8.95
   1   1   2   30.65    2.32
   1   1   2   23.95    9.67
   2  -1  -2 3387.21   94.77
   2  -1   2 3725.13   96.39
   2   1   2 3579.56   96.19
   2  -1  -2 3280.07   93.22
   2   1   2 3737.73   87.59
   2   1  -2 3547.38   86.95
   2  -1  -2 3829.36   95.01
   2  -1  -2 3787.06   85.57
   2  -1   2 3741.12   90.45
   2   1   2 3949.34   89.70
   2   1   2 3748.57   95.52
   2  -1   2 3661.46   94.96
   2  -1   2 4081.03  108.52
   2   1  -2 3349.43   93.53
   2  -1  -2 3146.16  117.02
   2   1   2 3762.97  103.06
   2   1   2 3589.09   89.31
   2   1  -2 3475.39   86.62
   2   1   2 2897.88  108.75
   2   1   2 3703.12   87.29
   2  -1   2 3784.41  101.64
   3   1  -2    4.20    1.60
   3  -1   2   12.95    5.73
   3   1   2    8.71    3.63
   3  -1  -2    1.91    2.54
   3   1  -2    2.39    1.43
   3   1  -2    3.54    2.24
   3  -1  -2    3.67    2.68
   3   1   2    9.91    2.51
   3  -1  -2    1.99    1.94
   3  -1   2    7.80    3.55
   3   1   2   10.05    4.64
   3   1   2   10.12    2.19
   3   1   2    8.90    5.59
   3   1   2    9.97    2.21
   3  -1  -2    2.55    1.23
   3  -1  -2    2.75    5.40
   3  -1   2   10.65    4.05
   3   1  -2    2.87    1.44
   4  -1  -2 2810.88   73.84
   4  -1  -2 2343.12   84.42
   4   1  -2 2940.28   75.18
   4  -1   2 2431.60   85.97
   4   1   2 3229.07   91.55
   4  -1   2 2519.00   88.73
   4   1   2 3154.22   76.54
   4   1  -2 2887.64   75.00
   4  -1  -2 3014.15   78.46
   4   1   2 3167.33   78.68
   4  -1   2 3054.65   78.58
   4  -1  -2 2417.44   87.07
   4   1  -2 3341.56   79.93
   5   1   2    8.44    2.94
   5  -1   2    2.36    3.62
   5   1  -2    5.59    5.78
   5  -1  -2    6.17    4.38
   5  -1  -2    7.34    3.27
   5  -1  -2    8.13    2.61
   5   1  -2    7.22    3.35
   5   1   2    8.09    2.90
   5  -1   2    7.03    5.12
   5  -1  -2    6.06    4.94
   5   1  -2    8.08    2.73
   5   1  -2    6.40    2.76
   6   1  -2 1442.98   65.79
   6  -1   2 1309.23   61.99
   6   1   2 1705.23   54.98
   6   1   2 1752.79   54.42
   6   1  -2 1729.66   51.19
   6  -1  -2 2080.20   56.66
   6  -1   2 1327.52   65.34
   6  -1  -2 1496.52   66.80
   6   1  -2 1735.75   54.16
   6  -1  -2 1811.07   51.18
   6   1   2 1580.24   62.52
   6  -1  -2 1447.28   62.67
   6   1  -2 2367.81   59.83
   6   1  -2 1638.46   62.12
   7   1   2   22.07    5.24
   7   1  -2   17.25    6.82
   7   1   2   17.49    5.17
   7  -1  -2   22.01    8.64
   7   1  -2   21.37    5.91
   7  -1  -2   15.21    6.83
   7  -1  -2   23.12    4.72
   7   1  -2   19.46    5.27
   7   1  -2   17.68    4.48
   7   1  -2   11.12    6.33
   7   1   2   22.38    7.50
   7  -1   2   14.46    6.73
   7  -1   2   15.53    7.70
   8  -1   2  859.92   49.52
   8   1   2 1018.31   39.73
   8   1  -2  969.45   36.49
   8   1   2  960.48   40.39
   8   1  -2  957.67   39.40
   8  -1  -2  885.69   48.78
   8  -1  -2  901.51   52.65
   8   1  -2  856.23   46.54
   8  -1  -2  985.02   36.25
   8   1   2  906.42   48.69
   8  -1   2  830.78   52.43
   9  -1  -2    6.04    8.44
   9  -1  -2    4.25    3.52
   9   1  -2    6.69    4.00
   9  -1   2    6.50    8.15
   9   1   2    8.97    4.89
   9   1  -2    7.75    5.28
   9   1   2    8.76    5.24
   9  -1   2    7.15    4.58
   9   1  -2   10.09    5.57
   9  -1  -2    6.29    4.66
  10  -1   2  636.28   48.41
  10  -1  -2  636.77   47.06
  10   1  -2  665.06   34.92
  10  -1   2  713.28   35.07
  10  -1  -2  728.28   31.97
  10   1   2  734.48   37.43
  10   1  -2  643.52   30.71
  11  -1  -2   -1.99    8.01
  11  -1   2    1.07    7.96
  11  -1   2    5.27    5.23
  11   1  -2    2.76    5.25
  11  -1  -2    1.71    4.42
  11   1   2    1.48    5.36
  11   1  -2    5.85    4.80
 -11   2  -2   16.47   13.17
 -11   2   2   38.05    8.86
 -11  -2   2   32.15    8.34
 -10   2  -2  208.69   33.66
 -10   2   2  455.28   26.77
 -10  -2  -2  416.00   24.04
 -10  -2  -2  220.77   20.08
 -10   2  -2  488.35   27.16
 -10  -2   2  411.01   30.09
 -10  -2   2  414.43   24.45
  -9  -2  -2    8.42    7.38
  -9   2   2   38.26    8.36
  -9  -2  -2   31.09    6.84
  -9  -2   2   26.13    6.94
  -9   2  -2    8.13    9.82
  -9  -2  -2   10.01    5.24
  -9   2  -2   24.67    7.36
  -9  -2   2   33.58   10.03
  -9   2   2   33.41   14.79
  -9   2  -2   34.05    9.43
  -8  -2  -2  555.72   38.97
  -8   2  -2  847.90   35.73
  -8  -2  -2  744.60   31.45
  -8  -2   2  710.00   38.52
  -8  -2   2  701.28   31.42
  -8   2   2  777.12   35.01
  -8   2  -2  352.94   42.08
  -8   2   2  724.77   29.42
  -8   2  -2 1080.51   46.67
  -8   2   2 1127.24   68.18
  -7  -2   2   23.33    5.19
  -7   2  -2   18.19    9.87
  -7  -2  -2   32.52    5.85
  -7   2  -2   28.28    5.66
  -7   2  -2   15.00   10.15
  -7   2   2   24.56    8.99
  -7  -2  -2   18.70    7.84
  -7   2   2   18.94    5.62
  -7  -2  -2   37.60    5.90
  -7   2  -2   39.32    7.24
  -7  -2   2   24.98    5.23
  -7   2  -2   27.97    7.12
  -7   2   2   24.85    4.85
  -7   2  -2   25.07    9.16
  -7   2   2   38.59   16.82
  -6   2  -2 1535.39   62.10
  -6   2  -2 1339.85   41.83
  -6   2  -2 1507.71   46.87
  -6  -2   2 1104.68   40.42
  -6  -2   2 1115.91   39.58
  -6  -2  -2 1410.63   44.41
  -6  -2  -2 1268.41   40.45
  -6   2  -2 1291.67   47.04
  -6  -2  -2 1289.02   41.55
  -6   2   2 1240.56   57.71
  -6   2   2 1763.80   88.49
  -6   2   2 1266.68   44.77
  -6   2  -2 1113.90   61.11
  -6   2   2 1149.90   38.95
  -6  -2  -2 1098.94   50.57
  -5  -2   2   85.61    7.80
  -5   2   2   99.14   13.84
  -5  -2   2   91.32    9.55
  -5   2   2   87.11    7.25
  -5   2  -2  106.72    9.85
  -5   2   2   92.19    9.29
  -5   2  -2  110.17   14.28
  -5   2  -2   97.46    9.98
  -5  -2  -2  103.90    9.09
  -5   2   2  115.28   22.56
  -5  -2  -2   85.55    7.65
  -5   2  -2  101.78    8.42
  -5   2  -2   85.72   14.81
  -5  -2  -2   86.83   10.91
  -4  -2  -2 1321.81   44.00
  -4   2   2 1211.46   49.57
  -4   2  -2 1274.44   55.92
  -4  -2   2 1032.04   42.11
  -4   2  -2 1312.97   50.53
  -4   2  -2 1225.75   37.23
  -4  -2  -2 1196.54   36.32
  -4   2  -2 1007.09   57.35
  -4   2   2 1103.23   34.26
  -4   2  -2 1329.83   50.69
  -4   2   2 1252.39   50.16
  -4  -2  -2 1157.51   42.16
  -4  -2   2 1270.69   37.74
  -4  -2   2 1155.70   36.33
  -3   2   2  131.31    6.94
  -3   2  -2  144.19   13.50
  -3   2  -2  128.12    8.29
  -3  -2  -2  130.42    7.84
  -3  -2  -2  112.94    8.63
  -3   2  -2  145.83   13.36
  -3  -2   2  131.95    8.03
  -3   2  -2  108.37   15.91
  -3   2   2  147.44   13.54
  -3  -2   2  115.63   11.59
  -3  -2  -2  133.98   11.28
  -3   2   2  148.46   13.59
  -3   2  -2  115.87   13.71
  -2  -2  -2 1504.15   39.04
  -2   2   2 1535.26   48.65
  -2   2  -2 1736.56   49.81
  -2   2   2 1446.39   47.53
  -2  -2   2 1467.82   42.08
  -2   2   2 1328.35   36.97
  -2   2  -2 1595.57   61.40
  -2   2  -2 1733.08   50.25
  -2   2   2 1308.48   42.88
  -2  -2   2 1335.87   50.11
  -2  -2  -2 1473.24   36.03
  -2  -2   2 1382.87   39.37
  -2   2  -2 1730.82   54.85
  -2   2   2 1525.35   51.73
  -2  -2  -2 1534.42   39.68
  -2  -2  -2 1674.11   51.69
  -1   2  -2   68.63    6.64
  -1   2   2   46.45    5.54
  -1   2   2   75.63   16.25
  -1  -2   2   36.13    6.99
  -1  -2   2   44.28    6.03
  -1   2  -2   64.36    9.51
  -1   2   2   39.52    5.25
  -1   2   2   43.78    7.66
  -1  -2   2   40.59    5.54
  -1  -2  -2   61.37    4.36
  -1   2   2   46.06    4.24
  -1   2  -2   68.83    8.01
  -1   2  -2   70.87    5.36
  -1  -2   2   42.39    3.78
  -1   2  -2   67.90    6.69
   0   2  -2 2648.71   61.56
   0  -2  -2 2424.46   63.77
   0   2  -2 2631.86   60.28
   0   2   2 2374.77   63.42
   0   2   2 3074.87  104.22
   0   2   2 2083.62   63.08
   0   2   2 2415.25   77.68
   0   2  -2 2642.83   72.20
   0   2   2 2315.86   60.51
   0   2   2 2076.37   62.54
   0  -2  -2 2910.86   60.58
   0   2  -2 2752.95   65.24
   0   2  -2 2701.74   68.55
   0   2   2 2174.85   59.34
   0   2  -2 2846.55   66.13
   0  -2   2 2186.30   67.00
   0   2   2 2098.69   74.27
   0  -2   2 1810.94   61.45
   0   2   2 2436.23   64.20
   0  -2   2 2372.98   72.80
   1  -2  -2   73.20    6.70
   1  -2  -2   67.55    6.25
   1   2   2   46.06    3.83
   1   2   2   42.34    3.51
   1   2  -2   62.24    5.63
   1   2   2   36.45    3.94
   1   2   2   45.36    6.69
   1   2   2   45.29    4.84
   1   2  -2   69.18    5.12
   1   2  -2   64.09    4.24
   1   2   2   47.55    2.62
   1   2   2   34.56    4.27
   1  -2  -2   63.68    6.44
   1  -2   2   38.37    6.45
   1   2   2   43.50    3.65
   1   2   2   43.18    4.87
   1   2   2   62.46   13.70
   1   2   2   43.29    8.62
   1  -2  -2   60.20    9.36
   1  -2   2   36.94    4.80
   1  -2   2   44.95    5.51
   2  -2   2 1387.79   41.81
   2   2   2 1434.17   40.19
   2   2  -2 1501.86   38.74
   2  -2   2 1291.26   44.54
   2   2   2 1696.45   43.64
   2   2   2 1369.56   38.60
   2  -2  -2 1479.92   45.63
   2   2   2 1540.80   67.85
   2  -2  -2 1565.88   54.19
   2  -2   2 1354.24   45.89
   2  -2  -2 1634.01   47.45
   2  -2  -2 1520.94   47.11
   2   2   2 1454.89   40.57
   2  -2   2 1405.05   52.09
   2   2   2 1359.26   38.75
   2   2  -2 1461.85   41.47
   3   2  -2  111.00    8.80
   3  -2  -2  119.54   10.97
   3  -2   2  137.41    6.29
   3  -2   2  130.62   12.28
   3   2   2  135.50    7.76
   3   2   2  114.13    9.86
   3   2  -2  142.53   13.48
   3  -2  -2  115.05   11.59
   3  -2   2  123.79   11.39
   3  -2  -2  112.52   12.33
   3   2   2  134.28    8.71
   3   2   2   87.53   14.82
   3   2   2  111.62   12.44
   3   2   2  128.35    7.78
   3   2  -2  126.17    7.58
   3   2  -2  125.06    7.29
   3  -2   2  123.54    9.60
   4  -2  -2  988.49   44.69
   4   2   2 1117.10   33.82
   4   2   2 1127.40   34.58
   4   2   2 1204.41   55.61
   4   2   2 1055.26   42.88
   4   2   2 1188.81   42.18
   4  -2   2  988.12   45.09
   4  -2   2  976.63   42.62
   4   2   2 1103.81   36.31
   4  -2  -2  992.80   42.28
   4  -2  -2 1252.10   46.11
   4   2  -2 1442.78   48.14
   4   2  -2 1155.63   33.47
   4   2  -2 1173.97   34.34
   4  -2   2 1147.80   32.51
   4   2   2  736.84   46.16
   5   2   2   78.31    7.50
   5   2   2   81.25    7.33
   5   2  -2   90.09    7.67
   5   2  -2   81.89    7.11
   5  -2  -2  103.08   11.72
   5  -2   2   66.48   11.41
   5   2   2   72.39   13.98
   5   2   2   86.77    8.50
   5   2  -2  111.46   12.49
   5  -2  -2   70.53   11.53
   5  -2   2   71.63   11.06
   5  -2  -2   62.55   10.00
   5   2   2   49.15   10.66
   5   2  -2   97.30    8.16
   6  -2   2  781.31   47.69
   6  -2  -2  890.10   45.84
   6   2  -2 1251.69   38.20
   6   2   2 1125.51   37.85
   6  -2  -2 1500.55   50.38
   6  -2  -2  902.26   49.31
   6   2   2 1116.58   39.91
   6   2   2 1296.63   62.09
   6   2  -2 1705.27   54.33
   6   2   2  963.63   39.31
   6  -2  -2 1191.83   37.36
   6   2  -2 1201.75   38.44
   6  -2   2  717.32   43.48
   7   2  -2   34.01    8.66
   7   2   2   19.56    4.88
   7  -2   2   19.16    8.31
   7   2  -2   32.23    5.70
   7   2   2   25.44    5.84
   7  -2  -2   33.08    7.81
   7   2  -2   30.10    5.59
   7  -2   2   20.35    7.60
   7  -2  -2   30.04    8.81
   7  -2  -2   20.03    8.34
   7  -2  -2   26.42    4.98
   7   2   2   24.76   10.77
   7   2  -2   27.65    9.20
   8   2   2  720.33   32.11
   8  -2  -2  581.58   41.64
   8   2   2  910.30   54.12
   8  -2  -2  918.34   39.08
   8   2  -2 1051.22   42.52
   8   2  -2  705.83   32.28
   8   2   2  727.08   33.36
   8   2  -2  585.31   35.10
   8   2  -2  693.68   29.87
   8  -2   2  466.16   39.09
   8  -2  -2  721.81   29.54
   9   2  -2   25.56    6.24
   9   2   2   23.77    6.42
   9   2  -2   25.52    6.91
   9  -2   2   28.27   11.45
   9   2  -2   32.60    8.55
   9  -2  -2   21.28   10.04
   9   2   2   22.07    6.67
   9   2   2   31.17   13.18
   9  -2  -2   19.45    5.54
   9  -2  -2   36.28    8.69
  10  -2  -2  359.11   34.82
  10  -2   2  322.24   33.95
  10   2   2  384.32   25.51
  10  -2  -2  455.63   26.25
  10  -2  -2  382.85   21.94
  10   2  -2  381.18   24.61
  10   2  -2  400.30   22.83
  10   2   2  414.61   24.89
  11   2  -2   19.37    7.57
  11   2  -2   26.05    7.18
  11  -2  -2   24.74   11.80
 -10   3  -2  203.73   35.64
 -10  -3  -2  448.88   25.60
 -10   3   2  529.56   29.99
 -10  -3   2  468.62   26.79
 -10   3  -2  493.24   28.67
 -10  -3  -2  293.15   22.88
  -9  -3  -2   51.97   12.24
  -9  -3   2   84.92   11.08
  -9  -3   2   98.76    8.46
  -9   3  -2  102.56   18.71
  -9  -3  -2   89.24   10.82
  -9  -3  -2   42.19    8.78
  -9   3   2  123.69   26.61
  -9   3  -2   18.48   13.63
  -9  -3  -2   75.04   11.40
  -9   3   2  111.81   19.66
  -9   3  -2  116.25   19.03
  -8  -3  -2  784.04   35.46
  -8  -3   2  843.31   24.13
  -8   3   2  694.60   28.21
  -8  -3  -2  729.54   31.65
  -8   3   2 1056.67   72.13
  -8   3   2  819.59   49.70
  -8  -3  -2  544.11   30.09
  -8  -3   2  706.89   31.85
  -8  -3  -2  533.98   35.40
  -8   3  -2  840.58   49.71
  -8   3  -2  328.89   43.30
  -7  -3  -2  221.69   16.95
  -7   3   2  238.51   25.06
  -7   3   2  198.06   12.95
  -7  -3  -2  221.60   15.02
  -7  -3   2  217.37   15.26
  -7  -3  -2  182.68   17.91
  -7   3  -2  252.81   25.57
  -7   3   2  315.25   40.45
  -7  -3  -2  147.43   13.77
  -6  -3  -2 1234.12   43.46
  -6   3   2 1046.57   35.27
  -6  -3   2 1090.25   38.74
  -6  -3  -2 1002.07   38.88
  -6   3   2  830.31   41.57
  -6  -3  -2  963.55   42.48
  -6   3   2 1250.63   43.19
  -6   3  -2  723.43   59.19
  -6   3  -2 1236.16   56.72
  -6   3  -2 1142.30   37.81
  -6   3  -2 1353.53   44.18
  -6   3  -2 1044.75   59.96
  -6   3   2 1654.86   88.83
  -6   3   2 1186.19   56.08
  -6  -3  -2 1180.26   39.14
  -5  -3  -2  222.63   13.25
  -5  -3  -2  176.75   13.09
  -5   3  -2  225.42   13.12
  -5   3   2  261.21   22.65
  -5  -3  -2  243.81   16.62
  -5  -3   2  235.53   13.93
  -5  -3   2  265.74   15.55
  -5   3  -2  250.18   22.09
  -5   3   2  243.64   22.07
  -5  -3   2  177.30   17.19
  -5   3   2  185.29   15.63
  -5   3   2  210.95   11.55
  -5  -3  -2  186.44   14.09
  -5   3  -2  228.05   24.51
  -5   3  -2  165.90   25.76
  -5   3  -2  254.26   22.31
  -4   3  -2 1548.99   45.60
  -4   3  -2 1769.90   62.63
  -4   3  -2 1631.90   61.01
  -4  -3  -2 1430.37   46.21
  -4   3   2 1360.59   50.16
  -4  -3  -2 1591.12   42.06
  -4   3   2 1707.69   61.79
  -4   3   2 1728.55   62.47
  -4   3  -2 1555.86   49.91
  -4   3  -2 1253.05   71.56
  -4  -3  -2 1797.30   55.62
  -4  -3  -2 1380.22   43.96
  -4   3   2 1491.11   42.52
  -4  -3   2 1395.71   57.42
  -4  -3  -2 1443.73   44.98
  -4  -3   2 1661.89   48.40
  -4  -3   2 1526.02   45.91
  -4   3  -2 1593.46   66.16
  -3  -3  -2  207.29   11.51
  -3  -3   2  253.64   12.70
  -3   3   2  282.04   19.53
  -3   3  -2  251.42   18.59
  -3  -3   2  259.03   13.18
  -3   3   2  245.11   10.55
  -3   3   2  260.76   15.02
  -3   3  -2  202.38   23.89
  -3   3   2  283.21   19.55
  -3   3  -2  230.46   20.44
  -3  -3   2  218.38   19.64
  -3   3  -2  248.09   18.48
  -3  -3  -2  207.98    9.11
  -3  -3  -2  176.98   11.40
  -2  -3   2 1877.21   52.84
  -2   3  -2 2049.03   51.25
  -2   3  -2 2217.82   64.02
  -2   3  -2 2083.07   62.66
  -2   3   2 1945.98   61.47
  -2  -3  -2 1776.93   51.78
  -2   3   2 2158.00   72.43
  -2   3  -2 1861.56   76.94
  -2  -3   2 1840.27   57.57
  -2   3   2 1973.33   54.43
  -2  -3  -2 1870.81   52.27
  -2  -3  -2 1852.73   75.54
  -2  -3   2 1849.38   52.41
  -2  -3   2 1685.45   68.60
  -2   3   2 2091.13   62.88
  -2   3  -2 1981.90   66.27
  -1  -3   2  451.01   14.59
  -1   3   2  469.81   17.98
  -1   3  -2  565.30   20.11
  -1  -3   2  533.64   23.39
  -1   3  -2  516.17   31.80
  -1  -3   2  481.49   30.90
  -1   3  -2  595.14   25.05
  -1   3  -2  560.76   26.23
  -1  -3  -2  460.10   17.95
  -1   3   2  582.74   32.73
  -1  -3  -2  546.55   16.61
  -1   3   2  555.80   24.14
  -1   3  -2  584.77   24.81
  -1   3   2  566.82   24.40
   0   3   2 2086.03   52.97
   0  -3  -2 1983.44   61.28
   0   3  -2 2251.18   62.44
   0   3  -2 2172.09   56.49
   0   3   2 2127.18   55.56
   0   3  -2 2161.36   55.71
   0   3  -2 2349.74   63.54
   0   3  -2 2287.89   70.71
   0   3   2 2081.85   55.53
   0  -3   2 1760.26   59.65
   0   3   2 1999.37   60.65
   0   3   2 2408.13   79.97
   0   3   2 2193.07   60.36
   0  -3  -2 2060.95   60.21
   0   3  -2 2210.67   63.00
   0  -3   2 2069.48   63.79
   0   3   2 2035.79   61.30
   0  -3   2 1711.90   73.47
   0  -3  -2 2195.06   55.41
   1   3   2  539.04   23.64
   1   3   2  561.85   22.23
   1   3   2  473.00   18.89
   1   3  -2  558.11   19.94
   1  -3  -2  546.63   23.48
   1   3   2  553.93   19.03
   1   3   2  544.16   16.41
   1   3  -2  581.33   24.57
   1   3  -2  523.66   23.68
   1   3   2  490.13   26.75
   1   3   2  565.88   35.64
   1   3  -2  611.02   20.36
   1  -3   2  528.14   27.34
   1  -3  -2  551.92   25.30
   1   3   2  559.78   22.55
   1  -3  -2  519.94   33.51
   1  -3   2  528.84   20.10
   1   3  -2  569.27   19.00
   1  -3   2  521.37   24.69
   2   3  -2 1867.82   55.69
   2   3   2 1824.46   50.52
   2   3  -2 1815.73   49.53
   2   3   2 1698.21   54.09
   2  -3  -2 1745.39   58.62
   2   3   2 1884.38   53.91
   2   3   2 1919.75   49.97
   2  -3   2 1893.02   66.54
   2  -3   2 1792.96   59.01
   2  -3  -2 1798.97   70.65
   2  -3   2 1759.25   56.61
   2  -3  -2 1947.49   57.42
   2  -3  -2 1658.15   55.51
   2   3  -2 1878.23   49.44
   2   3   2 1783.81   56.45
   2  -3  -2 1696.71   56.14
   2   3   2 1982.46   51.54
   3   3   2  251.20   11.94
   3  -3   2  242.48   16.84
   3  -3  -2  205.97   15.53
   3   3   2  243.61   13.11
   3   3   2  252.18   12.33
   3  -3  -2  197.97   14.44
   3  -3   2  225.30   14.31
   3   3  -2  218.24   11.11
   3  -3  -2  196.36   16.20
   3  -3   2  257.53   18.41
   3   3   2  249.21   27.92
   3  -3  -2  219.84   21.05
   3  -3   2  211.57   20.72
   3   3  -2  289.11   23.41
   3   3  -2  212.06   11.40
   4  -3   2 1322.46   54.12
   4   3   2 1685.57   71.82
   4   3   2 1490.37   43.38
   4  -3  -2 1241.47   50.66
   4   3  -2 1422.76   42.41
   4   3   2 1513.60   47.18
   4  -3  -2 1512.42   61.16
   4   3   2 1511.98   45.08
   4   3   2 1513.56   42.47
   4  -3   2 1339.01   52.22
   4   3  -2 1881.35   66.52
   4   3   2 1368.86   54.67
   4   3   2 1141.14   64.14
   4  -3   2 1456.17   48.98
   4  -3  -2 1156.58   51.69
   4  -3  -2 1184.60   48.52
   4   3  -2 1442.58   41.58
   5   3   2  207.70   13.70
   5  -3  -2  221.22   20.88
   5   3   2  217.20   13.07
   5   3  -2  215.79   12.65
   5   3  -2  205.84   11.76
   5   3  -2  315.81   24.96
   5   3   2  223.67   15.99
   5   3   2  179.49   15.76
   5  -3  -2  179.38   17.07
   5   3   2  133.32   20.14
   5  -3  -2  138.19   14.36
   5   3   2  244.29   26.30
   5  -3   2  173.81   17.18
   5   3   2  223.02   12.49
   5  -3   2  203.77   11.20
   5  -3  -2  160.88   17.45
   5  -3   2  197.06   19.45
   6   3   2 1031.63   35.95
   6  -3  -2  825.09   43.21
   6   3  -2 1637.22   60.08
   6   3   2  719.82   46.52
   6  -3  -2 1310.41   53.59
   6   3   2 1192.03   62.54
   6   3   2 1037.99   34.82
   6  -3   2  755.64   42.70
   6   3  -2 1099.10   34.69
   6  -3  -2  763.67   45.10
   6   3  -2 1067.13   35.65
   6   3   2 1011.22   37.32
   6  -3   2  799.05   46.53
   6  -3   2  901.05   32.29
   7   3   2  210.18   15.39
   7  -3   2  136.12   11.20
   7  -3  -2  238.70   21.89
   7   3   2  250.85   28.90
   7   3  -2  296.16   24.73
   7   3  -2  194.54   13.85
   7  -3  -2  140.35   18.63
   7   3   2  157.91   17.42
   7   3  -2  189.98   13.64
   7  -3   2  123.49   18.39
   8  -3  -2  900.26   42.72
   8   3  -2 1040.92   46.98
   8  -3  -2  453.19   36.51
   8   3  -2  607.05   27.27
   8   3   2  918.57   56.74
   8  -3   2  411.86   35.87
   8   3   2  686.47   30.47
   9   3  -2   86.12   11.08
   9   3   2   94.09   11.41
   9   3   2  101.97   12.28
   9  -3  -2   76.93   13.50
   9  -3   2   33.26    6.77
   9  -3  -2   52.47   13.85
   9  -3   2   59.60   15.01
   9   3  -2   78.01    9.87
   9   3  -2  101.67   15.39
  10   3  -2  403.19   25.54
  10   3   2  437.01   25.76
  10   3   2  437.22   27.07
  10  -3   2  300.22   32.86
  10   3  -2  399.33   23.36
  10  -3  -2  532.78   32.27
  10  -3  -2  355.44   34.60
 -11  -4  -2   98.30   11.81
 -10  -4  -2  341.87   20.76
 -10  -4   2  400.62   26.00
  -9  -4  -2  122.07   11.36
  -9  -4   2  129.73   14.24
  -9  -4  -2   99.99   11.68
  -9   4  -2   86.51   18.03
  -9  -4   2  102.68   12.15
  -9   4   2  101.14   19.25
  -9   4   2  158.17   32.08
  -9  -4  -2   71.04   10.79
  -8   4   2  398.35   20.13
  -8  -4  -2  362.50   23.25
  -8  -4  -2  535.33   23.23
  -8   4  -2  250.54   38.67
  -8   4   2  502.48   39.39
  -8  -4   2  559.85   28.01
  -8  -4  -2  456.24   24.42
  -8  -4   2  478.37   25.46
  -8  -4  -2  341.47   23.90
  -8   4  -2  535.47   40.27
  -8   4   2  669.02   61.39
  -7  -4  -2  152.08   10.96
  -7  -4   2  150.23   13.52
  -7   4   2  101.18    9.07
  -7   4  -2  148.35   20.16
  -7  -4  -2  100.05   11.11
  -7   4  -2   59.17   19.77
  -7  -4  -2   98.10   11.21
  -7  -4   2  120.01   11.82
  -7  -4  -2  128.18   11.87
  -7   4   2  137.78   19.70
  -7   4   2  147.59   30.55
  -6  -4   2  840.53   32.06
  -6  -4  -2  785.21   26.14
  -6   4  -2  498.98   50.33
  -6  -4  -2  665.93   29.52
  -6   4   2 1080.70   73.86
  -6  -4   2  714.56   29.85
  -6   4  -2  783.24   44.91
  -6  -4  -2  702.67   29.11
  -6  -4  -2  638.84   26.52
  -6   4   2  671.01   25.20
  -6   4   2  559.21   31.04
  -6   4   2  772.40   44.67
  -6   4   2  449.64   42.81
  -5   4   2  251.19   23.08
  -5   4  -2  150.42   26.76
  -5  -4  -2  229.11   14.41
  -5  -4   2  223.00   14.52
  -5   4  -2  252.30   14.30
  -5  -4  -2  251.27   11.94
  -5   4   2  200.22   11.56
  -5   4  -2  313.34   25.63
  -5  -4   2  267.53   15.63
  -5   4   2  241.51   22.85
  -5   4  -2  263.01   23.96
  -5  -4  -2  191.02   13.92
  -5   4   2  359.24   41.64
  -5  -4   2  168.04   19.44
  -5  -4  -2  221.83   10.27
  -5   4  -2  242.09   25.70
  -5   4   2  213.63   16.39
  -5   4   2  132.76   22.18
  -4  -4  -2  942.70   34.33
  -4  -4   2 1081.98   35.83
  -4   4   2 1136.81   48.62
  -4  -4  -2  977.02   29.88
  -4   4  -2  943.17   33.41
  -4  -4   2 1034.65   33.44
  -4   4   2 1002.34   31.09
  -4   4  -2 1125.89   49.13
  -4   4   2  994.60   37.77
  -4   4  -2  799.49   58.75
  -4  -4  -2  961.06   34.49
  -4   4   2  937.20   54.79
  -4  -4   2  882.17   47.92
  -4   4  -2 1105.82   48.47
  -4   4  -2 1062.53   52.57
  -4   4   2 1082.62   48.43
  -4  -4   2 1040.75   35.79
  -3   4  -2  363.55   24.04
  -3   4   2  345.99   23.00
  -3   4  -2  327.94   23.00
  -3  -4  -2  270.81   14.76
  -3   4  -2  320.89   25.08
  -3  -4   2  306.79   16.02
  -3  -4   2  331.78   16.35
  -3   4   2  306.15   27.43
  -3   4   2  322.72   17.28
  -3  -4   2  269.72   25.35
  -3  -4   2  323.54   18.20
  -3  -4  -2  295.38   15.44
  -3   4   2  324.93   22.60
  -3  -4  -2  268.14   27.82
  -3   4  -2  269.18   30.59
  -3  -4   2  284.45   13.36
  -3  -4  -2  314.81   12.75
  -2  -4  -2 1041.78   58.53
  -2   4   2 1164.81   36.18
  -2   4  -2 1156.32   38.87
  -2  -4   2 1026.72   54.87
  -2  -4   2 1181.07   37.92
  -2  -4   2 1202.22   41.57
  -2  -4   2 1212.20   33.01
  -2   4  -2 1283.75   48.08
  -2   4  -2 1184.37   48.76
  -2   4  -2 1090.44   60.07
  -2   4   2 1369.28   59.49
  -2   4   2 1289.41   47.45
  -2   4   2 1238.21   52.58
  -2   4   2 1209.54   46.72
  -2  -4  -2 1081.60   35.81
  -2   4  -2 1272.50   47.45
  -2   4  -2 1231.36   36.45
  -1   4  -2  301.82   14.85
  -1  -4   2  197.48   22.49
  -1   4  -2  310.01   14.06
  -1   4  -2  312.51   19.26
  -1   4   2  326.52   18.05
  -1   4   2  227.19   12.14
  -1   4  -2  300.59   19.41
  -1  -4   2  267.71   16.94
  -1  -4  -2  282.73   12.44
  -1   4  -2  292.61   25.55
  -1   4   2  288.10   25.80
  -1   4   2  286.69   18.45
  -1   4  -2  312.78   19.59
  -1   4   2  293.61   19.06
  -1  -4   2  236.48    9.06
  -1   4   2  277.18   18.41
   0   4  -2 1324.12   46.00
   0   4   2 1260.74   42.00
   0   4   2 1221.94   35.04
   0   4  -2 1287.21   52.83
   0   4   2 1223.14   44.60
   0   4  -2 1359.38   46.39
   0   4  -2 1242.37   37.92
   0   4   2 1170.04   43.81
   0  -4  -2 1229.46   37.50
   0   4  -2 1227.88   38.23
   0  -4   2 1159.85   45.34
   0  -4   2  950.48   55.16
   0   4   2 1311.10   36.68
   0   4   2 1260.25   37.41
   0   4   2 1482.76   63.61
   0   4   2 1244.71   37.96
   1   4   2  274.17   13.41
   1   4   2  237.29   12.90
   1   4  -2  299.97   14.34
   1   4   2  275.77   11.33
   1  -4   2  254.50   14.30
   1  -4  -2  279.85   27.27
   1  -4  -2  256.47   18.34
   1   4   2  236.22   19.49
   1  -4  -2  256.66   16.77
   1  -4   2  195.08   23.08
   1   4  -2  333.06   15.81
   1   4  -2  267.48   17.89
   1  -4   2  250.38   14.47
   1  -4   2  219.70   16.94
   1  -4  -2  286.77   15.03
   1   4  -2  308.33   18.89
   1   4   2  264.98   17.46
   1   4   2  305.59   28.20
   1   4  -2  300.07   13.73
   1  -4   2  244.64   19.50
   2   4   2 1219.85   36.51
   2  -4  -2 1033.73   56.93
   2   4   2 1271.43   37.90
   2   4  -2 1130.80   35.56
   2  -4  -2  996.70   41.37
   2  -4   2 1097.34   46.09
   2   4   2 1210.62   44.01
   2  -4  -2 1047.21   45.38
   2   4  -2 1261.14   45.10
   2  -4   2 1144.42   39.49
   2   4   2 1137.83   42.49
   2   4  -2 1278.00   38.72
   2  -4   2 1211.62   52.36
   3   4   2  296.85   15.69
   3  -4   2  287.16   19.93
   3   4   2  337.81   15.35
   3  -4   2  305.62   22.23
   3   4  -2  411.30   32.69
   3   4  -2  339.91   20.41
   3   4   2  308.22   19.14
   3  -4  -2  278.00   21.28
   3   4  -2  314.49   14.72
   3  -4  -2  267.67   26.74
   3  -4  -2  258.92   18.65
   3  -4  -2  293.78   19.17
   3  -4  -2  281.87   19.57
   3   4   2  357.67   32.60
   4   4   2 1044.87   33.07
   4   4  -2  993.87   32.22
   4  -4   2  878.32   41.06
   4   4   2 1071.57   34.46
   4   4  -2 1280.28   60.03
   4   4   2 1051.06   34.02
   4   4   2 1232.26   64.11
   4  -4   2  664.95   49.02
   4  -4  -2  816.71   39.54
   4   4   2  983.12   34.88
   4  -4  -2  776.91   41.74
   4  -4   2  876.25   43.97
   4   4  -2  974.63   33.24
   4  -4  -2  852.60   38.15
   4  -4  -2  952.62   52.68
   5   4   2  176.78   17.39
   5  -4   2  167.21   17.46
   5   4  -2  218.71   13.62
   5   4   2  132.04   22.78
   5  -4  -2  184.28   17.92
   5   4   2  212.46   14.45
   5   4  -2  330.84   29.43
   5  -4  -2  176.77   15.77
   5   4   2  222.56   13.91
   5  -4  -2  243.99   25.05
   5   4   2  269.96   30.37
   5   4   2  219.69   13.04
   5  -4  -2  194.38   19.88
   5  -4   2  178.10   19.19
   5   4  -2  226.51   13.00
   6   4   2  616.90   30.63
   6   4  -2  666.86   26.74
   6  -4   2  491.94   35.32
   6   4   2  684.10   27.50
   6   4   2  392.01   37.95
   6  -4  -2  833.48   46.91
   6   4   2  756.57   52.51
   6   4   2  659.01   28.57
   6   4  -2 1061.51   53.46
   6  -4  -2  509.92   35.27
   6  -4  -2  422.61   27.63
   7   4   2  102.38   10.96
   7  -4   2   89.27    8.54
   7  -4  -2   46.28    9.51
   7  -4  -2  145.52   19.70
   7   4  -2  158.03   21.82
   7   4   2  101.76   10.49
   7   4   2   84.38   17.87
   7  -4  -2   88.79   14.99
   7  -4   2   67.36   13.41
   7   4  -2  106.79   10.56
   8   4  -2  395.40   21.58
   8  -4   2  296.63   17.05
   8  -4  -2  266.53   27.57
   8   4   2  422.41   23.57
   8  -4  -2  530.01   36.63
   8   4  -2  676.23   42.60
   8   4   2  406.93   22.48
   8  -4   2  274.85   28.38
   8  -4  -2  181.49   19.36
   9   4  -2   90.90   10.76
   9  -4   2   50.79   14.07
   9  -4  -2   36.60    9.34
   9  -4  -2  112.87   17.59
   9  -4  -2   59.90   14.58
   9   4   2   95.70   11.79
  10  -4  -2  130.04   16.71
  11  -4   2   69.22   18.48
  -9  -5   2   84.78   11.88
  -9  -5  -2  111.21   10.15
  -9  -5   2  130.94   14.17
  -9  -5  -2   72.92   11.71
  -8  -5  -2  389.33   23.20
  -8  -5   2  458.52   24.72
  -8  -5  -2  410.00   19.40
  -8   5   2  404.68   36.12
  -8  -5   2  337.27   21.81
  -8   5  -2  459.88   38.07
  -8  -5  -2  348.52   22.73
  -8  -5   2  389.70   23.91
  -7  -5   2  233.38   16.43
  -7  -5  -2  232.27   13.18
  -7  -5  -2  187.62   15.22
  -7  -5  -2  168.30   14.75
  -7   5  -2  217.99   25.32
  -7  -5   2  158.23   13.89
  -7   5   2  177.07   11.92
  -7  -5   2  197.58   16.07
  -7   5   2  194.41   24.03
  -6  -5   2  577.57   26.51
  -6  -5  -2  581.99   21.91
  -6  -5   2  543.53   26.88
  -6   5   2  577.98   39.58
  -6  -5   2  517.14   24.47
  -6   5  -2  602.61   40.46
  -6   5   2  488.65   21.10
  -6  -5  -2  528.67   25.83
  -6  -5  -2  581.00   27.00
  -5  -5   2  256.84   15.92
  -5  -5   2  198.61   13.24
  -5   5  -2  260.08   27.10
  -5   5   2  270.57   25.18
  -5   5  -2  300.06   26.48
  -5  -5   2  246.71   16.37
  -5  -5  -2  192.75   14.14
  -5  -5  -2  233.13   15.67
  -5  -5  -2  246.34   12.54
  -5   5  -2  163.54   29.37
  -5   5   2  214.75   12.23
  -5  -5   2  259.80   17.10
  -5   5   2  172.06   24.18
  -5  -5   2  194.47   23.85
  -4   5  -2  711.35   39.53
  -4  -5  -2  568.89   24.63
  -4  -5   2  515.53   39.17
  -4   5   2  621.88   42.17
  -4   5  -2  488.38   47.20
  -4  -5   2  640.60   27.67
  -4   5   2  620.24   27.91
  -4   5  -2  594.10   38.90
  -4  -5   2  674.88   27.09
  -4   5   2  598.75   22.23
  -4   5   2  723.20   39.40
  -4   5  -2  584.17   18.24
  -4  -5  -2  568.91   25.80
  -4  -5   2  603.67   26.86
  -4  -5   2  631.05   23.35
  -3   5   2  280.79   22.42
  -3   5   2  296.33   22.73
  -3   5  -2  198.44   28.13
  -3   5   2  233.00   13.04
  -3   5  -2  266.96   22.04
  -3  -5   2  224.87   25.63
  -3  -5  -2  201.42   26.20
  -3   5  -2  259.36   22.87
  -3  -5   2  246.06   11.70
  -3   5  -2  249.73   16.09
  -3   5  -2  277.84   22.48
  -3  -5   2  259.87   15.98
  -3  -5  -2  202.56   12.86
  -3   5   2  300.33   25.51
  -3  -5   2  282.38   15.61
  -3   5  -2  188.42    7.22
  -2   5   2  917.18   41.36
  -2  -5  -2  737.03   51.45
  -2   5   2  906.03   40.45
  -2   5  -2  923.30   41.87
  -2  -5  -2  794.35   28.82
  -2  -5   2  824.73   33.61
  -2  -5  -2  778.82   27.37
  -2  -5   2  838.20   24.86
  -2   5  -2  867.75   32.26
  -2  -5   2  717.91   48.89
  -2   5  -2  868.18   40.49
  -2   5  -2  788.26   52.81
  -2   5   2  836.80   28.90
  -2   5   2  919.33   40.58
  -2   5  -2  966.46   41.98
  -2   5  -2  918.73   31.26
  -1   5   2  426.49   22.79
  -1   5  -2  377.16   18.55
  -1   5  -2  401.36   32.97
  -1   5   2  371.87   18.39
  -1   5   2  332.09   16.34
  -1   5  -2  405.81   19.23
  -1   5  -2  397.66   25.14
  -1  -5   2  298.20   31.03
  -1   5  -2  388.62   23.08
  -1   5   2  464.13   37.03
  -1   5   2  399.71   17.17
  -1   5  -2  422.33   18.82
  -1  -5  -2  381.11   16.95
  -1   5   2  387.00   20.30
  -1   5   2  390.11   23.99
  -1   5  -2  429.50   25.47
  -1  -5   2  339.79   21.05
  -1   5   2  392.69   24.56
   0  -5   2  741.89   52.32
   0  -5   2  966.23   35.86
   0   5  -2 1012.57   34.80
   0   5   2  978.94   31.54
   0   5   2 1267.48   63.44
   0   5   2 1041.68   35.19
   0  -5   2  995.81   43.01
   0  -5  -2  999.27   34.73
   0   5  -2 1067.88   50.18
   0   5   2 1001.72   42.39
   0   5   2 1090.73   43.19
   0   5   2 1060.39   34.04
   0   5  -2 1089.35   35.44
   0   5  -2 1121.92   44.60
   0   5  -2 1114.20   44.19
   0   5   2 1095.01   39.39
   1   5  -2  413.35   24.36
   1   5  -2  406.72   18.84
   1   5   2  379.77   15.64
   1   5   2  348.93   17.11
   1  -5  -2  303.58   22.21
   1  -5  -2  323.12   32.76
   1  -5  -2  324.22   20.98
   1  -5   2  317.63   22.37
   1  -5  -2  373.21   19.25
   1   5  -2  421.78   24.70
   1   5   2  359.18   22.64
   1   5   2  386.52   21.30
   1   5   2  446.11   37.37
   1  -5   2  361.30   19.32
   1   5   2  389.25   23.33
   1  -5   2  255.78   29.47
   1  -5   2  384.18   26.75
   1   5   2  311.66   24.42
   1   5   2  374.70   17.75
   1   5  -2  403.96   18.15
   1   5  -2  427.31   24.84
   1   5   2  394.34   21.17
   2  -5  -2  762.92   39.45
   2   5  -2  841.28   29.63
   2  -5  -2  706.86   50.01
   2  -5   2  796.48   32.80
   2   5   2  759.52   35.05
   2  -5   2  778.00   32.61
   2   5   2  926.28   35.48
   2   5  -2  950.49   33.63
   2  -5  -2  703.56   34.61
   2   5   2  886.26   38.20
   2   5   2  870.29   30.09
   2  -5   2  745.90   39.18
   2   5  -2  878.52   38.89
   3   5  -2  275.93   16.57
   3   5   2  256.53   15.40
   3   5   2  283.95   15.06
   3  -5  -2  190.99   17.08
   3  -5   2  268.89   18.05
   3  -5   2  241.15   21.65
   3  -5   2  260.35   17.67
   3   5  -2  248.96   14.04
   3   5  -2  279.40   21.04
   3   5   2  288.04   20.79
   3  -5  -2  195.48   25.95
   3   5   2  340.67   34.63
   3   5   2  283.88   18.19
   3  -5  -2  205.90   20.22
   4  -5  -2  461.42   29.13
   4   5  -2  602.24   25.25
   4   5   2  561.55   25.48
   4   5  -2  697.99   28.49
   4   5   2  621.35   22.32
   4  -5  -2  568.89   43.48
   4  -5  -2  479.50   32.63
   4  -5   2  395.99   39.31
   4   5   2  631.33   25.84
   4  -5   2  570.47   29.18
   4  -5   2  526.06   34.21
   4  -5   2  530.12   28.43
   5  -5  -2  194.96   17.21
   5  -5   2  185.50   26.76
   5   5   2  239.38   15.94
   5   5  -2  226.29   14.69
   5   5   2  233.53   15.11
   5  -5  -2  248.16   28.43
   5   5  -2  288.31   31.39
   5  -5  -2  198.55   21.07
   5  -5   2  180.08   20.43
   5   5   2  133.38   25.56
   5   5   2  171.76   19.66
   6   5   2  521.35   24.54
   6   5  -2  544.00   24.57
   6   5  -2  507.26   25.04
   6   5   2  479.62   29.05
   6   5   2  291.90   36.55
   6  -5   2  521.60   45.32
   6  -5  -2  381.59   31.38
   6  -5   2  411.46   32.99
   6  -5  -2  616.72   44.17
   6  -5  -2  348.75   24.91
   6   5   2  497.50   25.02
   7   5   2  188.38   14.60
   7   5  -2  188.18   14.33
   7  -5  -2  107.48   13.85
   7   5   2  175.10   14.82
   7  -5   2  208.33   29.15
   7  -5  -2  241.33   27.63
   7   5  -2  194.61   15.38
   7  -5  -2  132.02   19.23
   7  -5   2  115.99   18.18
   8  -5  -2  160.87   17.62
   8   5   2  370.85   21.55
   8  -5  -2  234.21   26.15
   8  -5  -2  431.20   36.38
   8   5   2  337.46   21.41
   8  -5   2  405.33   40.74
   8   5  -2  363.24   20.88
   8  -5   2  217.74   26.11
   9  -5  -2  100.20   18.98
   9  -5   2  111.11   22.85
  10  -5   2  235.85   32.83
  -8  -6  -2  124.39   13.56
  -8  -6   2  139.86   13.77
  -7  -6   2  145.62   13.91
  -7  -6   2  136.40   14.32
  -7   6  -2  145.32   21.73
  -7  -6  -2  114.18   12.57
  -7  -6  -2  147.15   10.77
  -7  -6  -2  144.96   14.07
  -7  -6   2  116.52   11.77
  -7   6   2  131.33   21.02
  -6  -6   2  238.57   16.82
  -6  -6  -2  206.11   15.23
  -6  -6   2  206.20   14.17
  -6  -6   2  220.68   17.31
  -6   6   2  206.01   24.52
  -6   6  -2  158.22   31.43
  -6   6  -2  255.86   27.11
  -6  -6  -2  227.58   17.06
  -6  -6   2  167.48   23.88
  -5  -6  -2  154.96   12.71
  -5   6   2  146.23   10.19
  -5  -6   2  175.24   13.87
  -5   6   2  190.98   22.25
  -5  -6   2  165.89   11.54
  -5   6   2  122.59   10.62
  -5   6  -2  104.37   26.05
  -5  -6   2  140.86   22.70
  -5   6  -2  209.90   23.37
  -5  -6   2  172.04   11.97
  -5   6   2  143.48   21.68
  -4  -6   2  323.62   15.08
  -4   6   2  322.62   27.50
  -4   6  -2  390.50   30.15
  -4  -6  -2  344.56   18.01
  -4   6  -2  348.05   29.40
  -4   6   2  288.62   15.95
  -4   6  -2  291.59   38.49
  -4  -6   2  270.74   30.61
  -4   6   2  292.85   14.85
  -4  -6   2  330.96   17.01
  -4   6   2  294.85   27.72
  -3  -6   2  172.69   24.96
  -3   6  -2  218.25   21.23
  -3   6   2  238.26   22.14
  -3  -6  -2  172.37   12.28
  -3  -6  -2  159.80   25.53
  -3   6  -2  266.92   23.65
  -3   6  -2  192.42   29.63
  -3  -6  -2  216.46   12.36
  -3  -6   2  182.53   10.07
  -3   6   2  172.48   11.66
  -3  -6   2  197.23   13.39
  -3   6   2  223.82   21.03
  -2   6  -2  441.61   21.26
  -2   6   2  355.66   18.12
  -2   6   2  348.47   22.14
  -2   6  -2  380.65   37.80
  -2   6  -2  445.89   29.72
  -2   6   2  329.42   16.81
  -2   6  -2  406.73   26.36
  -2   6   2  399.21   28.00
  -2  -6   2  259.10   31.20
  -2  -6  -2  345.84   17.00
  -2  -6   2  355.27   20.45
  -2  -6  -2  280.97   33.76
  -1   6   2  256.27   21.54
  -1   6   2  237.82   13.57
  -1   6  -2  278.17   16.14
  -1   6  -2  311.07   23.91
  -1   6  -2  268.69   28.30
  -1   6   2  215.70   13.23
  -1  -6  -2  261.24   14.74
  -1  -6   2  178.59   26.42
  -1   6   2  239.16   13.36
  -1  -6   2  220.82   17.74
   0   6   2  309.02   15.15
   0   6   2  320.17   16.59
   0   6  -2  370.02   19.36
   0   6   2  327.07   23.67
   0   6  -2  356.79   28.41
   0  -6   2  288.32   18.10
   0  -6  -2  338.83   18.31
   0   6  -2  400.90   26.44
   1  -6   2  222.90   15.92
   1  -6  -2  196.78   28.09
   1   6  -2  276.97   21.00
   1   6  -2  282.86   22.18
   1   6   2  242.83   13.08
   1  -6  -2  268.96   16.86
   1   6   2  214.73   20.89
   1  -6   2  148.74   25.49
   1   6   2  245.29   20.30
   2  -6   2  307.27   19.62
   2  -6  -2  260.64   22.11
   2  -6   2  312.65   19.99
   2  -6  -2  304.79   22.04
   2  -6   2  264.75   22.35
   2  -6  -2  298.18   34.30
   2   6   2  316.28   21.33
   2   6   2  350.09   24.27
   3  -6   2  208.29   16.80
   3   6  -2  262.75   17.54
   3  -6   2  190.39   16.01
   3  -6  -2  172.86   17.07
   3  -6  -2  182.18   27.03
   3  -6   2  198.64   20.82
   3   6   2  200.03   14.33
   3  -6  -2  178.35   19.84
   4  -6  -2  228.35   20.63
   4  -6   2  270.16   25.61
   4  -6  -2  279.21   25.95
   4   6   2  297.21   18.42
   4   6   2  345.50   19.30
   4   6  -2  362.83   19.45
   4  -6   2  283.10   20.78
   4  -6   2  187.17   28.35
   4  -6  -2  329.18   35.59
   4  -6   2  304.26   21.53
   5   6   2  175.92   13.89
   5   6  -2  186.13   13.97
   5   6   2  168.12   13.96
   5  -6   2  128.82   14.85
   5  -6  -2   97.66   14.07
   5  -6  -2  184.05   27.11
   5  -6  -2  114.14   17.55
   5  -6   2  105.42   22.72
   5  -6   2  130.67   18.85
   6   6   2  207.70   15.56
   6   6  -2  218.65   15.65
   6  -6  -2   93.14   14.73
   6   6  -2  219.72   16.38
   6  -6   2  130.60   15.69
   6  -6  -2  228.40   29.90
   6  -6  -2  147.28   20.35
   6  -6   2  129.78   19.46
   6  -6   2  165.51   27.66
   6   6   2  188.53   15.35
   7   6   2  146.87   13.34
   7  -6  -2   76.53   15.75
   7   6   2  121.44   12.81
   7   6  -2  148.16   13.15
   7   6  -2  128.59   13.20
   7  -6  -2   45.16   11.01
   7  -6   2  128.06   24.97
   7  -6   2   86.39   16.78
   7  -6  -2  134.32   23.88
   8  -6   2  147.07   27.25
   8  -6  -2  150.23   24.78
  -6  -7   2  118.02   22.40
  -6  -7  -2  148.67   13.12
  -5  -7  -2  193.65   14.72
  -5   7  -2  168.42   33.88
  -5  -7   2  166.81   26.30
  -5  -7  -2  223.18   13.69
  -5  -7   2  196.74   12.46
  -4  -7  -2  153.32   11.28
  -4   7  -2  186.81   22.43
  -4  -7   2  156.45    9.86
  -4   7  -2  137.09   27.91
  -4   7   2  156.26   20.68
  -3   7  -2  285.84   26.47
  -3  -7  -2  186.76   30.03
  -3  -7   2  176.02   27.75
  -3   7   2  270.06   25.50
  -3  -7  -2  252.23   14.82
  -3   7  -2  227.56   33.34
  -2  -7  -2  178.03   28.56
  -2   7   2  195.40   20.97
  -2   7  -2  223.86   22.71
  -2   7  -2  169.88   26.49
  -2  -7  -2  189.56   13.06
  -2  -7   2  122.71   23.39
  -2  -7   2  184.58   14.86
  -1  -7  -2  293.00   17.46
  -1   7   2  326.47   26.37
  -1   7  -2  305.03   31.58
  -1  -7   2  288.79   19.00
  -1   7  -2  327.89   26.84
   0   7  -2  277.95   24.10
   0  -7   2  209.57   16.49
   0   7  -2  263.92   25.41
   0  -7  -2  251.00   16.79
   0   7   2  227.84   21.74
   1  -7   2  310.81   20.31
   1   7  -2  332.89   26.28
   1   7   2  312.79   25.06
   1  -7   2  193.69   30.21
   1  -7  -2  231.61   32.88
   2   7  -2  212.24   20.95
   2   7   2  200.93   19.94
   2  -7   2  176.32   15.88
   3  -7  -2  174.61   20.24
   3  -7  -2  185.90   18.80
   3  -7   2  245.90   19.44
   3   7   2  229.66   16.43
   3  -7   2  130.83   26.05
   3  -7   2  185.52   20.80
   3  -7  -2  207.48   31.00
   3   7   2  263.39   23.14
   3   7  -2  284.24   24.48
   3  -7   2  214.72   18.11
   4   7   2  156.65   13.64
   4   7   2  125.25   12.45
   4   7  -2  154.60   13.43
   4  -7  -2  109.13   14.70
   4  -7   2  109.86   13.87
   4  -7   2  110.36   17.47
   4  -7  -2  114.51   17.62
   4  -7  -2  156.01   27.14
   4  -7   2  117.33   14.18
   4  -7   2   87.65   22.44
   5   7   2  213.56   16.62
   5  -7   2  153.19   16.85
   5  -7  -2  137.49   17.32
   5  -7  -2  209.26   31.34
   5  -7   2  131.70   27.67
   6  -7  -2  172.84   29.60
   6  -7   2   87.31   13.67
   7  -7  -2  160.80   28.21
  -4   8  -2   72.92   22.06
  -3  -8   2  170.69   15.39
  -3   8  -2  173.72   29.85
  -2  -8   2  105.37   12.29
  -1  -8   2  218.21   17.56
  -1  -8  -2  223.44   16.44
   0  -8  -2   95.33   11.28
   0  -8   2  102.50   12.66
   1  -8   2  218.27   18.40
   3   8   2  160.15   14.46
 -12   0  -3   -2.35    9.88
 -12   0   3   -3.81   12.61
 -11   0  -3  545.73   28.98
 -11   0   3  530.28   29.57
 -10   0  -3   -0.80    7.83
 -10   0   3   -0.39    4.59
 -10   0  -3    2.12    8.75
 -10   0   3    5.57    7.47
 -10   0  -3    0.36    4.37
  -9   0  -3  893.05   36.32
  -9   0   3  946.70   38.02
  -8   0  -3    1.70    6.14
  -8   0   3    0.86    3.13
  -8   0  -3   -0.27    3.18
  -8   0  -3    0.76    7.06
  -8   0   3    0.31    3.24
  -8   0  -3    0.79    3.87
  -8   0  -3   -1.74    3.58
  -8   0  -3    2.66    7.80
  -7   0  -3  998.78   54.46
  -7   0  -3 1142.43   38.79
  -7   0   3 1151.94   39.78
  -7   0  -3 1171.72   39.67
  -7   0  -3  858.95   53.13
  -7   0  -3 1002.88   41.83
  -7   0   3 1151.29   40.54
  -7   0  -3  909.80   53.22
  -6   0  -3    1.28    5.15
  -6   0  -3   -0.21    2.40
  -6   0   3   -1.34    2.45
  -6   0  -3   -0.26    3.36
  -6   0   3    1.19    2.50
  -6   0  -3    0.22    2.22
  -6   0  -3    2.78    4.88
  -6   0  -3   -0.89    3.16
  -5   0  -3 1746.47   50.19
  -5   0   3 1790.39   51.31
  -5   0  -3 1738.57   53.67
  -5   0  -3 1624.84   50.87
  -5   0  -3 1500.51   66.65
  -5   0  -3 1618.60   65.99
  -5   0  -3 1714.65   50.59
  -5   0   3 1809.44   51.91
  -5   0  -3 1959.53   68.08
  -4   0  -3    0.42    3.95
  -4   0  -3    0.70    1.56
  -4   0  -3    1.63    2.12
  -4   0  -3    0.44    1.57
  -4   0   3   -0.30    1.73
  -4   0  -3    1.51    3.53
  -4   0  -3    1.95    2.09
  -4   0  -3    1.74    4.99
  -4   0   3   -0.16    1.61
  -3   0  -3 2508.89   89.07
  -3   0  -3 2775.90   71.07
  -3   0  -3 2780.81   70.45
  -3   0  -3 2647.43   69.39
  -3   0  -3 2643.10   69.43
  -3   0   3 2888.74   70.66
  -3   0  -3 2848.15   71.95
  -3   0   3 2995.04   70.81
  -3   0  -3 2687.61   82.52
  -3   0  -3 2579.46   95.20
  -2   0   3    2.61    5.13
  -2   0   3    0.29    0.91
  -2   0   3   -0.39    3.85
  -2   0  -3    0.31    1.15
  -2   0  -3    0.35    0.85
  -2   0   3    0.30    0.86
  -2   0  -3    0.28    0.88
  -2   0  -3    1.07    1.28
  -2   0  -3    2.60    6.05
  -1   0  -3 2606.44   63.02
  -1   0   3 2826.99   63.18
  -1   0  -3 2450.67   64.02
  -1   0  -3 2644.54   63.01
  -1   0  -3 2798.96   66.51
  -1   0   3 2878.62   63.20
  -1   0  -3 2724.31   65.84
  -1   0  -3 2710.12   66.09
   0   0  -3   -0.75    3.53
   0   0   3    0.58    0.98
   0   0  -3    2.56    2.91
   0   0   3    0.10    0.63
   1   0  -3 2375.37   64.25
   1   0   3 2602.16   62.53
   1   0   3 2956.72   64.93
   1   0   3 2576.44   65.15
   1   0   3 2779.95   74.13
   1   0  -3 2648.59   79.68
   1   0  -3 2439.76   98.15
   2   0   3   -0.34    1.19
   2   0   3    1.34    3.22
   2   0   3    1.07    1.08
   2   0   3    0.09    1.15
   2   0  -3    0.26    0.94
   2   0  -3    1.03    1.93
   2   0   3   -0.19    1.73
   2   0   3    1.38    2.57
   2   0   3    0.29    1.13
   2   0   3   -0.20    1.10
   2   0  -3   -0.82    6.74
   3   0   3 3138.32   72.75
   3   0   3 2706.75   71.27
   3   0  -3 2552.90   69.65
   3   0  -3 2283.75   75.02
   3   0   3 2553.00   78.00
   3   0   3 3210.55   89.28
   3   0  -3 2702.78   67.04
   3   0   3 3110.91   86.39
   3   0  -3 2302.13  100.44
   4   0   3    3.49    3.91
   4   0  -3   -0.67    2.61
   4   0  -3   -0.12    1.24
   4   0   3    0.58    1.86
   4   0   3   -0.37    2.69
   4   0  -3    0.18    1.82
   4   0   3    0.51    4.29
   4   0   3    0.40    1.84
   4   0  -3   -0.87    6.51
   5   0  -3 1729.38   47.04
   5   0  -3 1385.12   73.11
   5   0  -3 1504.46   58.19
   5   0  -3 1652.79   50.90
   5   0   3 1673.95   52.47
   5   0   3 1683.49   51.62
   5   0   3 1505.75   59.95
   6   0   3   -1.60    4.28
   6   0  -3    0.27    2.56
   6   0   3    0.30    2.62
   6   0  -3    0.48    4.01
   6   0  -3   -0.37    1.90
   6   0   3   -0.55    2.77
   6   0  -3   -1.69    5.93
   7   0   3 1080.07   40.38
   7   0   3 1032.41   41.46
   7   0  -3  910.84   46.54
   7   0  -3 1039.51   39.89
   7   0  -3  932.15   52.65
   7   0   3  916.03   48.54
   7   0  -3 1105.80   36.00
   8   0   3    1.55    3.74
   8   0   3    0.68    5.47
   8   0  -3    0.35    3.84
   8   0  -3    0.24    2.49
   8   0  -3    0.61    5.35
   8   0   3    0.35    3.27
   9   0  -3  822.84   32.87
   9   0   3  908.68   38.89
   9   0  -3  754.50   48.27
   9   0   3  819.60   52.08
  10   0  -3    0.88    7.12
  10   0   3    5.90    8.97
  10   0  -3    0.30    3.99
  11   0  -3  433.31   38.73
  11   0   3  442.80   41.05
  11   0  -3  456.50   24.25
 -11  -1   3  415.57   25.22
 -11   1  -3  218.85   33.20
 -11   1  -3  463.20   26.02
 -11  -1  -3  334.98   33.68
 -11  -1   3  442.50   39.33
 -11   1   3  434.26   25.85
 -11  -1  -3  425.79   24.66
 -10   1   3   10.36    5.90
 -10  -1   3   10.32    5.03
 -10   1  -3    3.69    8.65
 -10  -1  -3    9.27    5.35
 -10  -1  -3   15.91   10.18
 -10   1  -3   10.19    5.74
 -10  -1  -3    1.31    4.47
  -9   1  -3  440.87   43.67
  -9  -1  -3  422.32   27.82
  -9  -1  -3  594.76   42.43
  -9  -1  -3  621.54   33.21
  -9   1   3  818.33   34.96
  -9   1  -3  809.82   34.07
  -9   1   3  758.14   30.59
  -9  -1  -3  764.62   43.18
  -9  -1  -3  759.25   32.13
  -9  -1   3  746.00   32.70
  -8  -1  -3    5.29    6.64
  -8  -1  -3   10.91    7.48
  -8   1  -3   14.64    5.31
  -8  -1   3    7.65    4.14
  -8   1   3   10.82    5.15
  -8  -1  -3    9.39    4.50
  -8   1  -3   16.12    6.34
  -8  -1  -3   11.62    4.57
  -8  -1  -3    8.08    6.71
  -8   1  -3    9.53    8.32
  -8   1   3    9.45    4.04
  -7  -1  -3 1187.09   40.93
  -7   1  -3 1280.37   42.38
  -7  -1  -3 1070.89   37.13
  -7  -1  -3  967.13   51.27
  -7  -1  -3 1116.00   53.07
  -7   1  -3 1067.64   42.54
  -7  -1  -3  879.40   37.88
  -7   1  -3 1196.37   40.05
  -7   1  -3  741.42   53.80
  -7   1   3 1095.47   41.34
  -7   1  -3  931.33   55.62
  -7  -1  -3  888.46   49.92
  -7  -1  -3 1116.96   38.29
  -7  -1   3  980.45   36.95
  -7  -1   3  978.21   37.66
  -7   1   3 1119.50   37.12
  -6  -1  -3   17.19    7.24
  -6   1  -3   15.76    8.64
  -6  -1  -3   15.25    7.51
  -6  -1   3   15.62    4.75
  -6   1  -3   20.03    5.00
  -6   1   3   16.92    4.87
  -6  -1   3   11.63    3.86
  -6   1  -3   19.51    9.43
  -6  -1  -3   16.00    4.46
  -6  -1  -3   23.22    5.06
  -6  -1  -3   20.38    7.11
  -6   1  -3   21.36    4.70
  -6   1   3   15.89    3.72
  -6   1   3   27.70   14.77
  -6   1  -3   19.34    5.38
  -6  -1  -3   22.99    4.53
  -6  -1  -3   21.86    4.38
  -6  -1   3   19.96    4.49
  -5   1   3 1756.97   52.16
  -5  -1   3 1765.19   54.71
  -5  -1  -3 1726.33   50.27
  -5  -1   3 1453.80   46.59
  -5   1  -3 1901.29   52.30
  -5   1   3 1590.86   46.07
  -5  -1  -3 1600.22   46.67
  -5   1  -3 1678.08   51.88
  -5  -1  -3 1679.87   66.00
  -5   1  -3 1218.96   65.18
  -5   1   3 1714.42   63.99
  -5   1  -3 1818.63   63.39
  -5   1   3 2254.92   99.96
  -5  -1  -3 1503.24   59.54
  -5  -1  -3 1452.27   48.52
  -5  -1  -3 1621.90   47.13
  -5  -1   3 1463.07   47.00
  -4  -1   3   15.79    3.22
  -4  -1  -3   16.06    5.15
  -4  -1   3   20.87    5.64
  -4  -1   3   15.32    3.03
  -4  -1  -3   21.18    3.31
  -4  -1  -3   20.01    3.83
  -4   1  -3   21.23    4.05
  -4  -1  -3   20.19    7.29
  -4   1  -3   22.33    6.14
  -4   1  -3   22.38    4.20
  -4   1   3   19.87    3.99
  -4   1   3   13.93    5.31
  -4  -1   3   24.56    7.03
  -4  -1  -3   13.66    3.41
  -4  -1  -3   28.84    8.11
  -4   1   3   26.66   13.20
  -4   1   3   18.25    3.00
  -4  -1  -3   21.24    3.35
  -3  -1   3 2284.19   64.81
  -3  -1  -3 2348.55   62.29
  -3  -1  -3 2365.81   62.45
  -3  -1   3 2508.01   63.34
  -3   1   3 2444.16   61.15
  -3   1   3 2678.10   67.03
  -3  -1  -3 2499.32   84.63
  -3   1  -3 2702.89   75.90
  -3   1  -3 2446.52   65.77
  -3  -1  -3 2461.20   65.39
  -3   1   3 2639.43   76.93
  -3   1   3 2424.92   65.57
  -3   1  -3 2485.81   63.28
  -3  -1  -3 2474.48   65.77
  -3  -1   3 2845.58   78.96
  -3  -1  -3 2531.81   63.13
  -3  -1  -3 2366.82   72.09
  -3  -1  -3 3138.42   99.07
  -3   1   3 3434.55  124.49
  -3   1  -3 2707.49   66.57
  -3  -1   3 2436.48   63.12
  -2   1  -3   15.74    4.99
  -2  -1  -3   10.60    2.40
  -2   1   3   12.05    3.94
  -2  -1  -3   12.59    1.85
  -2  -1  -3   11.76    4.19
  -2   1   3   13.16    3.62
  -2   1  -3   13.83    3.54
  -2  -1  -3   13.24    2.38
  -2   1  -3    9.93    4.89
  -2  -1   3   13.69    2.00
  -2   1   3   11.32    3.23
  -2   1  -3   13.25    3.65
  -2  -1   3   15.64    4.40
  -2  -1  -3    9.81    7.62
  -2   1  -3   13.34    2.02
  -2  -1  -3   14.03    1.44
  -2  -1  -3   14.65    3.64
  -1  -1  -3 2388.53   57.69
  -1   1   3 2398.79   63.86
  -1  -1   3 2231.46   60.67
  -1   1  -3 2719.78   64.59
  -1  -1   3 2201.37   57.61
  -1   1  -3 2397.43   60.20
  -1   1   3 2341.99   63.19
  -1   1  -3 2733.54   64.21
  -1  -1  -3 2632.99   61.88
  -1   1  -3 2375.91   74.01
  -1   1   3 2287.21   68.97
  -1   1  -3 2471.57   70.45
  -1   1   3 2342.65   78.83
  -1   1  -3 2481.13   58.30
  -1  -1  -3 2553.79   59.27
  -1  -1  -3 2281.83   94.84
   0  -1  -3   34.74    3.59
   0   1   3   20.96    5.55
   0   1   3   20.93    2.85
   0   1   3   22.11    1.60
   0   1   3   23.47    2.69
   0  -1  -3   38.04    1.95
   0   1   3   21.73    1.87
   0  -1   3   21.35    2.64
   0   1   3   20.49    2.89
   0  -1   3   21.71    5.14
   0   1  -3   32.77    2.15
   0   1  -3   36.76    3.26
   0   1   3   22.69    2.54
   0   1  -3   35.71    3.09
   0   1   3   28.44   13.40
   1   1  -3 2376.35   73.45
   1  -1   3 2181.71   58.92
   1  -1  -3 2534.98   59.91
   1   1  -3 2425.05   55.42
   1   1   3 2283.45   55.62
   1   1   3 2279.48   55.52
   1  -1  -3 2457.55   59.19
   1  -1  -3 2187.73   96.38
   1  -1   3 2328.21   55.80
   1   1   3 2133.43   58.48
   1   1  -3 2336.79   68.55
   1   1   3 2087.14   92.39
   1  -1   3 2180.60   58.44
   1   1  -3 2384.12   55.47
   1   1   3 2280.27   63.98
   1  -1   3 2099.24   67.62
   1   1   3 2549.37   61.54
   1   1   3 2186.98   56.97
   1   1   3 2360.56   79.49
   2   1   3   13.78    3.88
   2  -1   3    4.65    3.61
   2  -1  -3   15.46    1.38
   2   1  -3   11.36    4.21
   2   1   3   10.63    5.45
   2   1   3   12.75    1.99
   2   1  -3   12.99    1.92
   2   1  -3   15.08    2.04
   2  -1  -3   12.09    8.65
   2  -1  -3   12.93    3.42
   2  -1   3   12.83    2.55
   2  -1   3   12.83    5.20
   2  -1   3   10.51    3.19
   2   1   3   11.42    2.33
   2  -1   3    9.89    2.93
   2   1   3   14.77    2.08
   2   1   3   12.91    2.57
   2  -1  -3   13.03    3.17
   2   1  -3    9.70    4.10
   2   1   3   11.34    7.86
   3   1   3 2516.79   61.85
   3   1  -3 2345.80   60.54
   3  -1  -3 2096.34   69.47
   3  -1   3 2270.30   71.61
   3  -1  -3 2369.63   58.11
   3  -1  -3 2043.70   67.57
   3  -1   3 2243.09   69.90
   3   1   3 2437.57   88.45
   3   1   3 2413.29   74.42
   3  -1   3 2592.06   84.82
   3   1   3 2346.04   63.35
   3   1   3 2457.60   61.21
   3  -1   3 2427.98   64.97
   3   1  -3 2329.79   60.01
   3  -1  -3 1982.92   94.20
   3  -1   3 2418.99   78.63
   3   1   3 2671.39   75.29
   4   1  -3   17.46    3.12
   4  -1   3   20.78    7.81
   4   1   3   18.99    3.57
   4  -1  -3   19.92    2.86
   4  -1  -3   17.37    5.16
   4  -1   3   15.52    5.48
   4   1   3   18.85    3.90
   4   1   3   17.59    5.99
   4  -1  -3   14.57    5.33
   4   1  -3   18.59    3.31
   4  -1  -3   16.32    3.38
   4  -1   3   17.89    5.65
   4   1   3   22.45    7.08
   4  -1  -3   20.09   10.28
   5   1  -3 1618.01   47.47
   5  -1  -3 1284.73   56.97
   5  -1   3 1440.05   47.89
   5  -1  -3 1934.58   44.09
   5   1  -3 1546.03   44.42
   5  -1  -3 1313.78   54.54
   5   1  -3 1489.52   54.09
   5  -1   3 1097.25   53.49
   5   1   3 1408.42   47.03
   5  -1   3 1130.80   56.34
   5  -1  -3 1570.25   43.25
   5  -1  -3 1318.06   70.20
   5   1   3 1543.79   61.45
   5   1  -3 1379.72   70.13
   5  -1   3 1600.23   69.11
   5   1   3 1519.42   48.07
   6  -1   3   11.23    6.25
   6  -1  -3   10.62    5.63
   6   1   3   18.52    4.75
   6  -1  -3   20.69    4.07
   6   1  -3   12.61    8.36
   6   1   3   12.09    4.09
   6  -1  -3   18.79    7.59
   6   1  -3   11.16    5.45
   6  -1  -3   20.63    3.35
   6   1  -3   18.54    4.55
   6  -1   3   16.37    4.80
   6   1   3   16.82    6.34
   6   1  -3   18.74    3.93
   6  -1   3    5.21    5.26
   7   1  -3 1042.06   35.89
   7   1  -3  961.36   46.48
   7  -1   3  771.02   49.06
   7  -1  -3  918.14   50.80
   7  -1   3  888.14   38.43
   7  -1  -3 1105.07   35.59
   7  -1   3  740.36   45.53
   7   1   3  963.73   39.61
   7   1   3  932.97   47.65
   7   1  -3 1042.72   39.25
   7  -1  -3 1323.53   31.68
   7  -1  -3  885.71   47.04
   7   1  -3  870.39   53.11
   7   1   3  985.33   39.07
   8  -1  -3    6.87    7.59
   8   1   3   12.72    5.50
   8   1   3   10.75    4.76
   8   1  -3   10.04    4.67
   8   1  -3   13.74    4.50
   8  -1  -3   14.96    4.44
   8  -1   3    6.80    6.68
   8   1  -3   10.73    7.64
   9  -1  -3  666.32   45.62
   9   1  -3  683.86   33.44
   9   1   3  722.08   35.60
   9   1  -3  680.23   29.47
   9  -1  -3  702.34   29.25
   9   1   3  735.71   34.07
   9  -1   3  584.56   44.87
  10  -1  -3    5.44    8.12
  10   1  -3    5.46    4.49
  10  -1   3    9.06    9.69
  10   1   3   10.75    5.58
  10  -1  -3    7.90    4.28
  10   1   3    8.46    5.90
  10   1  -3    9.27    5.29
  11  -1   3  375.08   25.52
  11  -1  -3  391.04   22.02
  11   1  -3  387.56   22.15
  11  -1  -3  365.70   35.58
  11  -1   3  302.20   34.30
  11   1   3  378.15   26.52
  11   1  -3  379.08   25.24
  12  -1  -3    4.82    5.51
 -11   2  -3  214.73   33.66
 -10  -2  -3   15.50    6.60
 -10  -2  -3   45.40    8.64
 -10   2  -3   41.97    9.03
 -10  -2   3   33.35    7.77
 -10   2  -3   21.35   13.94
 -10  -2   3   43.44   11.71
 -10   2   3   47.94    9.83
  -9  -2  -3  780.53   33.27
  -9  -2   3  759.00   33.86
  -9  -2  -3  514.57   39.24
  -9   2   3  784.95   31.09
  -9  -2  -3  510.45   30.75
  -9   2  -3  309.86   41.02
  -9   2  -3  897.05   37.65
  -9  -2   3  820.90   44.62
  -9   2   3  825.57   36.97
  -9   2  -3 1025.55   40.47
  -9  -2   3 1122.55   52.24
  -8  -2  -3   59.09    8.22
  -8   2   3   58.68    7.52
  -8  -2  -3   33.95    7.32
  -8   2  -3   24.64   12.68
  -8  -2   3   91.09   14.43
  -8  -2   3   59.23    8.57
  -8   2  -3   76.34   10.29
  -8   2   3   56.89    9.40
  -8  -2  -3   52.48   12.06
  -8   2   3  100.88   24.10
  -7  -2  -3 1180.17   41.65
  -7  -2  -3 1102.65   38.49
  -7  -2   3  985.14   38.08
  -7   2  -3 1120.52   38.94
  -7  -2   3  973.29   37.06
  -7  -2  -3 1074.65   37.15
  -7   2  -3 1282.48   43.71
  -7   2   3 1162.25   42.99
  -7  -2  -3  867.94   38.23
  -7   2  -3 1296.11   58.37
  -7   2  -3  621.63   53.64
  -7   2   3 1183.94   57.33
  -7  -2   3 1396.09   53.53
  -7   2  -3 1082.92   43.17
  -7  -2  -3  935.38   47.72
  -7   2   3 1631.40   90.31
  -7   2   3 1028.36   35.99
  -6  -2  -3   61.27    8.23
  -6  -2  -3   78.01    7.73
  -6  -2  -3  105.18   10.02
  -6  -2   3   86.86    8.40
  -6   2   3   95.58   10.30
  -6   2  -3  104.57   10.53
  -6  -2   3   83.97    8.56
  -6   2  -3   78.29   15.75
  -6  -2   3  108.00   12.75
  -6   2  -3  109.71   15.58
  -6   2  -3  105.00   10.89
  -6   2  -3   92.54    8.85
  -6   2   3   98.84   14.88
  -6  -2  -3   92.58    8.63
  -6  -2  -3   80.35   11.67
  -6   2   3   83.53    7.55
  -6   2   3  123.90   26.43
  -5   2   3 1803.17   55.51
  -5  -2  -3 1529.00   52.18
  -5   2   3 1646.11   48.51
  -5   2   3 1805.42   69.37
  -5   2  -3 1790.49   52.16
  -5  -2  -3 1560.63   58.15
  -5   2   3 2448.10  113.42
  -5   2  -3 1826.44   56.33
  -5   2  -3 1678.04   71.97
  -5  -2  -3 1733.96   50.76
  -5  -2   3 1915.60   59.50
  -5   2  -3 2050.60   56.88
  -5  -2  -3 1887.16   54.24
  -5   2  -3 2008.45   70.50
  -5  -2   3 1620.89   50.85
  -4   2   3  164.64   11.43
  -4  -2  -3  154.66   10.43
  -4   2  -3  152.97   10.94
  -4   2   3  158.47   15.83
  -4  -2   3  145.02    9.39
  -4   2  -3  146.47    9.91
  -4   2  -3  156.75   15.47
  -4   2  -3  146.22   11.00
  -4  -2  -3  133.08    8.79
  -4   2  -3  134.70   19.10
  -4  -2   3  127.64   11.46
  -4   2   3  148.21    8.20
  -4  -2  -3  125.25   11.18
  -4  -2   3  162.95   12.33
  -4   2  -3  137.52   16.55
  -4  -2  -3  155.06   14.60
  -3   2  -3 2543.06   64.31
  -3   2  -3 2925.77   82.22
  -3   2   3 2586.68   63.84
  -3  -2  -3 2695.96   68.41
  -3   2   3 2775.17   81.75
  -3   2  -3 2938.73   82.07
  -3  -2  -3 2454.40   66.05
  -3   2   3 2654.52   77.85
  -3   2  -3 2402.83   91.37
  -3  -2   3 2622.09   66.88
  -3   2   3 2869.43   82.34
  -3  -2   3 2379.40   76.18
  -3  -2  -3 2407.27   70.19
  -3  -2  -3 2541.42   80.34
  -3   2  -3 2606.20   85.50
  -3   2  -3 2497.18   68.26
  -2  -2   3  170.78    8.53
  -2   2   3  182.11   13.21
  -2   2  -3  184.08   13.26
  -2  -2   3  172.06    9.82
  -2  -2  -3  176.07   15.63
  -2   2  -3  205.14   13.71
  -2  -2  -3  161.99    8.10
  -2   2  -3  135.57    5.94
  -2  -2   3  134.87   13.08
  -2   2   3  168.01    6.28
  -2  -2   3  181.26   12.55
  -2   2  -3  162.45   17.34
  -2   2   3  159.54   13.91
  -2   2  -3  166.47   14.98
  -2   2   3  194.06   13.47
  -1  -2   3 2612.23   75.77
  -1  -2   3 2315.53   65.66
  -1   2   3 2503.55   69.78
  -1   2  -3 2589.97   82.32
  -1   2  -3 2912.00   71.95
  -1   2   3 2447.15   65.48
  -1   2   3 2394.70   87.21
  -1  -2  -3 2836.22   86.37
  -1   2   3 2554.43   80.53
  -1  -2   3 2438.10   74.34
  -1   2  -3 2712.28   77.46
  -1   2  -3 2969.21   71.92
  -1   2   3 3262.85  124.95
  -1   2   3 2520.59   70.06
   0   2   3  126.39    6.48
   0   2   3  129.59    5.68
   0  -2   3  128.20    7.73
   0   2   3  153.64   10.53
   0   2   3  124.26    8.59
   0   2   3  117.05    7.49
   0  -2   3  112.85    4.22
   0   2   3  132.49    5.27
   0   2  -3  138.79    6.65
   0  -2   3  101.14    7.57
   0  -2   3  126.68   12.88
   0   2   3  133.08   14.10
   0  -2   3  125.38   11.31
   0   2   3  129.96    8.64
   0   2  -3  150.72    9.40
   0   2   3  117.54   13.62
   0   2   3  169.88   25.89
   0   2  -3  152.32    9.21
   0   2   3  122.19    8.23
   0  -2  -3  132.80    8.65
   1  -2  -3 2630.99   70.11
   1   2   3 2370.24   61.97
   1   2   3 2389.48   65.69
   1   2   3 2540.43   84.26
   1  -2   3 2294.66   66.96
   1   2  -3 2731.84   61.14
   1  -2   3 2382.23   61.06
   1   2  -3 2694.78   67.45
   1   2   3 2434.61   61.58
   1  -2  -3 2673.07   83.33
   1  -2  -3 2600.14   68.43
   1   2   3 2558.82   64.73
   1   2   3 2440.15   65.56
   1   2   3 2302.49   75.61
   1  -2   3 2337.25   74.54
   1   2  -3 2498.01   61.52
   1   2   3 2222.45   65.24
   1   2   3 2697.59  111.27
   1   2   3 2660.95   68.00
   1  -2   3 2755.99   84.22
   2   2   3  181.93   10.94
   2   2  -3  163.55    8.03
   2  -2  -3  152.53   10.84
   2  -2  -3  172.13   12.00
   2   2   3  164.73    8.07
   2   2   3  143.26   22.96
   2  -2  -3  168.05   12.87
   2   2   3  164.78    8.25
   2   2   3  170.52   10.99
   2  -2   3  160.94   11.19
   2   2  -3  155.32    7.71
   2  -2   3  186.24   18.78
   2  -2   3  176.99   10.23
   2  -2  -3  158.29   15.07
   2   2   3  149.94   17.17
   2   2  -3  155.64   11.59
   2   2   3  145.17    9.10
   2  -2   3  149.35   11.32
   2   2   3  159.81    8.99
   2   2   3  161.92   17.95
   3   2   3 2474.33   74.49
   3   2   3 2570.82   64.19
   3   2  -3 2420.57   63.04
   3  -2  -3 2329.54   71.46
   3  -2   3 2331.79   72.33
   3   2  -3 2300.33   71.52
   3   2   3 2475.86   84.79
   3  -2   3 2382.52   74.35
   3  -2   3 2460.87   68.18
   3  -2  -3 2624.45   78.78
   3   2   3 2475.07   66.18
   3   2   3 2548.71   63.59
   3   2  -3 2439.11   62.53
   3  -2  -3 2327.93   73.24
   3   2   3 2859.88   76.02
   4   2   3  139.22    9.17
   4   2  -3  130.66    8.58
   4   2  -3  127.68    8.13
   4  -2   3  122.73   12.73
   4  -2  -3  108.98   11.73
   4   2   3  140.94   13.46
   4   2   3  137.84   18.57
   4   2   3  136.26   15.33
   4   2   3  145.37    8.97
   4  -2  -3  154.24   14.19
   4  -2   3  137.85   11.30
   4   2   3  103.22   17.83
   4   2   3  133.38   10.04
   4  -2  -3  115.88   13.08
   4  -2   3  122.63   13.73
   5  -2  -3 1285.16   57.32
   5  -2   3 1244.92   57.95
   5   2   3 1636.38   48.04
   5   2  -3 1630.68   46.90
   5  -2   3 1575.00   41.22
   5   2  -3 1587.92   46.76
   5   2   3 1753.42   61.26
   5  -2  -3 1974.37   59.24
   5   2   3 1591.24   46.71
   5   2  -3 1614.76   45.75
   5  -2  -3 1271.61   54.44
   5   2   3 1584.94   49.99
   5  -2   3 1248.13   55.25
   5   2   3 1397.47   64.85
   5   2   3 1648.85   72.64
   6  -2  -3   56.95   11.32
   6  -2   3   62.19   12.25
   6   2   3   81.69    9.08
   6   2  -3   86.17    8.06
   6   2  -3   83.46    8.06
   6  -2  -3   82.77    7.32
   6  -2   3   56.39   10.89
   6  -2  -3   50.13   10.07
   6   2   3   83.08    8.30
   6   2   3   74.65   15.72
   6  -2  -3  104.12   11.41
   7  -2  -3  784.07   47.07
   7  -2   3  644.36   45.23
   7   2  -3  954.62   35.05
   7   2   3  986.31   36.75
   7  -2  -3  794.28   44.15
   7  -2   3  617.36   41.71
   7   2   3 1148.50   62.22
   7  -2  -3 1345.14   43.94
   7   2   3 1002.27   38.72
   7   2  -3  993.44   35.50
   7   2  -3 1475.90   44.39
   7   2  -3  930.74   55.55
   7  -2  -3 1016.63   34.15
   8   2  -3   57.07    7.73
   8  -2   3   35.90   11.52
   8   2  -3   54.52    8.35
   8   2   3   60.70    9.10
   8  -2  -3   35.55   10.95
   8  -2  -3   61.08    9.02
   8  -2  -3   60.28    7.50
   8   2  -3   72.09    9.16
   8   2   3   72.81   16.96
   8   2  -3   43.94   12.55
   8   2   3   55.83    8.61
   9  -2  -3  756.84   30.47
   9  -2   3  544.79   43.64
   9  -2  -3  639.99   44.91
   9   2  -3  614.88   37.93
   9   2   3  776.32   34.99
   9   2  -3  664.10   30.16
   9  -2  -3  945.25   33.22
   9   2   3  725.45   35.28
   9   2  -3  697.80   33.36
  10   2  -3   30.21    6.75
  10   2  -3   30.78    7.80
  10  -2  -3   29.73   11.55
  10   2   3   36.39    8.22
  10  -2   3   26.94   12.04
  10  -2  -3   37.40    6.83
  10   2   3   43.99    9.46
  11   2  -3  383.99   22.52
 -10   3   3   60.71   10.99
 -10   3  -3   56.56   10.50
 -10  -3  -3   48.26    8.81
 -10  -3   3   48.40    9.30
  -9  -3  -3  530.43   32.43
  -9  -3   3  510.53   21.58
  -9  -3  -3  520.27   26.52
  -9  -3   3  486.47   26.61
  -9   3  -3  224.16   35.88
  -9   3   3  539.34   41.26
  -9   3  -3  647.95   43.91
  -9  -3  -3  385.20   30.09
  -9   3   3  782.39   65.33
  -8  -3  -3   47.26   10.34
  -8  -3   3   65.27    7.34
  -8  -3   3   66.73    9.17
  -8   3   3   57.96    7.25
  -8  -3  -3   66.26    8.91
  -8   3  -3   85.31   16.01
  -8  -3  -3   63.27   11.57
  -8   3   3   87.79   16.62
  -8   3   3  109.16   27.81
  -7   3   3  790.81   47.11
  -7   3  -3  910.18   49.42
  -7  -3  -3  779.84   30.94
  -7  -3   3  742.66   25.99
  -7  -3   3  723.69   30.99
  -7   3   3 1037.11   77.16
  -7  -3  -3  853.95   39.49
  -7   3   3  673.59   26.92
  -7  -3  -3  676.77   35.12
  -6   3   3   93.84    7.93
  -6  -3   3  111.81   11.18
  -6  -3  -3  113.16   13.43
  -6   3  -3  107.38    9.47
  -6   3   3  110.47   11.24
  -6   3   3   88.95   15.05
  -6   3  -3  117.34   16.56
  -6  -3  -3   82.60   10.42
  -6  -3  -3  101.43    9.33
  -6  -3   3   90.17    9.25
  -6   3  -3   65.95   17.57
  -6   3   3   59.66    9.82
  -6   3  -3   97.78   18.17
  -6   3  -3  101.39   11.20
  -6   3   3  165.29   32.70
  -6   3  -3  122.10   11.73
  -5  -3  -3 1230.09   33.47
  -5   3  -3 1176.40   38.11
  -5  -3   3 1265.91   42.18
  -5   3  -3 1369.73   56.38
  -5   3   3 1049.25   33.98
  -5   3  -3 1161.12   41.87
  -5   3   3 1163.07   53.17
  -5   3   3 1183.81   52.99
  -5   3  -3 1338.06   55.04
  -5  -3   3  976.96   44.58
  -5  -3  -3 1125.00   37.23
  -5   3   3  826.24   40.42
  -5  -3   3 1102.59   37.72
  -5   3  -3  899.46   61.54
  -5  -3  -3 1280.86   49.12
  -5  -3  -3 1089.95   39.42
  -5   3  -3 1139.56   57.84
  -5  -3  -3 1066.73   39.13
  -5  -3   3 1165.93   32.53
  -4   3  -3  205.13   18.90
  -4   3  -3  221.54   19.41
  -4  -3   3  196.78   12.98
  -4  -3  -3  189.95    8.26
  -4   3  -3  193.32   11.90
  -4   3   3  184.48    9.31
  -4   3  -3  162.11   22.95
  -4  -3   3  192.41   10.33
  -4  -3   3  166.17   16.24
  -4   3   3  154.77   13.24
  -4  -3  -3  160.93   10.47
  -4  -3  -3  223.07   18.69
  -4   3   3  217.13   19.21
  -4   3  -3  182.70   19.89
  -4  -3  -3  167.72   10.69
  -4   3   3  243.12   35.88
  -4  -3  -3  149.58   11.40
  -4  -3   3  180.18   11.35
  -4   3   3  213.51   19.21
  -3   3   3 1729.99   59.25
  -3  -3  -3 1541.97   40.18
  -3  -3   3 1430.81   59.47
  -3   3  -3 1794.48   65.61
  -3  -3   3 1609.86   46.71
  -3   3   3 1746.85   59.46
  -3   3  -3 1694.26   40.82
  -3  -3  -3 1588.97   47.64
  -3  -3   3 1757.45   50.12
  -3   3  -3 1851.51   60.78
  -3  -3  -3 1569.03   45.93
  -3   3   3 1502.46   50.13
  -3   3   3 1721.92   62.13
  -3   3  -3 1901.32   61.07
  -3   3   3 1500.97   41.98
  -3   3  -3 1520.55   71.90
  -2   3   3  211.47   15.69
  -2   3  -3  249.66   16.99
  -2  -3  -3  179.58   11.03
  -2   3   3  206.88   11.88
  -2   3   3  212.11   15.54
  -2  -3   3  211.62   15.13
  -2   3   3  217.94   19.14
  -2  -3   3  163.67   17.32
  -2  -3   3  213.12   15.65
  -2   3  -3  214.01   18.06
  -2  -3  -3  201.41   10.58
  -2   3  -3  182.29   20.41
  -2  -3   3  203.50   10.88
  -2   3  -3  218.31    8.98
  -2  -3  -3  202.15    7.53
  -2   3  -3  235.11   16.28
  -1   3  -3 1909.50   55.22
  -1  -3  -3 1670.22   47.46
  -1   3  -3 1757.94   48.46
  -1   3   3 1612.18   45.10
  -1   3   3 1535.66   52.23
  -1   3   3 1535.44   46.78
  -1   3  -3 1697.08   65.45
  -1  -3   3 1771.77   60.26
  -1   3  -3 1963.50   55.82
  -1   3   3 1746.36   65.87
  -1  -3   3 1308.40   61.60
  -1   3  -3 1810.98   58.70
  -1   3   3 2400.49  107.13
  -1  -3   3 1471.76   54.27
  -1   3   3 1519.85   51.95
  -1  -3  -3 1839.56   43.51
   0   3  -3  204.69   13.19
   0  -3   3  144.61   13.39
   0   3   3  157.96   11.45
   0   3   3  162.73    8.96
   0  -3   3  121.78   16.48
   0   3  -3  190.45   10.36
   0   3  -3  175.92   15.67
   0   3  -3  201.68    9.73
   0  -3   3  137.71   10.99
   0  -3  -3  175.23   12.32
   0  -3  -3  186.28   20.54
   0   3   3  167.49   18.29
   0   3   3  144.07   16.50
   0   3   3  163.02   11.81
   0   3  -3  217.07   13.67
   0   3   3  190.61   12.86
   0   3   3  215.34   30.31
   0   3   3  140.64    9.19
   1  -3  -3 1756.65   53.06
   1   3   3 1550.97   39.78
   1   3  -3 1747.18   47.12
   1   3  -3 1842.58   52.80
   1   3   3 1661.87   50.18
   1  -3   3 1545.06   57.32
   1  -3  -3 1648.60   68.07
   1   3   3 1713.57   69.31
   1   3   3 1444.70   56.78
   1  -3   3 1516.66   43.95
   1   3  -3 1930.30   45.48
   1   3   3 1457.92   43.49
   1   3   3 1594.61   43.13
   1  -3  -3 1732.44   53.45
   1  -3   3 1450.93   50.88
   1   3   3 1607.12   48.95
   1   3   3 1612.52   44.20
   1   3  -3 1711.19   44.36
   1   3   3 2074.11   96.62
   1   3   3 1506.40   49.69
   1   3   3 1628.24   46.42
   2  -3  -3  214.40   14.92
   2   3   3  226.22   22.99
   2  -3  -3  207.49   13.97
   2   3   3  212.26   13.03
   2   3  -3  204.11   10.19
   2   3   3  185.57   10.66
   2   3   3  223.97   10.83
   2   3   3  203.46   13.05
   2   3   3  172.61   11.98
   2   3  -3  210.94   13.45
   2  -3   3  206.36   12.53
   2  -3  -3  193.62   20.05
   2   3   3  237.52   30.31
   2   3   3  185.70   11.28
   2  -3  -3  193.80   14.67
   2  -3   3  203.47   15.00
   2  -3   3  193.63   13.58
   2   3  -3  213.82   13.18
   2   3   3  198.60   15.49
   2  -3   3  192.79   17.78
   2   3   3  222.39   10.60
   3   3  -3 1573.98   43.04
   3   3  -3 1527.34   43.56
   3  -3   3 1462.23   51.70
   3  -3  -3 1435.23   50.91
   3   3   3 1321.95   76.95
   3  -3  -3 1581.48   63.70
   3  -3  -3 1396.26   51.33
   3   3   3 1454.51   45.40
   3  -3  -3 1471.60   53.45
   3  -3   3 1444.75   53.70
   3  -3   3 1560.85   48.75
   3   3   3 1609.18   43.79
   3   3   3 1558.41   44.26
   3  -3   3 1671.45   65.48
   4   3   3  179.42   11.13
   4   3  -3  153.19   12.21
   4   3  -3  182.25   10.77
   4   3   3  162.66   18.03
   4  -3  -3  135.69   14.04
   4   3   3  176.72   14.46
   4  -3  -3  197.85   19.66
   4  -3   3  150.30   14.48
   4   3   3  184.07   12.16
   4  -3  -3  155.04   14.46
   4   3   3  206.28   23.97
   4  -3   3  163.09   13.20
   4  -3  -3  159.54   15.46
   4  -3   3  152.04   15.48
   4   3   3  138.86   23.57
   4   3   3  183.70   10.74
   4   3  -3  172.79   10.06
   4  -3   3  188.82   21.55
   5   3   3  984.63   46.28
   5  -3  -3  608.36   37.24
   5   3   3 1144.45   43.71
   5   3  -3 1070.91   34.32
   5   3   3 1004.38   36.43
   5  -3  -3  887.62   42.06
   5   3   3 1099.57   34.14
   5   3  -3 1040.84   35.21
   5  -3  -3  870.07   44.11
   5   3   3  711.19   52.58
   5   3   3 1183.19   62.02
   5  -3  -3 1369.73   53.74
   5   3   3 1082.61   35.11
   5   3  -3 1097.91   33.36
   5  -3   3  854.85   42.32
   5  -3   3  871.24   44.76
   6   3   3   90.85    9.20
   6   3  -3   95.36    8.91
   6   3   3   93.06    9.99
   6   3  -3   96.33    9.15
   6  -3  -3   68.63   11.49
   6  -3  -3  127.92   15.47
   6   3   3   87.40   18.04
   6   3   3   87.50    8.48
   6   3  -3  103.14    8.62
   6  -3   3   69.07   12.02
   6  -3  -3   77.09   13.06
   6  -3   3   64.57   12.43
   6   3   3   60.59   14.79
   6  -3   3   78.10    5.76
   7   3  -3  688.35   28.41
   7  -3   3  558.24   21.68
   7   3   3  687.07   30.60
   7   3  -3 1096.94   44.66
   7   3   3  788.96   53.25
   7  -3  -3  986.92   43.36
   7   3   3  613.90   36.64
   7  -3  -3  529.97   37.49
   7  -3   3  482.18   37.03
   8  -3  -3   49.31   11.90
   8   3   3   61.94    9.24
   8   3  -3   56.81    7.96
   8  -3   3   50.55   12.66
   8  -3  -3   68.86   12.00
   8  -3   3   46.24    5.61
   8   3  -3   59.01   14.70
   9   3   3  491.43   27.01
   9   3  -3  456.96   24.09
   9   3   3  523.93   28.77
   9   3  -3  463.44   26.56
   9  -3  -3  626.88   32.64
   9  -3  -3  432.38   36.27
   9  -3   3  293.90   31.80
  10   3  -3   42.83    9.03
  10   3  -3   40.93    7.69
  10  -3  -3   33.49   12.86
  10  -3   3   33.88   13.02
  10   3   3   49.62    9.97
  10   3   3   50.49    9.45
 -10  -4  -3  101.98   10.56
  -9  -4  -3  451.47   21.40
  -9  -4   3  497.33   28.61
  -9  -4  -3  400.16   23.50
  -9   4  -3  427.84   37.48
  -9  -4   3  410.93   24.65
  -9   4   3  432.27   37.79
  -8  -4  -3  156.37   11.15
  -8  -4   3  182.72   16.32
  -8  -4  -3  107.39   12.49
  -8   4  -3  139.78   20.84
  -8   4   3  150.48   21.63
  -8  -4   3  136.66   13.30
  -8   4  -3   69.83   21.08
  -8  -4  -3  139.20   12.91
  -8  -4  -3  114.20   12.80
  -7  -4   3  647.77   30.07
  -7  -4  -3  568.20   21.63
  -7  -4  -3  526.35   25.45
  -7   4   3  510.20   21.80
  -7  -4  -3  484.25   26.28
  -7   4   3  590.63   40.92
  -7   4  -3  587.31   40.69
  -7   4  -3  309.95   41.08
  -7  -4  -3  460.22   24.01
  -7  -4   3  559.02   26.87
  -7   4   3  780.60   69.81
  -6  -4   3  216.02   15.69
  -6  -4  -3  196.54   10.40
  -6   4  -3  126.68   25.17
  -6  -4   3  178.71   13.73
  -6   4   3  186.28   21.61
  -6  -4  -3  157.32   13.49
  -6   4  -3  226.95   23.45
  -6  -4   3  145.57   17.21
  -6  -4  -3  174.89   11.46
  -6   4   3  291.33   42.88
  -6  -4  -3  188.70   13.48
  -6   4   3  182.03   11.06
  -5  -4  -3  704.90   28.64
  -5  -4   3  792.43   30.45
  -5  -4   3  807.34   31.53
  -5  -4  -3  741.35   23.27
  -5   4  -3  875.95   44.81
  -5   4  -3  817.85   44.06
  -5   4   3  727.21   24.96
  -5   4   3  828.06   44.18
  -5  -4  -3  673.23   29.29
  -5   4  -3  551.05   49.63
  -5   4   3  622.84   31.32
  -5  -4   3  683.38   39.63
  -5   4  -3  725.65   28.40
  -5   4   3  850.08   44.13
  -5   4  -3  778.09   47.31
  -5   4   3 1104.96   80.23
  -4  -4  -3  277.80   11.26
  -4   4   3  283.20   12.59
  -4  -4   3  306.58   16.84
  -4   4   3  354.68   25.47
  -4   4  -3  317.72   24.56
  -4   4  -3  264.42   14.91
  -4  -4   3  269.17   24.28
  -4   4   3  314.08   24.39
  -4   4  -3  324.26   24.73
  -4  -4  -3  236.95   15.02
  -4  -4   3  314.70   16.70
  -4   4   3  288.72   17.85
  -4  -4  -3  257.81   14.92
  -4   4  -3  244.68   30.51
  -4   4  -3  274.44   25.50
  -3  -4  -3  932.51   33.66
  -3   4   3 1137.40   46.25
  -3   4   3  963.51   29.25
  -3   4  -3 1126.54   46.65
  -3   4   3 1084.27   45.54
  -3   4  -3 1114.62   46.32
  -3   4   3 1046.40   36.02
  -3  -4   3  892.32   49.16
  -3  -4   3 1093.04   42.08
  -3  -4   3 1071.50   35.87
  -3   4  -3 1021.70   48.57
  -3   4  -3  968.07   58.34
  -3  -4  -3  867.60   32.59
  -3  -4   3 1031.65   34.76
  -2   4  -3  353.32   17.61
  -2   4  -3  350.02   14.29
  -2  -4   3  367.52   17.57
  -2   4  -3  387.68   23.56
  -2   4   3  385.55   23.09
  -2   4   3  283.70   15.16
  -2   4   3  372.26   16.39
  -2  -4  -3  328.61   12.54
  -2   4  -3  345.70   24.15
  -2  -4   3  294.03   11.87
  -2  -4   3  308.11   27.52
  -2   4   3  399.19   29.81
  -2  -4  -3  272.35   15.11
  -2  -4   3  358.64   21.45
  -2   4  -3  294.21   28.47
  -2   4   3  407.41   23.64
  -2   4  -3  396.01   23.81
  -1   4  -3  998.10   33.45
  -1   4   3 1052.98   33.73
  -1  -4   3 1062.32   25.99
  -1   4   3 1034.91   41.04
  -1   4  -3 1152.35   43.13
  -1  -4   3 1024.30   41.51
  -1  -4  -3 1003.96   30.81
  -1   4   3 1055.94   40.59
  -1   4  -3  993.04   50.38
  -1   4  -3 1004.27   34.59
  -1  -4   3  844.20   50.36
  -1   4   3 1210.44   55.83
  -1   4  -3  992.46   42.16
  -1   4  -3 1100.43   41.70
  -1   4   3 1026.14   33.64
   0   4   3  343.14   19.94
   0   4  -3  336.30   16.07
   0   4   3  326.75   12.53
   0   4  -3  380.76   21.22
   0   4   3  350.80   20.10
   0   4   3  341.90   15.52
   0   4  -3  343.36   24.38
   0   4  -3  340.45   15.39
   0   4   3  307.81   15.29
   0   4   3  392.25   31.31
   0  -4   3  232.85   25.59
   0   4   3  241.06   23.62
   0  -4   3  300.93   21.23
   0   4   3  436.51   46.04
   0   4  -3  387.62   21.29
   0  -4  -3  290.40   29.09
   1   4   3 1059.26   28.63
   1   4  -3  992.13   33.96
   1   4   3 1116.13   38.36
   1   4   3 1097.47   34.40
   1  -4   3  973.03   32.89
   1   4  -3 1156.89   34.51
   1   4  -3 1001.61   40.50
   1  -4   3  870.08   38.07
   1  -4  -3  865.84   38.13
   1  -4  -3  923.01   53.46
   1  -4  -3  897.41   37.48
   1   4   3 1243.13   60.18
   1   4   3 1044.59   39.24
   1   4  -3 1149.03   41.11
   1  -4   3  662.57   48.06
   1   4   3 1081.48   32.96
   1   4   3  899.87   44.03
   1   4  -3  992.35   31.95
   1   4   3 1348.63   80.62
   1   4   3 1089.14   38.22
   1  -4   3  980.34   44.64
   2   4   3  376.94   19.80
   2   4   3  310.15   16.21
   2  -4  -3  287.96   28.38
   2  -4   3  306.69   21.37
   2   4   3  385.87   16.29
   2   4  -3  368.08   16.66
   2   4  -3  330.99   15.07
   2   4   3  346.58   22.08
   2   4   3  378.40   19.55
   2  -4   3  353.84   26.32
   2   4  -3  365.84   21.70
   2  -4  -3  307.82   21.49
   2   4   3  388.71   33.34
   2  -4   3  176.80   24.26
   2  -4   3  338.13   16.98
   2  -4  -3  272.33   18.99
   2   4   3  407.75   42.93
   2   4   3  356.70   20.86
   2  -4  -3  318.03   20.46
   2   4   3  330.46   15.85
   3   4  -3  842.31   28.68
   3   4  -3  943.04   30.72
   3   4   3 1040.87   32.94
   3  -4  -3  836.93   37.54
   3  -4  -3  859.17   38.33
   3   4  -3  911.44   31.34
   3   4  -3 1062.14   33.47
   3   4   3 1042.81   36.95
   3  -4  -3  737.63   36.53
   3   4   3 1048.57   32.26
   3   4  -3  941.89   37.57
   3   4   3  921.74   36.39
   3  -4   3  958.02   36.35
   3  -4  -3  921.55   51.88
   3  -4  -3  810.59   39.79
   3  -4   3  929.03   41.85
   3  -4   3  872.41   38.31
   3   4   3  957.18   66.73
   3  -4   3 1070.39   52.15
   3   4   3 1001.16   33.42
   4   4  -3  272.68   14.01
   4   4   3  288.72   18.13
   4  -4   3  264.33   20.15
   4   4  -3  265.53   14.58
   4  -4  -3  222.79   18.45
   4   4   3  297.08   14.91
   4  -4  -3  271.33   26.94
   4   4   3  325.88   33.12
   4  -4  -3  224.10   20.12
   4  -4   3  245.17   21.13
   4  -4   3  277.52   18.47
   4   4   3  313.80   15.89
   4   4   3  179.71   29.08
   4   4   3  295.02   16.49
   4  -4  -3  222.23   18.08
   4  -4   3  337.25   30.06
   4   4   3  265.83   25.66
   5   4   3  649.84   38.38
   5   4  -3  644.01   25.68
   5  -4   3  615.25   34.59
   5  -4  -3  585.95   33.27
   5   4   3  744.45   28.17
   5   4  -3  658.97   26.51
   5   4   3  699.43   28.86
   5  -4  -3  869.58   47.95
   5   4   3  774.61   32.23
   5   4   3  853.46   55.44
   5  -4   3  699.17   33.00
   5  -4  -3  471.66   29.42
   5   4   3  412.13   43.43
   5  -4  -3  547.35   34.84
   5  -4   3  619.72   37.33
   5   4   3  767.14   27.20
   5   4  -3  698.97   25.74
   6  -4  -3  209.56   22.93
   6   4   3  152.51   16.94
   6   4   3  180.79   13.10
   6   4  -3  187.92   12.94
   6   4  -3  173.21   13.14
   6   4   3  182.97   14.01
   6  -4  -3   96.47   13.10
   6  -4  -3  128.72   16.93
   6  -4   3  139.48   17.99
   6   4   3  126.39   23.97
   7   4   3  525.74   24.47
   7   4   3  493.30   25.11
   7   4  -3  467.16   22.61
   7  -4  -3  210.93   21.36
   7  -4  -3  662.57   39.84
   7  -4  -3  330.06   28.96
   7  -4   3  376.55   31.55
   7   4   3  359.33   35.39
   7   4  -3  469.29   23.33
   8  -4  -3   39.51    9.71
   8   4  -3  122.76   11.72
   8   4   3  133.53   13.33
   8  -4  -3  151.33   19.44
   8  -4  -3   72.72   14.83
   8  -4   3   62.32   14.32
   9  -4  -3  155.22   18.97
   9   4  -3  325.05   19.93
   9   4   3  408.25   24.03
   9  -4  -3  492.46   33.14
   9  -4   3  252.32   28.53
   9  -4  -3  244.19   27.20
  10  -4  -3   43.91   11.02
  -9  -5   3  287.60   20.73
  -9  -5   3  211.14   18.14
  -8  -5  -3  119.80   12.43
  -8  -5   3  135.67   13.88
  -8  -5   3  123.36   13.21
  -8  -5  -3  115.81    9.12
  -8  -5  -3   91.14   11.78
  -8  -5   3   89.29   11.18
  -8   5  -3  137.44   21.80
  -8   5   3  147.24   22.46
  -7  -5  -3  323.38   20.20
  -7  -5   3  383.14   22.34
  -7  -5  -3  343.39   15.43
  -7  -5   3  327.06   20.91
  -7  -5  -3  292.73   19.90
  -7   5   3  350.29   32.13
  -7  -5   3  298.38   18.93
  -7   5  -3  354.26   32.27
  -6  -5   3  131.84   12.54
  -6  -5   3   96.39   16.32
  -6  -5   3  149.84   13.25
  -6  -5  -3  155.85    9.22
  -6  -5   3  121.76   11.12
  -6  -5  -3  116.54   11.81
  -6   5   3  144.06   19.84
  -6   5  -3  172.97   21.70
  -6  -5  -3  153.76   12.90
  -6   5   3  117.94    8.91
  -6   5  -3   92.85   23.86
  -5  -5   3  517.55   24.38
  -5   5   3  399.57   17.51
  -5   5  -3  571.70   37.25
  -5   5  -3  396.24   43.44
  -5  -5   3  399.69   32.97
  -5  -5  -3  458.60   22.70
  -5  -5   3  486.08   23.85
  -5  -5   3  517.58   27.81
  -5  -5  -3  431.93   22.12
  -5   5   3  509.62   35.05
  -5  -5   3  456.57   20.50
  -5   5   3  318.07   33.79
  -4   5   3  242.50   22.40
  -4  -5  -3  189.95   13.66
  -4  -5   3  201.28   11.61
  -4   5   3  196.09   10.64
  -4  -5   3  222.04   15.00
  -4  -5   3  232.37   15.32
  -4  -5  -3  189.39   13.47
  -4   5  -3  254.43   23.39
  -4  -5   3  160.41   21.40
  -4   5   3  207.80   14.87
  -4   5  -3  204.16   29.30
  -4  -5   3  217.64   17.12
  -4   5  -3  214.49   23.32
  -4   5   3  158.09   22.51
  -3   5   3  719.22   36.90
  -3   5  -3  747.82   38.08
  -3   5  -3  618.70   48.56
  -3  -5   3  684.78   28.04
  -3   5   3  683.01   36.51
  -3  -5  -3  597.02   21.24
  -3   5  -3  639.28   37.99
  -3  -5   3  664.02   21.61
  -3  -5   3  500.31   39.60
  -3   5   3  604.91   25.16
  -3   5   3  581.37   38.83
  -3  -5  -3  608.15   25.59
  -3   5  -3  717.57   37.97
  -3  -5   3  684.83   31.84
  -2   5  -3  291.45   14.28
  -2   5  -3  274.54   16.23
  -2   5   3  213.58   13.35
  -2   5   3  270.77   20.95
  -2  -5   3  219.21    9.34
  -2   5  -3  256.29   28.36
  -2  -5  -3  258.61   12.21
  -2  -5  -3  213.71   27.71
  -2  -5   3  202.09   25.01
  -2   5  -3  283.48   22.31
  -2   5   3  315.98   29.58
  -2  -5   3  249.68   18.47
  -2   5  -3  293.35   22.35
  -2   5   3  240.18   21.44
  -2   5   3  267.23   20.65
  -2   5  -3  305.65   22.44
  -1   5   3  768.08   47.52
  -1   5   3  623.47   24.73
  -1   5  -3  634.47   26.40
  -1   5   3  615.49   32.36
  -1   5  -3  659.04   33.19
  -1   5  -3  709.72   34.83
  -1   5   3  879.15   69.64
  -1  -5  -3  642.88   23.65
  -1   5  -3  640.77   41.43
  -1   5   3  631.55   25.63
  -1   5  -3  645.46   25.65
  -1   5   3  628.73   22.78
  -1  -5   3  457.10   39.64
  -1   5  -3  656.57   24.72
  -1   5   3  744.93   32.65
  -1  -5   3  602.57   31.76
  -1   5   3  659.75   32.40
  -1   5  -3  708.52   34.11
  -1   5   3  654.68   29.58
   0  -5  -3  184.09   25.59
   0   5   3  247.16   14.03
   0   5  -3  262.65   14.29
   0   5  -3  258.56   14.86
   0   5   3  226.63   10.94
   0   5   3  381.78   45.57
   0   5  -3  298.75   20.70
   0   5   3  226.02   17.84
   0   5   3  205.93   13.09
   0   5  -3  241.31   22.01
   0  -5  -3  252.74   14.10
   0  -5   3  147.45   22.48
   0   5   3  264.46   28.36
   0   5   3  167.85   20.82
   0   5   3  223.24    8.66
   0   5   3  250.45   18.49
   0   5  -3  286.18   20.30
   0   5   3  269.10   17.92
   0  -5   3  195.77   18.31
   1   5   3  609.64   30.61
   1   5   3  634.21   21.02
   1   5  -3  659.18   26.28
   1  -5   3  378.15   37.42
   1   5  -3  677.77   32.70
   1  -5  -3  543.93   29.13
   1   5   3  654.11   25.58
   1  -5   3  617.42   35.52
   1   5   3  810.99   50.69
   1   5  -3  655.12   24.62
   1  -5  -3  530.74   30.38
   1   5  -3  676.12   32.30
   1  -5   3  521.56   30.08
   1  -5   3  585.40   26.68
   1  -5  -3  565.25   44.22
   1   5   3  656.84   24.97
   1   5   3  619.57   30.69
   1   5  -3  722.78   33.54
   1   5   3  516.86   33.45
   1   5   3  780.88   64.39
   2   5   3  221.51   14.21
   2   5   3  221.91   13.66
   2   5  -3  259.72   13.95
   2  -5  -3  213.06   17.66
   2   5   3  259.68   14.22
   2   5  -3  303.90   16.41
   2   5   3  274.45   30.60
   2  -5  -3  213.71   19.21
   2  -5   3  216.62   19.30
   2  -5   3  224.21   15.73
   2  -5  -3  229.97   27.91
   2   5   3  247.99   18.65
   2   5  -3  269.59   20.09
   2   5   3  228.53   18.77
   2  -5   3  135.97   22.78
   2   5   3  242.89   17.07
   2  -5   3  231.68   14.97
   2   5   3  289.81   39.26
   2  -5   3  254.88   23.88
   3   5   3  661.40   25.10
   3  -5   3  676.52   42.69
   3   5  -3  613.68   24.28
   3   5  -3  693.67   34.42
   3   5   3  573.58   25.21
   3   5  -3  725.69   27.81
   3  -5   3  564.38   34.36
   3   5   3  643.40   32.40
   3  -5  -3  527.54   33.36
   3   5   3  601.76   56.40
   3  -5  -3  524.51   30.35
   3  -5  -3  573.01   44.15
   3  -5   3  587.01   27.47
   4   5  -3  245.59   15.55
   4  -5  -3  173.78   16.56
   4   5  -3  202.26   13.47
   4   5   3  227.19   14.34
   4  -5  -3  147.32   15.92
   4  -5   3  161.65   14.32
   4   5   3  205.48   14.76
   4  -5  -3  196.40   25.81
   4  -5  -3  173.35   18.73
   4  -5   3  170.17   18.72
   4  -5   3  102.54   20.96
   4   5   3  152.51   29.94
   4   5   3  183.84   13.53
   5   5  -3  446.21   21.19
   5   5   3  476.81   21.95
   5   5   3  454.31   21.91
   5  -5  -3  279.87   23.48
   5  -5  -3  488.90   39.43
   5  -5   3  376.22   39.13
   5  -5  -3  355.81   28.34
   5  -5   3  384.27   29.91
   5  -5  -3  349.08   24.65
   5   5   3  253.88   36.98
   5   5   3  405.45   21.67
   5   5   3  391.68   31.30
   6   5   3  117.86   16.20
   6   5   3  136.59   12.03
   6   5   3  124.18   12.12
   6   5  -3  140.50   11.91
   6  -5  -3  152.29   22.97
   6  -5   3   99.38   22.14
   6  -5  -3  115.41   17.13
   6  -5   3  106.87   16.76
   6  -5  -3   69.78   11.44
   6   5   3   75.50   21.04
   7  -5  -3  149.19   17.25
   7   5   3  318.00   19.19
   7   5  -3  332.20   19.03
   7   5   3  302.47   19.63
   7  -5   3  316.04   36.51
   7  -5  -3  362.53   33.16
   7  -5   3  220.96   24.97
   7  -5  -3  191.20   22.58
   8   5   3   99.25   11.54
   8   5  -3  101.77   11.22
   8   5   3  101.37   12.02
   8  -5  -3   62.03   14.30
   8  -5   3   60.66   14.36
   8   5  -3  102.00   11.42
   8  -5  -3   37.18    9.42
   8  -5  -3  105.33   18.81
   8  -5   3  124.24   24.13
   9  -5  -3   83.52   13.20
   9  -5   3  265.38   35.00
  -9  -6   3  130.63   13.73
  -8  -6   3  134.78   13.29
  -7  -6   3  215.01   17.23
  -7  -6   3  206.46   14.99
  -7   6   3  201.50   25.50
  -7  -6  -3  224.75   17.29
  -7  -6  -3  199.54   16.13
  -7   6  -3  257.89   28.48
  -7  -6   3  220.12   17.85
  -6  -6  -3  208.90   16.39
  -6  -6   3  183.11   15.79
  -6  -6   3  218.17   16.78
  -6  -6  -3  170.88   14.52
  -6   6   3  204.25   24.35
  -6  -6   3  182.68   13.18
  -6   6  -3  113.90   27.29
  -6  -6   3  125.34   20.75
  -6   6  -3  241.76   27.02
  -6  -6   3  210.66   17.11
  -5   6  -3  215.07   34.60
  -5  -6  -3  282.86   17.79
  -5   6  -3  368.70   31.19
  -5  -6   3  283.19   15.25
  -5  -6   3  212.52   27.21
  -5  -6   3  315.97   20.37
  -5   6   3  299.92   28.34
  -5  -6   3  328.55   20.05
  -4  -6   3  266.98   13.14
  -4  -6  -3  287.48   13.66
  -4   6  -3  334.76   28.20
  -4   6   3  223.26   14.97
  -4  -6   3  305.14   20.02
  -4   6  -3  286.83   36.88
  -4   6   3  331.72   27.50
  -4  -6   3  230.44   28.26
  -4   6   3  233.95   25.75
  -4  -6   3  325.24   19.58
  -4  -6  -3  254.64   16.42
  -3  -6  -3  376.64   16.46
  -3   6   3  340.13   18.12
  -3   6   3  377.30   28.35
  -3   6  -3  428.57   30.50
  -3  -6   3  379.39   14.14
  -3   6  -3  378.11   39.43
  -3   6  -3  392.02   29.49
  -3  -6   3  379.78   22.92
  -3   6   3  372.89   28.00
  -2   6  -3  364.70   27.22
  -2   6   3  315.80   16.57
  -2  -6  -3  329.22   15.89
  -2   6   3  350.66   26.25
  -2  -6  -3  295.16   35.08
  -2  -6   3  257.85   31.29
  -2   6  -3  317.07   24.70
  -2   6  -3  382.83   18.75
  -2   6   3  365.03   23.21
  -2  -6   3  320.44   21.73
  -2   6   3  277.51   16.23
  -2   6  -3  325.69   34.21
  -1   6   3  398.06   17.66
  -1   6  -3  474.67   30.31
  -1   6   3  405.84   19.84
  -1   6  -3  460.97   35.87
  -1   6   3  415.75   27.84
  -1  -6  -3  416.13   19.33
  -1   6   3  418.48   17.99
  -1  -6   3  385.68   25.65
  -1   6  -3  456.00   20.80
   0   6  -3  363.27   25.50
   0   6   3  300.09   13.95
   0   6   3  260.35   15.68
   0   6   3  215.61   24.63
   0   6   3  307.64   23.13
   0  -6  -3  275.70   33.85
   0   6  -3  322.48   26.88
   0  -6   3  280.94   18.25
   0  -6   3  185.86   27.78
   0  -6   3  314.78   24.59
   0   6  -3  358.07   18.44
   1   6   3  396.18   16.50
   1   6   3  405.55   20.17
   1   6  -3  478.79   29.19
   1  -6   3  363.68   21.47
   1  -6  -3  361.08   37.98
   1  -6   3  251.98   32.41
   1   6  -3  423.04   25.89
   1   6   3  343.36   27.51
   1   6   3  406.64   26.44
   1  -6   3  421.90   30.62
   2   6   3  319.12   23.27
   2  -6   3  303.94   19.60
   2  -6   3  175.06   27.54
   2   6   3  273.40   16.47
   2  -6  -3  278.68   21.56
   2  -6  -3  280.41   33.64
   2  -6  -3  256.73   22.25
   2  -6   3  261.87   22.54
   2   6   3  295.43   22.39
   2   6  -3  389.58   26.25
   3  -6  -3  339.30   36.47
   3   6   3  311.51   18.30
   3  -6  -3  284.99   22.61
   3  -6  -3  311.99   26.11
   3  -6   3  341.09   21.92
   3  -6   3  333.70   20.89
   3  -6   3  329.79   26.78
   4  -6   3  251.19   24.70
   4   6   3  264.28   17.15
   4   6   3  321.70   18.49
   4  -6   3  258.86   19.14
   4  -6  -3  281.35   32.82
   4  -6   3  251.86   19.76
   4   6  -3  283.41   17.14
   4  -6  -3  243.11   24.07
   4  -6  -3  207.95   19.92
   5   6   3  282.75   17.79
   5   6  -3  288.52   17.57
   5   6   3  258.07   17.52
   5  -6  -3  220.80   23.69
   5  -6  -3  180.70   19.28
   5  -6   3  222.71   18.88
   5  -6  -3  329.89   35.15
   5  -6   3  209.34   23.54
   5  -6   3  229.08   19.61
   5  -6   3  210.96   31.23
   5   6   3  230.09   26.15
   6  -6   3  142.19   26.67
   6   6   3  202.40   15.34
   6   6  -3  205.31   15.12
   6   6  -3  202.13   16.00
   6  -6  -3   90.07   14.75
   6  -6  -3  228.78   29.63
   6  -6  -3  140.43   19.86
   6  -6   3  158.50   21.46
   6  -6   3  124.30   15.23
   6   6   3  192.85   15.47
   7   6   3  175.48   15.46
   7   6   3  209.55   16.10
   7   6  -3  214.17   15.77
   7  -6  -3  243.99   30.43
   7  -6  -3  134.82   20.12
   7  -6   3  176.02   29.80
   7  -6   3  118.74   19.45
   7  -6  -3   96.17   14.12
   8  -6  -3   56.64   11.50
   8  -6  -3  157.37   24.40
  -6  -7  -3  119.09   12.87
  -6  -7   3  115.97   21.68
  -5  -7  -3  175.88   14.08
  -5  -7   3  154.57   25.41
  -5   7  -3  110.55   26.42
  -4  -7   3  139.20   24.84
  -4   7  -3  230.64   25.02
  -4   7  -3  173.08   30.62
  -4   7   3  209.29   23.74
  -3  -7  -3  215.07   13.19
  -3   7  -3  249.79   24.97
  -3   7   3  219.54   23.32
  -3   7  -3  263.00   34.39
  -3  -7   3  162.68   26.73
  -2   7  -3  270.11   25.02
  -2   7  -3  286.95   17.64
  -2   7  -3  243.16   30.53
  -2  -7  -3  237.51   14.44
  -2  -7  -3  187.88   30.47
  -2   7   3  230.03   23.01
  -2  -7   3  229.65   18.44
  -1   7   3  241.28   22.83
  -1   7  -3  310.16   26.36
  -1   7  -3  253.20   28.15
  -1  -7   3  230.97   17.31
  -1  -7   3  173.41   28.32
  -1  -7  -3  241.68   15.45
  -1  -7   3  235.64   20.43
   0   7   3  226.21   21.73
   0   7  -3  296.30   25.16
   0   7  -3  263.23   24.75
   0  -7   3  206.41   16.57
   0  -7  -3  202.10   31.13
   1   7   3  226.94   21.26
   1  -7   3  210.18   16.92
   1  -7  -3  200.17   30.55
   2   7  -3  273.53   23.82
   2   7   3  223.64   21.21
   2  -7  -3  188.97   30.10
   2  -7   3  215.33   17.63
   2  -7   3  130.20   25.57
   2   7   3  179.27   13.95
   3   7   3  158.99   13.59
   3   7   3  211.57   20.50
   3  -7  -3  173.51   18.33
   3  -7  -3  157.94   19.38
   3  -7  -3  169.25   27.89
   3  -7   3  208.01   18.08
   3  -7   3  156.12   19.27
   4   7   3  204.72   15.64
   4   7   3  154.60   13.76
   4  -7   3  153.02   15.46
   4  -7   3  135.44   19.20
   4  -7  -3  148.37   19.61
   4  -7  -3  168.99   28.60
   4  -7   3  194.42   18.15
   4  -7  -3  116.75   15.82
   4  -7   3   97.20   23.83
   4   7  -3  194.99   15.13
   5  -7   3  122.22   14.58
   5  -7  -3  171.50   28.47
   5   7   3  149.42   13.77
   6  -7  -3  156.67   27.19
   6  -7   3   78.30   12.48
   7  -7  -3  135.69   25.22
   2   8   3  156.96   13.62
   3   8   3   64.49    9.26
 -12   0  -4  205.83   30.52
 -11   0  -4    0.39    4.88
 -11   0   4   -0.83    5.48
 -11   0  -4   -1.38    4.91
 -11   0  -4    3.45    8.57
 -10   0   4  828.07   38.36
 -10   0  -4  544.64   42.97
 -10   0  -4  442.13   41.72
 -10   0  -4  595.25   28.76
 -10   0   4  612.56   30.07
 -10   0  -4  296.01   23.23
  -9   0   4    0.60    6.68
  -9   0  -4    0.89    8.32
  -9   0  -4    4.04    7.93
  -9   0  -4   -0.38    3.92
  -9   0  -4   -0.95    3.97
  -9   0   4    1.73    4.39
  -8   0  -4  598.66   44.32
  -8   0  -4  478.95   26.95
  -8   0  -4  461.75   40.25
  -8   0  -4  642.64   30.85
  -8   0   4  707.94   29.51
  -8   0  -4  694.90   29.12
  -8   0   4  681.49   30.00
  -7   0  -4   -0.72    6.03
  -7   0  -4    0.83    7.14
  -7   0  -4   -1.15    2.70
  -7   0   4   -0.50    2.97
  -7   0  -4    1.23    3.09
  -7   0  -4    0.84    3.06
  -7   0  -4    0.29    3.03
  -7   0  -4   -1.66    5.26
  -7   0  -4    0.30    3.16
  -7   0   4   -0.27    2.90
  -7   0  -4   -0.54    4.00
  -6   0  -4  657.96   45.26
  -6   0  -4  806.25   28.97
  -6   0   4  789.43   29.78
  -6   0  -4  840.55   31.73
  -6   0  -4  714.82   29.89
  -6   0  -4  625.54   42.81
  -6   0  -4  801.70   31.31
  -6   0  -4  815.11   29.49
  -6   0   4  778.17   30.13
  -6   0  -4  719.35   42.27
  -6   0  -4  976.07   47.34
  -5   0  -4   -0.52    4.42
  -5   0   4    0.66    6.35
  -5   0  -4    0.72    6.73
  -5   0  -4    0.44    2.29
  -5   0  -4    1.88    2.38
  -5   0  -4    0.65    4.94
  -5   0  -4   -0.52    1.80
  -5   0   4    0.96    2.02
  -5   0  -4    2.20    2.50
  -5   0   4    0.37    1.94
  -5   0  -4   -0.17    1.93
  -5   0  -4   -0.76    6.37
  -4   0  -4 1727.07   74.61
  -4   0  -4 1827.44   50.60
  -4   0   4 1815.53   51.42
  -4   0  -4 2054.30   54.68
  -4   0  -4 1908.75   51.89
  -4   0  -4 1803.71   50.77
  -4   0   4 1855.53   51.79
  -4   0  -4 1758.42   65.37
  -4   0  -4 1776.08   52.70
  -4   0   4 2292.86   82.42
  -4   0  -4 1846.01   82.30
  -4   0  -4 1659.67   68.89
  -4   0   4 2431.31   82.02
  -3   0  -4   -0.10    1.20
  -3   0   4   -1.20    5.15
  -3   0  -4    0.61    4.94
  -3   0   4   -0.11    1.09
  -3   0  -4    0.20    1.08
  -3   0  -4    1.84    1.77
  -3   0  -4    0.88    1.59
  -3   0   4    0.32    1.30
  -3   0   4    0.38    1.09
  -3   0   4    1.66    4.66
  -3   0  -4    0.88    6.57
  -3   0  -4    2.89    3.17
  -2   0  -4 1747.51   45.07
  -2   0   4 1902.18   45.71
  -2   0  -4 1915.42   49.00
  -2   0  -4 1829.72   48.66
  -2   0  -4 1744.42   45.07
  -2   0  -4 1766.65   58.35
  -2   0   4 2116.15   69.79
  -2   0   4 1887.72   45.74
  -2   0  -4 1711.39   45.82
  -2   0  -4 1677.75   81.37
  -1   0  -4    1.57    4.20
  -1   0   4    0.56    4.96
  -1   0   4    0.29    1.09
  -1   0  -4    0.24    0.77
  -1   0   4    0.61    0.45
  -1   0  -4    0.78    1.07
  -1   0  -4    0.14    0.40
  -1   0  -4    0.21    0.40
  -1   0  -4    0.69    1.19
  -1   0  -4   -0.39    2.82
  -1   0   4    0.45    0.44
  -1   0  -4   -1.88    8.10
   0   0   4  503.05   15.55
   0   0   4  556.73   17.41
   0   0  -4  419.68   25.53
   0   0  -4  400.05   28.17
   1   0   4    0.96    1.27
   1   0   4    0.87    1.03
   1   0   4    0.20    0.89
   1   0  -4    0.62    0.85
   1   0   4    0.81    0.92
   1   0  -4    0.47    0.94
   1   0  -4    0.43    3.09
   1   0  -4   -4.05    7.12
   1   0   4   -0.29    2.71
   2   0   4 1981.94   65.60
   2   0  -4 1564.21   49.70
   2   0   4 1974.28   47.61
   2   0   4 1908.69   60.80
   2   0   4 2006.08   48.49
   2   0   4 1651.23   51.35
   2   0  -4 1568.24   83.86
   2   0   4 1666.79   46.67
   3   0   4    1.18    1.70
   3   0   4    1.64    3.61
   3   0  -4    0.26    1.43
   3   0  -4    0.49    2.07
   3   0  -4    1.32    1.13
   3   0   4   -3.30    3.79
   3   0   4    0.15    1.51
   3   0   4   -0.28    2.52
   3   0  -4   -3.25    7.83
   3   0   4    1.86    1.50
   4   0   4 1918.10   53.27
   4   0  -4 1748.76   50.11
   4   0   4 1556.33   50.81
   4   0  -4 1826.24   46.48
   4   0   4 1443.31   57.15
   4   0   4 1937.71   71.00
   4   0  -4 1618.40   57.10
   4   0  -4 1399.61   80.30
   4   0   4 1903.17   68.68
   5   0   4    1.93    5.75
   5   0  -4   -0.40    3.21
   5   0   4   -0.46    3.88
   5   0  -4    0.70    1.71
   5   0   4    2.06    2.86
   5   0   4    3.26    5.24
   5   0   4    1.52    2.55
   5   0  -4   -0.22    2.17
   5   0  -4   -1.11    7.31
   6   0  -4  744.63   26.03
   6   0   4  708.09   30.83
   6   0  -4  732.87   29.72
   6   0  -4  682.68   36.31
   6   0   4  639.29   37.16
   6   0   4  693.86   31.03
   6   0  -4  651.31   50.92
   7   0  -4    1.79    3.24
   7   0  -4    0.80    2.22
   7   0  -4    0.54    4.62
   7   0   4    0.62    4.86
   7   0  -4    3.97    7.19
   7   0   4   -0.35    3.48
   7   0   4    0.34    3.07
   8   0   4  637.24   30.93
   8   0  -4  559.33   38.64
   8   0  -4  544.52   41.61
   8   0  -4  638.18   25.52
   8   0  -4  554.36   35.76
   8   0   4  547.93   40.35
   9   0  -4   -1.58    6.53
   9   0   4   -1.64    4.39
   9   0  -4    0.76    3.34
   9   0   4   -0.91    6.80
  10   0   4  493.99   42.13
  10   0   4  562.35   31.19
  10   0  -4  531.64   25.19
  10   0  -4  507.79   40.19
  11   0  -4   -0.61    3.87
  11   0  -4    0.95    8.15
  11   0   4    2.17    9.33
 -11   1  -4    3.53    4.11
 -11   1  -4   10.59   11.15
 -11   1  -4   14.09    6.49
 -11   1   4   11.28    6.57
 -11  -1  -4   11.05    6.17
 -11  -1   4   12.87    5.88
 -10  -1  -4  614.47   28.84
 -10  -1   4  590.51   29.32
 -10   1   4  618.35   30.41
 -10  -1  -4  367.49   25.43
 -10   1  -4  288.63   22.57
 -10   1  -4  645.38   30.02
 -10  -1   4  871.21   56.05
 -10   1  -4  370.21   41.52
  -9  -1  -4   11.93    8.39
  -9  -1  -4   10.99    5.35
  -9   1  -4    5.49    4.60
  -9   1  -4   25.82    6.79
  -9   1   4   12.83    5.88
  -9   1  -4   11.66   10.04
  -9  -1  -4   25.57    6.06
  -9  -1  -4   10.67    5.24
  -9  -1   4   24.81    6.50
  -9  -1   4   20.12   12.25
  -8  -1  -4  792.17   36.91
  -8   1  -4  760.83   35.66
  -8   1  -4  678.80   53.34
  -8   1  -4  999.94   41.08
  -8  -1  -4  979.13   39.70
  -8   1  -4 1124.24   40.33
  -8   1   4 1062.31   40.41
  -8  -1   4 1454.70   68.64
  -8  -1  -4  766.32   47.87
  -8   1  -4 1251.82   46.63
  -8  -1  -4 1061.40   37.86
  -8  -1   4  987.81   38.06
  -8  -1  -4 1032.99   55.88
  -7  -1  -4   14.45    7.65
  -7   1  -4   13.53    8.39
  -7  -1  -4   12.74    8.54
  -7  -1  -4    8.85    4.33
  -7  -1   4   11.72    3.99
  -7   1   4    9.44    4.70
  -7  -1  -4   14.37    4.85
  -7   1  -4    5.57    3.47
  -7  -1  -4   13.35    4.34
  -7   1  -4    7.75    8.34
  -7  -1  -4   13.03    3.98
  -7  -1   4   15.83    4.80
  -7   1  -4   22.19    5.85
  -7  -1  -4   12.30    4.61
  -7  -1   4   18.91   10.08
  -7   1  -4   15.95    4.80
  -7   1  -4   12.33    8.85
  -6  -1  -4 1317.61   40.39
  -6  -1  -4 1411.98   44.80
  -6   1  -4 1407.49   44.69
  -6  -1   4 1178.93   40.40
  -6   1  -4 1148.51   41.00
  -6   1  -4  997.37   60.40
  -6   1   4 1286.27   44.30
  -6   1  -4 1320.01   44.74
  -6  -1  -4 1291.44   42.88
  -6  -1   4 1468.16   52.49
  -6  -1   4 1553.03   65.91
  -6  -1  -4 1183.39   53.76
  -6   1  -4 1194.46   59.62
  -6  -1  -4 1185.91   42.86
  -6  -1  -4 1318.96   41.07
  -6  -1   4 1167.25   40.88
  -6  -1  -4 1275.73   61.85
  -5  -1  -4   45.52    5.38
  -5  -1   4   40.90    5.41
  -5   1  -4   44.72   10.57
  -5  -1   4   51.11    9.62
  -5  -1  -4   31.34   10.13
  -5  -1   4   43.79    5.37
  -5  -1  -4   50.01    5.37
  -5  -1  -4   46.48    5.75
  -5   1  -4   33.70    5.10
  -5   1   4   40.97    6.18
  -5   1  -4   51.95    6.51
  -5   1  -4   45.06    6.39
  -5   1  -4   26.63    9.87
  -5  -1  -4   32.83    5.62
  -5  -1  -4   40.71    8.66
  -5  -1   4   37.47    9.91
  -5  -1  -4   74.17   13.25
  -5  -1  -4   51.79    6.64
  -5   1   4   58.18   18.71
  -4  -1  -4 2035.82   54.79
  -4  -1   4 2026.65   55.46
  -4   1  -4 2032.16   56.23
  -4   1  -4 2281.64   59.35
  -4  -1  -4 1971.99   54.42
  -4  -1   4 1978.34   55.08
  -4   1  -4 2196.31   58.76
  -4  -1  -4 2146.77   54.68
  -4   1   4 2133.55   59.48
  -4  -1  -4 2052.42   58.69
  -4   1   4 2172.32   70.68
  -4   1  -4 2287.26   69.59
  -4   1  -4 2097.34   58.28
  -4  -1   4 1778.59   51.43
  -4  -1   4 2356.31   76.69
  -4  -1  -4 1930.89   66.93
  -4  -1  -4 2716.18   96.22
  -4   1   4 3045.56  125.68
  -4  -1  -4 2155.43   58.71
  -4  -1  -4 2009.19   80.09
  -3   1  -4   98.76    6.90
  -3  -1   4  116.31    6.88
  -3  -1  -4  121.56    5.88
  -3   1  -4  107.75   14.78
  -3  -1  -4  118.80    6.71
  -3  -1  -4  126.25    8.44
  -3   1  -4  135.15    8.75
  -3  -1   4  115.50    6.79
  -3   1  -4  128.59   11.51
  -3   1   4  120.58    8.34
  -3   1  -4  138.72    8.66
  -3  -1  -4  102.35    8.03
  -3   1   4  124.88   11.94
  -3   1   4  102.03    8.17
  -3  -1   4  102.41    8.30
  -3  -1  -4  119.78   11.27
  -3  -1   4  125.49   13.66
  -3  -1  -4  112.42   13.43
  -3  -1  -4  118.83   20.15
  -3   1   4  173.93   29.45
  -3  -1  -4  131.27   17.28
  -3  -1  -4  116.33    6.55
  -2   1  -4 2365.79   62.28
  -2  -1   4 2559.27   65.35
  -2  -1  -4 2309.49   56.83
  -2   1  -4 2771.01   63.07
  -2   1   4 2491.24   62.85
  -2   1  -4 2595.05   64.01
  -2   1  -4 2539.45   61.18
  -2  -1  -4 2523.21   64.21
  -2  -1  -4 2408.03   62.37
  -2   1  -4 2607.63   69.19
  -2  -1   4 2689.16   78.92
  -2  -1  -4 2349.74   59.19
  -2  -1  -4 2393.78   79.46
  -2   1   4 2204.84   68.33
  -2  -1  -4 2315.76   69.78
  -2  -1   4 2394.28   59.54
  -2  -1  -4 2253.02  101.92
  -2   1   4 2468.88   69.88
  -1  -1   4   45.00    4.39
  -1   1  -4   43.16    3.98
  -1  -1  -4   51.52    3.80
  -1   1   4   45.48    5.15
  -1   1   4   49.36    5.21
  -1  -1  -4   52.90    5.29
  -1   1  -4   52.86    5.24
  -1   1   4   45.08    9.21
  -1  -1  -4   48.95    2.94
  -1   1  -4   56.51    5.52
  -1   1   4   36.13    6.59
  -1   1  -4   48.85    7.39
  -1  -1   4   39.87    2.74
  -1  -1  -4   45.23    4.66
  -1  -1  -4   35.43   13.51
  -1   1   4   50.64   16.98
   0   1   4 2299.09   62.04
   0   1  -4 2366.99   84.82
   0   1   4 2295.39   60.00
   0   1  -4 2489.47   64.04
   0  -1   4 2234.43   63.31
   0   1  -4 2923.02   63.28
   0  -1  -4 2629.61   59.80
   0  -1   4 2403.53   61.93
   0  -1  -4 2624.52   65.33
   0   1   4 2862.75   60.11
   0   1  -4 2468.34   59.43
   0   1   4 2401.15   81.08
   0   1  -4 2547.88   79.26
   0  -1  -4 2697.17   68.93
   0   1   4 2314.06   62.11
   0   1  -4 2851.23   63.19
   0   1   4 2583.29  114.32
   0  -1   4 2561.07   79.42
   0   1   4 2644.30   93.81
   1   1   4   50.54   11.50
   1  -1   4   35.83    3.43
   1   1  -4   39.17    8.50
   1   1   4   56.00    6.14
   1   1  -4   45.79    2.87
   1   1   4   37.88    4.09
   1  -1  -4   58.15    5.37
   1   1  -4   48.42    3.88
   1   1   4   44.16    2.36
   1  -1  -4   49.59    4.26
   1  -1   4   40.09    3.78
   1   1   4   40.50    6.15
   1   1   4   33.90    3.21
   1   1  -4   47.04    7.74
   1   1   4   41.34    3.46
   1   1   4   40.45    2.87
   1  -1   4   41.87    7.38
   1   1   4   46.51    2.98
   1  -1   4   33.59    3.20
   1  -1  -4   30.83   12.88
   1   1  -4   48.75    2.86
   1   1   4   44.77   15.24
   1  -1  -4   47.00    3.89
   2   1   4 2435.96   87.50
   2   1  -4 2220.53   75.68
   2   1   4 2399.60   59.37
   2   1  -4 2441.40   58.59
   2  -1   4 2445.27   59.59
   2  -1  -4 2325.95   63.90
   2  -1   4 2233.26   63.80
   2   1   4 2274.60   61.42
   2  -1   4 2281.67   61.90
   2   1   4 2390.22   59.16
   2   1  -4 2408.52   58.34
   2   1   4 2395.17   71.30
   2  -1   4 2237.66   75.36
   2  -1  -4 1984.26  102.36
   2   1   4 2576.53   64.24
   2   1   4 2344.37  100.99
   2  -1  -4 2400.34   64.76
   2  -1   4 2336.30   64.92
   2   1  -4 2207.92   76.52
   3  -1  -4  111.95   10.53
   3  -1   4  110.72   10.81
   3  -1   4  104.54   10.05
   3   1   4  110.17    7.28
   3  -1   4  124.53    8.97
   3   1   4  108.63    8.25
   3   1   4  102.82   12.62
   3  -1   4  118.93   15.48
   3   1  -4  118.77    7.03
   3  -1  -4  113.20    5.41
   3   1   4  117.25    8.22
   3   1   4  116.90   12.38
   3  -1  -4   92.33   19.96
   3  -1   4  126.69   14.41
   3  -1  -4  106.68    9.64
   4   1   4 1806.19   55.31
   4  -1  -4 1694.65   62.24
   4  -1   4 1674.48   63.94
   4   1   4 1947.92   53.69
   4   1  -4 1963.48   51.61
   4  -1   4 1585.13   61.06
   4   1   4 1996.42   70.47
   4   1  -4 1962.28   52.30
   4  -1   4 2152.71   79.78
   4  -1  -4 2046.28   49.44
   4  -1  -4 1609.42   89.43
   4  -1  -4 1677.49   60.13
   4  -1   4 1866.94   72.97
   4   1  -4 1810.65   88.74
   4   1   4 2094.49   71.11
   5  -1   4   45.82   11.62
   5   1   4   43.03   10.84
   5  -1  -4   37.81    8.64
   5   1  -4   42.75    5.05
   5  -1  -4   49.24    4.89
   5  -1   4   35.34    8.57
   5   1  -4   47.10    6.04
   5   1   4   36.83    5.95
   5   1   4   44.43    6.38
   5   1  -4   44.34    8.09
   5   1   4   40.57    8.27
   5  -1  -4   32.18    7.21
   5  -1   4   25.66    7.30
   5   1   4   47.39   10.29
   5  -1  -4   20.11   10.79
   5   1  -4   43.72   14.05
   6  -1  -4 1072.93   51.29
   6  -1   4  852.47   49.13
   6   1   4 1049.13   48.74
   6  -1  -4 1286.37   35.89
   6  -1   4  823.85   45.93
   6   1  -4 1109.59   47.49
   6   1  -4 1010.13   64.22
   6   1   4 1255.45   57.99
   6   1   4 1034.50   40.18
   6   1  -4 1181.63   36.60
   6   1  -4 1209.39   40.14
   6   1   4 1155.23   41.38
   6  -1  -4 1045.22   65.19
   6  -1  -4  999.55   47.10
   7   1   4   10.50    4.51
   7   1  -4   13.03    4.70
   7  -1   4    6.77    6.20
   7  -1   4   12.34    4.67
   7   1  -4   14.86    3.99
   7  -1  -4   12.47    7.11
   7   1  -4    5.22    5.36
   7   1   4   14.82    5.30
   7  -1   4    8.28    6.62
   7  -1  -4   12.22    6.55
   7  -1  -4   12.33    3.57
   7   1   4   11.99    6.91
   7   1  -4   11.28    9.01
   8   1  -4  946.67   34.50
   8  -1   4  835.71   38.50
   8  -1  -4  891.68   50.78
   8  -1   4  713.47   49.17
   8   1   4  961.10   39.89
   8   1  -4  990.37   38.98
   8   1   4  954.74   40.72
   8   1  -4  819.69   54.32
   8  -1  -4  995.65   33.88
   9  -1  -4    8.12    8.20
   9  -1   4   13.80    5.98
   9  -1  -4   18.50    4.95
   9   1   4   15.23    5.98
   9   1  -4   16.13    5.10
   9   1  -4   11.48    5.71
   9   1   4   15.50    6.37
   9   1  -4   14.80    9.11
   9  -1   4   25.19   10.50
  10  -1  -4  540.56   41.41
  10  -1   4  492.00   42.51
  10   1  -4  554.82   26.21
  10   1  -4  578.56   30.68
  10   1   4  593.18   32.98
  10   1   4  580.49   31.27
  10  -1  -4  567.57   25.82
  11  -1  -4    2.78    8.93
  11  -1  -4   14.04    5.23
  11   1  -4   11.77    5.23
  11  -1   4    9.57   10.06
  11   1  -4   12.86   10.33
  12  -1  -4  283.82   18.69
 -11   2  -4    2.13    4.31
 -10  -2  -4  307.75   23.35
 -10   2  -4  250.86   20.38
 -10   2  -4  293.62   38.79
 -10   2  -4  636.59   30.36
 -10   2   4  581.49   29.94
 -10  -2   4  554.08   28.39
 -10  -2  -4  578.53   27.59
  -9  -2  -4   17.85    6.45
  -9   2  -4   15.98    5.76
  -9   2  -4   18.55   12.11
  -9   2  -4   46.13    8.86
  -9   2   4   36.84    8.58
  -9   2   4   37.07    6.40
  -9  -2  -4   27.51    7.17
  -9  -2  -4   31.02    6.77
  -9  -2   4   45.93   12.43
  -9  -2   4   38.79    7.69
  -8  -2   4  751.79   32.16
  -8   2   4  753.13   28.97
  -8  -2  -4  598.11   31.40
  -8   2  -4  445.24   45.54
  -8   2  -4  878.26   36.00
  -8   2   4  853.26   36.38
  -8  -2  -4  668.10   31.36
  -8  -2  -4  770.32   31.38
  -8  -2   4 1062.29   48.32
  -8  -2  -4  601.23   38.56
  -8   2   4 1205.35   79.89
  -7  -2  -4   39.15    9.95
  -7   2   4   71.73   13.95
  -7  -2  -4   52.32    7.13
  -7  -2  -4   68.81    8.82
  -7   2   4   54.29    6.42
  -7  -2   4   65.72   11.81
  -7   2  -4   60.63    8.68
  -7   2   4   70.50    9.62
  -7   2  -4   62.68   12.85
  -7  -2   4   52.93    7.42
  -7   2  -4   60.47    9.00
  -7   2  -4   36.98   13.26
  -7   2  -4   38.70    6.69
  -7  -2  -4   38.99    7.39
  -7   2   4   84.68   25.45
  -6  -2  -4 1018.94   35.44
  -6  -2   4 1020.68   36.64
  -6  -2  -4 1131.88   39.16
  -6   2   4 1151.39   41.22
  -6  -2  -4  960.12   38.15
  -6   2  -4  939.42   35.05
  -6   2   4 1004.55   33.46
  -6   2  -4 1200.38   53.66
  -6   2   4 1104.59   53.24
  -6   2  -4 1108.72   40.88
  -6  -2   4 1241.62   48.71
  -6  -2  -4  954.12   44.33
  -6   2  -4 1240.87   41.26
  -5   2  -4   28.58    9.75
  -5  -2   4   48.75    5.97
  -5   2  -4   45.10    6.69
  -5   2  -4   51.08   10.20
  -5  -2  -4   51.72    6.67
  -5  -2  -4   43.72    5.36
  -5   2  -4   58.28    7.45
  -5   2   4   59.88    7.52
  -5  -2  -4   40.92    6.51
  -5   2  -4   35.96    5.09
  -5  -2   4   39.22    5.84
  -5  -2  -4   42.94    5.29
  -5   2   4   62.59   11.50
  -5  -2  -4   38.26    7.70
  -5  -2   4   58.88    9.64
  -5  -2  -4   52.48   10.38
  -5   2   4   45.35    4.72
  -5   2   4   65.26   23.65
  -4   2   4 2009.39   53.44
  -4  -2  -4 2216.13   60.02
  -4  -2   4 2329.07   63.65
  -4   2   4 2222.76   62.23
  -4   2   4 3104.31  135.95
  -4   2  -4 2355.36   62.34
  -4  -2  -4 1973.97   60.21
  -4   2  -4 2098.20   55.98
  -4   2   4 2218.35   74.54
  -4   2  -4 2327.61   74.52
  -4  -2  -4 1971.73   56.42
  -4   2  -4 1721.91   81.00
  -4  -2   4 2080.58   57.64
  -4  -2  -4 2187.11   54.74
  -4  -2   4 1862.50   62.78
  -4  -2  -4 1904.32   63.91
  -4   2  -4 2080.51   78.06
  -4  -2  -4 1985.14   73.58
  -4  -2   4 2516.57   71.16
  -3  -2  -4   69.85    2.96
  -3  -2   4   88.60    8.00
  -3   2   4   78.07    4.01
  -3  -2  -4   74.69    6.43
  -3  -2  -4   57.88    6.44
  -3   2  -4   57.75    4.65
  -3   2   4   87.30   10.68
  -3   2  -4   81.54   10.16
  -3   2  -4   52.84   11.54
  -3  -2  -4   73.67    3.19
  -3   2  -4   84.06   10.39
  -3  -2   4   72.97    9.24
  -3  -2  -4   64.16    7.42
  -3   2   4   81.10    9.52
  -3  -2  -4   68.79    5.44
  -3  -2   4   87.33    6.33
  -3   2  -4   67.39   11.16
  -3  -2  -4   68.53   11.07
  -3   2   4   96.19   11.21
  -3   2   4  106.33   24.77
  -2   2  -4 2752.06   64.83
  -2  -2   4 2640.88   71.00
  -2  -2  -4 2526.03   66.63
  -2   2   4 2826.24   78.80
  -2   2  -4 3040.04   79.47
  -2   2  -4 2672.99   84.75
  -2  -2   4 2534.70   67.07
  -2   2   4 2793.69   78.35
  -2  -2  -4 2676.21   71.05
  -2   2   4 2708.08   82.30
  -2  -2   4 2877.71   82.25
  -2   2  -4 2442.11   90.00
  -2   2  -4 2622.78   70.14
  -2   2  -4 3013.58   79.10
  -2  -2   4 2195.28   80.22
  -2   2   4 2705.56   99.75
  -2  -2  -4 2686.10   89.89
  -2  -2  -4 3597.46  125.61
  -1   2  -4  142.36    8.66
  -1  -2   4  145.79    9.05
  -1   2   4  142.10   10.27
  -1   2  -4  156.31   10.63
  -1  -2   4  162.32   14.54
  -1   2  -4  153.31   15.74
  -1   2   4  140.53   14.35
  -1   2  -4  147.34   13.63
  -1  -2   4  138.20   13.20
  -1  -2  -4  148.20   17.05
  -1   2   4  136.01   17.21
  -1  -2  -4  188.04   27.28
  -1   2   4  189.26   31.26
  -1   2   4  146.68   10.52
  -1   2  -4  167.11   11.15
   0   2  -4 1887.59   48.25
   0  -2   4 1890.95   52.10
   0   2   4 1894.27   48.33
   0   2  -4 2155.51   54.09
   0  -2  -4 1948.81   54.49
   0   2   4 1954.14   52.46
   0   2   4 1790.48   46.23
   0  -2   4 2044.57   68.03
   0   2   4 1953.01   46.38
   0  -2   4 1907.37   46.31
   0  -2   4 1917.10   63.88
   0   2   4 1763.18   52.15
   0   2   4 1807.09   69.09
   0   2   4 1789.62   52.46
   0   2  -4 2205.07   54.64
   0   2   4 2182.69  108.13
   0   2   4 1970.87   69.28
   1   2   4  163.18   11.34
   1  -2  -4  153.70   10.54
   1   2   4  138.95    7.25
   1   2   4  135.75    8.86
   1   2   4  148.79    7.12
   1  -2   4  111.99    5.28
   1   2  -4  141.51    6.77
   1   2  -4  157.72    5.91
   1  -2   4  136.46    5.59
   1  -2   4  149.33   16.08
   1   2   4  131.06    8.84
   1   2  -4  162.24    9.98
   1   2   4  145.87   16.69
   1  -2  -4  143.45    9.81
   1  -2   4  132.59    9.29
   1   2   4  137.74   26.41
   1   2   4  142.93   10.69
   1   2   4  148.03    9.61
   1   2   4  130.65   14.11
   1   2  -4  153.98   13.65
   1  -2  -4  137.84   24.28
   2   2   4 2370.62   65.38
   2   2  -4 2351.63   81.65
   2   2   4 2609.18   63.85
   2   2  -4 2466.81   62.96
   2  -2  -4 2359.35   74.97
   2  -2   4 2491.45   71.07
   2   2   4 2598.04   64.31
   2  -2   4 2440.94   69.32
   2   2   4 2717.03   68.17
   2  -2   4 2850.00   93.22
   2   2   4 2479.80   68.18
   2  -2   4 2489.65   67.92
   2   2   4 2618.39   91.28
   2   2  -4 2374.01   76.27
   2  -2  -4 2581.07   71.36
   2   2   4 2685.72   73.24
   2   2   4 2872.79   71.52
   2  -2  -4 2251.81  110.01
   2   2   4 2158.12  108.42
   2   2  -4 2463.47   63.29
   2  -2  -4 2543.58   69.58
   2   2   4 2569.15   94.64
   3   2  -4   63.06    9.54
   3   2   4   74.99   13.25
   3   2   4   84.24    6.37
   3   2  -4   77.28    5.78
   3  -2  -4   69.55   10.30
   3   2   4   87.68   11.17
   3  -2   4   80.31    8.85
   3   2   4   73.53    7.08
   3   2   4   60.95    6.32
   3   2   4   69.14   13.44
   3  -2   4   72.90    7.35
   3  -2  -4   60.83    7.73
   3   2   4   90.34    6.40
   3   2  -4   67.72    5.27
   3   2   4   79.27    7.69
   3  -2  -4   59.53    7.91
   3  -2   4   74.97    9.00
   3   2   4   77.64    9.50
   3  -2  -4   70.91   17.66
   3   2   4   66.60   17.30
   4   2   4 1928.51   76.57
   4   2   4 2069.57   55.27
   4   2  -4 1918.33   53.44
   4  -2  -4 1696.83   61.28
   4   2   4 1857.45   56.80
   4  -2   4 1786.63   63.20
   4  -2  -4 2324.38   68.43
   4   2   4 1996.08   68.92
   4  -2   4 1969.62   59.93
   4   2   4 2058.62   54.42
   4   2  -4 1955.11   52.83
   4   2   4 1841.42   88.67
   4   2   4 2295.86   72.24
   4  -2  -4 1691.58   63.56
   4  -2   4 1862.46   66.31
   5  -2   4   45.52   12.40
   5  -2  -4   37.09    8.01
   5   2   4   53.55    7.09
   5  -2   4   37.08    8.76
   5   2   4   47.51    9.75
   5  -2  -4   50.25    8.03
   5   2   4   44.62    5.83
   5   2  -4   43.32    5.32
   5   2  -4   42.38    5.43
   5  -2  -4   28.94    7.70
   5  -2   4   38.63    8.60
   5   2   4   52.57   13.16
   6  -2  -4  754.43   42.94
   6  -2   4  707.66   43.64
   6  -2  -4  735.08   40.05
   6   2   4  953.80   36.96
   6   2  -4  942.93   33.24
   6   2   4 1016.01   35.23
   6   2  -4 1012.16   33.65
   6   2   4 1086.19   50.34
   6  -2   4  702.27   40.96
   6  -2  -4 1389.92   41.35
   6  -2  -4  996.13   30.76
   7  -2   4   38.40    4.05
   7  -2  -4   52.20    6.08
   7   2   4   53.42    8.15
   7  -2   4   26.27    9.39
   7   2   4   59.29    8.78
   7   2  -4   58.45    8.13
   7   2  -4   45.59    9.98
   7   2   4   56.59   11.27
   7  -2   4   29.92    8.90
   7  -2  -4   67.49    7.36
   7  -2  -4   38.17   10.34
   7  -2  -4   30.28    8.92
   7   2  -4   48.53    6.72
   7   2  -4   32.16   12.95
   8  -2  -4  724.72   27.26
   8   2  -4  709.66   31.57
   8  -2  -4  609.41   41.35
   8   2  -4  682.30   28.38
   8   2   4  741.40   34.04
   8   2   4  725.37   32.96
   8   2  -4  566.78   45.62
   9   2   4   25.92    7.07
   9  -2  -4   30.71   11.11
   9  -2   4   25.78   11.23
   9   2   4   39.86    8.75
   9   2  -4   33.73    7.62
   9  -2  -4   37.84    6.48
   9   2  -4   24.26    5.99
   9   2  -4   19.96   10.91
  10   2  -4  462.34   24.56
  10  -2  -4  488.89   39.02
  10  -2  -4  530.14   24.23
  10   2   4  530.16   30.87
  10   2  -4  509.08   28.67
  10   2   4  536.90   29.75
  11   2  -4    5.52    4.38
 -11   3  -4   13.61    5.80
 -10  -3  -4  425.98   24.26
 -10   3  -4  209.32   17.96
 -10  -3   4  416.63   24.92
 -10   3  -4  192.84   34.01
 -10   3  -4  539.84   28.92
 -10   3   4  474.22   27.89
  -9  -3  -4   57.35   12.14
  -9  -3  -4   83.47   10.20
  -9  -3   4   82.07   10.62
  -9   3  -4  101.42   12.60
  -9   3  -4   38.72   16.23
  -9   3   4  100.87   12.94
  -9  -3  -4   89.86   15.42
  -9   3   4  118.89   30.62
  -8   3   4  627.48   25.75
  -8  -3  -4  670.29   29.56
  -8   3   4  792.92   48.91
  -8   3  -4  846.41   48.86
  -8  -3   4  668.66   30.62
  -8  -3  -4  540.01   33.37
  -8  -3  -4  716.16   40.47
  -8   3   4 1025.32   80.66
  -7  -3   4   83.50   11.03
  -7   3  -4   47.43    6.81
  -7   3  -4   83.37   15.37
  -7   3   4   59.88    6.63
  -7  -3  -4   71.08    8.34
  -7  -3   4   58.77    8.27
  -7  -3  -4   63.81   10.42
  -7  -3  -4   67.62   12.41
  -7   3   4   63.22   14.19
  -7   3   4   74.74   25.85
  -6   3   4  942.33   49.27
  -6   3   4  913.51   35.84
  -6   3  -4 1075.53   37.35
  -6   3  -4  802.87   29.06
  -6   3  -4 1033.90   50.56
  -6   3  -4  642.67   53.07
  -6  -3  -4  853.60   31.21
  -6  -3   4  846.27   32.15
  -6   3   4  466.27   31.33
  -6  -3  -4  782.11   34.60
  -6  -3  -4  941.49   44.94
  -6   3   4 1265.75   89.71
  -6   3   4  812.77   27.38
  -5  -3  -4  177.73    8.07
  -5   3   4  165.36    9.13
  -5   3  -4  175.19   11.88
  -5   3   4  181.67   13.43
  -5   3  -4  187.93   13.51
  -5  -3  -4  160.91   11.03
  -5   3  -4  194.09   19.68
  -5   3  -4  122.53    8.69
  -5  -3   4  182.38   12.74
  -5   3  -4  155.37   23.71
  -5  -3   4  130.04   13.54
  -5   3   4   99.16   12.01
  -5  -3  -4  140.36   11.83
  -5  -3   4  153.95   11.26
  -5  -3  -4  188.74   18.94
  -5   3  -4  165.69   20.77
  -5   3   4  216.85   38.65
  -5   3   4  178.57   19.14
  -4  -3  -4 1397.53   35.86
  -4   3   4 1622.39   60.69
  -4   3   4 1411.33   38.98
  -4   3   4 1569.22   60.13
  -4   3  -4 1735.65   61.61
  -4  -3   4 1620.06   49.73
  -4   3  -4 1249.32   69.23
  -4   3  -4 1531.76   39.42
  -4  -3   4 1278.57   53.78
  -4   3   4 1054.69   46.30
  -4   3  -4 1526.17   45.71
  -4  -3  -4 1632.59   63.59
  -4   3  -4 1757.10   61.76
  -4   3  -4 1526.22   64.64
  -4   3   4 2318.48  120.22
  -4  -3  -4 1457.37   43.22
  -4  -3   4 1425.28   44.16
  -3   3   4  355.13   22.95
  -3   3  -4  388.18   23.81
  -3   3   4  350.25   22.69
  -3   3  -4  391.71   23.88
  -3  -3   4  328.63   15.09
  -3  -3  -4  298.89   14.09
  -3   3  -4  271.84    9.91
  -3   3  -4  280.03   27.87
  -3  -3   4  357.83   20.29
  -3   3   4  292.75   17.09
  -3  -3   4  285.97   22.44
  -3   3   4  311.54   22.91
  -3  -3  -4  366.83   27.71
  -3   3  -4  326.29   25.36
  -3   3   4  323.73   11.06
  -2   3   4 1813.42   57.97
  -2   3  -4 2084.07   60.43
  -2  -3  -4 1590.41   46.52
  -2  -3   4 1643.30   50.01
  -2   3  -4 1806.01   42.71
  -2   3   4 1558.72   41.45
  -2   3   4 1737.37   57.10
  -2   3  -4 1950.64   59.27
  -2   3  -4 1669.63   70.76
  -2  -3   4 1951.36   61.44
  -2   3   4 1629.88   49.13
  -2   3   4 1806.80   65.69
  -2  -3   4 1746.45   60.99
  -2  -3   4 1384.83   61.66
  -2   3  -4 1871.48   64.98
  -1  -3   4  156.93   10.42
  -1   3   4  171.44   12.88
  -1   3  -4  201.41   14.04
  -1   3  -4  146.93   16.95
  -1   3   4  143.84    9.98
  -1  -3   4  170.38   16.40
  -1   3   4  166.59    8.57
  -1   3   4  163.43   17.79
  -1   3  -4  169.41   15.43
  -1  -3   4  126.93   16.46
  -1  -3   4  163.37   15.11
  -1   3   4  143.11   19.00
  -1   3   4  158.72   12.34
  -1   3  -4  186.88   13.60
   0   3   4 1559.82   43.20
   0   3  -4 1825.14   51.53
   0   3   4 1866.33   54.72
   0   3  -4 1611.27   43.25
   0   3   4 1388.43   40.53
   0   3   4 1580.23   45.96
   0  -3   4 1785.83   65.48
   0   3   4 1445.92   48.32
   0   3   4 1627.43   66.29
   0   3   4 1461.01   63.28
   0  -3   4 1508.77   57.17
   0   3   4 1477.76   48.58
   0   3  -4 1899.51   52.10
   0   3   4 1967.79  105.96
   1  -3  -4  160.77   13.07
   1   3  -4  165.25   10.49
   1   3   4  174.21   12.73
   1   3   4  140.05    8.28
   1   3   4  146.48   10.05
   1  -3   4  150.53    7.78
   1  -3  -4  150.64   11.89
   1   3   4  172.44   11.90
   1   3  -4  201.98    8.99
   1  -3   4  144.80   11.59
   1  -3  -4  168.53   12.63
   1  -3   4  185.86   20.27
   1  -3  -4  155.07   19.18
   1   3   4  161.98    8.85
   1   3   4  174.35   20.07
   1   3  -4  169.24    8.75
   1   3   4  147.81   11.21
   1   3  -4  192.86   13.01
   1   3   4  166.74   10.62
   1   3   4  153.40   16.17
   1  -3   4  157.92   15.95
   1   3   4  200.75   32.28
   2  -3  -4 1613.78   55.92
   2   3   4 1694.87   46.38
   2   3  -4 1690.86   45.86
   2   3  -4 1866.49   54.24
   2  -3  -4 1630.85   54.36
   2   3   4 1748.21   50.15
   2   3  -4 1926.38   46.65
   2   3   4 1662.24   51.53
   2  -3   4 1661.03   46.85
   2   3   4 1523.16   50.86
   2  -3   4 1633.86   50.77
   2  -3  -4 1794.45   71.41
   2   3   4 1791.30   74.80
   2  -3  -4 1687.68   55.87
   2  -3   4 1499.57   53.94
   2   3  -4 1616.69   55.43
   2   3   4 1698.88   61.22
   2   3   4 1808.50   53.75
   2   3   4 1740.86   50.57
   2  -3   4 1729.02   65.88
   2   3   4 1601.89   94.36
   2   3   4 1534.79   46.94
   3   3   4  313.64   14.08
   3   3  -4  317.52   13.63
   3   3  -4  252.73   20.75
   3   3   4  301.46   15.45
   3  -3  -4  299.88   18.52
   3   3   4  331.59   14.83
   3   3  -4  320.67   14.09
   3   3   4  295.54   15.80
   3  -3   4  292.93   16.93
   3  -3  -4  302.08   25.57
   3   3   4  320.64   29.84
   3   3   4  318.63   17.68
   3   3   4  310.87   17.02
   3   3  -4  280.11   18.36
   3  -3  -4  287.08   19.44
   3  -3   4  288.23   18.33
   3  -3   4  320.79   20.48
   3  -3  -4  257.79   19.22
   3   3   4  223.79   33.57
   3  -3   4  304.46   25.30
   3   3   4  346.83   19.07
   3   3   4  270.39   27.15
   4   3  -4 1323.17   48.45
   4   3   4 1279.63   61.60
   4   3   4 1414.07   41.74
   4   3  -4 1377.52   40.41
   4  -3  -4 1231.62   48.03
   4  -3   4 1221.60   48.69
   4   3   4 1296.71   43.15
   4   3   4 1446.96   52.86
   4  -3  -4  961.33   47.47
   4  -3  -4 1705.74   62.86
   4  -3   4 1302.30   46.25
   4  -3  -4 1249.72   50.80
   4  -3   4 1251.55   51.43
   4   3   4 1397.05   40.65
   4   3  -4 1403.40   39.65
   4   3   4 1005.17   70.91
   4  -3   4 1388.60   63.73
   5   3   4  127.14   17.51
   5   3   4  153.72   11.10
   5   3  -4  142.20   10.14
   5  -3  -4   75.68   12.08
   5  -3  -4  127.46   14.25
   5  -3   4  137.29   14.95
   5   3   4  150.10   12.15
   5   3   4  147.65   15.67
   5   3   4  166.35   24.00
   5  -3  -4  204.31   19.42
   5  -3   4  137.39   13.20
   5   3   4  151.23   10.44
   5   3  -4  152.85    9.89
   5  -3  -4  131.94   15.01
   5  -3   4  132.17   15.67
   5   3   4  128.14   23.04
   5  -3   4  161.31   21.81
   6   3   4  811.09   31.29
   6   3  -4  822.83   30.18
   6   3  -4  820.44   29.01
   6  -3  -4 1100.91   45.43
   6   3   4  753.25   32.38
   6  -3  -4  628.30   36.20
   6  -3   4  619.64   37.24
   6   3  -4  782.59   30.19
   6   3   4  858.90   42.00
   6   3   4  877.68   56.37
   6   3   4  828.54   30.23
   6   3   4  666.18   48.42
   6  -3  -4  637.21   38.61
   6  -3   4  624.37   39.66
   7  -3   4   45.98   11.44
   7   3  -4   60.90    7.66
   7   3   4   66.42    9.11
   7  -3  -4   80.74   11.71
   7  -3  -4   53.74   11.63
   8   3   4  647.75   30.61
   8   3  -4  561.45   26.04
   8   3  -4  529.58   45.73
   8  -3  -4  459.75   35.78
   8  -3   4  371.22   34.22
   9   3  -4   77.13   10.40
   9   3  -4   63.60    8.73
   9   3   4   84.98   11.71
   9  -3   4   49.09   13.74
   9   3   4   92.30   11.63
   9  -3  -4   64.55   14.61
  10   3   4  407.39   26.46
  10   3  -4  406.15   25.17
  10   3   4  424.24   25.99
  10   3  -4  388.67   22.29
  10  -3  -4  322.59   32.07
  -9  -4  -4   91.84    8.55
  -9  -4   4  102.38   13.56
  -9  -4  -4   54.18   10.10
  -9   4   4   89.76   18.43
  -9   4  -4   89.41   18.34
  -9  -4  -4   71.38    9.97
  -9  -4   4   80.02   10.98
  -8  -4   4  490.56   27.49
  -8  -4  -4  428.40   17.51
  -8  -4  -4  291.18   21.00
  -8   4  -4  250.93   16.57
  -8   4   4  405.28   35.20
  -8   4  -4  460.98   36.97
  -8   4  -4  173.24   32.17
  -8  -4  -4  442.34   29.89
  -8  -4  -4  379.01   21.47
  -8  -4   4  417.92   23.35
  -7  -4   4  121.25   13.16
  -7  -4  -4  105.36    7.48
  -7   4  -4  128.14   19.53
  -7  -4  -4   82.71   10.67
  -7   4  -4   73.36    7.75
  -7   4  -4   59.16   19.26
  -7  -4  -4   89.39    9.86
  -7  -4  -4  117.34   16.26
  -7   4   4  110.68   18.42
  -7  -4  -4  107.29   10.69
  -7  -4   4  112.17   11.29
  -6  -4   4  468.08   22.98
  -6  -4   4  503.15   25.53
  -6  -4  -4  446.12   15.71
  -6   4   4  421.70   17.70
  -6   4   4  485.84   34.90
  -6   4  -4  514.39   35.84
  -6   4  -4  415.15   17.49
  -6   4  -4  321.24   39.24
  -6  -4   4  374.60   26.96
  -6  -4  -4  394.28   22.29
  -6  -4  -4  438.39   21.62
  -5   4   4  130.72   17.22
  -5  -4   4  137.83   12.14
  -5  -4  -4  113.35    6.08
  -5   4  -4  139.33   17.46
  -5  -4   4  122.93   10.81
  -5   4   4  111.88    7.56
  -5   4  -4  144.54   18.11
  -5   4   4  192.36   38.63
  -5  -4  -4   89.12    9.74
  -5   4   4  120.01   16.43
  -5   4  -4  108.33    6.79
  -5   4  -4   96.99   21.03
  -5   4   4   88.33   10.72
  -5  -4   4  101.44   14.45
  -5  -4  -4  120.40   10.23
  -4   4   4  763.38   39.77
  -4  -4   4  765.45   29.93
  -4   4   4  755.24   39.15
  -4   4  -4  847.63   41.69
  -4   4  -4  669.28   26.77
  -4   4   4  650.62   21.44
  -4   4  -4  778.11   40.32
  -4  -4  -4  609.98   26.94
  -4  -4  -4  638.66   25.79
  -4   4  -4  528.85   45.69
  -4  -4   4  710.03   27.66
  -4   4   4  616.30   28.38
  -4  -4   4  650.82   38.91
  -4   4  -4  729.12   43.05
  -4   4  -4  667.77   18.14
  -3  -4  -4  160.40   11.05
  -3   4   4  200.56   18.01
  -3   4  -4  204.31   18.37
  -3   4   4  171.17    8.11
  -3   4   4  202.04   17.96
  -3  -4  -4  155.88   11.72
  -3   4  -4  191.10   17.93
  -3   4  -4  157.73   22.62
  -3   4   4  178.26   12.27
  -3  -4  -4  179.96    6.95
  -3  -4   4  163.75   19.53
  -3  -4   4  202.76   17.77
  -3   4   4  196.35   20.86
  -3   4  -4  160.82   18.52
  -2   4  -4  857.31   25.94
  -2  -4  -4  775.59   29.91
  -2   4   4  858.60   37.87
  -2   4   4  816.82   30.37
  -2   4  -4  774.22   47.57
  -2   4   4  869.01   29.12
  -2  -4   4  675.09   43.68
  -2   4   4  944.43   47.88
  -2   4  -4  842.58   41.54
  -2  -4   4  923.03   40.55
  -2   4  -4  927.34   39.46
  -2   4   4  877.36   38.32
  -2   4  -4  987.85   40.57
  -1   4  -4  214.26   16.49
  -1   4  -4  172.79   11.75
  -1   4   4  184.37   14.99
  -1   4   4  166.76   11.32
  -1   4  -4  181.73   20.07
  -1   4   4  195.91   21.62
  -1  -4   4  148.36   19.58
  -1   4   4  184.56   11.10
  -1   4   4  131.26   19.73
  -1  -4   4  169.76   16.27
  -1   4  -4  193.63   11.22
  -1   4   4  268.41   40.65
  -1   4   4  199.78   15.37
  -1   4  -4  204.51   15.90
   0   4   4  701.51   24.45
   0   4  -4  652.86   25.52
   0   4  -4  698.43   24.14
   0   4   4  673.72   19.88
   0   4   4  841.04   33.40
   0   4   4  636.52   29.26
   0   4  -4  770.25   32.12
   0   4   4  555.60   21.24
   0   4   4  695.35   25.94
   0   4   4  783.17   45.78
   0   4  -4  690.94   36.78
   0  -4  -4  633.36   44.78
   0  -4   4  438.07   37.39
   0   4   4  580.58   38.60
   0   4   4  700.40   30.32
   0   4  -4  759.00   31.83
   0  -4   4  657.93   34.85
   0   4   4  893.46   71.53
   1   4  -4  183.38   12.09
   1   4  -4  190.06   14.69
   1   4   4  179.22   13.87
   1   4   4  168.84   11.64
   1   4   4  190.16   13.83
   1  -4   4  142.02   12.71
   1  -4  -4  159.06   13.53
   1  -4   4  185.56   12.82
   1  -4  -4  161.06   21.84
   1   4   4  194.49   10.89
   1   4   4  217.88   24.65
   1   4  -4  198.17   10.77
   1   4   4  182.72   14.09
   1   4  -4  208.11   15.34
   1  -4   4  116.37   19.22
   1   4   4  187.84    9.36
   1   4   4  155.14   17.25
   1   4   4  164.60    9.93
   1  -4   4  187.58   18.65
   1   4   4  226.21   36.75
   1   4   4  206.44   14.82
   2   4  -4  788.22   27.18
   2  -4   4  775.97   36.43
   2   4   4  924.30   35.00
   2   4   4  738.31   27.78
   2   4   4  844.11   30.63
   2   4   4  847.54   28.26
   2  -4   4  814.13   28.37
   2   4  -4  930.71   29.03
   2  -4   4  792.28   31.75
   2  -4  -4  757.61   36.11
   2  -4  -4  802.75   49.47
   2   4   4  811.23   34.26
   2   4  -4  910.79   36.58
   2   4   4  900.69   53.79
   2   4  -4  765.84   33.21
   2   4   4  817.40   39.47
   2   4   4  864.14   69.78
   2  -4   4  808.78   43.46
   2   4   4  866.32   33.41
   2  -4  -4  744.96   35.41
   3   4   4  200.03   11.53
   3   4  -4  166.73   10.40
   3  -4  -4  155.53   15.09
   3   4   4  175.17   12.60
   3   4   4  184.24   11.62
   3   4  -4  203.77   11.96
   3   4   4  203.99   14.50
   3  -4   4  182.78   12.37
   3   4  -4  189.50   15.56
   3   4   4  179.75   14.46
   3  -4   4  182.96   13.76
   3  -4  -4  153.28   20.95
   3   4   4  206.69   26.20
   3  -4  -4  157.88   15.56
   3  -4   4  173.92   16.36
   3   4  -4  156.62   10.54
   3   4  -4  156.66   12.32
   3   4   4  173.93   11.72
   3   4   4  184.71   14.18
   3   4   4  140.81   28.73
   3  -4   4  201.92   21.94
   4  -4  -4  555.21   30.39
   4   4   4  623.40   26.39
   4   4  -4  571.04   31.82
   4   4   4  668.17   29.88
   4  -4  -4  486.61   30.10
   4   4   4  713.53   26.43
   4   4  -4  636.81   24.76
   4  -4   4  607.12   32.13
   4   4   4  683.36   29.68
   4   4  -4  709.71   32.65
   4   4   4  601.32   29.48
   4  -4  -4  744.19   44.58
   4  -4   4  652.08   30.25
   4  -4  -4  576.45   33.10
   4  -4   4  617.76   34.70
   4   4   4  709.10   33.49
   4   4   4  440.43   48.82
   4  -4   4  715.30   44.80
   4   4   4  694.69   25.23
   4   4  -4  636.83   23.82
   4   4   4  638.20   43.04
   5   4  -4  100.68   10.50
   5   4   4   89.56   16.08
   5   4   4  108.86    9.74
   5   4  -4  106.05    9.27
   5  -4   4   94.89   12.81
   5   4   4  117.87   13.26
   5  -4  -4  127.95   18.38
   5  -4   4  109.76   12.32
   5   4   4   97.68   10.02
   5  -4  -4   82.22   13.05
   5  -4   4  107.62   14.73
   5  -4  -4   96.41   12.60
   5   4   4  116.82    9.52
   5   4  -4  112.68    8.99
   5   4   4   68.64   19.82
   5  -4  -4   63.79   10.50
   5  -4   4  104.47   19.25
   6   4   4  394.26   30.40
   6   4   4  422.71   20.95
   6   4  -4  417.18   20.01
   6  -4  -4  189.99   19.99
   6   4   4  456.30   27.67
   6   4  -4  383.87   20.30
   6  -4  -4  514.71   34.85
   6  -4  -4  318.78   26.46
   6  -4   4  316.19   27.60
   6   4   4  269.46   35.31
   6   4   4  390.57   21.71
   7  -4  -4   28.20    8.66
   7   4   4  105.38   11.00
   7   4  -4   99.43   10.10
   7   4   4   98.98   11.32
   7  -4  -4  124.57   17.29
   7   4  -4   98.16   10.23
   7  -4  -4   64.50   12.92
   7  -4   4   71.99   13.88
   8  -4  -4  142.63   18.25
   8   4   4  358.96   22.04
   8   4  -4  337.11   19.61
   8  -4  -4  479.93   31.70
   8  -4  -4  241.09   25.42
   8  -4   4  233.40   25.82
   9   4   4   64.62   10.17
   9   4  -4   63.89    8.91
   9  -4   4   46.21   13.39
   9  -4  -4   30.04    9.60
   9  -4  -4   49.46   12.90
  -8  -5   4  287.14   20.71
  -8  -5  -4  258.86   18.37
  -8  -5   4  241.48   18.65
  -8   5  -4  268.11   29.78
  -8  -5  -4  192.65   16.96
  -8   5   4  230.44   27.76
  -7  -5   4  158.09   14.92
  -7  -5  -4  149.95    8.66
  -7  -5  -4  149.72   13.40
  -7  -5  -4  116.60   12.74
  -7   5   4  145.76   21.45
  -7   5  -4  163.79   22.74
  -7   5  -4   93.93   25.22
  -7  -5   4  135.04   13.42
  -6  -5   4  353.42   21.31
  -6   5   4  329.00   29.69
  -6   5  -4  383.42   32.13
  -6  -5  -4  333.47   19.36
  -6  -5   4  327.17   20.07
  -6   5  -4  207.58   33.06
  -6  -5   4  259.45   25.50
  -6  -5  -4  303.46   19.36
  -5  -5   4  283.86   18.29
  -5   5   4  217.26   11.25
  -5   5   4  279.51   25.96
  -5  -5  -4  212.95   15.57
  -5   5  -4  345.74   29.07
  -5  -5   4  209.67   13.44
  -5   5  -4  206.42   31.28
  -5  -5   4  271.97   21.84
  -5  -5  -4  242.93   15.86
  -5  -5   4  236.34   16.19
  -5  -5   4  215.25   23.65
  -4  -5  -4  524.61   24.57
  -4  -5   4  589.17   26.85
  -4   5   4  471.23   18.12
  -4   5   4  542.75   34.52
  -4   5  -4  679.62   38.82
  -4  -5   4  537.95   20.48
  -4   5  -4  477.98   44.62
  -4   5   4  486.42   24.18
  -4  -5  -4  542.98   17.21
  -4  -5   4  478.10   37.02
  -4  -5   4  583.65   31.95
  -3   5   4  433.17   28.26
  -3   5  -4  452.14   29.61
  -3  -5   4  413.12   21.48
  -3   5   4  341.41   14.19
  -3   5  -4  493.61   30.80
  -3   5   4  421.95   28.12
  -3   5   4  313.88   18.13
  -3   5  -4  369.22   36.31
  -3  -5  -4  429.10   14.42
  -3  -5   4  303.14   30.31
  -3   5  -4  429.17   31.24
  -3   5   4  458.11   34.90
  -3  -5   4  408.41   26.39
  -3  -5   4  368.16   14.53
  -3  -5  -4  343.36   19.05
  -2   5   4  518.56   23.46
  -2   5  -4  578.27   24.50
  -2   5  -4  632.44   21.96
  -2   5   4  528.99   23.67
  -2   5  -4  689.71   35.27
  -2   5  -4  590.65   42.78
  -2  -5  -4  578.47   19.76
  -2  -5   4  457.76   38.53
  -2   5  -4  585.64   34.54
  -2   5   4  671.02   43.21
  -2   5   4  542.64   31.48
  -2  -5   4  559.60   16.20
  -2  -5   4  575.22   32.08
  -2   5   4  614.77   32.76
  -2   5  -4  677.56   34.71
  -1   5  -4  323.61   15.04
  -1   5  -4  327.26   16.31
  -1   5   4  286.13   21.04
  -1   5   4  280.02   15.45
  -1   5   4  234.61   14.83
  -1   5  -4  308.57   27.87
  -1   5   4  277.63   12.78
  -1  -5   4  171.01   23.93
  -1   5   4  307.87   30.08
  -1   5   4  181.65   24.88
  -1   5  -4  385.82   24.69
  -1  -5   4  268.01   21.67
  -1   5   4  289.05   20.63
  -1   5  -4  358.70   23.37
  -1   5   4  269.11   20.59
   0   5  -4  516.62   21.04
   0   5  -4  485.20   22.40
   0   5   4  433.24   16.03
   0   5   4  445.02   26.03
   0   5  -4  575.10   29.77
   0   5   4  476.20   21.72
   0   5  -4  471.30   31.09
   0  -5  -4  436.28   39.58
   0   5   4  516.43   39.73
   0   5   4  447.97   16.58
   0  -5   4  312.18   33.37
   0   5   4  394.59   32.55
   0   5   4  474.14   26.41
   0   5  -4  588.59   29.76
   0   5   4  611.27   62.33
   0  -5   4  423.06   29.06
   0   5   4  519.93   19.99
   0   5   4  461.35   20.26
   1   5   4  270.19   19.32
   1   5  -4  346.90   22.34
   1   5   4  217.23   12.83
   1   5   4  247.12   15.22
   1  -5   4  224.49   18.50
   1  -5  -4  269.84   20.33
   1  -5  -4  288.11   31.93
   1   5   4  267.32   14.47
   1   5  -4  316.14   15.24
   1  -5   4  138.67   23.15
   1   5   4  251.40   18.56
   1   5  -4  380.84   23.21
   1   5   4  240.78   22.92
   1   5   4  330.96   47.02
   1  -5   4  266.08   23.52
   2   5   4  555.75   22.65
   2   5   4  605.71   25.20
   2   5   4  472.98   21.61
   2  -5   4  514.05   22.84
   2   5  -4  692.90   25.37
   2  -5   4  417.27   27.34
   2  -5  -4  477.56   28.81
   2  -5  -4  550.20   43.85
   2   5   4  542.05   28.67
   2   5  -4  675.70   32.46
   2  -5   4  262.61   33.21
   2   5   4  541.52   32.18
   2   5  -4  554.71   26.60
   2   5  -4  579.17   22.59
   2   5   4  658.11   63.87
   2  -5   4  560.87   37.08
   3   5   4  420.07   19.85
   3   5  -4  387.20   17.90
   3   5  -4  383.84   18.78
   3   5   4  340.37   18.41
   3   5  -4  461.33   27.28
   3   5  -4  339.07   17.37
   3  -5   4  386.06   20.13
   3   5  -4  498.07   21.29
   3  -5  -4  357.56   26.20
   3  -5   4  353.66   26.25
   3  -5  -4  382.65   35.91
   3   5   4  389.69   24.36
   3   5   4  407.36   18.81
   3   5   4  381.14   49.19
   3  -5   4  390.03   32.46
   4   5  -4  533.54   23.14
   4   5   4  542.22   23.97
   4  -5  -4  436.54   28.41
   4   5   4  555.83   28.83
   4   5  -4  667.60   26.15
   4   5   4  437.33   22.54
   4  -5   4  475.64   24.73
   4  -5  -4  596.51   44.11
   4  -5   4  491.55   27.31
   4  -5  -4  435.89   30.55
   4  -5   4  431.44   30.88
   4   5   4  352.76   46.77
   4  -5   4  585.46   42.71
   4   5   4  428.33   38.07
   5   5   4  222.19   25.44
   5  -5  -4  169.49   17.65
   5   5   4  239.73   15.50
   5   5   4  206.95   15.10
   5  -5  -4  266.53   28.80
   5  -5   4  231.85   18.75
   5  -5  -4  195.84   20.61
   5  -5   4  189.94   20.88
   5   5   4  120.41   28.12
   5   5  -4  238.30   14.99
   6   5   4  295.47   27.63
   6   5   4  297.87   18.25
   6   5  -4  324.49   18.22
   6  -5  -4  194.52   19.60
   6   5  -4  305.26   18.76
   6  -5  -4  368.36   33.18
   6  -5  -4  246.08   24.25
   6  -5   4  238.51   24.57
   6   5   4  284.99   18.74
   7   5   4  127.00   12.33
   7   5  -4  142.67   12.40
   7  -5  -4   57.07   11.33
   7   5  -4  148.27   13.20
   7  -5  -4  178.72   23.49
   7   5   4  115.07   12.47
   7  -5  -4   99.92   16.52
   7  -5   4   90.34   16.50
   8   5   4  229.57   17.38
   8   5  -4  231.63   16.66
   8   5  -4  222.27   16.55
   8  -5  -4   81.19   13.72
   8  -5  -4  274.69   27.65
   8  -5  -4  148.24   20.80
   8  -5   4  153.08   21.97
   8   5   4  207.82   17.26
  -8  -6   4  197.43   15.62
  -7  -6   4  102.85   10.54
  -7  -6  -4   96.16   11.95
  -6  -6   4  312.56   20.87
  -6  -6  -4  255.12   18.09
  -6   6   4  247.29   27.01
  -6  -6   4  253.04   15.24
  -6   6  -4  206.03   34.83
  -6  -6   4  210.13   25.53
  -6  -6   4  302.81   23.01
  -6   6  -4  314.82   30.36
  -5  -6   4  190.27   15.72
  -5   6  -4  203.14   23.92
  -5  -6  -4  153.35   13.73
  -5   6   4  182.56   22.39
  -5  -6   4  164.93   11.07
  -5   6  -4  138.43   28.02
  -5  -6  -4  178.14    9.12
  -5  -6   4  159.86   22.68
  -5  -6   4  198.25   18.19
  -4  -6  -4  326.51   19.22
  -4  -6   4  358.94   21.69
  -4   6   4  351.64   28.88
  -4   6  -4  401.37   31.49
  -4   6  -4  327.30   38.71
  -4  -6  -4  336.78   13.61
  -4  -6   4  344.80   23.95
  -4  -6   4  318.73   14.02
  -3   6   4  256.27   23.45
  -3   6  -4  286.35   25.26
  -3  -6   4  224.81    9.40
  -3   6  -4  213.95   29.38
  -3  -6  -4  246.13   11.85
  -3  -6   4  212.75   27.85
  -3  -6   4  245.85   20.38
  -2   6  -4  509.72   21.17
  -2   6   4  400.28   18.54
  -2   6  -4  501.65   32.40
  -2   6   4  404.71   28.62
  -2   6  -4  456.77   39.23
  -2  -6   4  309.94   34.55
  -2  -6   4  413.70   27.62
  -1   6   4  240.47   12.18
  -1   6  -4  260.00   14.62
  -1   6   4  231.62   20.59
  -1   6  -4  250.68   26.33
  -1  -6  -4  193.89   29.41
  -1  -6   4  129.67   23.12
  -1   6   4  158.76   23.53
  -1   6  -4  300.73   23.93
  -1  -6   4  214.32   20.35
   0   6   4  448.07   17.14
   0   6   4  452.80   28.45
   0   6  -4  561.73   32.29
   0   6  -4  509.96   33.53
   0  -6   4  435.42   23.78
   0  -6  -4  408.74   41.20
   0  -6   4  298.47   35.41
   0   6   4  345.73   31.95
   0  -6   4  456.25   31.24
   1   6   4  242.16   19.93
   1   6   4  161.04   11.77
   1  -6   4  250.67   17.49
   1  -6  -4  188.22   28.17
   1  -6   4  144.29   25.11
   1   6  -4  283.58   22.30
   1   6   4  202.94   21.92
   1  -6   4  208.43   22.39
   2   6   4  417.85   26.68
   2  -6  -4  364.96   25.27
   2  -6   4  352.49   26.47
   2  -6  -4  385.51   27.17
   2  -6   4  401.60   23.32
   2  -6  -4  398.59   40.08
   2  -6   4  198.52   30.13
   2   6   4  362.02   26.67
   2   6  -4  425.80   22.36
   2   6   4  332.65   18.35
   2   6  -4  556.30   31.32
   2  -6   4  436.05   34.04
   3   6   4  198.73   14.20
   3  -6  -4  173.26   17.79
   3  -6   4  225.32   16.03
   3   6  -4  293.57   17.54
   3  -6   4  219.61   21.53
   3  -6  -4  235.94   21.99
   3  -6  -4  273.82   33.20
   3  -6   4  100.47   23.04
   3  -6   4  273.47   29.35
   4  -6   4  293.26   26.81
   4   6  -4  336.90   18.90
   4   6   4  255.51   17.19
   4  -6   4  304.76   19.99
   4  -6  -4  229.57   21.35
   4   6  -4  441.74   22.19
   4   6   4  346.41   19.56
   4  -6  -4  284.60   26.01
   4  -6  -4  367.36   37.32
   5   6   4  171.50   13.85
   5   6   4  153.04   13.39
   5  -6  -4   96.69   14.33
   5  -6  -4  176.49   26.02
   5  -6  -4  137.54   18.75
   5  -6   4  136.51   19.26
   5  -6   4   95.13   23.46
   5   6  -4  190.92   14.10
   5  -6   4  134.53   14.05
   5   6   4  132.35   21.70
   6   6   4  258.16   17.45
   6   6  -4  269.68   17.20
   6  -6  -4  130.48   17.39
   6  -6   4  180.96   17.38
   6  -6  -4  291.10   32.64
   6  -6  -4  191.14   22.51
   6  -6   4  188.59   23.30
   6  -6   4  248.49   35.81
   6  -6  -4  153.98   18.08
   6   6   4  211.56   16.36
   7  -6  -4   60.52   11.88
   7  -6   4   62.14   11.28
  -6  -7   4   87.39   18.44
  -5   7  -4  109.91   25.87
  -5  -7   4  132.85   23.07
  -4   7   4  219.19   24.31
  -4   7  -4  258.63   26.82
  -4   7  -4  183.86   30.98
  -4  -7   4  153.72   25.30
  -3   7   4  253.57   25.14
  -3   7  -4  247.52   33.18
  -3   7  -4  302.58   27.83
  -2   7  -4  300.26   26.66
  -2   7  -4  236.73   29.81
  -2  -7   4  162.03   27.48
  -2   7   4  238.26   23.10
  -2  -7   4  212.01   20.06
  -1   7   4  235.40   22.58
  -1   7  -4  292.14   25.89
  -1   7  -4  275.48   28.76
  -1  -7   4  228.17   17.87
  -1  -7  -4  209.57   32.46
  -1  -7   4  152.93   27.63
  -1  -7   4  229.92   21.91
   0   7  -4  232.69   22.68
   0  -7   4  194.37   16.33
   0   7   4  221.98   21.39
   0  -7   4  200.30   21.63
   1   7   4  148.02   12.15
   1   7   4  257.97   22.40
   1   7  -4  305.53   25.40
   1  -7   4  224.32   17.66
   1  -7   4  113.44   24.57
   1  -7  -4  200.86   31.24
   1  -7   4  237.09   25.30
   2   7  -4  272.90   23.95
   2   7   4  219.20   20.65
   2   7   4  154.49   12.53
   2  -7   4  210.51   17.61
   2  -7  -4  172.92   29.18
   2  -7   4   83.68   21.66
   3   7   4  280.31   23.74
   3   7  -4  306.09   25.78
   3   7   4  260.74   17.47
   3   7   4  177.18   14.23
   3  -7  -4  193.78   19.94
   3  -7   4  219.14   23.02
   3  -7  -4  193.46   21.48
   3  -7  -4  242.87   34.37
   3  -7   4  235.94   19.51
   3  -7   4   81.20   21.72
   3   7  -4  262.47   17.27
   4   7  -4  239.97   23.28
   4   7   4  160.60   13.91
   4  -7   4  178.74   16.11
   4  -7   4  151.53   19.72
   4  -7  -4  154.58   19.63
   4  -7  -4  211.80   31.47
   4   7   4  186.37   19.96
   4   7  -4  217.96   15.98
   4   7   4  213.46   16.21
   5  -7  -4  215.27   31.51
   5   7   4  127.21   12.87
   6  -7  -4  151.49   26.31
 -11   0   5  365.64   24.09
 -10   0  -5   -0.34    4.52
 -10   0   5    1.14    4.87
 -10   0  -5    3.35    4.36
  -9   0  -5  838.31   55.97
  -9   0  -5  600.77   32.55
  -9   0  -5  658.25   50.96
  -9   0  -5  936.92   35.78
  -9   0   5  810.06   35.39
  -8   0   5    1.23    3.62
  -8   0   5    5.19    8.13
  -8   0  -5   -1.95    8.20
  -8   0  -5   -0.34    3.37
  -8   0  -5    2.78    3.95
  -8   0   5   -1.10   10.45
  -8   0  -5   -0.97    6.35
  -8   0  -5    1.63    3.38
  -7   0  -5 1128.81   65.36
  -7   0  -5 1304.91   41.55
  -7   0   5 1188.36   41.90
  -7   0  -5 1075.11   42.62
  -7   0  -5 1001.44   60.44
  -7   0  -5 1224.62   43.21
  -7   0   5 1694.87   80.33
  -7   0  -5 1072.20   57.34
  -7   0  -5 1308.48   42.25
  -7   0   5 1193.87   42.49
  -7   0  -5 1625.08   63.70
  -7   0   5 1638.17   69.88
  -6   0  -5    2.51    5.51
  -6   0   5   -0.78    6.87
  -6   0  -5    0.88    7.11
  -6   0  -5   -0.57    2.41
  -6   0   5    0.43    2.51
  -6   0  -5    0.26    2.75
  -6   0  -5    1.03    2.97
  -6   0  -5    0.88    2.96
  -6   0   5    2.75    8.96
  -6   0  -5   -0.20    2.25
  -6   0   5   -0.23    2.41
  -6   0  -5   -6.18    8.35
  -5   0  -5 1350.49   69.13
  -5   0  -5 1486.33   42.76
  -5   0   5 1324.57   42.94
  -5   0  -5 1614.38   47.54
  -5   0  -5 1427.81   45.71
  -5   0  -5 1492.16   43.90
  -5   0   5 1835.25   77.31
  -5   0  -5 1325.87   58.66
  -5   0  -5 1442.10   43.09
  -5   0   5 1320.75   43.28
  -5   0  -5 1477.40   77.27
  -5   0   5 1824.06   75.59
  -4   0   5   -0.76    6.95
  -4   0  -5    1.86    2.33
  -4   0  -5    0.78    6.41
  -4   0  -5   -0.37    1.56
  -4   0   5   -0.41    1.68
  -4   0  -5    0.95    2.37
  -4   0   5   -0.71    5.96
  -4   0  -5    0.13    1.58
  -4   0   5    0.85    1.71
  -4   0  -5    1.10    6.95
  -4   0  -5   -0.47    4.17
  -3   0   5 2541.94   91.88
  -3   0  -5 1982.02   83.45
  -3   0  -5 2117.80   53.45
  -3   0   5 1947.32   53.68
  -3   0  -5 2337.12   58.70
  -3   0  -5 2124.30   57.58
  -3   0  -5 1993.85   69.34
  -3   0   5 2350.03   83.03
  -3   0  -5 2115.97   53.42
  -3   0   5 2045.30   53.88
  -3   0  -5 1907.15   96.85
  -2   0   5   -2.20    5.61
  -2   0   5    0.22    0.80
  -2   0  -5    0.42    0.78
  -2   0  -5    1.26    1.20
  -2   0  -5    0.39    1.43
  -2   0  -5   -0.70    1.60
  -2   0  -5    0.47    0.83
  -2   0   5    0.73    0.80
  -2   0   5    2.13    4.49
  -2   0  -5   -1.18    9.47
  -2   0  -5    1.40    2.88
  -1   0  -5 2666.02   98.39
  -1   0   5 3241.52  108.26
  -1   0  -5 2711.64   69.20
  -1   0   5 2655.46   71.09
  -1   0  -5 3074.58   71.20
  -1   0  -5 2750.09   91.97
  -1   0  -5 2453.05  117.51
  -1   0  -5 2955.70   72.56
   0   0  -5    1.85    4.47
   0   0   5    0.44    1.15
   0   0   5    0.12    1.56
   0   0  -5   -0.49    3.42
   0   0   5    0.72    3.17
   1   0  -5 2703.90   93.11
   1   0   5 2633.33   68.34
   1   0   5 2726.81   84.86
   1   0   5 2780.23   71.13
   1   0  -5 2466.75  119.52
   2   0   5    3.98    3.57
   2   0  -5   -0.29    1.57
   2   0  -5    0.79    1.61
   2   0   5    1.08    1.98
   2   0   5    1.68    1.70
   2   0   5    0.99    1.96
   2   0   5    0.50    3.69
   2   0   5    0.85    1.25
   2   0  -5   -1.29    9.37
   3   0  -5 1935.27   59.45
   3   0   5 1649.42   59.27
   3   0  -5 2036.44   49.51
   3   0  -5 1869.21   57.85
   3   0   5 1626.28   57.84
   3   0   5 2167.67   54.24
   3   0   5 2046.86   74.40
   3   0   5 1999.34   54.02
   3   0   5 1897.56   69.20
   3   0  -5 1663.87   95.01
   4   0   5    0.54    4.14
   4   0   5    0.44    2.10
   4   0  -5    0.32    1.34
   4   0   5    0.37    1.58
   4   0  -5   -1.05    3.01
   4   0   5    2.06    3.48
   4   0  -5   -0.31    2.81
   4   0   5   -0.37    2.76
   4   0   5    2.44    5.03
   4   0  -5   -1.32    8.68
   5   0   5 1326.24   45.59
   5   0  -5 1290.11   52.42
   5   0  -5 1264.06   50.08
   5   0   5  994.47   48.73
   5   0  -5 1401.04   38.57
   5   0   5 1485.30   65.61
   5   0   5 1392.13   38.58
   5   0  -5 1162.77   76.88
   5   0   5 1388.01   62.48
   6   0   5   -4.77    7.26
   6   0   5    2.19    4.71
   6   0   5    0.63    2.91
   6   0  -5    0.33    2.06
   6   0  -5    0.53    4.44
   6   0   5   -0.63    4.40
   6   0  -5   -0.46    4.64
   6   0   5   -1.60    6.27
   6   0  -5   -1.30    9.12
   7   0   5 1054.36   42.47
   7   0  -5 1070.19   52.08
   7   0   5  919.98   52.44
   7   0  -5 1181.68   36.17
   7   0   5  901.56   49.10
   7   0  -5 1061.04   49.05
   7   0  -5 1065.29   69.03
   8   0   5    0.40    3.56
   8   0  -5    0.70    5.62
   8   0   5   -0.83    5.83
   8   0  -5   -1.07    2.62
   8   0  -5   -1.10    7.73
   9   0   5  706.43   35.75
   9   0  -5  784.41   29.74
   9   0   5  688.32   48.64
   9   0  -5  749.97   51.37
   9   0  -5  718.17   45.92
  10   0   5   -2.04    7.59
  10   0   5   -0.47    4.87
  10   0  -5    0.52    3.41
  10   0  -5    6.87    9.30
  11   0  -5  340.18   19.40
  11   0  -5  277.41   30.84
 -11   1  -5  190.09   17.53
 -11   1  -5  223.86   33.26
 -10  -1  -5    3.74    4.85
 -10  -1   5    3.79    4.27
 -10  -1  -5    3.06    4.47
 -10   1  -5    1.60    4.09
 -10   1  -5   -1.27    9.49
 -10   1  -5    5.29    5.07
 -10   1   5    2.31    4.59
  -9  -1  -5  652.74   28.81
  -9  -1   5  582.40   28.63
  -9  -1  -5  433.80   26.96
  -9   1  -5  428.25   25.90
  -9   1  -5  392.22   41.76
  -9  -1  -5  615.61   28.64
  -9   1  -5  678.07   29.98
  -9   1   5  663.45   30.77
  -9  -1   5  912.70   55.51
  -9  -1  -5  593.71   45.26
  -8  -1  -5   18.24   11.33
  -8   1  -5    9.70   10.02
  -8  -1  -5    7.84    4.56
  -8   1  -5    5.10    4.38
  -8   1  -5   13.65    5.22
  -8   1   5   11.49    5.07
  -8   1  -5    4.41    7.50
  -8   1  -5   15.97    5.79
  -8  -1  -5   17.30    5.14
  -8  -1   5   16.04   10.15
  -8  -1  -5   14.88    4.90
  -8  -1   5   12.34    5.00
  -8   1  -5   15.08    8.93
  -7  -1  -5  553.32   23.97
  -7  -1   5  582.09   25.46
  -7   1  -5  600.55   25.52
  -7   1   5  596.67   26.51
  -7  -1  -5  538.43   23.24
  -7  -1  -5  485.11   25.71
  -7   1  -5  412.21   38.99
  -7   1  -5  573.83   26.75
  -7  -1  -5  554.13   24.38
  -7   1  -5  608.87   26.21
  -7   1   5  590.56   26.95
  -7  -1   5  560.38   24.68
  -7  -1   5  768.58   47.16
  -7  -1  -5  464.18   33.58
  -7   1  -5  491.20   24.59
  -7   1  -5  624.04   45.10
  -7  -1  -5  538.59   41.92
  -6  -1  -5    8.76    6.53
  -6   1  -5   10.54    7.41
  -6  -1  -5   18.69    9.79
  -6   1  -5   13.14    4.13
  -6   1   5    8.90    3.88
  -6  -1   5    8.18    3.28
  -6   1  -5    9.18    3.83
  -6  -1  -5   13.37    4.52
  -6   1  -5    7.35    3.59
  -6   1  -5   12.62    7.92
  -6   1  -5   10.37    4.08
  -6  -1  -5   10.73    3.57
  -6  -1  -5   10.69    3.36
  -6  -1   5   10.84    8.03
  -6  -1  -5   10.42    3.36
  -6  -1  -5   10.64    4.06
  -6  -1  -5   18.15    9.37
  -6  -1   5    7.62    3.45
  -5  -1  -5 1187.80   38.83
  -5  -1  -5 1086.29   34.67
  -5  -1   5 1075.04   35.58
  -5  -1   5 1090.14   35.43
  -5   1  -5 1093.80   36.72
  -5  -1  -5 1030.00   38.01
  -5   1  -5 1218.19   38.12
  -5  -1  -5 1125.75   34.04
  -5   1   5 1135.88   38.60
  -5   1  -5 1156.62   38.34
  -5  -1  -5 1098.32   34.34
  -5   1   5 1360.34   71.04
  -5  -1  -5 1010.96   46.80
  -5  -1   5 1363.07   58.82
  -5   1  -5 1104.44   53.53
  -5  -1  -5 1445.39   69.96
  -5  -1  -5 1090.52   59.80
  -4  -1  -5    1.56    5.98
  -4   1  -5    4.06    2.34
  -4   1   5    0.95    2.07
  -4  -1  -5    2.92    1.69
  -4  -1   5    1.30    1.68
  -4   1  -5    3.26    2.43
  -4  -1  -5    3.04    2.67
  -4  -1  -5    5.15    2.85
  -4  -1  -5    2.56    1.71
  -4   1  -5    3.09    2.20
  -4  -1   5    1.09    1.82
  -4   1   5    1.13    1.67
  -4   1   5   -0.86    6.73
  -4  -1   5    3.30    5.72
  -4  -1   5    0.34    1.54
  -4  -1  -5    5.44    9.16
  -4  -1  -5    4.36    4.00
  -3  -1  -5 2042.33   54.93
  -3  -1  -5 2068.52   52.65
  -3   1  -5 2214.59   57.92
  -3  -1  -5 2226.02   59.48
  -3   1  -5 2311.23   60.45
  -3  -1   5 2181.52   55.81
  -3  -1  -5 2158.19   60.57
  -3   1  -5 2390.42   58.94
  -3   1   5 2193.03   59.15
  -3   1   5 2206.55   67.92
  -3   1  -5 2363.25   66.77
  -3   1   5 1982.08   61.49
  -3  -1  -5 2096.80   68.67
  -3   1   5 2317.37   90.01
  -3  -1   5 2556.16   81.16
  -3  -1  -5 2124.06   79.31
  -3  -1  -5 2095.21  102.87
  -3  -1  -5 2108.41   87.33
  -2   1   5    1.76    6.93
  -2   1  -5   10.12    6.72
  -2  -1  -5    9.99    1.34
  -2   1  -5   11.62    2.54
  -2  -1   5    5.93    2.48
  -2   1  -5   12.98    2.93
  -2  -1  -5   11.31    2.54
  -2   1  -5   11.25    2.28
  -2   1  -5   10.73    2.45
  -2  -1  -5    9.13    2.81
  -2   1   5    6.34    1.96
  -2   1   5    5.49    2.88
  -2   1   5    4.36    3.35
  -2  -1  -5   12.30    1.78
  -2  -1   5    5.82    1.43
  -2  -1  -5    6.39    5.62
  -2   1  -5   12.69    3.37
  -2  -1  -5   11.45   10.00
  -1   1  -5  988.27   52.32
  -1   1  -5 1083.96   31.96
  -1   1  -5  956.32   30.36
  -1  -1   5 1028.90   31.98
  -1   1   5 1139.13   33.28
  -1  -1  -5 1044.60   29.42
  -1   1   5 1083.08   28.71
  -1   1  -5 1123.05   28.65
  -1   1   5 1114.41   50.95
  -1  -1  -5  741.94   61.71
  -1   1   5 1335.21   84.21
  -1  -1  -5 1052.38   33.97
   0   1   5   23.63    2.85
   0   1  -5   32.02    3.11
   0   1   5   24.58   10.25
   0   1  -5   23.71    8.29
   0   1  -5   29.38    3.68
   0   1   5   21.13    2.17
   0  -1   5   19.64    3.07
   0   1   5   20.86    1.65
   0  -1  -5   32.90    5.01
   0  -1  -5   30.68    2.37
   0   1  -5   29.33    1.81
   0   1   5   22.35    2.66
   0   1  -5   32.32    3.02
   0  -1   5   24.77    7.41
   0  -1   5   15.97    2.67
   0   1  -5   26.23    6.88
   0   1   5   19.13    7.04
   0   1   5   21.82   14.18
   0  -1   5   19.94    5.69
   1   1  -5  968.50   48.94
   1   1   5 1155.46   59.20
   1  -1  -5 1115.53   33.36
   1  -1   5 1135.90   30.46
   1   1   5 1074.79   27.77
   1   1  -5 1044.05   26.93
   1   1   5 1085.26   32.84
   1   1  -5 1133.82   26.09
   1   1   5 1053.84   32.12
   1  -1  -5 1110.12   29.84
   1  -1   5  966.40   28.93
   1   1   5  962.00   28.72
   1   1  -5 1113.85   29.58
   1   1   5 1094.33   41.74
   1   1   5 1114.34   27.62
   1  -1   5 1006.53   43.94
   1   1  -5 1012.31   26.79
   1   1  -5  962.71   44.79
   1  -1  -5  853.74   66.47
   1  -1  -5  998.63   38.11
   2   1   5    6.04    4.00
   2  -1   5    1.34    3.76
   2   1   5    5.56    1.68
   2   1  -5   10.61    5.75
   2   1   5    3.82    6.15
   2   1   5   10.69    3.48
   2  -1   5    5.19    2.17
   2  -1   5    3.49    2.04
   2   1   5    4.13    1.96
   2   1   5    6.19    2.51
   2  -1   5    4.23    1.87
   2   1  -5   10.36    1.86
   2  -1   5    6.50    2.42
   2   1  -5   15.44    6.19
   2  -1  -5   11.18    2.71
   2  -1  -5   12.72    2.85
   2  -1  -5    7.05   10.51
   3  -1  -5 2031.94   62.36
   3  -1   5 2002.72   63.17
   3   1   5 2324.30   59.80
   3  -1  -5 2190.96   50.43
   3  -1  -5 1922.99   59.89
   3  -1   5 1918.45   61.01
   3   1   5 2063.04   74.81
   3   1   5 2226.42   58.68
   3   1   5 2002.32   55.66
   3  -1   5 2244.80   81.75
   3  -1   5 2009.33   58.46
   3   1  -5 2094.20   54.44
   3   1   5 2076.97   70.85
   3  -1   5 1937.40   73.97
   3  -1  -5 1632.15   98.68
   3   1   5 2048.78   58.25
   4  -1   5    1.17    5.15
   4   1   5   -0.99    4.06
   4   1   5    0.22    2.04
   4  -1  -5    3.99    1.44
   4   1  -5    3.87    2.11
   4  -1  -5    3.49    3.31
   4  -1   5    2.76    3.25
   4   1   5    1.20    2.07
   4   1  -5    2.95    2.21
   4  -1  -5    2.45    3.13
   4  -1   5    3.11    3.38
   4   1  -5    3.02    3.36
   4   1   5    2.51    3.67
   4   1   5    2.20    4.93
   4  -1   5    3.50    5.50
   4  -1   5    0.70    2.41
   4   1   5    2.75    2.30
   4  -1  -5    2.77    9.12
   4   1  -5    1.27    8.62
   5  -1  -5 1123.63   30.29
   5  -1  -5  881.86   42.36
   5  -1   5  831.27   43.39
   5   1   5 1077.69   34.45
   5   1  -5  996.33   31.88
   5  -1   5  830.18   41.34
   5   1   5  995.16   36.48
   5   1  -5 1041.77   34.88
   5   1  -5  974.53   41.36
   5   1   5  888.22   42.55
   5   1   5 1131.10   53.02
   5  -1   5 1112.35   58.14
   5   1   5  995.98   36.91
   5  -1  -5  866.88   40.13
   5  -1  -5  894.72   66.31
   5   1  -5  951.49   67.03
   5  -1   5 1025.45   53.89
   5   1   5 1089.13   52.12
   6  -1   5   13.44    8.86
   6  -1   5    6.93    1.79
   6   1   5    5.35    3.55
   6   1   5   10.56    4.11
   6  -1  -5   10.22    2.79
   6   1  -5   13.38    3.49
   6  -1  -5    6.38    5.53
   6  -1   5    5.03    5.30
   6   1  -5    9.58    3.62
   6  -1  -5   11.92    5.92
   6  -1   5    4.28    5.15
   6   1  -5    7.68    5.38
   6   1   5    6.94    5.23
   6   1   5   10.73    7.74
   6  -1  -5    1.26    8.30
   6   1  -5    8.92   10.01
   7  -1  -5  489.44   33.62
   7  -1   5  396.51   32.82
   7   1   5  481.42   25.69
   7  -1  -5  553.17   20.85
   7   1  -5  510.48   24.67
   7  -1  -5  474.72   30.89
   7  -1   5  356.16   29.41
   7   1  -5  475.60   30.81
   7   1   5  534.17   34.80
   7   1  -5  472.58   21.01
   7  -1  -5  507.55   45.79
   7   1  -5  429.35   43.12
   7   1   5  533.26   27.15
   8   1   5   10.72    4.76
   8  -1  -5   14.11    4.11
   8   1  -5   10.73    5.11
   8   1   5    8.07    5.54
   8   1  -5   12.85    4.11
   8  -1  -5    7.75    6.78
   8  -1   5    6.65    7.45
   8   1  -5    9.34   10.05
   9  -1  -5  527.06   39.03
   9  -1   5  455.85   39.29
   9   1   5  622.44   32.77
   9   1   5  590.84   31.30
   9  -1  -5  591.70   24.71
   9   1  -5  566.89   25.43
   9   1  -5  607.35   30.17
   9   1  -5  521.29   43.43
  10   1   5    0.46    4.88
  10  -1  -5    4.01    3.77
  10   1  -5    3.86    4.05
  10  -1  -5    1.68    7.95
  10   1  -5    6.41    5.12
  10   1   5    3.82    6.11
  10  -1   5    0.99    6.98
  11   1  -5  367.23   20.71
  11  -1  -5  361.84   20.07
 -11   2  -5  134.26   14.37
 -10  -2  -5   59.20    9.07
 -10  -2  -5   21.76    7.08
 -10  -2   5   48.52    9.01
 -10   2  -5   26.69    7.01
 -10   2  -5   18.65   12.11
 -10   2  -5   65.66   10.32
 -10   2   5   43.87    9.26
  -9  -2  -5  681.62   29.63
  -9  -2  -5  509.92   29.75
  -9   2  -5  480.58   26.88
  -9  -2  -5  642.03   28.60
  -9   2  -5  793.71   33.84
  -9   2   5  701.91   33.15
  -9   2  -5  375.44   43.62
  -9  -2   5  627.52   30.28
  -9   2  -5  868.51   49.50
  -8  -2  -5   25.66    9.61
  -8  -2  -5   28.74    6.14
  -8   2   5   28.03    7.17
  -8  -2   5   31.35    6.64
  -8  -2  -5   20.66    6.46
  -8   2  -5   15.67    5.25
  -8   2  -5   38.12    7.63
  -8   2  -5   15.02   10.79
  -8  -2  -5   26.70    5.79
  -8  -2   5   30.41   10.36
  -7  -2  -5  995.63   35.38
  -7  -2   5  962.80   36.18
  -7   2  -5 1011.04   39.55
  -7  -2  -5  864.00   37.65
  -7   2  -5  882.24   34.69
  -7   2   5 1053.79   40.44
  -7   2  -5 1116.14   40.34
  -7   2  -5  642.40   54.09
  -7  -2  -5  990.70   34.18
  -7  -2  -5  894.16   45.10
  -7  -2   5 1217.05   52.51
  -7  -2  -5  942.80   51.54
  -6  -2   5   33.74    5.65
  -6  -2  -5   36.57    6.63
  -6   2  -5   53.94    7.40
  -6   2  -5   29.38    5.21
  -6   2   5   52.86    7.69
  -6  -2  -5   37.78    5.71
  -6   2  -5   48.17   10.54
  -6  -2  -5   41.73    5.05
  -6  -2   5   39.24    9.32
  -6  -2  -5   33.25    9.53
  -6   2   5   39.37    9.92
  -6  -2  -5   35.69    6.35
  -6   2   5   68.94   25.36
  -6  -2  -5   30.97    8.24
  -5   2  -5 1470.54   45.85
  -5  -2  -5 1535.61   46.38
  -5   2  -5 1665.75   48.07
  -5   2   5 1450.45   47.33
  -5   2   5 1499.33   60.79
  -5  -2  -5 1305.11   46.02
  -5   2  -5 1385.88   42.48
  -5  -2  -5 1390.25   42.13
  -5  -2   5 1362.36   43.08
  -5   2  -5 1579.60   59.85
  -5   2  -5 1097.20   65.75
  -5  -2  -5 1442.03   38.52
  -5  -2   5 1177.34   42.23
  -5  -2  -5 1274.07   50.84
  -5   2  -5 1359.03   63.48
  -5  -2  -5 1331.30   61.38
  -5  -2   5 1699.80   60.30
  -4   2  -5  249.69   19.58
  -4  -2   5  246.02   15.59
  -4  -2  -5  255.45   13.75
  -4   2   5  256.68   14.81
  -4   2  -5  270.61   14.72
  -4   2  -5  247.56   13.89
  -4  -2  -5  205.18   13.50
  -4   2  -5  195.18   10.74
  -4   2   5  236.81   19.98
  -4  -2  -5  227.38   11.42
  -4   2  -5  203.19   24.08
  -4  -2   5  214.71   11.74
  -4  -2   5  181.56   14.05
  -4  -2  -5  212.25   16.12
  -4   2   5  201.75   14.69
  -4   2  -5  223.32   21.91
  -4  -2  -5  242.72   22.63
  -4   2   5  333.73   46.98
  -3  -2   5 2164.00   62.39
  -3   2  -5 2281.68   60.87
  -3   2   5 2094.74   59.83
  -3  -2  -5 2239.19   58.59
  -3   2  -5 2434.40   60.75
  -3   2  -5 2156.46   55.23
  -3  -2  -5 2097.93   61.07
  -3   2   5 2133.65   70.18
  -3   2  -5 2410.06   71.04
  -3   2  -5 1947.24   82.64
  -3   2   5 2069.69   67.56
  -3  -2   5 1781.70   66.21
  -3   2  -5 2102.70   76.73
  -3   2   5 2175.10   92.61
  -3  -2  -5 2046.84   79.32
  -3  -2  -5 2826.65  113.77
  -3   2   5 3229.79  145.56
  -3  -2  -5 1986.83   55.39
  -3   2  -5 2142.46   60.09
  -3  -2   5 2054.29   56.27
  -2  -2   5  147.28   10.25
  -2   2  -5  167.93   10.13
  -2   2  -5  207.38   14.51
  -2  -2  -5  177.63    8.87
  -2  -2  -5  139.88   10.21
  -2   2   5  164.52   13.22
  -2  -2  -5  145.48    7.72
  -2   2  -5  196.79   14.22
  -2   2   5  152.19   14.80
  -2   2  -5  154.05   15.72
  -2  -2   5  147.84    7.98
  -2   2   5  160.80   20.98
  -2  -2  -5  167.12   19.09
  -2  -2  -5  205.61   29.89
  -2   2   5  181.74   14.07
  -1   2   5 2115.66   55.97
  -1   2   5 2276.70   64.40
  -1   2  -5 2624.39   65.83
  -1   2  -5 2132.51   59.77
  -1  -2   5 2149.90   61.03
  -1   2   5 2193.08   63.48
  -1   2  -5 2506.82   64.94
  -1  -2   5 2426.54   78.60
  -1   2   5 2125.92   75.06
  -1  -2   5 2331.38   76.44
  -1  -2  -5 2283.53   85.92
  -1   2   5 2200.42   84.80
  -1   2   5 2179.70   61.46
  -1  -2  -5 2173.00  109.30
  -1   2   5 2790.42  134.43
   0   2   5   18.03    1.71
   0   2  -5   24.82    3.96
   0  -2  -5   22.06    4.80
   0  -2   5   20.94    3.74
   0   2   5   21.31    3.69
   0   2  -5   27.91    4.13
   0  -2   5   17.87    2.28
   0   2   5   14.19    3.45
   0  -2   5   21.81    7.03
   0   2   5   17.68    6.67
   0   2   5   18.56    2.43
   0   2   5   26.92    8.60
   0   2   5   19.99    3.65
   0   2  -5   25.16    4.03
   0   2  -5   22.89    2.54
   0   2   5   19.34   15.25
   1   2   5 2106.99   80.11
   1   2  -5 1885.27   78.47
   1   2   5 2691.14   69.35
   1   2   5 2169.22   54.46
   1   2   5 2106.10   54.70
   1   2   5 2246.08   60.38
   1  -2   5 2249.51   53.76
   1   2  -5 2144.62   53.96
   1   2   5 2188.23   60.95
   1  -2   5 2448.38   82.76
   1  -2   5 1811.44   57.54
   1  -2  -5 2168.73   59.57
   1   2   5 1993.10   58.27
   1   2  -5 2516.87   60.96
   1   2   5 2160.62   66.62
   1   2  -5 2165.37   73.85
   1   2   5 2197.28   77.83
   1  -2  -5 1912.00  105.34
   1   2   5 2149.22  114.74
   1  -2  -5 2313.61   63.06
   1   2   5 2121.68   91.65
   2   2   5  143.00   20.80
   2   2  -5  130.90   16.22
   2   2   5  160.87    8.31
   2   2  -5  161.34    7.89
   2   2   5  171.42   12.51
   2  -2  -5  163.48   10.57
   2  -2   5  132.16    9.53
   2  -2  -5  162.28   12.11
   2   2   5  141.21    8.69
   2   2   5  138.34   10.00
   2   2  -5  169.59   10.45
   2   2   5  122.48    8.71
   2  -2   5  143.47   10.06
   2  -2   5  157.08   18.85
   2   2   5  118.13   16.73
   2  -2  -5  170.96   11.43
   2  -2   5  140.86   10.46
   2   2  -5  154.10   15.36
   2   2   5  138.66   12.57
   2  -2  -5  118.23   25.13
   2   2   5  144.74   28.35
   2   2   5  161.78    8.12
   2   2  -5  158.17    7.57
   3   2   5 2030.43   85.50
   3   2   5 2048.82   53.96
   3   2  -5 2024.03   52.55
   3   2   5 2194.13   60.24
   3   2   5 1816.23   55.36
   3  -2   5 1876.96   59.44
   3  -2  -5 1964.48   59.45
   3  -2   5 1945.95   57.88
   3   2  -5 1949.35   70.99
   3   2   5 2031.54   53.38
   3   2  -5 1997.57   51.99
   3  -2  -5 1996.27   61.43
   3  -2   5 1905.80   61.06
   3  -2  -5 1713.21   99.99
   3   2   5 2071.54   67.16
   3   2   5 1938.25  101.21
   3   2  -5 1855.48   70.19
   4   2   5  220.28   24.54
   4   2   5  207.49   12.10
   4   2  -5  214.57   11.40
   4  -2  -5  201.06   15.30
   4   2   5  219.01   13.86
   4   2   5  197.93   12.96
   4  -2   5  195.13   15.56
   4   2   5  209.51   19.56
   4  -2   5  196.37   13.95
   4   2   5  222.51   11.96
   4   2  -5  212.56   10.90
   4  -2  -5  176.06   29.82
   4  -2   5  188.86   21.23
   4   2   5  212.22   18.93
   4  -2  -5  198.40   16.08
   4  -2   5  180.41   15.77
   4   2   5  228.71   30.73
   5   2   5 1285.17   42.60
   5   2   5 1127.90   41.96
   5  -2  -5 1108.67   46.62
   5  -2   5 1092.87   47.99
   5   2  -5 1241.33   39.26
   5   2   5 1380.24   58.03
   5   2   5 1354.70   41.23
   5   2  -5 1354.00   39.32
   5  -2  -5 1236.30   79.86
   5  -2   5 1257.13   63.07
   5   2   5 1451.77   60.15
   5  -2  -5 1146.22   49.52
   5  -2   5 1117.60   50.93
   6   2  -5   38.58    5.60
   6  -2   5   25.97   10.81
   6   2   5   30.52    6.19
   6   2  -5   33.99    5.25
   6  -2   5   25.07    7.78
   6  -2  -5   31.24    7.37
   6  -2   5   25.70    7.43
   6   2   5   46.74    6.50
   6   2   5   30.93    9.63
   6  -2  -5   26.93    7.43
   6   2  -5   27.12   13.63
   7  -2  -5  709.16   42.67
   7  -2   5  635.21   43.22
   7  -2  -5  922.13   29.12
   7   2   5  862.55   36.49
   7   2  -5  899.83   32.26
   7  -2  -5  711.26   39.78
   7  -2   5  649.80   40.53
   7   2   5  894.18   45.59
   7   2   5  968.97   38.12
   7   2  -5  943.65   35.55
   7   2  -5  860.47   42.36
   7   2   5 1077.81   54.28
   7   2  -5  834.53   61.97
   8   2  -5   26.05    6.21
   8   2   5   21.25    6.81
   8  -2  -5   27.77    4.75
   8   2  -5   27.97    5.61
   8   2   5   31.16    7.21
   8  -2  -5   25.75    9.17
   8  -2   5   13.75    8.54
   8   2  -5   12.09   11.05
   9  -2  -5  567.67   40.26
   9  -2  -5  661.99   25.44
   9   2   5  566.23   30.85
   9   2  -5  583.60   26.62
   9   2  -5  655.51   31.09
   9   2   5  624.68   32.96
   9   2  -5  525.37   46.01
  10   2   5   59.83   10.43
  10   2   5   49.46   10.35
  10   2  -5   43.29    7.74
  10   2  -5   47.59    9.15
  10  -2  -5   34.16   11.75
  10  -2   5   38.04   13.20
 -10   3  -5   27.26    8.02
 -10   3   5   27.56    8.64
 -10   3  -5   11.42    5.50
 -10  -3  -5   36.34    7.95
 -10  -3   5   31.75    8.21
  -9  -3   5  580.26   31.86
  -9  -3  -5  467.83   24.25
  -9  -3  -5  336.59   23.62
  -9   3  -5  310.72   20.08
  -9   3  -5  206.76   34.03
  -9  -3   5  442.88   24.88
  -9   3  -5  535.42   28.35
  -9   3   5  472.21   27.30
  -9  -3  -5  416.00   33.62
  -8  -3  -5   76.53   10.80
  -8   3  -5   69.06    8.62
  -8   3   5  127.49   19.64
  -8   3  -5  131.09   18.93
  -8  -3  -5  103.18   10.62
  -8  -3   5  114.10   11.63
  -8  -3  -5   98.55    9.25
  -8  -3  -5   68.91   12.09
  -8  -3  -5   97.57   16.86
  -7   3   5  465.83   18.94
  -7   3  -5  444.88   21.14
  -7   3   5  550.82   38.53
  -7   3  -5  585.77   38.59
  -7  -3  -5  488.90   23.00
  -7  -3   5  518.86   24.44
  -7  -3  -5  490.45   20.35
  -7  -3  -5  439.95   26.95
  -7  -3  -5  515.71   35.65
  -7  -3  -5  423.57   24.54
  -6  -3  -5  110.19    6.30
  -6   3   5  107.59    7.26
  -6   3   5  115.46   11.58
  -6   3  -5   84.33    7.81
  -6   3   5  131.77   17.99
  -6   3  -5  128.67   17.27
  -6   3  -5   78.17   18.71
  -6  -3   5   85.49   10.05
  -6  -3  -5  110.34    7.37
  -6  -3  -5   94.67    8.91
  -6  -3   5  121.00   10.43
  -6  -3  -5   97.81   11.33
  -6  -3  -5  123.02   17.54
  -6   3  -5  122.22   11.63
  -6   3   5  182.25   39.14
  -5  -3   5  813.06   33.22
  -5  -3  -5  709.22   19.27
  -5   3   5  671.48   21.87
  -5   3   5  799.84   31.63
  -5   3  -5  908.54   32.77
  -5   3   5  762.01   41.75
  -5   3  -5  881.30   43.74
  -5  -3   5  883.61   36.09
  -5   3  -5  576.32   47.27
  -5  -3  -5  748.70   20.59
  -5  -3   5  637.78   32.36
  -5  -3  -5  647.78   29.96
  -5   3  -5  731.81   45.51
  -5  -3  -5  760.47   43.80
  -5  -3  -5  714.13   26.83
  -5  -3   5  755.44   28.32
  -5   3   5 1136.55   89.74
  -5   3  -5  741.44   24.68
  -4  -3  -5   89.90    7.52
  -4  -3   5  111.61   10.38
  -4  -3   5   97.91    8.23
  -4   3  -5  104.37   13.67
  -4   3   5   89.05    4.58
  -4   3   5  104.21   13.86
  -4   3  -5   75.99    5.56
  -4   3  -5   99.88   13.35
  -4  -3   5   95.84   11.51
  -4   3  -5   85.86   17.28
  -4  -3   5   90.73   12.10
  -4   3   5  103.73   12.58
  -4   3   5  106.34   13.92
  -4   3  -5   80.65   14.48
  -4  -3  -5   99.19   15.87
  -4   3   5  151.76   34.52
  -3  -3   5 1219.12   40.81
  -3   3   5 1326.31   50.56
  -3  -3  -5 1096.91   35.22
  -3   3   5 1332.83   50.62
  -3   3  -5 1441.49   51.67
  -3   3  -5 1078.60   59.55
  -3  -3   5 1324.05   49.80
  -3  -3   5 1155.76   36.57
  -3   3   5  912.46   38.35
  -3  -3   5  976.56   47.86
  -3   3   5 1266.96   50.91
  -3   3  -5 1275.16   55.13
  -3   3   5 1175.57   67.18
  -3  -3  -5 1259.21   60.18
  -3   3  -5 1230.59   39.92
  -3   3   5 1840.53  112.27
  -3   3  -5 1488.20   52.20
  -2   3   5  203.10   15.69
  -2   3  -5  190.82   15.50
  -2  -3   5  188.68   12.39
  -2   3  -5  169.83   11.36
  -2   3  -5  170.60    6.41
  -2   3  -5  192.95   15.25
  -2   3   5  184.93   15.03
  -2   3  -5  162.76   19.97
  -2  -3   5  200.48   17.96
  -2   3   5  166.25   10.89
  -2   3   5  182.84   18.58
  -2  -3   5  202.57   18.52
  -2   3  -5  173.85   17.70
  -2  -3   5  149.13   17.41
  -2   3   5  205.62   25.20
  -1   3  -5  903.36   31.76
  -1  -3   5  917.17   32.96
  -1   3   5  968.38   36.49
  -1   3  -5 1110.31   38.38
  -1   3   5  953.39   32.93
  -1  -3   5 1116.17   48.23
  -1   3   5  943.08   28.19
  -1   3   5 1020.87   48.54
  -1   3   5  924.80   29.13
  -1  -3   5  980.76   44.50
  -1   3   5  925.51   52.08
  -1   3  -5  912.22   28.95
  -1   3   5 1227.30   89.69
  -1   3   5  996.20   36.91
  -1   3  -5 1106.79   38.58
   0   3  -5  230.75   13.08
   0   3   5  236.71   14.61
   0   3  -5  267.62   15.76
   0   3   5  240.20    9.21
   0   3   5  223.49   13.22
   0  -3   5  226.50    7.41
   0  -3   5  310.20   25.54
   0   3   5  246.31   23.64
   0  -3   5  249.49   20.95
   0   3   5  223.92   22.59
   0   3   5  246.23   14.92
   0   3  -5  281.74   16.18
   0   3   5  316.00   44.87
   0   3   5  263.61   11.47
   0   3  -5  240.77   10.92
   1   3   5  948.62   34.01
   1   3  -5 1009.17   34.51
   1   3   5  824.60   27.13
   1   3   5  981.82   32.64
   1  -3  -5  939.03   35.60
   1   3   5  965.15   28.30
   1   3  -5  919.31   27.57
   1  -3   5  726.61   30.54
   1  -3  -5  859.56   32.52
   1  -3   5 1079.27   52.88
   1   3   5 1005.24   51.62
   1   3   5  864.37   32.39
   1   3  -5 1028.96   35.00
   1   3   5  930.25   34.69
   1   3   5  862.30   32.13
   1   3   5  962.87   46.65
   1   3  -5  929.05   41.72
   1  -3   5  954.52   44.97
   1   3   5 1014.71   79.69
   1   3   5 1138.54   39.65
   2   3   5  187.20    9.83
   2   3  -5  160.81    8.86
   2  -3  -5  137.94   13.47
   2   3  -5  159.78    9.14
   2   3   5  154.89    9.79
   2   3   5  163.12   11.50
   2   3  -5  182.90    8.61
   2  -3  -5  153.71   13.22
   2  -3   5  177.33    8.65
   2  -3   5  184.35   12.51
   2  -3   5  215.62   24.07
   2   3  -5  194.96   13.69
   2   3   5  175.21   12.54
   2   3   5  176.87   22.01
   2  -3  -5  177.86   13.97
   2  -3   5  169.04   13.39
   2   3  -5  152.69   14.91
   2   3   5  184.96   13.46
   2   3   5  174.97    9.93
   2  -3   5  191.12   19.73
   2   3   5  191.30   13.00
   2   3   5  193.11   13.90
   2   3   5  180.85   33.33
   2   3   5  182.41   24.60
   3   3   5 1153.78   62.36
   3   3  -5 1048.08   49.20
   3   3   5 1268.51   42.20
   3   3  -5 1112.56   33.96
   3  -3  -5  901.02   43.06
   3  -3   5 1019.96   40.02
   3  -3  -5 1136.55   41.03
   3   3   5  965.99   35.39
   3   3   5 1219.51   38.97
   3  -3  -5 1098.08   42.97
   3   3  -5 1298.34   42.12
   3  -3   5 1111.87   39.41
   3   3   5 1226.15   62.90
   3  -3  -5 1131.45   43.27
   3  -3   5 1073.03   42.58
   3   3  -5 1079.32   45.50
   3   3   5  975.71   37.43
   3   3   5 1194.16   35.43
   3   3   5 1106.18   39.15
   3  -3   5 1093.07   54.05
   3   3   5 1223.80   43.46
   3   3   5  940.08   73.85
   3   3   5 1165.03   34.45
   3   3  -5 1142.98   33.46
   4   3   5   69.68   15.19
   4   3   5  112.67    8.74
   4   3  -5   83.18    7.11
   4   3   5   92.12    9.86
   4  -3  -5   67.68    9.24
   4  -3   5   76.54   10.03
   4   3   5   78.37    8.29
   4  -3  -5   65.39   10.77
   4   3   5   84.13   12.54
   4  -3   5   95.76   10.30
   4  -3  -5   74.74   10.44
   4  -3   5   77.78   10.82
   4   3   5  100.55    7.92
   4   3  -5   83.20    6.80
   4  -3   5   86.70   15.37
   4   3   5   96.69   12.53
   4   3   5   78.54   21.95
   4   3  -5   65.27   10.55
   5   3   5  660.99   43.52
   5   3   5  719.06   26.94
   5   3  -5  681.38   25.18
   5   3   5  661.38   29.13
   5   3   5  620.96   27.42
   5  -3   5  594.73   32.37
   5  -3  -5  562.46   30.71
   5   3   5  720.67   38.01
   5  -3   5  666.20   31.11
   5   3   5  723.97   26.01
   5   3  -5  686.27   24.33
   5  -3  -5  606.74   33.39
   5  -3   5  593.69   34.16
   5   3   5  603.71   52.64
   6  -3  -5   92.05   12.54
   6   3   5  102.56   10.71
   6   3  -5   92.14    9.01
   6  -3   5   75.91   12.31
   6   3   5  117.99   16.30
   6   3   5  119.30   10.12
   6   3  -5   93.19    8.50
   6  -3  -5   94.42   13.73
   6  -3   5   82.64   13.51
   6   3   5   85.53   18.81
   7   3   5  452.65   24.61
   7   3  -5  449.36   21.89
   7  -3  -5  365.29   29.04
   7  -3   5  344.79   29.83
   8   3   5   92.22   11.50
   8   3  -5   87.95    9.48
   8   3   5  103.62   12.01
   8   3  -5   89.13   10.72
   8  -3  -5   78.04   14.38
   8  -3   5   60.42   13.68
   8   3  -5   61.16   19.08
   9   3   5  397.68   24.74
   9   3  -5  373.37   20.79
   9   3   5  440.81   26.40
   9   3  -5  395.71   23.57
  10  -3   5   15.23   10.18
  10   3  -5   24.43    6.37
  10   3   5   29.04    8.57
  10   3  -5   18.13    6.92
  10  -3  -5   17.25   10.32
  -9   4   5  367.30   35.00
  -9   4  -5  405.39   35.86
  -9  -4  -5  361.69   21.82
  -9  -4   5  351.79   22.82
  -8  -4   5  115.82   13.86
  -8  -4  -5   71.48   10.64
  -8   4   5   86.40   17.38
  -8   4  -5  105.20   18.57
  -8  -4  -5  115.55   18.48
  -8  -4  -5   90.88   10.46
  -8  -4   5   93.57   11.15
  -7  -4   5  460.02   23.81
  -7  -4   5  505.24   27.54
  -7  -4  -5  435.21   14.72
  -7  -4  -5  375.56   23.11
  -7   4  -5  390.71   18.03
  -7   4   5  450.98   36.05
  -7   4  -5  500.07   37.35
  -7  -4  -5  424.19   17.23
  -7  -4  -5  526.67   36.87
  -7  -4  -5  433.14   22.19
  -6  -4   5  127.56   12.89
  -6  -4  -5  106.87   10.10
  -6  -4   5  112.82   10.84
  -6  -4  -5  107.74    5.20
  -6  -4  -5   84.61   10.46
  -6   4  -5   99.04    7.30
  -6   4   5  139.19   18.92
  -6   4  -5  166.77   20.47
  -6   4  -5   76.87   20.10
  -6  -4   5   85.68   12.88
  -6  -4  -5  114.27    6.50
  -6  -4  -5  119.69   18.72
  -5   4   5  720.31   41.18
  -5   4  -5  899.11   44.84
  -5   4   5  653.34   21.08
  -5  -4  -5  697.51   30.03
  -5   4  -5  709.07   20.65
  -5   4   5  749.11   42.39
  -5   4  -5  904.12   45.71
  -5  -4   5  692.32   28.45
  -5   4  -5  590.41   50.19
  -5   4   5  452.03   27.67
  -5  -4   5  594.57   35.76
  -5  -4  -5  665.80   27.06
  -5  -4   5  829.23   30.04
  -4   4  -5  426.53   29.10
  -4   4   5  394.73   28.20
  -4   4   5  331.48   12.02
  -4  -4  -5  312.70   18.61
  -4   4  -5  416.49   29.05
  -4   4  -5  326.55   35.01
  -4  -4   5  391.35   22.97
  -4   4   5  285.97   18.30
  -4  -4   5  289.62   25.33
  -4  -4   5  409.65   28.57
  -4   4  -5  374.18   30.74
  -4  -4  -5  357.38   17.35
  -4  -4   5  343.40   17.78
  -4   4   5  405.48   28.35
  -3   4  -5 1218.33   49.10
  -3   4   5 1059.15   45.91
  -3   4  -5 1228.01   48.91
  -3   4  -5 1102.65   37.81
  -3   4   5 1020.13   45.45
  -3  -4  -5  995.21   36.22
  -3   4  -5 1007.42   59.03
  -3  -4   5 1214.98   47.51
  -3   4   5  892.46   33.91
  -3  -4   5  852.04   48.43
  -3   4   5 1105.10   51.44
  -3  -4   5 1009.37   47.14
  -3   4  -5 1088.17   51.88
  -3   4   5  847.08   59.47
  -3   4   5  932.81   26.09
  -3   4   5 1506.64  105.67
  -2   4   5  344.98   22.53
  -2   4  -5  431.54   25.25
  -2  -4   5  319.42   18.12
  -2   4  -5  364.99   12.69
  -2   4   5  300.25   10.32
  -2   4  -5  407.77   24.61
  -2   4   5  290.47   16.77
  -2   4  -5  331.12   30.27
  -2   4   5  346.84   15.42
  -2  -4   5  392.62   27.52
  -2   4   5  360.37   28.73
  -2  -4   5  256.07   25.72
  -2   4  -5  345.75   26.12
  -2  -4   5  342.09   25.35
  -2   4   5  259.80   30.04
  -2   4   5  334.33   22.10
  -1   4   5  664.99   22.32
  -1   4   5  860.92   35.98
  -1   4  -5 1028.36   39.32
  -1   4   5  853.68   30.73
  -1   4   5  816.32   27.75
  -1   4  -5  835.19   45.91
  -1   4  -5  882.50   28.22
  -1   4   5  957.77   49.85
  -1  -4   5  560.64   42.34
  -1   4   5  694.70   46.92
  -1  -4   5  844.49   41.94
  -1   4   5 1181.83   91.01
  -1   4   5  847.00   35.55
  -1   4  -5 1074.07   39.33
   0   4   5  154.00    6.24
   0   4   5  148.34   12.88
   0   4   5  124.54    7.50
   0   4   5  144.15   11.06
   0   4   5  170.59   21.43
   0  -4   5   83.66   16.74
   0   4  -5  184.78   14.73
   0   4   5  138.97   19.10
   0  -4   5  138.77   16.51
   0   4   5  155.95   13.24
   0   4  -5  192.68   14.85
   0   4   5  189.33   38.72
   0   4   5  161.22    9.94
   0   4  -5  163.61    9.76
   0   4   5  196.85   16.05
   1   4   5 1000.30   38.90
   1   4  -5  860.76   31.68
   1   4   5  753.02   32.73
   1   4  -5  994.40   37.17
   1   4   5  684.14   25.73
   1   4   5  877.53   31.84
   1  -4  -5  810.61   35.33
   1  -4   5  702.24   32.88
   1  -4  -5  806.59   34.73
   1   4   5  857.22   34.11
   1   4   5  871.83   28.36
   1   4  -5  854.48   27.70
   1   4   5  914.49   53.11
   1   4   5  818.17   33.86
   1   4  -5 1028.29   37.70
   1   4   5  865.30   30.34
   1   4   5  823.99   44.66
   1  -4   5  840.03   44.04
   1   4   5 1021.62   83.46
   2   4   5  352.85   20.65
   2  -4  -5  305.60   21.50
   2   4   5  326.93   15.19
   2   4  -5  333.78   14.85
   2   4   5  291.82   16.93
   2  -4   5  302.54   13.88
   2  -4  -5  325.16   21.05
   2   4   5  344.12   19.63
   2   4  -5  395.31   15.49
   2  -4   5  315.81   18.42
   2  -4   5  279.54   19.75
   2  -4  -5  313.87   20.96
   2  -4  -5  285.39   29.23
   2   4   5  354.06   33.54
   2   4   5  304.55   19.20
   2   4  -5  397.27   22.39
   2   4  -5  295.81   20.92
   2   4   5  319.27   25.06
   2   4   5  254.84   14.13
   2   4   5  332.14   16.13
   2  -4   5  325.70   27.32
   2   4   5  304.72   45.44
   3  -4  -5  788.53   40.07
   3   4   5 1004.33   32.62
   3   4  -5 1002.38   31.79
   3   4   5 1058.57   39.92
   3   4  -5  978.30   32.57
   3   4   5  771.89   31.86
   3   4   5 1039.68   36.47
   3   4  -5 1196.20   33.57
   3   4   5  973.30   37.77
   3  -4  -5  885.49   40.30
   3  -4   5  952.92   32.63
   3   4  -5 1219.36   44.06
   3   4   5  896.98   38.09
   3  -4   5  948.21   37.46
   3  -4  -5 1141.04   58.62
   3   4   5 1108.72   62.60
   3  -4  -5  999.57   43.07
   3  -4   5  868.01   41.08
   3   4   5  996.72   33.48
   3   4  -5  968.84   40.32
   3   4   5  717.03   69.50
   3  -4   5  973.17   52.30
   3   4   5  944.79   59.52
   4   4   5  279.70   30.29
   4   4  -5  323.12   24.30
   4  -4  -5  236.57   20.37
   4   4   5  350.86   17.37
   4   4   5  335.68   20.77
   4   4  -5  349.26   16.71
   4  -4   5  273.03   20.35
   4   4   5  273.12   16.60
   4  -4  -5  267.25   21.06
   4   4   5  347.83   24.74
   4   4  -5  374.68   21.99
   4   4   5  272.27   18.28
   4  -4  -5  386.74   32.27
   4  -4   5  338.62   20.85
   4  -4  -5  321.39   23.09
   4  -4   5  292.87   22.67
   4   4   5  175.75   34.06
   4   4   5  334.12   16.27
   4   4  -5  350.02   15.81
   4  -4   5  343.11   31.23
   4  -4  -5  292.99   20.68
   5   4   5  646.25   44.50
   5   4   5  675.95   26.83
   5   4  -5  658.54   25.58
   5  -4  -5  358.51   27.87
   5  -4  -5  561.20   31.27
   5  -4   5  520.32   31.32
   5   4   5  583.09   27.16
   5   4   5  686.02   36.11
   5  -4  -5  849.80   46.56
   5  -4   5  628.08   31.37
   5  -4  -5  564.20   33.96
   5  -4   5  560.40   34.90
   5   4   5  690.77   25.87
   5   4  -5  684.22   24.69
   5   4   5  425.14   49.24
   5  -4   5  732.53   49.17
   5   4  -5  604.98   30.57
   6   4   5  118.97   10.92
   6   4   5  102.39   10.86
   6   4  -5  100.19    9.49
   6  -4  -5   43.30    9.97
   6   4  -5  108.53   10.47
   6   4   5  101.84   14.50
   6  -4  -5  136.51   18.70
   6  -4  -5   79.30   13.19
   6  -4   5   80.75   13.82
   6   4   5   66.40   20.72
   7   4   5  411.22   22.25
   7   4  -5  391.53   20.47
   7  -4  -5  143.07   18.77
   7   4  -5  388.99   20.78
   7   4   5  377.37   22.37
   7  -4  -5  558.36   34.20
   7  -4  -5  294.57   26.56
   7  -4   5  312.39   28.41
   8   4   5   80.15   10.96
   8  -4   5   61.36   14.21
   8   4  -5   77.87    9.66
   8  -4  -5  102.00   14.59
   8  -4  -5   72.30   14.21
   9  -4  -5  130.82   18.69
   9   4   5  300.89   21.27
   9   4  -5  286.34   18.47
   9   4   5  349.36   23.29
   9  -4  -5  239.28   25.72
   9  -4   5  186.83   24.43
  -8  -5  -5   96.99   11.37
  -8  -5   5   92.50   11.74
  -8   5   5  109.01   19.83
  -8   5  -5  115.80   20.46
  -7  -5   5  363.50   23.29
  -7  -5  -5  307.52   19.27
  -7   5   5  307.72   30.63
  -7   5  -5  375.84   33.64
  -7  -5  -5  263.69   19.52
  -7  -5   5  329.13   20.80
  -7   5  -5  203.02   34.42
  -6  -5   5  124.24   13.19
  -6  -5  -5   94.98   11.06
  -6   5   5  112.55   18.36
  -6   5  -5  131.48   19.37
  -6   5  -5   74.65   21.69
  -6  -5   5   86.52   15.40
  -6  -5  -5  113.23   11.12
  -6  -5   5  134.56   17.84
  -6  -5   5  118.90   11.99
  -5  -5  -5  318.47   18.38
  -5  -5   5  328.73   19.80
  -5  -5   5  365.92   21.89
  -5  -5  -5  299.71   19.31
  -5   5   5  342.75   29.21
  -5   5  -5  422.95   32.27
  -5   5  -5  322.65   38.83
  -5  -5   5  281.62   27.02
  -5  -5   5  379.58   28.23
  -4  -5   5  138.26   13.00
  -4  -5  -5  124.00   11.72
  -4   5   5  136.25   17.53
  -4  -5   5  125.41    8.91
  -4   5  -5  113.83   22.54
  -4   5   5  125.29   11.22
  -4  -5   5  100.10   17.57
  -4  -5   5  155.65   17.85
  -3   5   5  460.68   29.84
  -3   5  -5  579.01   33.57
  -3   5   5  396.71   14.37
  -3  -5   5  465.72   23.90
  -3   5   5  464.62   30.25
  -3   5  -5  576.58   33.61
  -3  -5   5  440.29   15.53
  -3   5  -5  409.35   38.54
  -3  -5   5  374.11   33.93
  -3   5   5  489.91   36.09
  -3  -5   5  454.01   30.42
  -2   5   5  178.01   17.48
  -2   5  -5  209.42   19.23
  -2   5  -5  191.81    9.82
  -2   5   5  181.67   17.55
  -2   5  -5  222.73   19.66
  -2  -5   5  150.87    5.35
  -2   5  -5  181.07   23.68
  -2  -5   5  129.49   20.54
  -2   5   5  191.83   23.33
  -2   5   5  175.20   11.98
  -2  -5   5  191.73   19.37
  -2   5  -5  182.43   12.20
  -2   5   5  150.28    7.45
  -1   5   5  534.57   18.09
  -1   5   5  539.76   22.28
  -1   5   5  539.07   29.68
  -1   5  -5  663.30   33.30
  -1   5   5  362.94   16.47
  -1   5   5  527.85   23.72
  -1   5  -5  521.95   37.11
  -1   5   5  605.79   42.27
  -1  -5   5  342.11   34.71
  -1   5  -5  596.04   22.90
  -1   5   5  448.13   38.70
  -1  -5   5  549.56   33.58
  -1   5   5  540.74   29.24
  -1   5  -5  676.67   33.03
   0   5   5  179.21    7.84
   0   5   5  179.68   15.91
   0   5  -5  213.45   17.91
   0   5   5  172.53   12.85
   0   5   5  169.49   10.78
   0  -5   5  105.45   20.05
   0   5   5  155.71   21.19
   0   5   5  131.35    8.88
   0  -5   5  166.31   19.27
   0   5   5  202.06   12.12
   0   5   5  166.57   15.26
   0   5  -5  221.50   17.93
   0   5  -5  204.02   12.01
   1   5   5  498.26   27.28
   1   5  -5  649.25   31.67
   1   5   5  396.48   18.66
   1  -5   5  525.78   25.41
   1   5   5  559.25   22.04
   1   5  -5  547.99   21.47
   1   5   5  534.32   27.77
   1   5  -5  657.75   31.34
   1   5   5  458.95   33.45
   1  -5   5  524.78   35.23
   2   5  -5  207.24   17.51
   2   5   5  148.47   14.34
   2   5   5  132.72   10.10
   2   5   5  181.32   11.73
   2   5  -5  188.51   11.57
   2  -5  -5  166.15   15.89
   2  -5   5  134.20   14.21
   2  -5  -5  158.40   15.44
   2  -5   5  168.19   13.97
   2  -5  -5  168.79   25.18
   2   5   5  161.21   14.75
   2   5  -5  224.60   18.02
   2  -5   5   79.64   18.39
   2   5  -5  171.24   15.57
   2   5   5  161.07   18.42
   2  -5   5  167.35   20.56
   3  -5  -5  388.33   25.95
   3   5  -5  449.13   19.40
   3  -5  -5  372.83   26.23
   3   5   5  456.45   21.00
   3   5  -5  447.00   20.31
   3  -5   5  419.86   19.90
   3   5  -5  560.43   21.93
   3  -5  -5  414.09   27.88
   3  -5   5  390.65   27.53
   3  -5   5  433.89   24.23
   3  -5  -5  485.48   40.83
   3   5   5  427.40   25.48
   3   5  -5  559.47   29.95
   3  -5   5  197.52   30.03
   3   5  -5  421.57   23.02
   3   5   5  345.85   18.77
   3  -5   5  447.01   35.77
   4   5  -5  110.52   16.26
   4  -5  -5  103.90   13.89
   4   5   5  138.19   11.35
   4   5   5  102.33   10.12
   4   5  -5  184.93   12.49
   4  -5  -5  101.87   13.64
   4   5  -5  145.84   11.15
   4  -5   5  131.24   11.52
   4   5   5  130.83   15.49
   4  -5  -5  143.28   22.76
   4  -5   5  122.72   13.24
   4  -5  -5  126.85   16.10
   4  -5   5  116.62   15.62
   4   5   5   65.66   23.91
   4  -5   5  113.95   19.80
   4   5   5  107.27   21.08
   5   5   5  273.35   30.45
   5   5   5  353.21   19.04
   5   5  -5  325.88   17.74
   5  -5  -5  207.78   20.29
   5   5   5  249.78   17.13
   5   5  -5  415.07   20.14
   5  -5  -5  212.79   20.69
   5  -5   5  287.07   18.98
   5  -5  -5  420.92   36.19
   5  -5   5  298.35   21.83
   5  -5  -5  272.40   24.07
   5  -5   5  242.09   23.56
   5   5   5  205.52   37.64
   5  -5   5  361.59   36.04
   6   5   5  107.67   19.45
   6  -5  -5   52.46   10.84
   6   5   5  114.34   11.34
   6   5  -5  118.54   10.75
   6   5   5  104.12   11.34
   6   5  -5  112.46   11.28
   6  -5  -5   56.02   11.43
   6  -5  -5  114.14   19.91
   6  -5  -5   93.30   15.07
   6  -5   5   89.06   15.83
   7   5   5  306.15   19.28
   7   5  -5  311.55   18.45
   7  -5  -5  126.42   16.93
   7   5   5  287.57   19.74
   7   5  -5  275.24   18.30
   7  -5  -5  423.82   34.03
   7  -5  -5  230.23   24.13
   7  -5   5  202.31   23.77
   8  -5   5   63.55   14.74
   8   5   5   85.02   11.20
   8  -5  -5   59.39   13.84
  -6  -6   5  162.71   15.57
  -6  -6  -5  116.52   12.86
  -6   6   5  123.70   19.84
  -6   6  -5  153.15   22.08
  -6   6  -5  128.93   27.85
  -6  -6   5   95.66   17.94
  -6  -6   5  140.91   18.20
  -5  -6   5  319.69   21.32
  -5  -6  -5  243.79   18.09
  -5   6   5  286.53   28.21
  -5   6  -5  329.90   30.54
  -5  -6   5  289.89   14.28
  -5   6  -5  229.00   34.73
  -5  -6   5  240.21   27.64
  -5  -6   5  323.88   25.84
  -4  -6   5  262.94   18.85
  -4   6   5  237.35   24.01
  -4   6  -5  302.54   27.48
  -4  -6   5  228.93   10.79
  -4   6  -5  201.31   31.18
  -4  -6   5  153.15   23.48
  -4  -6   5  247.38   22.39
  -3   6   5  433.28   30.92
  -3  -6   5  366.15   11.26
  -3   6  -5  443.09   41.43
  -3  -6   5  321.82   34.42
  -3   6  -5  497.91   33.53
  -3  -6   5  434.00   29.64
  -2   6   5  261.08   23.26
  -2   6  -5  337.41   26.86
  -2   6  -5  290.32   31.45
  -2  -6   5  199.82   28.06
  -2   6  -5  345.82   16.13
  -2  -6   5  275.39   24.30
  -1   6  -5  357.20   16.31
  -1   6   5  317.85   24.03
  -1   6  -5  387.90   27.21
  -1   6   5  185.30   11.43
  -1   6  -5  291.61   28.61
  -1  -6   5  189.78   28.04
  -1  -6   5  325.55   26.60
   0   6   5  192.24   18.39
   0   6   5  119.11    9.13
   0   6  -5  274.81   22.37
   0  -6   5  214.68   16.39
   0  -6   5   94.41   20.51
   0  -6   5  210.68   22.37
   1   6   5  288.71   21.92
   1   6  -5  386.00   26.11
   1   6   5  204.05   13.00
   1  -6  -5  287.51   34.74
   1  -6   5  144.52   25.91
   1   6   5  273.65   26.24
   1  -6   5  320.29   28.38
   2   6   5  238.53   20.07
   2   6  -5  342.85   24.89
   2   6   5  185.18   12.92
   2  -6  -5  258.69   32.72
   2  -6   5  120.87   24.78
   2   6  -5  263.51   18.95
   2  -6   5  252.88   27.38
   3   6   5  376.99   25.34
   3   6  -5  469.79   29.41
   3   6   5  395.76   20.64
   3   6  -5  384.71   19.84
   3   6   5  286.97   17.36
   3  -6   5  297.77   24.42
   3  -6  -5  318.18   24.57
   3  -6  -5  461.33   42.47
   3  -6   5  183.41   30.37
   3  -6   5  417.13   36.22
   4   6   5  178.04   14.13
   4  -6   5  204.49   15.27
   4   6   5  229.52   15.98
   4   6  -5  319.08   18.21
   4  -6  -5  208.64   21.60
   4  -6   5  202.97   21.71
   4  -6  -5  280.07   33.24
   4  -6   5  230.17   19.29
   4   6  -5  252.13   16.12
   4  -6   5  257.51   30.76
   4   6   5  192.77   28.77
   5   6   5  231.19   29.74
   5   6   5  277.46   17.83
   5   6  -5  280.59   17.42
   5  -6   5  231.12   17.42
   5  -6  -5  327.48   35.18
   5  -6  -5  239.01   24.14
   5  -6   5  213.44   23.83
   5  -6   5  267.98   21.59
   5   6   5  199.72   15.76
   6   6   5  128.79   12.52
   6   6  -5  137.23   12.36
   6   6   5   89.87   11.20
   6  -6  -5  147.16   24.62
   6  -6  -5  105.92   17.30
   6  -6   5   89.70   16.89
   6  -6  -5   59.04   11.96
   7   6   5  114.74   12.84
   7  -6  -5  190.25   25.95
  -5  -7   5   68.50   17.01
  -4   7   5  199.08   23.59
  -4   7  -5  162.32   28.97
  -4  -7   5  133.42   24.00
  -3   7   5  116.83   17.79
  -3   7  -5  152.17   20.40
  -3   7  -5  133.56   24.59
  -3  -7   5   93.63   21.00
  -2   7   5  218.08   22.71
  -2   7  -5  208.17   27.74
  -2  -7   5  143.37   26.33
  -2  -7   5  187.86   20.72
  -1   7   5  168.27   19.44
  -1   7  -5  233.92   23.46
  -1  -7   5  169.26   15.66
  -1  -7   5  117.55   24.00
  -1  -7   5  209.46   22.33
   0   7  -5  222.08   22.42
   0  -7   5  168.06   15.77
   0   7   5  172.70   19.16
   0  -7   5  172.87   21.72
   1   7   5  180.26   19.28
   1   7  -5  226.55   22.33
   1  -7   5  155.24   15.38
   1  -7  -5  134.62   26.56
   1  -7   5   83.62   21.71
   1  -7   5  162.79   22.37
   2   7   5  173.46   18.95
   2   7  -5  234.90   22.80
   2  -7   5  177.11   16.66
   2  -7  -5  200.70   31.25
   2  -7   5  195.93   25.71
   3   7   5  100.26   14.65
   3   7  -5  159.89   19.11
   3   7   5  115.25   11.66
   3   7  -5  130.72   12.14
   3   7   5   66.60    8.61
   3  -7  -5  147.55   26.90
   4   7   5  166.27   18.93
   4   7  -5  211.87   22.38
   4   7  -5  192.59   15.13
   4   7   5  119.37   11.98
   4  -7  -5  152.51   19.17
   4  -7  -5  218.85   31.91
   4   7   5  138.06   26.38
   5   7   5   74.46    9.83
   5  -7  -5  128.73   25.40
   6  -7  -5  138.10   25.76
 -10   0  -6  606.82   28.40
 -10   0   6  540.46   28.29
  -9   0   6   -1.57    8.83
  -9   0  -6    0.59    4.15
  -9   0   6   -0.34    4.28
  -9   0  -6   -0.39    4.26
  -8   0  -6  512.49   45.45
  -8   0   6  754.84   48.12
  -8   0  -6  449.74   25.86
  -8   0  -6  558.66   25.94
  -8   0  -6  758.16   38.26
  -8   0  -6  585.21   25.81
  -8   0   6  502.35   25.61
  -7   0  -6    1.23    3.42
  -7   0   6    1.80    9.06
  -7   0  -6    4.16    9.48
  -7   0  -6    1.36    2.94
  -7   0   6    1.30    3.24
  -7   0  -6   -0.21    2.63
  -7   0   6    1.22    3.05
  -7   0  -6   -0.71    2.78
  -7   0   6    1.04    9.30
  -7   0  -6    4.60    9.42
  -6   0   6  939.67   55.91
  -6   0  -6  598.45   47.86
  -6   0  -6  751.21   26.35
  -6   0   6  654.94   26.69
  -6   0  -6  774.79   30.41
  -6   0  -6  665.49   28.85
  -6   0  -6  664.94   40.70
  -6   0   6  802.10   53.03
  -6   0  -6  726.66   26.50
  -6   0   6  659.24   26.93
  -6   0  -6  778.51   56.56
  -5   0  -6    1.07    2.28
  -5   0   6   -0.92    7.92
  -5   0  -6    4.71    7.93
  -5   0   6    0.53    1.93
  -5   0  -6    2.08    2.73
  -5   0  -6   -0.29    1.92
  -5   0   6    0.51    1.99
  -5   0  -6   -0.23    2.63
  -5   0   6   -1.69    7.28
  -5   0  -6   -2.53   10.17
  -5   0  -6    0.57    4.99
  -4   0  -6 1603.07   77.70
  -4   0   6 2009.28   86.51
  -4   0  -6 1864.17   45.23
  -4   0   6 1587.27   45.14
  -4   0  -6 1947.74   51.38
  -4   0  -6 1792.32   50.18
  -4   0   6 1332.52   41.01
  -4   0  -6 1665.05   63.64
  -4   0   6 1895.25   77.86
  -4   0  -6 1827.29   45.33
  -4   0   6 1586.51   45.24
  -4   0  -6 1528.62   90.27
  -3   0  -6    1.68    6.61
  -3   0   6   -1.82    6.60
  -3   0  -6    0.60    1.42
  -3   0  -6    0.23    1.13
  -3   0   6   -0.09    1.23
  -3   0  -6    1.01    2.21
  -3   0  -6    0.36    1.99
  -3   0  -6    0.47    1.11
  -3   0   6    0.17    1.19
  -3   0   6   -0.68    5.59
  -3   0  -6    4.19   10.13
  -3   0  -6    0.89    3.82
  -2   0   6 1799.31   81.66
  -2   0   6 1537.59   46.58
  -2   0  -6 1562.44   42.26
  -2   0  -6 1685.54   39.08
  -2   0  -6 1910.72   46.63
  -2   0   6 1487.49   38.81
  -2   0   6 1682.50   68.91
  -2   0  -6 1361.35   87.98
  -1   0  -6    0.76    5.52
  -1   0   6    4.51    8.07
  -1   0   6   -0.13    1.32
  -1   0  -6    0.93    1.91
  -1   0  -6    0.80    1.48
  -1   0  -6    0.60    4.93
  -1   0  -6    1.46    9.24
   0   0   6  653.85   22.44
   0   0  -6  748.47   28.64
   0   0   6  701.39   24.56
   0   0   6  688.12   35.45
   0   0  -6  732.78   41.42
   0   0  -6  723.18   45.08
   1   0   6    1.13    1.82
   1   0   6    0.10    1.22
   1   0  -6    1.16    1.32
   1   0  -6    3.19    4.75
   1   0  -6   -1.51    9.18
   1   0   6    0.45    3.42
   2   0  -6 1784.13   42.44
   2   0   6 1448.10   41.53
   2   0  -6 1704.98   41.56
   2   0   6 1427.86   40.79
   2   0   6 1510.60   43.63
   2   0   6 1357.20   40.51
   2   0   6 1514.21   63.57
   2   0   6 1448.99   41.62
   2   0   6 1456.42   58.48
   2   0  -6 1438.67   91.96
   3   0   6    1.04    3.97
   3   0  -6    0.42    1.19
   3   0  -6    0.93    2.51
   3   0   6   -0.27    2.92
   3   0   6    1.31    2.08
   3   0  -6   -0.63    2.32
   3   0   6    0.25    2.63
   3   0   6   -2.50    5.03
   3   0   6    0.16    1.74
   3   0  -6   -1.54   10.12
   4   0  -6 1638.65   55.01
   4   0   6 1274.77   53.71
   4   0  -6 1692.33   42.17
   4   0  -6 1598.70   52.95
   4   0   6 1263.21   51.86
   4   0   6 1688.06   70.61
   4   0   6 1512.45   64.78
   4   0  -6 1405.00   90.90
   5   0   6    5.56    6.91
   5   0   6   -0.16    2.16
   5   0  -6    0.50    1.60
   5   0  -6   -3.41    4.10
   5   0   6    2.58    4.44
   5   0  -6    0.38    3.25
   5   0   6   -1.36    3.74
   5   0   6   -0.76    5.50
   5   0  -6    3.08   10.48
   6   0   6  482.95   34.15
   6   0   6  591.21   28.64
   6   0  -6  663.85   22.78
   6   0  -6  631.67   35.40
   6   0   6  638.53   22.47
   6   0  -6  620.84   33.07
   6   0   6  460.67   31.74
   6   0   6  661.15   45.24
   6   0  -6  593.78   56.04
   6   0   6  620.74   43.29
   7   0   6    2.70    2.38
   7   0   6   -0.37    3.76
   7   0  -6    0.18    2.34
   7   0  -6    3.04    5.33
   7   0   6    0.73    5.45
   7   0  -6    1.04    4.90
   7   0   6    0.63    5.66
   7   0  -6   -1.42    9.35
   8   0   6  389.43   34.72
   8   0   6  434.25   26.45
   8   0  -6  538.28   21.76
   8   0  -6  509.42   35.86
   8   0  -6  520.81   48.83
   9   0   6    1.79    4.71
   9   0  -6    0.89    3.24
   9   0  -6   -1.53    6.85
   9   0   6   -0.93    7.50
   9   0  -6   -1.15    9.23
  10   0   6  434.00   28.58
  10   0  -6  534.04   40.64
  10   0   6  412.85   39.53
  10   0  -6  539.49   23.65
  11   0  -6    0.26    3.75
 -10  -1  -6  347.72   20.67
 -10  -1   6  346.95   21.99
 -10  -1  -6  218.41   19.29
 -10   1  -6  238.06   19.25
 -10   1  -6  214.96   32.36
 -10   1  -6  397.48   22.42
 -10   1   6  329.84   21.63
  -9   1   6   15.56   13.24
  -9  -1  -6   19.95    5.46
  -9  -1   6   15.08    5.62
  -9  -1  -6    9.78    5.69
  -9   1  -6    9.83    4.97
  -9   1  -6   14.77   11.65
  -9  -1  -6   11.64    4.78
  -9   1  -6   16.79    5.74
  -9   1   6   11.78    5.48
  -8  -1  -6  767.30   30.52
  -8  -1   6  736.81   31.74
  -8  -1  -6  651.27   32.57
  -8   1  -6  634.69   30.91
  -8   1  -6  519.15   47.33
  -8  -1  -6  767.61   29.72
  -8   1  -6  842.07   32.51
  -8   1   6  787.51   33.27
  -8  -1   6 1034.56   58.42
  -8   1  -6  907.88   55.14
  -8   1   6 1133.09   68.38
  -8  -1  -6  754.24   54.00
  -7   1   6    9.42   11.33
  -7  -1  -6   12.20   10.87
  -7   1  -6   11.43    4.61
  -7  -1  -6   11.10    4.87
  -7   1  -6   11.82    4.37
  -7   1   6   13.93    4.65
  -7  -1  -6    9.85    3.84
  -7  -1   6   11.07    4.16
  -7  -1   6   11.18    4.33
  -7   1  -6    8.52    4.23
  -7   1   6   15.05    4.97
  -7   1  -6   11.57    9.06
  -7  -1  -6   13.03    3.92
  -7  -1   6   18.31   10.34
  -7  -1  -6    6.64    3.59
  -7   1  -6    3.45   10.31
  -7  -1  -6   10.19    7.51
  -6   1  -6  764.66   57.43
  -6   1  -6 1050.48   34.84
  -6   1   6 1034.25   36.04
  -6  -1  -6  943.18   32.73
  -6  -1   6  997.22   34.37
  -6  -1  -6  952.42   32.30
  -6  -1   6  980.29   33.91
  -6  -1  -6 1058.25   37.51
  -6  -1  -6  863.01   36.30
  -6   1  -6  939.29   35.29
  -6   1  -6 1042.29   35.13
  -6   1   6 1051.16   36.62
  -6  -1  -6  850.25   45.62
  -6   1   6 1272.55   72.06
  -6  -1   6 1300.03   60.99
  -6  -1  -6 1357.51   68.63
  -6   1  -6  983.61   67.41
  -6  -1  -6  899.37   58.79
  -6   1  -6 1040.33   37.14
  -5  -1  -6   55.82   15.73
  -5   1  -6   44.75   14.01
  -5  -1  -6   56.31    5.64
  -5  -1   6   57.90    6.11
  -5   1  -6   62.56    7.47
  -5  -1  -6   57.34    5.58
  -5  -1   6   55.21    5.85
  -5  -1  -6   73.14    7.86
  -5  -1  -6   46.49    6.97
  -5   1  -6   46.47    6.02
  -5   1  -6   64.29    6.62
  -5   1   6   56.14    6.74
  -5  -1  -6   51.83   10.21
  -5   1  -6   57.57   12.32
  -5  -1   6   67.40   13.76
  -5  -1  -6   56.00   12.81
  -5   1   6   71.36   17.52
  -5  -1  -6   55.59   17.67
  -5   1   6  101.80   21.68
  -4   1  -6  893.10   58.50
  -4  -1   6 1105.88   32.45
  -4   1  -6 1180.03   37.19
  -4  -1  -6 1074.34   31.40
  -4  -1  -6 1158.51   36.39
  -4  -1  -6 1035.82   36.59
  -4   1  -6 1070.01   34.52
  -4   1  -6 1198.55   34.35
  -4   1   6 1043.29   34.44
  -4  -1  -6 1051.78   29.22
  -4   1   6 1004.99   33.20
  -4  -1   6  953.77   32.93
  -4  -1  -6  999.03   44.78
  -4   1  -6 1043.63   50.06
  -4   1   6 1259.87   65.66
  -4  -1   6 1301.62   57.62
  -4  -1  -6  969.41   53.27
  -4  -1  -6 1153.55   75.00
  -4  -1  -6 1011.56   60.28
  -4   1   6 1284.34   72.79
  -3  -1   6  139.43   10.74
  -3  -1  -6  118.59    5.52
  -3   1  -6  125.64    8.32
  -3   1  -6  151.99   10.13
  -3  -1  -6  140.32    9.23
  -3   1  -6  114.18    8.25
  -3  -1  -6  122.01    9.68
  -3   1  -6  133.31    7.86
  -3  -1  -6  125.52    6.61
  -3   1   6  132.36    8.23
  -3  -1   6  126.65    6.86
  -3   1   6  112.88   10.40
  -3   1   6  143.39   20.07
  -3  -1  -6  123.41   17.13
  -3  -1   6  147.14   17.62
  -3  -1  -6  109.73   24.76
  -3   1   6  165.02   25.50
  -2   1  -6 1349.48   69.46
  -2  -1   6 1458.92   44.99
  -2   1  -6 1458.70   41.70
  -2   1  -6 1564.35   38.82
  -2   1  -6 1695.71   44.88
  -2  -1  -6 1421.81   37.35
  -2  -1  -6 1577.53   42.40
  -2  -1   6 1429.15   37.61
  -2   1  -6 1612.36   39.55
  -2   1   6 1446.95   39.54
  -2   1   6 1442.56   52.39
  -2  -1  -6 1340.04   62.95
  -2  -1  -6 1183.99   83.63
  -2   1   6 1895.91   86.56
  -1   1  -6   52.47    5.32
  -1   1  -6   27.73    9.82
  -1   1   6   50.29    4.58
  -1   1  -6   50.78    5.04
  -1  -1   6   50.56    5.34
  -1   1  -6   48.98    2.56
  -1  -1  -6   47.03    5.84
  -1  -1  -6   51.24    4.32
  -1   1  -6   54.80    3.25
  -1   1   6   51.50    3.22
  -1   1   6   47.85    4.44
  -1  -1   6   52.98   10.04
  -1   1   6   55.09   11.53
  -1   1  -6   40.57    9.81
  -1   1   6   51.82    2.51
  -1  -1  -6   41.90   17.28
   0   1  -6 1694.43   76.12
   0   1   6 1849.17   47.45
   0  -1   6 1872.82   51.85
   0  -1  -6 1780.94   56.71
   0  -1  -6 1874.48   46.65
   0  -1   6 2015.83   50.95
   0   1   6 1995.41   53.84
   0  -1   6 2093.50   75.10
   0   1   6 1805.99   65.31
   0  -1   6 1915.11   68.91
   0   1  -6 1776.63   71.18
   0   1   6 2002.90   75.54
   1   1  -6   44.83   10.76
   1   1   6   50.45   14.26
   1  -1  -6   49.17    7.71
   1   1  -6   52.57    3.52
   1   1   6   50.41    5.63
   1  -1   6   44.15    4.46
   1  -1  -6   50.69    5.43
   1   1   6   47.59    3.38
   1   1   6   51.47    5.31
   1   1   6   45.65    8.57
   1  -1  -6   51.39   12.39
   1  -1   6   49.56    9.51
   1   1  -6   39.51    9.37
   1   1   6   46.95    3.39
   1   1  -6   55.57    3.67
   1  -1  -6   33.76   16.98
   2   1   6 1700.05   78.88
   2  -1  -6 1593.50   41.28
   2  -1   6 1406.20   40.40
   2   1   6 1383.95   40.00
   2   1  -6 1575.06   39.22
   2   1   6 1616.53   45.47
   2  -1   6 1592.03   42.18
   2   1   6 1398.13   42.83
   2   1  -6 1466.25   43.25
   2   1   6 1349.80   44.20
   2  -1  -6 1585.04   46.25
   2  -1   6 1447.38   43.43
   2   1   6 1507.45   39.18
   2  -1  -6 1636.85   42.33
   2  -1   6 1422.07   41.21
   2   1  -6 1398.03   62.62
   2   1   6 1473.45   56.59
   2  -1   6 1480.76   60.59
   2  -1  -6 1150.13   85.11
   2   1  -6 1340.43   63.22
   3   1   6  151.84   11.58
   3   1   6  127.56    9.29
   3  -1  -6  128.66    4.59
   3  -1  -6  127.17    9.50
   3  -1   6  116.89    9.40
   3   1   6  106.41    8.03
   3   1  -6  138.85    7.98
   3   1   6  114.44    9.19
   3   1  -6  125.73   10.26
   3   1   6  105.71   10.44
   3   1   6  126.35   16.35
   3  -1   6  122.48   17.53
   3  -1   6  113.18    9.08
   3   1   6  114.99   13.96
   3  -1   6  103.64   14.81
   3   1  -6  116.79   25.73
   3  -1  -6  131.52   10.18
   3  -1   6  119.63    9.97
   3  -1  -6   86.23   23.38
   4  -1  -6  946.19   38.74
   4  -1   6  953.88   40.16
   4   1   6 1227.90   37.33
   4   1   6  991.22   35.35
   4  -1  -6  948.15   37.10
   4  -1   6  937.06   38.38
   4   1  -6  962.90   30.77
   4   1   6  911.20   33.74
   4   1  -6 1020.18   32.43
   4  -1  -6 1092.79   27.32
   4   1  -6  972.48   38.58
   4   1   6  877.55   39.79
   4   1   6 1062.22   51.96
   4  -1   6 1103.44   56.99
   4  -1   6 1022.70   36.26
   4  -1  -6  857.00   71.13
   4  -1   6 1018.23   51.71
   4   1   6 1003.41   48.34
   4   1  -6  931.77   71.73
   5  -1  -6   51.87    9.12
   5  -1   6   41.40    8.87
   5   1   6   55.70    6.62
   5   1   6   55.88    7.60
   5   1  -6   58.14    5.82
   5  -1  -6   47.20    8.14
   5  -1   6   43.93    8.46
   5   1  -6   55.34    6.47
   5   1   6   45.27    6.70
   5   1  -6   52.53    8.77
   5   1   6   36.11    8.34
   5   1   6   60.33   13.06
   5  -1   6   48.36   13.46
   5  -1  -6   59.45    4.66
   5  -1   6   67.07   13.97
   5   1   6   64.09   12.48
   5  -1  -6   32.91   16.10
   5   1  -6   28.76   14.36
   6  -1  -6  821.92   41.66
   6  -1   6  686.64   41.23
   6   1   6  967.92   32.83
   6   1   6  875.23   35.68
   6  -1  -6  958.81   27.93
   6   1  -6  865.01   29.68
   6   1  -6  916.63   33.67
   6  -1  -6  773.95   38.56
   6  -1   6  695.62   39.43
   6   1  -6  813.04   39.85
   6   1   6  798.10   42.68
   6   1   6 1041.06   54.54
   6   1   6  875.14   36.01
   6  -1  -6  767.65   64.35
   6   1  -6  757.09   64.05
   6  -1   6  933.08   55.24
   6   1   6 1035.62   55.02
   7  -1   6    9.00    9.78
   7   1   6   14.23    4.33
   7  -1  -6   11.16    3.22
   7   1  -6    8.88    3.49
   7  -1  -6   10.04    6.32
   7  -1   6    4.25    6.09
   7   1  -6    9.03    4.64
   7   1   6    6.55    4.48
   7   1   6    8.62    4.37
   7  -1  -6    9.50    5.89
   7  -1   6    5.39    5.86
   7   1  -6    6.68    5.42
   7   1   6    4.40    5.73
   7   1   6   12.93    9.58
   7  -1  -6   13.82   11.65
   7   1  -6    5.80    9.86
   8  -1  -6  625.81   40.46
   8   1   6  648.61   33.03
   8  -1  -6  761.35   26.32
   8   1  -6  680.39   27.16
   8   1  -6  738.74   32.00
   8   1   6  752.02   35.10
   8  -1  -6  699.73   57.28
   8   1  -6  637.79   56.44
   9   1   6   10.05    5.49
   9  -1  -6   15.98    4.32
   9   1  -6   14.47    4.61
   9  -1  -6    9.67    7.84
   9  -1   6   13.48    9.21
   9   1  -6   14.28    5.72
   9   1   6   22.56    6.74
   9   1  -6   17.14   12.73
  10  -1  -6  299.58   29.49
  10  -1   6  229.94   28.81
  10   1   6  305.25   23.03
  10   1  -6  293.08   29.54
  10   1  -6  286.36   17.33
  10   1   6  290.77   32.14
  10  -1  -6  331.62   17.29
  11   1  -6   10.31    4.90
 -10  -2  -6  533.64   26.50
 -10  -2   6  456.40   26.21
 -10   2   6  511.09   27.99
 -10  -2  -6  507.61   41.69
  -9  -2  -6   43.93    7.76
  -9  -2   6   40.74    7.91
  -9   2   6   40.24    8.55
  -9  -2  -6   34.44    8.09
  -9   2  -6   30.65    6.82
  -9   2  -6   10.97   10.53
  -9   2  -6   44.38    8.50
  -9  -2  -6   41.04   14.08
  -8  -2   6  648.26   29.51
  -8  -2  -6  687.28   28.43
  -8  -2  -6  567.02   30.21
  -8   2  -6  563.33   27.51
  -8   2  -6  422.30   44.75
  -8  -2  -6  668.43   25.24
  -8   2  -6  770.40   32.08
  -8   2   6  713.67   32.27
  -8  -2  -6  533.13   36.08
  -8  -2   6  827.17   45.89
  -8  -2  -6  616.13   44.38
  -7  -2  -6   95.41    9.25
  -7  -2  -6   73.30    9.81
  -7  -2   6   93.73    9.72
  -7   2  -6   82.59    9.05
  -7   2  -6  113.29   11.28
  -7  -2  -6   99.85    7.57
  -7   2   6  105.60   11.34
  -7   2  -6   72.88   18.47
  -7  -2  -6   89.30   13.87
  -7  -2   6  124.21   17.89
  -7  -2  -6   93.69   17.39
  -6  -2   6 1048.00   40.90
  -6  -2  -6  939.13   35.11
  -6  -2  -6  795.74   34.84
  -6   2  -6  843.08   31.81
  -6  -2  -6  856.13   31.13
  -6  -2   6  886.14   32.57
  -6   2  -6 1009.56   36.11
  -6   2   6  898.64   36.03
  -6  -2  -6  734.64   39.65
  -6  -2  -6  840.89   50.60
  -6  -2   6 1173.67   52.42
  -6   2  -6 1116.15   37.32
  -6   2   6 1472.46  101.98
  -5  -2   6   73.81    9.54
  -5   2  -6   61.97    7.52
  -5  -2  -6   53.28    6.96
  -5  -2  -6   35.51    6.52
  -5   2  -6   44.30    5.58
  -5   2  -6   66.49    7.76
  -5   2   6   54.86    7.41
  -5   2   6   63.46   11.51
  -5   2  -6   54.41   10.07
  -5  -2  -6   51.06    5.58
  -5   2  -6   30.79   11.52
  -5  -2   6   50.49    5.90
  -5  -2   6   44.02    5.91
  -5  -2  -6   41.98    8.84
  -5   2   6   52.08   15.95
  -5  -2  -6   53.89   12.95
  -5   2   6   95.43   29.63
  -4  -2   6 1889.22   57.52
  -4   2  -6 1751.67   52.54
  -4  -2  -6 1883.77   52.43
  -4   2  -6 2070.40   54.01
  -4   2   6 1774.35   53.20
  -4   2  -6 1742.41   48.84
  -4  -2  -6 1690.59   54.04
  -4   2   6 1758.84   64.75
  -4   2  -6 2001.73   65.02
  -4  -2   6 1543.25   54.78
  -4   2   6 1580.45   55.05
  -4   2  -6 1688.86   70.68
  -4  -2  -6 1627.20   47.65
  -4  -2  -6 1626.51   72.96
  -4  -2   6 1643.39   48.60
  -4  -2  -6 2366.33  104.83
  -4   2   6 2568.96  137.99
  -4   2  -6 1828.85   53.28
  -3  -2   6   59.91    7.29
  -3   2  -6   57.02    6.43
  -3  -2  -6   56.14    4.85
  -3  -2   6   53.11    4.99
  -3  -2  -6   68.32    6.15
  -3   2   6   52.32    6.06
  -3   2  -6   69.42    6.66
  -3  -2  -6   54.10    6.93
  -3   2   6   52.26    8.93
  -3   2  -6   66.05    9.19
  -3   2   6   51.37    8.41
  -3   2  -6   55.88   11.24
  -3  -2   6   42.56    8.13
  -3  -2  -6   60.80   12.97
  -3   2  -6   63.72    6.93
  -3  -2  -6   81.29   20.92
  -3   2   6   77.91   26.50
  -2  -2   6 1889.07   56.53
  -2   2  -6 1907.44   54.44
  -2   2  -6 1879.67   46.02
  -2   2  -6 2303.27   63.24
  -2  -2  -6 2019.22   51.60
  -2   2   6 1976.86   62.26
  -2   2  -6 2222.44   62.61
  -2   2   6 1901.90   67.62
  -2  -2  -6 1988.03   81.93
  -2   2   6 1965.14   83.91
  -2   2   6 2041.48   63.00
  -2  -2  -6 1996.84  107.28
  -1   2  -6  149.90   21.45
  -1   2  -6  176.97   10.66
  -1   2   6  193.66   12.86
  -1   2  -6  212.74   13.11
  -1  -2   6  190.11   11.73
  -1   2   6  177.24    7.93
  -1   2   6  185.29   12.39
  -1   2  -6  206.28   12.69
  -1   2  -6  177.92    7.84
  -1  -2   6  222.25   20.94
  -1   2   6  172.25   17.49
  -1  -2   6  172.83   17.90
  -1  -2  -6  169.73   21.59
  -1   2   6  162.08   20.68
  -1  -2  -6  151.53   29.59
  -1   2   6  231.57   39.89
   0   2  -6 1285.80   66.53
   0   2  -6 1436.83   44.13
   0   2   6 1432.44   36.35
   0  -2  -6 1417.38   49.16
   0   2   6 1515.58   44.11
   0   2  -6 1749.67   45.35
   0  -2   6 1550.11   40.03
   0   2   6 1507.94   38.61
   0  -2   6 1690.71   66.29
   0   2  -6 1416.68   37.94
   0   2   6 1488.59   62.31
   0   2   6 1576.55   67.36
   0   2  -6 1347.03   60.11
   0   2   6 1745.07  108.49
   0   2   6 1523.44   44.35
   0   2  -6 1755.97   45.66
   0   2   6 1615.25   82.17
   1   2   6  181.80   25.72
   1   2   6  187.06    8.23
   1   2  -6  146.43   19.30
   1   2  -6  182.53    7.72
   1   2  -6  178.46    7.81
   1   2   6  186.20    8.34
   1   2   6  161.71    9.63
   1  -2   6  165.80    8.24
   1  -2  -6  200.31   12.90
   1   2   6  182.45   11.80
   1  -2   6  204.43   21.62
   1   2   6  145.07   18.34
   1   2   6  171.26   15.21
   1   2   6  166.22    9.94
   1   2  -6  210.46   11.15
   1   2  -6  169.41   17.90
   1   2  -6  209.61   10.94
   1   2   6  212.05   36.78
   1  -2  -6  173.23   13.88
   2   2  -6 1757.67   74.04
   2   2   6 1999.40   90.70
   2   2   6 1924.95   49.95
   2   2  -6 1895.44   48.74
   2  -2  -6 1644.03   62.13
   2   2   6 2437.03   64.66
   2   2   6 1776.15   50.87
   2   2   6 1860.14   55.11
   2  -2  -6 2021.49   58.69
   2  -2   6 2101.33   81.56
   2  -2   6 1785.58   54.73
   2   2  -6 2204.24   55.72
   2   2   6 1643.52   51.90
   2  -2  -6 2022.53   55.83
   2  -2   6 1725.65   53.74
   2   2  -6 1786.27   70.61
   2   2   6 1929.57   65.08
   2   2   6 1904.58   49.42
   2   2  -6 1909.33   48.33
   2  -2  -6 1573.73  100.77
   2   2   6 1914.47  109.52
   3   2   6   48.60   14.45
   3   2   6   64.75    5.89
   3   2  -6   56.52    5.00
   3   2   6   71.45    8.54
   3  -2  -6   58.98    6.90
   3  -2   6   46.57    6.43
   3   2   6   49.00    5.80
   3   2   6   50.77    6.55
   3  -2  -6   51.23    7.58
   3   2   6   58.44   11.57
   3  -2   6   54.55    6.78
   3   2   6   63.89    5.65
   3   2  -6   57.49    4.86
   3   2  -6   51.15   10.83
   3  -2  -6   50.12    7.00
   3  -2   6   51.66    7.01
   3   2   6   51.78    9.30
   3  -2   6   53.29   11.91
   3  -2  -6   36.93   17.66
   3   2   6   60.09   19.98
   3   2  -6   49.38   10.80
   4  -2  -6 1585.75   52.60
   4  -2   6 1509.72   52.77
   4   2   6 1611.15   66.66
   4   2   6 1653.83   47.31
   4   2  -6 1656.62   45.44
   4  -2   6 1516.08   51.39
   4   2   6 1490.23   48.73
   4  -2  -6 1448.60   94.13
   4  -2  -6 1540.58   53.93
   4  -2   6 1496.29   54.28
   4  -2   6 1466.52   68.43
   4   2   6 1622.79   62.75
   4   2   6 1796.56   52.90
   5  -2   6   45.84   12.84
   5   2   6   53.24    7.37
   5   2   6   43.37    6.72
   5  -2  -6   58.71    8.89
   5  -2   6   41.50    8.22
   5   2  -6   46.51    5.77
   5   2   6   53.12    6.72
   5   2  -6   48.90    5.81
   5   2   6   65.78   13.06
   5  -2   6   47.66    7.90
   5  -2  -6   51.09   19.45
   5  -2  -6   35.57    7.81
   5  -2   6   49.20    9.19
   5   2   6   54.43   12.15
   5   2  -6   46.74   17.80
   6   2   6  880.19   33.06
   6   2   6  712.99   32.38
   6  -2  -6  661.49   35.08
   6  -2   6  670.64   37.19
   6   2  -6  777.54   28.78
   6   2   6  899.69   34.63
   6   2  -6  854.61   31.70
   6   2  -6  758.55   37.23
   6   2   6  807.72   40.98
   6   2   6  875.09   48.42
   6   2  -6  688.36   61.09
   6  -2   6  822.36   52.96
   6  -2  -6  684.02   37.72
   6  -2   6  701.32   40.11
   7   2   6   86.86    9.76
   7   2   6   79.91   10.57
   7   2  -6   88.62    8.65
   7  -2  -6   71.82   11.70
   7  -2   6   67.22   12.56
   7   2   6  101.37   11.38
   7   2  -6   91.30    9.94
   7   2  -6   76.04   12.38
   7   2   6   82.47   14.36
   7   2   6  115.10   18.70
   7   2  -6   80.56   22.31
   7  -2   6   93.73   20.35
   7  -2  -6   73.15   12.83
   7  -2   6   61.19   13.36
   8  -2  -6  543.88   37.09
   8   2   6  537.44   29.18
   8   2  -6  570.80   24.72
   8   2  -6  606.56   28.45
   8   2   6  652.06   31.82
   8   2  -6  547.27   52.54
   9   2  -6   38.61    6.69
   9   2   6   30.92    7.88
   9  -2  -6   35.53   11.44
   9  -2   6   20.26   10.41
   9   2  -6   44.17    8.61
   9   2   6   31.68    8.26
   9   2  -6   48.37   17.65
  10  -2  -6  458.26   36.48
  10   2  -6  450.92   23.05
  10   2  -6  499.29   28.02
  10   2   6  506.61   30.79
  -9   3  -6   30.21    6.65
  -9   3  -6   54.17    9.37
  -9   3   6   48.58    9.53
  -9  -3  -6   41.08    7.71
  -9  -3   6   44.98    8.14
  -9  -3  -6   34.84   12.43
  -8  -3  -6  389.08   24.66
  -8   3  -6  406.08   21.34
  -8   3  -6  591.61   28.61
  -8   3   6  502.60   27.48
  -8  -3  -6  461.55   22.95
  -8  -3   6  470.89   24.35
  -8  -3  -6  387.03   27.13
  -8  -3  -6  496.17   38.41
  -7   3  -6    8.99    3.82
  -7  -3   6   24.41    7.64
  -7  -3  -6    8.99    4.03
  -7  -3  -6    7.51    5.07
  -7   3   6   10.36    8.32
  -7   3  -6   12.27    8.30
  -7  -3   6   15.71    5.27
  -7   3  -6    1.30    8.27
  -7  -3  -6    9.63    2.53
  -7  -3  -6    9.71    8.41
  -7  -3  -6   10.22    2.35
  -7  -3  -6   11.72    6.24
  -6  -3   6  834.45   35.51
  -6  -3  -6  592.34   16.31
  -6   3  -6  821.45   31.64
  -6   3   6  760.16   31.39
  -6  -3  -6  617.59   29.16
  -6   3  -6  623.66   23.74
  -6   3   6  736.74   42.73
  -6   3  -6  814.83   42.97
  -6   3  -6  505.87   47.27
  -6  -3   6  566.28   26.62
  -6  -3  -6  720.78   45.47
  -6  -3  -6  649.30   25.66
  -6  -3   6  721.04   27.87
  -5  -3  -6   73.80    7.29
  -5  -3   6   74.07    7.67
  -5  -3   6   75.13    9.71
  -5   3   6   81.89    9.30
  -5   3  -6   94.02    9.75
  -5   3  -6   62.42    5.90
  -5  -3  -6   61.41    8.45
  -5   3   6   69.09   12.87
  -5   3  -6   77.05   13.20
  -5  -3   6   80.71   12.30
  -5   3  -6   52.63   15.87
  -5  -3   6   59.68    9.20
  -5  -3  -6   72.28   15.18
  -4  -3   6  993.61   37.78
  -4   3  -6  971.04   35.85
  -4   3  -6 1016.07   35.55
  -4   3   6 1054.45   36.41
  -4   3  -6 1145.87   37.03
  -4  -3  -6  923.96   31.27
  -4   3  -6  947.30   28.62
  -4  -3  -6  907.25   36.15
  -4   3   6 1025.90   47.01
  -4   3  -6 1104.91   47.33
  -4  -3   6  968.58   32.76
  -4   3  -6  882.95   57.14
  -4  -3   6 1170.66   48.35
  -4  -3   6  818.79   41.24
  -4   3   6 1014.15   43.51
  -4   3  -6  935.90   50.84
  -4  -3  -6 1013.90   55.81
  -3  -3   6  164.63   12.62
  -3   3  -6  185.18   12.57
  -3   3  -6  183.28   12.23
  -3   3   6  180.75   16.96
  -3   3  -6  216.44   17.96
  -3   3   6  176.56   16.65
  -3   3  -6  208.63   17.66
  -3   3  -6  159.58   22.11
  -3  -3   6  179.49   18.33
  -3   3   6  161.74   16.87
  -3  -3   6  131.35   15.86
  -3   3  -6  183.69   19.77
  -3  -3  -6  191.24   23.63
  -3   3   6  170.30   25.13
  -3   3   6  244.07   45.01
  -3  -3  -6  156.10    9.54
  -2   3   6 1264.94   45.86
  -2   3  -6 1413.48   47.33
  -2   3  -6 1120.42   37.33
  -2  -3   6 1139.56   39.16
  -2   3  -6 1096.26   27.27
  -2   3   6 1114.01   38.54
  -2   3   6 1235.45   45.26
  -2   3  -6 1373.44   46.83
  -2  -3   6 1391.19   55.84
  -2   3   6  973.55   35.18
  -2   3   6 1141.51   51.50
  -2  -3   6 1199.25   53.60
  -2  -3   6  895.60   49.51
  -2   3   6 1126.98   63.03
  -1   3   6   39.84    6.86
  -1   3  -6   22.31    4.46
  -1  -3   6   37.69    5.75
  -1   3   6   37.01    4.20
  -1   3   6   37.68    6.48
  -1   3  -6   27.59    6.31
  -1   3   6   31.64    5.50
  -1   3  -6   22.68    3.41
  -1   3  -6   26.60    5.75
  -1  -3   6   34.23    9.98
  -1   3   6   37.54    3.83
  -1   3   6   39.75   10.44
  -1   3   6   48.76   12.76
  -1   3   6   53.25   23.38
  -1  -3   6   30.74    8.81
   0   3  -6 1127.84   38.01
   0   3   6 1051.25   27.92
   0   3   6 1153.99   39.77
   0   3  -6 1362.45   42.13
   0   3   6 1232.91   39.32
   0  -3   6 1247.56   30.16
   0  -3   6 1512.60   62.77
   0   3   6 1234.21   57.94
   0   3   6 1188.97   33.47
   0   3  -6 1100.49   32.64
   0  -3   6 1263.44   55.04
   0   3   6 1157.96   57.82
   0   3   6 1171.82   39.78
   0   3  -6 1336.51   41.89
   0   3   6 1468.42  103.18
   1  -3   6   30.09    9.00
   1   3   6   39.17   14.75
   1   3  -6   24.72   10.00
   1   3   6   31.15    5.19
   1   3   6   36.35    4.10
   1   3  -6   23.99    3.30
   1   3   6   37.39    5.97
   1  -3  -6   30.34    6.16
   1   3   6   35.23    6.05
   1  -3   6   42.26   11.61
   1   3   6   35.46    3.59
   1   3   6   35.91   10.56
   1   3   6   29.56    6.51
   1   3   6   33.85    5.59
   1   3  -6   26.10    5.45
   1   3  -6   28.82    5.36
   1   3  -6   26.11    7.92
   1   3   6   44.38   11.09
   1  -3  -6   21.60    5.78
   1   3   6   29.40   19.49
   2   3   6 1121.95   68.14
   2   3  -6 1013.72   54.70
   2   3   6 1162.50   34.16
   2   3  -6 1099.93   32.94
   2   3   6 1366.36   47.03
   2   3   6 1128.55   34.60
   2   3  -6 1063.37   33.34
   2   3   6 1075.97   34.32
   2   3   6 1165.18   39.40
   2  -3  -6 1089.54   42.20
   2   3   6 1124.05   40.04
   2   3  -6 1343.63   30.86
   2  -3   6 1144.25   39.87
   2  -3   6 1270.29   63.96
   2  -3   6 1034.70   39.91
   2  -3  -6 1177.09   41.98
   2   3   6 1148.44   60.75
   2   3   6 1033.99   38.27
   2   3  -6 1322.83   42.26
   2   3  -6 1063.20   49.13
   2   3   6 1098.67   43.43
   2  -3   6 1073.17   53.98
   2   3   6 1017.55   83.61
   3   3  -6  151.70   18.53
   3   3   6  162.43   24.21
   3   3   6  172.96   10.46
   3   3  -6  169.70    9.63
   3   3   6  176.40   14.18
   3   3   6  147.72   10.32
   3   3   6  143.79   11.72
   3   3   6  154.38   12.34
   3  -3  -6  175.98   15.00
   3   3  -6  201.09   14.04
   3   3   6  138.34   11.37
   3  -3   6  185.50   24.70
   3  -3   6  148.52   12.22
   3   3   6  143.77   21.75
   3  -3  -6  166.57   13.85
   3  -3   6  137.92   12.77
   3   3  -6  158.09   17.19
   3   3   6  157.08   14.95
   3  -3   6  130.87   18.64
   3   3   6  171.84   10.01
   3   3  -6  168.02    9.27
   3   3   6  165.86   33.65
   4   3   6  904.08   57.16
   4  -3  -6  544.90   36.31
   4   3   6  939.45   31.42
   4   3  -6  903.74   29.47
   4  -3  -6  871.16   35.89
   4  -3   6  803.26   35.61
   4   3   6  755.42   31.02
   4   3   6  870.44   34.46
   4  -3  -6  811.09   37.66
   4   3   6  889.78   45.77
   4  -3   6  859.53   35.39
   4  -3  -6  904.79   38.62
   4   3   6  958.82   30.58
   4  -3   6  854.18   38.38
   4   3  -6  947.30   28.96
   4   3   6  987.43   37.18
   4   3   6  822.63   69.39
   4   3   6 1041.53   44.27
   4   3  -6  827.67   42.87
   5   3   6   66.17    7.60
   5   3  -6   69.74    6.99
   5   3   6   69.50    9.28
   5  -3  -6   53.57    8.76
   5  -3   6   56.11    9.33
   5   3   6   48.21    7.24
   5   3   6   63.27   12.61
   5  -3   6   61.94    9.11
   5   3   6   76.05    7.72
   5   3  -6   71.04    6.86
   5  -3  -6   59.84    9.81
   5  -3   6   62.06   10.29
   5  -3  -6   23.94    8.00
   5   3   6   72.14   13.34
   5   3   6   61.48   19.38
   6   3   6  527.09   26.21
   6  -3  -6  506.37   29.72
   6  -3   6  553.97   32.23
   6   3  -6  565.52   24.18
   6   3   6  710.74   41.25
   6   3   6  696.03   26.96
   6   3  -6  620.21   23.92
   6   3   6  651.82   29.15
   6  -3  -6  503.04   31.49
   6  -3   6  558.88   34.37
   7   3  -6   10.30    4.27
   7  -3  -6    5.82    6.31
   7  -3   6   15.91    7.46
   7   3   6   11.74    5.23
   7   3   6   18.41    9.06
   7   3  -6   15.45   14.10
   8   3   6  395.57   24.47
   8   3  -6  392.63   20.95
   8   3   6  495.96   27.24
   8   3  -6  456.46   24.38
   8   3  -6  368.30   44.80
   8  -3  -6  330.81   28.43
   8  -3   6  336.98   30.64
   9   3  -6   37.69    6.90
   9  -3  -6   27.51   10.12
   9  -3   6   31.37   11.75
   9   3   6   26.70    7.52
   9   3  -6   48.58    8.88
   9   3   6   34.64    8.54
  -9   4   6   58.98   10.53
  -9  -4  -6   65.60    9.52
  -9  -4   6   64.09    9.95
  -8  -4   6  342.82   21.49
  -8  -4   6  405.14   26.44
  -8   4   6  349.56   32.76
  -8   4  -6  457.28   36.62
  -8  -4  -6  396.53   34.75
  -8  -4  -6  364.74   20.84
  -7  -4  -6  131.14   11.60
  -7  -4   6  134.97   12.64
  -7   4   6  130.61   20.13
  -7   4  -6  166.92   21.98
  -7  -4  -6  151.18   22.60
  -6  -4  -6  400.22   20.23
  -6  -4   6  369.08   20.60
  -6   4   6  401.96   32.74
  -6   4  -6  561.13   37.21
  -6   4  -6  352.13   40.55
  -6  -4   6  460.59   23.57
  -6  -4   6  317.23   23.78
  -6  -4  -6  455.02   37.58
  -5   4   6  101.35   10.60
  -5   4  -6  131.09   11.92
  -5   4   6  112.29   16.71
  -5   4  -6  142.84   17.87
  -5  -4   6  119.69   13.49
  -5  -4  -6  102.49    9.29
  -5   4  -6   79.96   19.45
  -5  -4   6   95.21    9.51
  -5   4   6   63.45    9.32
  -5  -4   6   83.41   13.32
  -4  -4  -6  468.64   20.80
  -4  -4   6  481.52   25.12
  -4   4   6  516.06   32.69
  -4   4  -6  666.90   36.50
  -4  -4  -6  503.84   24.59
  -4   4   6  529.11   33.48
  -4   4  -6  654.23   36.25
  -4   4  -6  526.38   44.49
  -4  -4   6  546.98   30.94
  -4   4   6  348.16   21.19
  -4  -4   6  386.42   30.09
  -4  -4   6  533.62   35.47
  -4   4   6  509.82   32.55
  -3   4   6  114.35   14.37
  -3  -4   6  111.91   11.04
  -3   4   6  104.20   13.69
  -3   4  -6  132.96   15.14
  -3   4  -6   97.71   18.39
  -3  -4   6  106.63   15.01
  -3   4   6   96.49    8.83
  -3  -4   6   76.64   14.13
  -3   4   6   98.73   15.26
  -3  -4   6  120.67   16.43
  -2   4   6  633.90   32.56
  -2   4  -6  890.21   38.20
  -2  -4   6  566.23   27.21
  -2   4  -6  738.70   19.25
  -2   4   6  612.68   32.22
  -2   4  -6  860.68   37.37
  -2   4   6  569.92   26.33
  -2  -4   6  752.37   41.68
  -2   4   6  573.51   22.27
  -2   4   6  643.18   39.80
  -2  -4   6  455.75   36.53
  -2  -4   6  661.04   38.86
  -2   4   6  534.67   44.69
  -2   4   6  544.57   22.84
  -2   4  -6  690.61   24.65
  -1   4  -6  208.73   13.56
  -1   4   6  204.18   11.36
  -1   4  -6  222.11   11.62
  -1   4   6  198.82   15.98
  -1   4  -6  261.94   18.52
  -1   4   6  183.92   13.19
  -1  -4   6  224.96   23.67
  -1   4   6  204.97   23.06
  -1  -4   6  125.27   19.75
  -1  -4   6  200.96   20.84
  -1   4   6  155.47   22.70
  -1  -4   6  174.09    5.88
  -1   4   6  194.43   15.88
  -1   4  -6  261.99   18.59
   0   4  -6  715.80   28.12
   0   4   6  641.02   26.95
   0   4   6  578.54   18.83
   0   4   6  613.68   29.29
   0   4  -6  847.04   33.86
   0  -4   6  789.45   47.19
   0   4   6  650.65   43.42
   0   4   6  591.61   28.58
   0   4   6  606.10   22.72
   0   4  -6  702.85   23.31
   0   4   6  592.27   41.20
   0  -4   6  643.80   38.94
   0   4   6  602.73   28.73
   0   4  -6  858.39   33.61
   0   4   6  807.89   79.99
   1   4   6  245.34   18.83
   1   4  -6  246.86   17.03
   1   4   6  176.15    9.68
   1   4   6  191.18   13.78
   1   4   6  202.54   11.28
   1   4  -6  213.49   11.13
   1   4   6  188.72   24.57
   1   4   6  208.81   14.83
   1   4   6  195.62   14.69
   1   4  -6  247.26   16.94
   1   4   6  194.84   22.08
   1   4  -6  203.34   19.83
   1  -4   6  217.39   22.34
   1   4   6  191.99   14.53
   1   4   6  178.01   39.53
   2   4   6  585.82   22.22
   2   4  -6  669.35   22.52
   2   4   6  676.32   32.39
   2   4   6  517.58   25.91
   2   4  -6  751.87   31.20
   2   4   6  597.22   22.90
   2   4  -6  676.71   23.12
   2   4   6  473.15   20.95
   2  -4  -6  634.50   30.91
   2   4   6  606.28   28.17
   2  -4   6  460.23   25.53
   2  -4  -6  606.44   28.45
   2  -4   6  566.32   26.93
   2   4   6  531.43   26.52
   2   4  -6  813.29   32.54
   2   4  -6  663.05   35.12
   2   4   6  599.32   26.91
   2  -4   6  560.16   38.93
   2   4   6  625.89   67.70
   2   4   6  625.05   51.96
   3   4   6  122.54   23.24
   3   4   6  101.26    8.31
   3   4  -6  110.81    8.13
   3   4  -6  115.20   17.16
   3  -4  -6   91.39   12.41
   3   4   6   95.63    8.50
   3   4  -6  115.52    8.69
   3   4   6   84.23    8.10
   3  -4   6   95.86    7.34
   3   4  -6  145.28    8.68
   3  -4  -6  104.92   12.64
   3  -4   6  108.82   11.23
   3  -4  -6  124.12   13.35
   3  -4   6   96.20   11.91
   3   4   6   94.34   10.72
   3   4  -6  148.38   13.99
   3   4  -6  109.75   14.08
   3  -4   6  103.24   17.26
   3   4   6  110.34   11.45
   3   4   6   53.65   22.48
   4   4  -6  453.40   31.21
   4   4   6  461.69   41.51
   4   4   6  476.10   21.25
   4   4  -6  512.62   20.70
   4  -4  -6  334.77   25.58
   4   4   6  340.03   19.47
   4   4  -6  624.33   21.45
   4  -4  -6  459.23   27.94
   4  -4   6  446.63   20.14
   4   4   6  463.35   31.60
   4   4  -6  620.25   29.51
   4   4   6  354.89   22.27
   4  -4   6  421.09   24.38
   4  -4  -6  469.48   28.19
   4  -4   6  419.45   27.16
   4   4   6  451.99   20.03
   4   4  -6  483.59   19.43
   4   4   6  349.75   48.67
   4  -4   6  446.80   37.17
   5   4   6   90.03   19.03
   5   4   6  103.23    9.73
   5   4  -6  100.03    8.99
   5  -4  -6   52.75   10.43
   5  -4  -6   83.65   11.55
   5  -4   6   73.73   11.41
   5   4   6   79.22    9.19
   5  -4  -6   75.29   11.72
   5   4  -6  120.13   13.57
   5   4   6   81.14   10.53
   5   4   6  107.11   15.39
   5  -4   6  108.26   12.59
   5  -4  -6   94.18   13.26
   5  -4   6   79.39   12.69
   5   4   6  104.18    9.25
   5   4  -6   98.71    8.38
   5  -4   6   93.37   18.82
   5   4   6   87.60   25.36
   5   4  -6   88.74   12.94
   6   4   6  378.96   20.25
   6   4  -6  392.26   19.06
   6   4   6  293.36   18.92
   6   4  -6  365.75   19.54
   6  -4  -6  311.25   24.99
   6  -4   6  278.49   24.75
   6  -4   6  335.09   35.63
   7   4   6  103.42   11.60
   7   4  -6  125.48   11.45
   7  -4  -6  109.96   16.04
   7  -4   6   89.09   15.34
   8   4  -6  332.93   19.13
   8   4   6  294.65   20.34
   8  -4  -6  253.51   24.95
   8  -4   6  211.75   24.58
   8   4  -6  264.00   39.69
   9  -4  -6   41.14   12.17
   9  -4   6   38.98   12.52
   9   4   6   68.38   11.19
   9   4  -6   72.00   10.86
  -8   5  -6  215.88   26.70
  -8  -5   6  155.21   14.96
  -7   5   6   86.38   17.74
  -7   5  -6  114.92   19.85
  -7  -5  -6   92.15   10.57
  -7  -5   6   93.50   11.21
  -6  -5   6  280.12   20.43
  -6  -5  -6  221.14   17.32
  -6   5   6  265.37   27.16
  -6   5  -6  269.84   27.57
  -6   5  -6  186.23   30.90
  -6  -5   6  203.18   21.67
  -6  -5   6  280.18   27.28
  -6  -5  -6  218.38   15.51
  -6  -5   6  249.31   17.34
  -5  -5   6  178.85   15.81
  -5  -5  -6  152.67   14.07
  -5   5   6  203.48   22.58
  -5   5  -6  211.55   23.39
  -5   5  -6  148.59   27.10
  -5  -5   6  117.21   17.72
  -5  -5   6  194.86   22.18
  -4  -5  -6  417.17   22.82
  -4   5   6  451.01   32.17
  -4   5  -6  406.56   40.91
  -4   5   6  349.57   19.59
  -4  -5   6  358.88   31.69
  -4  -5   6  482.34   34.02
  -3   5   6  307.34   24.72
  -3  -5   6  290.33   11.72
  -3   5  -6  291.74   33.02
  -3   5   6  275.69   14.90
  -3  -5   6  222.73   26.54
  -3  -5   6  304.74   26.79
  -2   5   6  422.30   26.84
  -2   5  -6  546.31   30.96
  -2   5  -6  471.70   15.04
  -2   5   6  341.70   10.01
  -2   5   6  289.03   10.04
  -2   5   6  411.28   26.73
  -2   5  -6  528.91   30.68
  -2   5   6  404.79   18.71
  -2   5  -6  439.47   19.30
  -2  -5   6  285.96   30.76
  -2  -5   6  442.31   31.81
  -1   5   6  195.69   12.35
  -1   5  -6  221.12   12.83
  -1   5   6  212.81    8.99
  -1   5   6  156.80    7.66
  -1   5   6  210.04   17.94
  -1   5  -6  254.42   20.32
  -1  -5   6  126.35   21.74
  -1  -5   6  191.04   21.44
  -1   5   6  203.33   18.03
  -1   5  -6  263.25   20.53
   0   5   6  333.81   22.20
   0   5  -6  379.25   24.17
   0   5   6  228.63   11.48
   0   5   6  349.14   16.34
   0  -5   6  178.25   26.54
   0   5   6  325.21   17.60
   0   5  -6  338.98   15.93
   0   5   6  287.05   29.08
   0  -5   6  346.11   28.74
   0   5   6  308.50   20.94
   0   5  -6  397.14   24.16
   1   5   6  199.18   16.51
   1   5  -6  271.04   19.96
   1   5   6  141.21    9.58
   1   5   6  202.99   12.34
   1   5  -6  211.74   12.19
   1  -5   6  217.13   16.02
   1  -5   6   98.35   21.08
   1   5   6  213.85   23.88
   1   5  -6  201.04   20.17
   1   5   6  202.61   16.63
   1   5  -6  264.69   19.43
   1   5   6  204.76   11.94
   1  -5   6  189.42   22.42
   2   5   6  351.36   22.66
   2   5  -6  508.50   27.80
   2   5   6  423.65   18.64
   2   5   6  271.48   15.47
   2  -5  -6  384.09   25.14
   2  -5   6  317.31   22.91
   2  -5  -6  385.62   24.96
   2  -5   6  401.34   22.92
   2  -5   6  164.69   27.64
   2   5   6  402.29   23.75
   2   5  -6  536.11   28.15
   2   5  -6  382.27   25.78
   2   5  -6  440.39   18.30
   2  -5   6  399.77   33.49
   3   5  -6  282.15   28.35
   3  -5  -6  227.69   20.89
   3   5   6  311.42   16.78
   3   5  -6  329.47   16.47
   3   5   6  190.14   13.42
   3  -5  -6  285.69   21.91
   3  -5   6  255.41   21.10
   3  -5  -6  289.39   22.09
   3  -5   6  280.24   19.41
   3   5  -6  287.44   21.17
   3  -5   6  285.40   29.52
   3   5   6  271.03   34.81
   4   5   6  404.63   40.58
   4  -5  -6  280.37   24.10
   4   5   6  415.85   20.68
   4   5  -6  433.71   20.06
   4   5   6  283.74   17.96
   4  -5   6  396.85   19.21
   4  -5  -6  324.19   24.85
   4   5  -6  550.71   21.49
   4   5   6  425.06   30.11
   4  -5  -6  404.07   28.18
   4  -5   6  382.81   27.87
   4  -5   6  395.08   24.61
   4  -5   6  431.91   38.06
   5   5   6  197.81   27.68
   5   5   6  185.69   13.67
   5   5  -6  162.33   12.14
   5  -5  -6   93.13   14.24
   5   5   6  121.18   11.65
   5   5  -6  209.57   13.67
   5  -5  -6  110.97   14.99
   5  -5   6  158.60   12.89
   5  -5   6  148.73   15.65
   5  -5  -6  140.60   17.19
   5  -5   6  147.58   18.10
   5  -5   6  175.51   26.49
   6   5   6  189.27   26.40
   6   5   6  241.34   16.26
   6   5  -6  216.92   14.66
   6  -5  -6  109.57   15.67
   6   5   6  169.96   14.51
   6   5  -6  221.06   15.84
   6  -5  -6  125.76   16.82
   6  -5  -6  162.62   19.30
   6  -5   6  182.53   21.11
   7   5   6   97.18   11.21
   7   5  -6   87.97    9.85
   7   5   6   67.88    9.74
   7  -5   6   71.95   14.47
   7   5  -6   76.20    9.81
   7  -5  -6   63.04   13.36
   8   5   6  143.61   14.44
   8  -5  -6   99.43   17.17
  -6   6   6  214.70   25.87
  -6   6  -6  295.75   30.05
  -6  -6   6  275.86   26.81
  -5   6   6  210.79   24.37
  -5   6  -6  260.16   27.48
  -5   6  -6  143.65   27.91
  -5  -6   6  159.46   23.15
  -5  -6   6  220.23   23.62
  -4   6   6  240.39   24.99
  -4   6  -6  296.38   27.89
  -4   6  -6  232.14   32.65
  -4  -6   6  205.20   26.69
  -4  -6   6  243.85   24.57
  -3   6   6  254.00   23.95
  -3   6  -6  245.64   31.76
  -3  -6   6  184.29   26.68
  -3  -6   6  254.41   24.87
  -2   6   6  337.97   26.18
  -2   6  -6  417.34   29.88
  -2  -6   6  335.10   28.53
  -1   6   6  263.26   22.34
  -1  -6   6  255.24   25.78
   0   6   6  403.25   27.15
   0  -6   6  421.43   33.46
   1   6   6  282.15   21.66
   1   6  -6  368.20   25.50
   1   6   6  150.79   10.50
   1  -6   6  122.34   24.47
   1   6  -6  284.96   24.07
   1  -6   6  283.05   28.08
   2   6   6  282.23   21.59
   2   6  -6  411.02   27.02
   2   6   6  171.97   12.20
   2  -6   6  326.09   21.16
   2  -6   6  134.47   25.94
   2  -6   6  338.48   31.94
   3   6   6  264.83   21.08
   3   6  -6  331.82   24.96
   3   6  -6  262.97   16.07
   3   6   6  143.50   11.96
   3  -6  -6  216.82   20.44
   3  -6   6  199.50   19.93
   3  -6  -6  246.14   21.78
   3  -6   6  240.70   19.09
   3  -6   6  108.19   24.53
   3  -6   6  232.07   28.32
   3   6   6  272.96   16.78
   3   6   6  201.56   33.39
   4   6  -6  248.21   15.58
   4   6   6  129.13   12.00
   4  -6  -6  164.47   18.27
   4  -6   6  183.40   19.78
   4  -6  -6  200.27   20.22
   4  -6   6  226.46   19.19
   4  -6   6   83.94   22.27
   4  -6   6  237.21   29.95
   4   6   6  239.26   15.87
   4   6   6  216.28   32.05
   5   6   6  155.56   26.64
   5   6   6  213.95   15.61
   5   6  -6  220.48   15.03
   5   6   6  132.76   12.69
   5  -6  -6  179.01   20.72
   5  -6   6  144.75   19.88
   6   6   6  228.98   16.72
   6   6  -6  235.56   16.06
   6   6   6  165.72   14.78
   6  -6  -6  170.09   20.94
   6  -6   6  171.79   22.25
   7   6   6  132.69   13.59
  -4  -7   6  143.03   24.40
  -3   7   6  122.37   18.46
  -3   7  -6  150.55   25.94
  -3  -7   6   86.90   20.39
  -2   7   6  189.02   21.43
  -2   7  -6  218.75   23.51
  -2  -7   6  158.23   27.94
  -2  -7   6  200.70   22.81
  -1   7   6  143.82   18.32
  -1   7  -6  208.88   22.76
  -1  -7   6   93.97   22.75
  -1  -7   6  160.91   21.35
   0   7   6  154.95   18.56
   0   7  -6  183.55   20.80
   0  -7   6  159.72   21.69
   1   7   6  156.10   18.40
   1   7  -6  183.04   20.70
   1  -7   6  153.13   22.84
   2   7   6  179.61   19.41
   2   7  -6  234.16   23.15
   2  -7   6  216.30   27.61
   3   7   6   98.24   25.67
   3   7   6  137.14   12.92
   3   7  -6  160.73   13.52
   3   7   6  126.13   16.36
   3   7  -6  179.09   20.49
   3  -7   6  153.20   25.64
   4   7   6  156.53   28.76
 -10   0  -7    2.55    4.67
 -10   0  -7    3.46    4.39
 -10   0   7    1.08    4.96
  -9   0  -7  327.79   22.43
  -9   0   7  382.86   22.33
  -8   0   7   -0.99    9.85
  -8   0  -7    1.76    4.32
  -8   0  -7    0.99    3.80
  -8   0   7   -0.58    3.72
  -8   0  -7   -1.61    7.88
  -7   0  -7  867.36   30.22
  -7   0   7  779.33   30.62
  -7   0  -7  731.96   33.15
  -7   0  -7  855.85   30.62
  -7   0   7  794.76   31.41
  -6   0  -7   -1.11    8.02
  -6   0   7    5.35   10.30
  -6   0  -7    0.17    2.27
  -6   0   7    0.20    2.52
  -6   0  -7   -0.18    2.53
  -6   0  -7   -0.55    3.37
  -6   0   7   -0.20    2.41
  -6   0   7    5.84    9.21
  -6   0  -7    2.77   11.66
  -5   0  -7  681.58   52.46
  -5   0   7 1037.53   63.57
  -5   0  -7  790.11   26.25
  -5   0  -7  814.79   25.92
  -5   0   7  716.12   26.09
  -5   0  -7  877.98   31.76
  -5   0  -7  760.16   30.43
  -5   0  -7  738.38   41.95
  -5   0   7  902.09   54.74
  -5   0  -7  706.62   61.81
  -5   0  -7  805.27   26.22
  -5   0   7  743.34   26.49
  -4   0   7    1.17    1.77
  -4   0  -7   -1.01    7.70
  -4   0   7    2.17    9.72
  -4   0  -7    0.85    1.85
  -4   0  -7   -0.10    1.46
  -4   0   7   -0.11    1.49
  -4   0  -7    0.42    2.41
  -4   0  -7    0.22    2.63
  -4   0   7    0.59    1.78
  -4   0  -7    1.13    1.57
  -4   0   7    0.83    6.80
  -4   0  -7    2.43    6.52
  -4   0  -7   -1.59   11.54
  -4   0  -7    0.54    4.56
  -3   0  -7  857.73   55.84
  -3   0   7 1036.58   64.04
  -3   0   7  833.93   31.75
  -3   0  -7  887.32   26.62
  -3   0   7  789.02   23.95
  -3   0  -7  924.37   24.30
  -3   0  -7 1027.19   31.58
  -3   0  -7  925.39   31.80
  -3   0   7  949.68   53.02
  -3   0  -7  761.43   67.37
  -2   0   7   -1.08    9.13
  -2   0   7    0.36    1.93
  -2   0  -7    1.36    2.11
  -2   0  -7    0.64    0.49
  -2   0  -7   -0.11    1.53
  -2   0   7   -0.71    5.83
  -2   0  -7   -1.68   12.19
  -1   0   7 1614.19   81.66
  -1   0   7 1231.93   39.11
  -1   0  -7 1419.17   42.52
  -1   0  -7 1562.39   40.21
  -1   0   7 1360.80   41.98
  -1   0  -7 1315.23   63.39
  -1   0  -7 1104.84   84.99
  -1   0  -7 1223.28   67.42
   0   0   7    0.62    1.62
   0   0  -7    1.79    2.84
   0   0  -7    0.11    1.45
   0   0   7   -0.33    2.30
   0   0  -7    0.72    5.35
   0   0   7    2.10    4.69
   1   0   7 1405.26   41.09
   1   0   7 1290.83   56.26
   1   0  -7 1273.36   64.08
   1   0  -7 1183.24   88.33
   2   0   7    3.31    4.94
   2   0   7   -0.35    2.30
   2   0   7    1.43    1.63
   2   0  -7    0.96    2.07
   2   0   7   -1.36    4.91
   2   0   7    0.68    1.59
   2   0  -7    1.75   10.67
   3   0  -7  966.77   30.07
   3   0   7  761.21   29.19
   3   0  -7  871.91   24.44
   3   0  -7  956.66   29.07
   3   0   7  734.68   28.01
   3   0   7  833.99   29.32
   3   0   7  802.51   47.27
   3   0   7  780.02   28.17
   3   0   7  766.30   42.89
   3   0  -7  721.36   67.39
   4   0   7    2.66    5.47
   4   0  -7   -0.59    1.48
   4   0  -7   -0.29    2.79
   4   0   7   -1.05    3.52
   4   0  -7   -2.59    2.92
   4   0   7   -0.92    2.81
   4   0   7    1.53    6.45
   4   0  -7    3.52   10.72
   5   0  -7  716.53   34.17
   5   0   7  584.09   34.07
   5   0  -7  725.44   22.80
   5   0  -7  726.04   32.60
   5   0   7  562.85   31.75
   5   0   7  751.22   48.20
   5   0  -7  644.84   63.02
   5   0   7  706.23   44.21
   6   0   7    3.42    7.36
   6   0  -7   -0.14    2.04
   6   0  -7   -0.49    4.40
   6   0   7    1.22    4.55
   6   0  -7   -0.85    3.88
   6   0   7   -0.52    4.22
   6   0  -7    1.72   10.90
   7   0  -7  740.43   40.70
   7   0   7  532.76   38.71
   7   0  -7  760.81   25.36
   7   0  -7  732.91   37.82
   7   0   7  484.51   34.80
   7   0  -7  652.96   61.69
   7   0   7  812.71   53.76
   8   0  -7    1.86    3.09
   8   0  -7    5.27    7.04
   8   0   7   -0.82    7.61
   8   0  -7    2.98   11.41
   9   0  -7  397.53   32.26
   9   0  -7  395.70   18.46
   9   0  -7  396.02   42.96
  10   0  -7    0.68    3.29
  10   0  -7   -1.56    7.77
  10   0   7   -1.97    7.91
 -10   1  -7    1.63    4.57
 -10   1   7    5.14    4.95
 -10   1  -7    2.00    4.96
 -10  -1  -7    1.86    4.50
 -10  -1   7    2.15    4.72
  -9  -1  -7  647.87   27.94
  -9  -1   7  586.30   28.38
  -9  -1  -7  525.89   29.72
  -9   1  -7  484.00   27.64
  -9   1  -7  707.39   29.55
  -9   1   7  605.79   29.21
  -8   1   7   26.05   14.78
  -8  -1  -7   12.95    6.04
  -8   1  -7   16.39    5.44
  -8  -1  -7   20.24    5.19
  -8  -1   7   14.51    5.11
  -8   1  -7   14.98    5.07
  -8   1   7   16.50    5.54
  -8   1  -7   14.82   12.51
  -7   1  -7  856.94   30.26
  -7   1   7  786.02   30.81
  -7  -1  -7  772.80   28.88
  -7  -1   7  741.80   29.81
  -7  -1  -7  742.35   27.84
  -7  -1  -7  655.82   31.94
  -7   1  -7  675.69   30.64
  -7   1  -7  799.17   30.22
  -7   1   7  798.29   31.62
  -7  -1   7  974.40   56.59
  -7  -1  -7  676.97   49.30
  -7  -1  -7 1022.35   58.02
  -7   1  -7  857.16   64.53
  -7   1   7 1148.85   71.67
  -6  -1  -7   10.06   10.02
  -6   1   7   24.19   14.50
  -6  -1  -7   21.70    4.18
  -6  -1   7   20.94    4.45
  -6   1  -7   20.20    4.37
  -6   1   7   19.48    4.80
  -6  -1  -7   23.26    5.51
  -6  -1  -7   14.42    5.21
  -6   1  -7   17.83    5.07
  -6   1  -7   16.94    4.17
  -6   1   7   19.34    4.65
  -6  -1   7   35.78   11.97
  -6  -1  -7   25.15   11.16
  -6  -1  -7   25.19   13.82
  -6   1  -7   18.06   14.48
  -6  -1  -7    9.32    6.40
  -5   1  -7 1162.33   72.42
  -5   1  -7 1448.75   41.03
  -5   1   7 1292.41   41.44
  -5  -1  -7 1309.00   36.60
  -5   1  -7 1371.26   42.44
  -5   1  -7 1473.27   45.88
  -5  -1  -7 1445.52   45.26
  -5  -1  -7 1323.15   39.27
  -5  -1   7 1343.19   40.54
  -5   1  -7 1340.64   43.52
  -5  -1  -7 1281.56   45.48
  -5  -1  -7 1206.69   55.26
  -5   1  -7 1440.57   41.39
  -5   1   7 1301.19   41.80
  -5   1   7 1554.35   79.21
  -5  -1   7 1838.68   74.78
  -5  -1  -7 1216.01   65.96
  -5  -1  -7 1583.55   91.22
  -5   1  -7 1182.06   83.66
  -5   1   7 1791.81   91.75
  -4   1   7    7.41   10.84
  -4   1  -7    7.37    9.07
  -4  -1  -7    6.80    1.73
  -4   1  -7    9.39    3.23
  -4  -1   7    9.18    4.25
  -4   1  -7    8.45    2.51
  -4   1   7    7.31    2.68
  -4   1  -7    6.68    3.30
  -4  -1  -7    6.80    3.35
  -4   1  -7    9.49    3.35
  -4  -1  -7    9.44    3.73
  -4  -1  -7    7.99    2.21
  -4   1  -7    6.95    2.45
  -4   1   7    5.04    2.43
  -4   1   7    6.91    3.12
  -4  -1   7    5.55    3.33
  -4  -1   7    8.02    2.38
  -4   1   7    7.47    8.68
  -4  -1  -7    6.48    6.97
  -4  -1   7   10.12    8.13
  -4  -1  -7   11.00   12.65
  -4   1  -7   16.04   14.91
  -4   1  -7   12.01    6.92
  -3   1   7 2340.58  106.05
  -3  -1   7 1776.65   48.35
  -3   1  -7 2109.48   49.88
  -3   1   7 1746.28   49.44
  -3  -1   7 1892.88   57.99
  -3   1  -7 1916.09   52.90
  -3   1  -7 2262.12   57.38
  -3  -1  -7 2128.18   55.07
  -3  -1  -7 1996.46   57.97
  -3   1   7 1686.71   59.45
  -3   1  -7 2061.09   49.87
  -3   1   7 1743.30   49.60
  -3   1   7 2140.34   88.38
  -3  -1  -7 1811.29   80.55
  -3  -1  -7 1544.61  101.39
  -3  -1  -7 1919.20   48.25
  -2   1   7   34.11   14.76
  -2   1  -7   21.44    9.97
  -2   1   7   23.38    3.99
  -2   1  -7   25.77    2.34
  -2   1   7   23.26    2.22
  -2   1  -7   27.41    4.06
  -2  -1   7   23.14    4.42
  -2   1  -7   25.92    3.21
  -2   1  -7   28.53    4.52
  -2  -1  -7   32.81    4.22
  -2   1  -7   25.22    2.33
  -2   1   7   19.81    6.13
  -2   1   7   25.01    2.27
  -2  -1  -7   21.92    8.92
  -2   1  -7   19.73    8.63
  -2  -1  -7   26.21   17.37
  -1   1  -7 1477.20   75.32
  -1   1  -7 1657.25   47.25
  -1   1   7 1525.49   44.71
  -1  -1   7 1556.14   48.04
  -1  -1  -7 1667.59   51.26
  -1   1  -7 1807.28   48.92
  -1   1  -7 1853.03   48.59
  -1  -1  -7 1726.00   44.61
  -1  -1   7 1732.32   47.92
  -1   1   7 1730.74   50.51
  -1  -1   7 1578.03   66.40
  -1   1  -7 1612.37   71.31
  -1  -1  -7 1233.88   92.97
   0   1  -7   48.49   12.89
   0   1   7   55.56    4.31
   0  -1   7   53.12    5.82
   0  -1  -7   62.30    7.68
   0  -1  -7   60.44    3.92
   0  -1   7   54.82    5.50
   0   1   7   46.90    5.96
   0  -1   7   63.58   12.73
   0   1   7   46.97    9.59
   0  -1   7   58.64   11.36
   0  -1  -7   64.53   14.43
   0   1  -7   46.71   11.19
   1   1   7 1851.81   90.39
   1  -1  -7 1592.47   56.30
   1  -1  -7 1651.55   39.48
   1   1   7 1773.07   50.18
   1  -1   7 1743.19   47.02
   1  -1  -7 1759.42   48.79
   1  -1   7 1884.40   74.92
   1   1   7 1638.73   63.76
   1  -1  -7 1579.31   76.83
   1  -1   7 1583.39   66.34
   1   1  -7 1519.43   69.79
   1   1  -7 1398.98   95.87
   1   1  -7 1367.81   70.52
   2   1   7   17.85    6.66
   2  -1   7   17.93    7.73
   2   1   7   22.69   12.16
   2   1  -7   26.83    2.55
   2   1   7   23.52    2.87
   2  -1   7   21.37    3.93
   2   1  -7   24.52    3.56
   2   1   7   18.29    3.52
   2   1   7   21.02    4.47
   2   1  -7   31.36    3.00
   2  -1  -7   25.31    4.53
   2   1   7   23.75    4.12
   2  -1   7   24.22    2.44
   2  -1   7   25.20    4.34
   2  -1  -7   27.75    3.25
   2  -1   7   19.87    2.73
   2   1   7   23.22    2.82
   2   1  -7   25.25    3.03
   2   1   7   21.87    2.88
   2   1  -7   25.83    9.61
   2  -1  -7   22.06   15.83
   2   1  -7   17.12   15.34
   3  -1  -7 2099.71   52.40
   3  -1   7 1687.17   50.69
   3   1  -7 2092.84   49.59
   3   1   7 1549.41   49.43
   3   1   7 1873.04   54.41
   3   1  -7 1925.91   55.09
   3   1   7 1415.05   54.08
   3   1   7 1698.44   52.00
   3  -1  -7 2089.28   57.70
   3   1   7 1893.35   77.09
   3  -1   7 1897.65   80.54
   3  -1   7 1775.02   53.46
   3  -1  -7 2099.24   53.55
   3  -1   7 1744.65   51.92
   3   1   7 1826.47   70.19
   3  -1   7 1765.35   73.34
   3  -1  -7 1591.50  106.44
   3   1  -7 1616.97  104.51
   4   1   7   10.49    7.35
   4  -1   7    4.30    6.43
   4  -1  -7    8.32    1.40
   4  -1  -7    5.93    3.52
   4  -1   7    8.62    4.01
   4   1  -7    7.47    2.40
   4   1  -7    6.63    2.75
   4   1   7    3.30    2.57
   4  -1  -7    8.16    3.72
   4  -1   7    5.03    3.42
   4   1  -7    7.93    4.22
   4   1   7    4.41    3.77
   4   1   7   10.06    7.57
   4  -1   7   10.87    8.44
   4  -1   7    6.69    3.57
   4  -1  -7   16.15   15.12
   4   1  -7   12.20   12.24
   5  -1  -7 1223.17   47.39
   5  -1   7 1112.13   48.01
   5   1   7 1482.05   45.06
   5   1   7 1182.32   42.74
   5  -1  -7 1324.76   33.02
   5   1  -7 1230.11   37.03
   5  -1  -7 1167.09   44.71
   5  -1   7 1081.50   45.43
   5   1  -7 1316.09   40.15
   5   1   7 1084.55   41.05
   5   1  -7 1201.87   46.91
   5   1   7  950.85   46.72
   5   1   7 1325.73   63.89
   5  -1  -7 1014.44   81.25
   5  -1   7 1190.99   62.14
   5   1  -7 1011.43   81.03
   5   1   7 1306.15   60.91
   6  -1   7   23.51   10.90
   6   1   7   15.41    9.98
   6   1   7   20.84    5.28
   6  -1  -7   19.91    3.10
   6   1   7   21.59    5.87
   6  -1  -7   18.47    6.70
   6  -1   7   16.57    6.81
   6   1  -7   15.92    3.70
   6   1  -7   21.76    5.00
   6   1   7   16.70    5.08
   6  -1  -7   16.20    6.11
   6  -1   7   13.12    6.01
   6   1  -7   18.66    6.62
   6   1   7   19.63    7.18
   6  -1  -7   13.44   13.84
   6   1  -7    8.51   12.34
   7  -1  -7  631.77   37.22
   7  -1   7  558.91   37.99
   7   1   7  650.18   31.97
   7  -1  -7  711.71   23.28
   7   1  -7  657.67   25.12
   7   1  -7  737.10   29.82
   7   1   7  668.90   31.52
   7  -1  -7  587.67   33.80
   7  -1   7  511.73   34.27
   7   1  -7  637.91   35.64
   7   1   7  602.05   38.23
   7  -1  -7  711.62   62.21
   7   1  -7  582.73   58.75
   7  -1   7  719.03   52.05
   7   1   7  760.06   51.04
   7   1   7  764.74   28.77
   8   1   7   15.38    5.99
   8  -1  -7   20.37    4.03
   8   1  -7   22.10    4.87
   8  -1  -7   18.38    8.63
   8  -1   7   10.05    6.67
   8   1  -7   15.64    8.58
   8   1   7   15.50    8.84
   8  -1  -7    8.73   11.44
   8   1  -7   14.24   13.62
   9  -1  -7  523.40   37.22
   9  -1  -7  610.06   22.63
   9   1  -7  526.80   37.67
   9   1   7  508.89   41.12
   9   1  -7  545.75   23.61
   9   1   7  451.06   28.74
   9   1  -7  516.34   51.49
  10   1  -7    2.48    3.77
  10  -1  -7   -0.77    8.10
  10  -1   7   -0.95    7.80
  10   1  -7    5.57    8.39
  10   1   7    6.92    9.19
 -10  -2  -7   20.61    6.29
 -10  -2   7   21.99    7.07
 -10   2  -7   24.69    7.27
 -10   2   7   20.70    7.01
 -10  -2  -7   18.92   11.69
  -9  -2  -7  223.49   18.91
  -9   2  -7  240.21   17.49
  -9  -2  -7  295.76   18.13
  -9  -2   7  265.29   18.34
  -9   2  -7  322.47   19.86
  -9   2   7  279.35   19.43
  -9  -2  -7  279.07   31.93
  -8  -2   7    8.10    6.64
  -8  -2  -7    6.52    3.97
  -8   2  -7    9.50    4.87
  -8  -2   7    5.53    4.12
  -8   2   7    9.26    5.30
  -8  -2  -7    3.89    4.88
  -8   2  -7    7.08    4.70
  -8  -2  -7    2.93    8.04
  -8   2  -7    5.60   12.78
  -7  -2   7  635.18   32.75
  -7  -2  -7  441.96   25.70
  -7   2  -7  467.36   23.12
  -7  -2  -7  545.23   23.12
  -7  -2   7  527.84   24.17
  -7   2  -7  619.49   26.55
  -7   2   7  570.86   26.97
  -7  -2  -7  466.97   31.73
  -7  -2  -7  487.15   40.90
  -7  -2   7  705.91   42.99
  -6  -2  -7   10.61    1.98
  -6  -2   7   18.77    6.81
  -6   2  -7   15.33    4.66
  -6   2   7   13.56    5.04
  -6  -2  -7   12.61    4.69
  -6  -2  -7    9.69    4.92
  -6   2  -7   10.11    4.07
  -6  -2  -7    7.93    3.33
  -6  -2  -7    6.22    7.65
  -6  -2  -7    8.10    6.03
  -6  -2   7   18.84    4.34
  -5  -2   7  698.85   31.08
  -5   2  -7  575.70   24.60
  -5  -2  -7  610.69   25.05
  -5   2  -7  528.22   22.28
  -5  -2  -7  537.30   26.15
  -5   2  -7  634.92   24.90
  -5   2   7  618.27   25.73
  -5  -2   7  498.08   21.96
  -5  -2  -7  534.16   20.82
  -5  -2  -7  512.70   40.11
  -5  -2   7  592.05   22.37
  -5  -2  -7  737.61   57.36
  -4  -2  -7   76.81    6.10
  -4  -2   7   75.07    9.22
  -4  -2   7   69.29    6.19
  -4   2  -7   79.39    7.85
  -4   2  -7   84.47    8.49
  -4  -2  -7   81.27    7.66
  -4   2  -7   63.63    6.51
  -4  -2  -7   64.56    8.24
  -4   2  -7   96.75    8.19
  -4   2   7   82.69    8.08
  -4   2   7   82.32   11.49
  -4   2  -7   84.97   10.97
  -4   2   7   62.96    8.79
  -4  -2   7   57.76    8.76
  -4  -2  -7   58.33   14.37
  -4  -2  -7   99.18   24.63
  -3   2  -7  456.70   43.11
  -3  -2   7  615.98   26.62
  -3   2  -7  612.97   23.96
  -3   2  -7  655.76   25.49
  -3  -2  -7  670.26   22.93
  -3  -2  -7  624.18   26.67
  -3   2  -7  725.55   23.68
  -3   2   7  614.65   23.26
  -3   2   7  619.14   30.46
  -3   2  -7  690.27   29.82
  -3   2   7  550.75   29.94
  -3   2  -7  621.23   37.66
  -3  -2  -7  558.47   19.49
  -3  -2  -7  577.71   42.27
  -3  -2  -7  654.78   60.73
  -3  -2   7  548.86   19.93
  -3   2   7  917.22   84.88
  -3   2   7  802.94   62.66
  -2   2   7   39.80   16.18
  -2   2  -7   37.23   13.27
  -2   2  -7   44.12    5.61
  -2  -2   7   48.93    6.53
  -2   2  -7   50.16    3.12
  -2   2  -7   54.01    6.40
  -2  -2  -7   55.74    4.83
  -2   2   7   48.39    5.15
  -2   2  -7   55.82    5.24
  -2   2   7   45.43    7.23
  -2   2  -7   54.80    7.27
  -2  -2   7   47.22   11.75
  -2  -2   7   55.12   11.67
  -2   2   7   33.89    8.42
  -2  -2  -7   45.24   13.12
  -2   2   7   51.35   13.57
  -2  -2  -7   44.34   18.74
  -2   2   7   41.78    3.73
  -1   2  -7  742.36   51.93
  -1   2   7  839.99   25.67
  -1   2  -7  838.56   30.12
  -1  -2   7  869.54   31.58
  -1   2   7  922.16   33.06
  -1   2  -7 1018.98   32.58
  -1  -2   7  914.32   27.92
  -1   2   7  957.16   32.85
  -1   2  -7 1014.71   32.10
  -1  -2   7 1029.86   51.01
  -1   2   7  852.40   43.51
  -1   2   7  876.52   24.16
  -1  -2  -7  840.86   53.28
  -1   2   7  934.70   53.30
  -1   2  -7  805.46   47.67
  -1  -2  -7  719.80   68.02
  -1   2  -7  828.76   23.75
  -1   2   7 1312.10   98.30
   0   2   7   10.91   10.22
   0   2  -7    9.47    8.01
   0   2   7   15.20    2.06
   0   2   7   15.14    1.77
   0  -2  -7    8.22    4.26
   0   2   7   15.01    2.08
   0   2   7   15.83    3.53
   0   2  -7    9.55    3.17
   0  -2   7   14.09    2.85
   0   2   7   11.53    3.19
   0   2  -7   11.76    3.16
   0  -2   7   20.58    9.02
   0   2   7    9.93    6.36
   0   2  -7    6.18    1.48
   0   2  -7   11.31    6.92
   0   2   7   15.29    8.87
   0  -2  -7    3.63   12.35
   0   2   7   28.52   19.93
   0   2   7   14.37    6.16
   1   2  -7  746.88   48.59
   1   2   7 1004.67   65.63
   1   2   7  910.62   25.20
   1   2  -7  813.31   23.94
   1  -2  -7  744.06   34.82
   1   2   7  846.69   27.72
   1   2  -7 1014.45   29.19
   1  -2   7  930.06   27.10
   1  -2  -7  896.72   33.02
   1  -2   7 1045.16   53.74
   1   2   7  835.11   47.61
   1   2   7  883.59   41.20
   1   2  -7  753.00   44.20
   1   2   7  923.64   24.96
   1   2   7  831.88   27.84
   1   2  -7  840.30   23.80
   1   2  -7  985.42   29.09
   1   2   7  997.06   82.07
   2   2  -7   36.83   10.94
   2   2   7   40.98   14.86
   2   2   7   43.59    4.33
   2   2  -7   47.48    4.04
   2  -2  -7   40.50    8.12
   2   2   7   43.41    6.49
   2  -2   7   39.98    4.52
   2  -2  -7   48.01    6.97
   2   2   7   45.14    6.23
   2  -2   7   46.20    6.24
   2  -2   7   37.69    4.78
   2  -2  -7   47.59    5.55
   2  -2   7   46.17   12.71
   2   2   7   37.13    4.68
   2   2  -7   51.31    5.66
   2   2   7   43.78    4.21
   2   2  -7   45.44    3.83
   2   2   7   40.55    8.91
   2   2  -7   42.98   10.94
   2  -2  -7   34.79   17.64
   3   2   7  607.72   49.24
   3  -2  -7  615.66   23.35
   3  -2   7  507.44   21.85
   3  -2  -7  333.64   26.53
   3   2   7  718.28   30.70
   3   2   7  554.37   22.04
   3   2   7  613.79   25.03
   3   2   7  524.95   23.50
   3  -2  -7  617.68   27.62
   3   2   7  587.39   38.16
   3   2  -7  612.46   22.87
   3   2   7  416.95   19.50
   3  -2   7  646.36   44.64
   3   2   7  589.14   20.99
   3   2  -7  622.52   19.74
   3  -2   7  537.73   24.21
   3  -2  -7  635.59   24.98
   3  -2   7  533.20   23.43
   3   2  -7  533.61   36.99
   3   2   7  598.89   33.86
   3  -2   7  561.73   38.45
   3  -2  -7  493.74   55.97
   3   2  -7  545.94   37.65
   4  -2   7   58.08   13.41
   4   2   7   88.55   10.30
   4   2   7   62.86    7.34
   4  -2  -7   72.99    8.33
   4  -2   7   68.48    8.31
   4   2   7   64.95    8.01
   4   2   7   59.52    7.47
   4   2   7   67.39    6.83
   4   2  -7   69.85    6.12
   4   2   7   57.66   13.00
   4  -2   7   57.78    8.03
   4  -2  -7   74.24    9.06
   4  -2   7   69.39    8.85
   4   2   7   82.83   13.16
   4  -2  -7   40.84   19.03
   5   2   7  629.92   27.51
   5   2   7  518.25   24.48
   5  -2  -7  512.60   26.19
   5  -2   7  501.70   27.04
   5   2  -7  461.84   20.60
   5   2   7  568.02   24.90
   5   2  -7  530.73   22.22
   5   2  -7  486.85   26.97
   5   2   7  488.12   29.52
   5   2   7  556.42   38.50
   5  -2   7  508.95   26.16
   5  -2  -7  493.08   54.39
   5  -2  -7  509.40   27.37
   5  -2   7  484.94   27.90
   5  -2   7  547.51   40.96
   5   2  -7  468.85   53.86
   5   2   7  592.10   37.69
   6  -2   7   12.51    9.57
   6   2   7   10.17    8.36
   6   2   7   14.69    4.97
   6  -2  -7   10.50    6.01
   6  -2   7    7.29    5.79
   6   2   7   13.42    5.00
   6   2  -7    9.62    3.57
   6   2   7   10.82    4.68
   6   2  -7   10.91    4.00
   6  -2  -7   11.91    5.36
   6  -2   7   16.75    6.27
   6   2  -7   10.13    5.79
   6   2   7   12.02    6.30
   6  -2  -7    6.66   10.95
   6   2  -7    8.70   14.66
   7   2   7  523.15   25.00
   7   2   7  427.92   24.74
   7  -2  -7  406.85   27.07
   7  -2   7  370.39   27.79
   7   2  -7  454.15   20.70
   7   2  -7  494.26   23.67
   7   2   7  489.70   26.02
   7   2  -7  451.87   29.52
   7   2   7  432.69   31.68
   7   2  -7  400.74   48.86
   7  -2  -7  424.59   29.35
   7  -2   7  355.51   29.05
   7  -2   7  527.89   45.17
   8  -2  -7    5.58    6.88
   8  -2   7    2.23    6.26
   8   2   7    2.43    4.56
   8   2  -7    7.33    3.72
   8   2  -7    5.79    4.63
   8   2   7    6.52    5.16
   8   2  -7   -1.61   11.65
   9   2   7  228.38   19.53
   9   2  -7  238.91   15.49
   9   2  -7  282.44   19.42
   9   2   7  260.02   20.78
   9  -2  -7  284.00   26.77
  10  -2  -7   18.76    9.33
  10  -2   7    8.20    8.32
  10   2  -7   20.95    5.70
  10   2  -7   15.74    6.55
  10   2   7   16.39    8.04
  -9   3  -7  485.18   25.91
  -9   3   7  377.73   24.10
  -9  -3  -7  414.99   22.14
  -9  -3   7  380.26   22.92
  -9  -3  -7  404.72   38.02
  -8  -3   7  166.79   17.56
  -8  -3  -7   89.23   11.96
  -8   3  -7  153.56   13.98
  -8   3   7  129.83   13.53
  -8  -3  -7  123.32   11.12
  -8  -3  -7   98.83   19.52
  -8  -3   7  112.78   11.64
  -7  -3   7  663.87   33.63
  -7  -3  -7  473.61   27.05
  -7   3  -7  517.47   22.71
  -7   3  -7  649.17   28.93
  -7   3   7  577.57   28.53
  -7   3  -7  415.37   44.78
  -7  -3  -7  529.93   42.39
  -7  -3  -7  547.50   24.01
  -7  -3   7  573.04   25.73
  -6  -3  -7  127.69   10.28
  -6  -3   7  155.72   11.78
  -6  -3   7  173.55   15.97
  -6   3  -7  138.55    9.89
  -6  -3  -7  117.32   12.64
  -6   3  -7  183.53   13.90
  -6   3   7  174.24   14.13
  -6   3   7  173.55   20.39
  -6   3  -7  183.00   19.77
  -6   3  -7   99.68   21.55
  -6  -3  -7  133.44   22.30
  -5  -3   7  838.90   35.30
  -5  -3  -7  718.05   26.79
  -5  -3   7  725.35   28.04
  -5   3  -7  713.36   25.24
  -5   3  -7  920.50   32.55
  -5   3   7  783.71   31.72
  -5  -3  -7  722.35   32.16
  -5   3   7  748.32   41.89
  -5   3  -7  914.04   43.57
  -5  -3   7  949.73   45.74
  -5  -3   7  613.38   32.17
  -5  -3  -7  764.36   51.39
  -4  -3   7  100.91   10.82
  -4   3   7  101.85    9.69
  -4   3  -7  113.62    9.90
  -4  -3  -7   73.87    9.31
  -4   3   7   84.75   12.90
  -4   3  -7  109.19   13.99
  -4  -3   7   99.50   15.12
  -4  -3   7   68.58   11.14
  -4   3   7   85.32   12.28
  -4  -3  -7   83.49    7.11
  -4  -3  -7   78.36   16.91
  -4  -3   7   87.19    7.61
  -3   3  -7  989.78   35.70
  -3  -3   7  982.67   38.06
  -3   3  -7 1060.71   36.64
  -3   3   7  988.30   44.08
  -3   3  -7 1235.78   46.74
  -3  -3   7 1227.74   54.95
  -3   3   7  931.75   45.10
  -3  -3   7 1016.61   53.09
  -3  -3   7  840.02   45.74
  -3  -3  -7 1037.22   61.15
  -2   3  -7  168.01   11.89
  -2  -3   7  176.88   13.20
  -2   3   7  195.32   16.22
  -2   3  -7  215.86   16.75
  -2   3   7  174.80   15.32
  -2   3  -7  211.57   16.47
  -2  -3   7  183.54   20.86
  -2   3   7  162.75    9.05
  -2   3   7  132.25    9.89
  -2   3   7  151.97   17.90
  -2  -3   7  195.49   21.25
  -2  -3   7  120.66   17.30
  -2   3   7  169.39   24.19
  -2   3  -7  171.14    9.24
  -1   3  -7 1062.37   31.45
  -1   3   7 1125.84   41.72
  -1   3  -7 1342.50   43.95
  -1   3  -7 1038.33   37.03
  -1  -3   7 1067.65   38.79
  -1   3   7 1092.23   40.82
  -1   3  -7 1368.56   43.82
  -1  -3   7 1109.07   31.20
  -1   3   7 1126.10   38.90
  -1  -3   7 1330.96   60.67
  -1   3   7 1056.66   30.85
  -1   3   7 1048.63   52.77
  -1  -3   7 1168.44   55.83
  -1   3   7 1046.06   59.54
  -1  -3  -7 1075.64   84.01
  -1   3   7 1613.73  114.97
  -1   3   7 1033.94   31.56
  -1   3   7 1219.91   80.08
   0   3  -7  231.03   28.27
   0   3  -7  302.46   16.67
   0  -3  -7  288.59   19.94
   0   3   7  305.39   17.17
   0   3  -7  371.91   18.92
   0   3   7  283.70   16.66
   0  -3   7  289.18   11.17
   0   3   7  301.46   12.53
   0   3  -7  303.41   12.16
   0  -3   7  360.30   30.99
   0   3   7  312.59   28.13
   0   3   7  280.06   21.21
   0  -3   7  316.76   27.43
   0   3   7  293.36   28.81
   0   3  -7  283.44   26.32
   0  -3  -7  303.84   44.41
   0   3   7  389.81   57.09
   0   3   7  313.14   17.62
   0   3  -7  397.69   19.69
   0   3   7  271.60   37.28
   1   3  -7  981.65   58.39
   1   3   7 1095.22   31.85
   1   3  -7 1051.30   30.85
   1  -3  -7  972.68   42.90
   1   3  -7 1046.30   31.10
   1   3   7 1077.69   32.18
   1   3   7 1029.50   36.48
   1   3  -7 1290.88   39.65
   1   3   7 1160.38   39.20
   1  -3   7 1289.99   63.74
   1   3   7 1008.39   56.18
   1   3   7 1105.44   45.76
   1   3  -7 1010.90   51.71
   1  -3   7 1088.16   54.96
   1   3   7 1077.87   56.05
   1   3   7 1043.66   36.94
   1   3  -7 1333.12   40.21
   1   3   7 1184.27   95.92
   1   3   7 1084.99   72.13
   2   3   7  179.09   28.49
   2   3  -7  142.49   20.29
   2   3   7  170.44    9.74
   2   3  -7  165.75    9.03
   2  -3  -7  135.44   14.51
   2   3   7  140.38   10.69
   2   3  -7  197.85   13.18
   2   3   7  156.71    8.97
   2  -3  -7  168.14   14.10
   2   3   7  170.04   13.05
   2  -3   7  125.36   10.26
   2  -3  -7  160.37   11.65
   2  -3   7  165.94   12.78
   2  -3   7  180.85   24.38
   2   3   7  141.19   21.49
   2   3   7  145.38   11.05
   2   3  -7  205.41   13.45
   2   3  -7  151.39   18.27
   2   3   7  166.14   15.85
   2  -3   7  148.11   19.43
   2  -3  -7  151.15   32.38
   2   3   7  174.55    9.45
   2   3   7  172.56   37.95
   2   3  -7  176.51    8.82
   3   3  -7  879.70   50.04
   3   3   7  973.90   65.20
   3   3   7  962.38   31.58
   3   3  -7  944.97   30.05
   3   3   7 1167.80   44.09
   3   3   7  836.12   31.11
   3   3  -7 1177.50   27.35
   3  -3   7  935.54   25.81
   3   3   7  909.46   36.11
   3  -3  -7  958.65   39.95
   3  -3   7  887.95   36.13
   3   3   7  820.34   33.79
   3   3  -7 1199.38   39.51
   3  -3  -7 1070.66   39.11
   3  -3   7  835.30   36.04
   3   3  -7  979.74   49.85
   3   3   7  958.24   30.88
   3   3  -7  953.35   29.43
   3   3   7  932.36   43.30
   3   3   7  900.31   79.46
   4   3   7   84.37   19.30
   4   3   7   87.42    8.14
   4   3  -7   86.49    7.33
   4  -3  -7   82.08    9.39
   4  -3   7   78.87    9.45
   4   3   7   84.11    8.53
   4   3   7   81.93    9.49
   4  -3  -7   84.85   11.30
   4   3   7   72.70   13.99
   4   3  -7  101.37   10.13
   4   3   7   69.14    8.19
   4  -3   7   72.02    9.43
   4   3   7   91.45    7.95
   4   3  -7   82.11    6.87
   4  -3  -7   86.95   10.73
   4  -3   7   76.82   10.17
   4   3   7  100.16   11.85
   4   3   7   83.12   13.18
   4   3   7   83.24   25.19
   4   3  -7   69.07   13.64
   5  -3  -7  686.79   31.61
   5  -3   7  601.64   31.10
   5   3   7  602.24   27.39
   5   3   7  706.17   42.86
   5   3   7  734.76   27.51
   5   3  -7  724.33   25.43
   5  -3   7  683.14   32.14
   5   3   7  781.38   33.12
   5  -3  -7  677.57   33.58
   5  -3   7  636.76   33.77
   5   3   7  793.33   42.42
   6   3   7  106.44   11.20
   6  -3  -7  108.20   13.07
   6  -3   7  117.92   14.26
   6   3  -7  126.19   10.62
   6   3   7  156.90   12.45
   6   3  -7  141.14   10.62
   6  -3  -7  128.40   15.27
   6  -3   7  126.54   15.83
   7   3   7  404.26   23.93
   7   3  -7  490.87   22.40
   7   3   7  572.09   27.78
   7   3  -7  538.06   24.81
   7  -3  -7  381.35   28.02
   7  -3   7  397.32   30.11
   7   3  -7  495.46   55.85
   7  -3   7  527.67   46.17
   8  -3  -7   47.90   11.84
   8   3   7   81.65   11.18
   8  -3   7   57.58   13.12
   8   3  -7   99.57    9.95
   8   3   7  109.33   12.87
   8   3  -7  114.68   11.79
   8  -3  -7   92.28   14.69
   8   3  -7   94.67   25.79
   9   3   7  280.89   21.46
   9   3  -7  350.70   19.46
   9   3  -7  378.74   22.49
   9   3   7  360.01   24.39
   9  -3  -7  309.95   27.72
   9  -3   7  232.23   26.42
  -8  -4  -7   50.00    8.29
  -8  -4   7   39.84    7.92
  -8   4   7   44.28   13.48
  -8   4  -7   69.55   15.69
  -8  -4  -7   54.39   16.33
  -7  -4   7  339.66   23.38
  -7  -4  -7  291.83   17.56
  -7  -4   7  286.31   18.42
  -7   4   7  297.90   29.18
  -7   4  -7  379.23   31.44
  -7   4  -7  235.45   35.14
  -7  -4  -7  326.16   34.48
  -6  -4   7   64.89   10.55
  -6  -4  -7   52.25    7.14
  -6   4   7   50.79   12.99
  -6   4  -7   60.08   13.62
  -6   4  -7   30.90   14.60
  -6  -4   7   60.91    8.33
  -6  -4  -7   44.51   14.92
  -5  -4   7  421.18   21.15
  -5  -4   7  509.51   26.87
  -5   4   7  509.01   24.80
  -5   4  -7  606.96   26.43
  -5   4   7  427.38   32.04
  -5   4  -7  569.90   35.75
  -5   4  -7  390.53   41.04
  -5  -4   7  574.19   32.84
  -5   4   7  250.26   19.71
  -5  -4   7  382.83   27.76
  -5  -4   7  495.22   37.68
  -5  -4  -7  443.86   20.32
  -4  -4   7  166.67   14.54
  -4   4   7  149.72   17.41
  -4   4  -7  201.97   19.90
  -4   4   7  141.19   17.28
  -4   4  -7  199.07   20.00
  -4  -4   7  181.80   19.81
  -4   4   7  101.41   10.54
  -4  -4   7  119.67   16.85
  -4  -4   7  182.55   22.27
  -4   4   7  156.31   18.59
  -3  -4   7  574.52   27.84
  -3   4  -7  801.49   38.28
  -3   4   7  565.00   33.32
  -3   4  -7  801.78   38.40
  -3  -4   7  658.91   39.82
  -3   4   7  437.08   21.39
  -3  -4   7  443.89   34.46
  -3   4   7  554.73   35.61
  -3  -4   7  611.79   39.98
  -3   4   7  602.59   33.96
  -2   4   7  133.31   14.43
  -2   4  -7  180.67   16.86
  -2  -4   7  131.67   12.39
  -2   4  -7  133.60    4.82
  -2   4   7  138.03   14.64
  -2   4  -7  182.38   16.80
  -2   4   7  127.88    9.00
  -2   4  -7  150.78    9.65
  -2  -4   7  166.71   20.87
  -2   4   7  124.42    8.17
  -2   4   7  116.08   17.31
  -2  -4   7   86.77   16.77
  -2  -4   7  129.69   18.39
  -1   4   7  564.69   28.99
  -1   4  -7  746.39   33.05
  -1   4   7  541.95   28.42
  -1   4  -7  688.25   31.74
  -1  -4   7  556.43   15.57
  -1  -4   7  682.77   43.94
  -1   4   7  546.03   38.90
  -1  -4   7  349.73   35.23
  -1  -4   7  566.45   38.38
  -1   4   7  523.25   20.51
  -1   4  -7  582.84   20.99
   0   4   7   77.17    9.66
   0   4  -7   87.08   10.86
   0   4   7   70.57    6.38
   0  -4   7   91.74   18.29
   0   4  -7   69.56    6.10
   0   4   7   77.64   10.77
   0   4   7   59.41   14.30
   0  -4   7   81.16   14.87
   0   4  -7   65.52   13.24
   0   4   7   73.08    9.41
   0   4  -7   85.09   10.52
   1   4  -7  497.52   41.74
   1   4   7  492.39   16.87
   1   4   7  533.63   20.35
   1   4   7  481.49   24.98
   1   4  -7  686.61   29.66
   1   4  -7  564.10   20.15
   1  -4   7  690.98   47.84
   1   4   7  537.10   27.99
   1   4  -7  550.95   35.94
   1   4   7  536.50   39.16
   1  -4   7  543.33   38.25
   1   4   7  513.16   25.51
   1   4  -7  670.59   29.18
   1   4   7  509.05   50.89
   2   4  -7  168.42   22.93
   2   4   7  128.24    8.94
   2   4  -7  144.38    8.88
   2   4   7  137.25    9.58
   2   4   7  107.30   10.84
   2   4  -7  177.07   14.28
   2   4  -7  152.68    9.46
   2   4   7  107.40    7.90
   2  -4  -7  128.97   13.68
   2  -4   7  106.64   11.21
   2  -4  -7  141.63   12.88
   2  -4   7  117.83   11.75
   2   4   7  120.87   11.57
   2   4  -7  182.84   14.64
   2   4  -7  129.59   16.67
   2   4   7  133.40   13.36
   2  -4   7  108.83   18.12
   2   4   7  141.76   26.32
   3   4   7  508.52   47.89
   3   4  -7  530.43   38.42
   3   4   7  568.92   22.76
   3   4  -7  600.90   22.05
   3   4   7  438.26   20.54
   3  -4  -7  600.98   31.18
   3  -4   7  486.10   27.31
   3  -4  -7  578.41   29.34
   3  -4   7  501.27   26.36
   3   4   7  469.39   25.08
   3   4  -7  728.71   31.49
   3   4  -7  559.05   34.90
   3  -4   7  507.48   39.69
   3   4   7  560.27   29.06
   3   4   7  545.39   21.65
   3   4  -7  578.40   21.01
   4   4   7  146.13   26.01
   4   4   7  152.35   11.22
   4   4  -7  151.94   10.37
   4  -4  -7   91.71   13.56
   4   4   7  119.37   10.41
   4   4  -7  199.03   10.31
   4  -4  -7  154.78   16.04
   4  -4   7  130.97    8.84
   4   4   7  154.26   19.67
   4   4  -7  192.73   16.61
   4   4   7  119.84   12.56
   4  -4   7  123.95   13.03
   4  -4  -7  139.32   14.90
   4  -4   7  132.63   14.70
   4   4   7  147.18   10.69
   4   4  -7  145.31    9.71
   4  -4   7  137.32   21.91
   4   4   7  162.08   16.53
   4   4  -7  135.36   18.46
   5   4   7  387.89   39.41
   5   4   7  465.41   21.58
   5   4  -7  444.76   19.68
   5  -4  -7  193.18   21.05
   5   4   7  304.11   18.89
   5  -4  -7  388.90   26.79
   5   4   7  399.88   31.72
   5   4  -7  523.95   27.68
   5   4   7  334.87   21.22
   5  -4   7  392.30   24.63
   5  -4  -7  410.26   26.88
   5  -4   7  354.03   25.91
   5   4  -7  454.76   19.02
   5   4   7  340.25   47.87
   5  -4   7  425.79   39.16
   6  -4   7   54.15   16.72
   6  -4  -7   19.48    7.54
   6   4   7   37.95    7.05
   6  -4   7   45.33   10.74
   6   4  -7   46.99    7.48
   6  -4  -7   42.23   10.15
   6  -4  -7   49.44   10.22
   7   4   7  186.22   15.52
   7   4  -7  255.53   16.35
   7  -4  -7  237.02   22.44
   7  -4   7  214.63   22.82
   8  -4  -7   28.26    9.80
   8  -4   7   27.94   10.12
   8   4  -7   40.02    7.29
   8   4   7   30.75    7.44
   8   4   7   43.82    9.34
   8   4  -7   46.79    8.63
   8   4  -7   33.87   18.55
  -7   5   7  328.27   31.79
  -7   5  -7  424.88   35.53
  -7  -5   7  421.47   36.33
  -7  -5  -7  331.72   19.72
  -7  -5   7  330.58   21.09
  -6   5   7  190.80   23.59
  -6   5  -7  208.41   24.71
  -6   5  -7  134.05   27.66
  -6  -5   7  222.09   25.95
  -5  -5  -7  355.56   22.29
  -5   5   7  369.10   30.74
  -5   5  -7  465.81   34.10
  -5   5  -7  335.98   39.91
  -5  -5   7  298.99   27.50
  -5  -5   7  457.36   35.53
  -4   5   7  189.48   21.02
  -4   5  -7  226.93   23.31
  -4  -5   7  210.25   24.13
  -4  -5   7  191.70   16.61
  -3  -5   7  422.22   24.72
  -3   5   7  443.92   30.55
  -3   5  -7  564.99   34.51
  -3  -5   7  314.23   31.80
  -3  -5   7  445.99   34.60
  -2   5   7  235.30   20.56
  -2   5  -7  301.52   23.71
  -2   5   7  207.32   13.43
  -2   5  -7  262.57    9.83
  -2   5  -7  247.43   14.32
  -2   5   7  234.96   20.82
  -2   5  -7  312.24   24.30
  -2  -5   7  176.75   24.99
  -2  -5   7  246.26   25.66
  -1   5   7  660.36   33.85
  -1   5  -7  839.33   38.48
  -1   5   7  586.07   32.47
  -1   5  -7  775.50   37.22
  -1  -5   7  398.86   40.13
  -1  -5   7  640.16   42.17
  -1   5   7  574.05   23.74
  -1   5  -7  624.50   24.19
   0   5   7  295.35   21.19
   0   5  -7  375.51   24.51
   0   5   7  303.31   15.53
   0   5  -7  306.69   15.21
   0  -5   7  197.63   28.62
   0   5   7  272.04   18.66
   0  -5   7  285.09   28.23
   0   5   7  277.79   20.50
   0   5  -7  378.03   24.28
   1   5   7  486.73   18.42
   1   5   7  543.43   29.11
   1   5  -7  752.53   34.56
   1   5   7  613.45   23.40
   1   5  -7  624.02   23.05
   1  -5   7  573.17   28.70
   1   5  -7  595.17   37.70
   1   5   7  587.23   26.13
   1  -5   7  630.82   42.66
   1   5   7  557.00   28.90
   1   5  -7  785.53   34.76
   2   5   7  211.77   13.01
   2   5  -7  236.99   13.02
   2   5   7  210.64   17.25
   2   5  -7  309.28   21.48
   2   5   7  219.79   13.66
   2   5  -7  231.12   13.34
   2   5   7  177.92   11.01
   2  -5   7  229.12   17.38
   2   5  -7  206.43   20.97
   2   5   7  203.41   16.75
   2   5  -7  292.76   20.89
   2  -5   7  227.00   26.38
   2   5   7  186.20   32.80
   3   5   7  406.02   44.10
   3   5  -7  382.96   34.32
   3  -5  -7  316.22   25.34
   3   5  -7  416.01   18.95
   3   5   7  363.75   23.02
   3   5  -7  526.40   28.55
   3   5   7  298.92   16.38
   3  -5  -7  375.51   25.84
   3  -5   7  307.41   22.58
   3  -5  -7  394.52   25.14
   3   5   7  403.01   19.54
   3  -5   7  373.18   23.28
   3   5  -7  382.29   27.61
   3  -5   7  385.07   35.53
   4   5   7  131.25   25.98
   4   5   7  170.42   12.55
   4   5  -7  184.90   12.25
   4  -5  -7  102.40   14.80
   4   5   7  114.58   10.38
   4  -5  -7  158.77   17.03
   4  -5   7  123.22   15.44
   4  -5  -7  148.71   16.53
   4  -5   7  156.23   15.36
   4  -5   7  182.62   25.73
   5   5   7  321.37   37.56
   5   5   7  349.42   19.06
   5   5  -7  357.79   18.09
   5  -5  -7  197.94   21.13
   5   5   7  213.82   15.78
   5  -5  -7  268.87   23.08
   5  -5  -7  330.43   25.71
   5  -5   7  276.08   24.46
   5  -5   7  313.70   22.73
   5  -5   7  331.97   36.17
   6   5   7  158.56   26.37
   6   5   7  179.64   14.32
   6   5  -7  179.72   13.33
   6   5   7  107.56   11.61
   6  -5  -7  109.03   15.64
   6  -5  -7  147.88   18.47
   6  -5   7  126.30   18.14
   6  -5   7  156.22   16.90
   6  -5   7  205.46   30.65
   7   5   7  198.58   16.38
   7  -5  -7  253.77   24.14
   7  -5   7  214.21   23.77
  -6   6   7   79.01   16.49
  -6   6  -7   77.71   17.21
  -5   6   7  151.17   21.42
  -5   6  -7  200.17   24.54
  -5  -6   7  209.50   24.68
  -4   6   7  116.39   17.99
  -4   6  -7  131.54   19.29
  -4  -6   7   79.28   17.78
  -4  -6   7  100.59   17.92
  -3   6   7  248.83   23.89
  -3   6  -7  306.08   26.89
  -3  -6   7  281.36   27.97
  -2   6   7  112.50   15.80
  -2   6  -7  151.17   18.65
  -2  -6   7   78.12   18.98
  -2  -6   7  114.14   19.17
  -1   6   7  184.72   18.92
  -1   6  -7  244.68   22.31
  -1  -6   7  212.42   24.59
   0   6   7  118.72   14.88
   0   6  -7  148.21   17.11
   0  -6   7  129.45   13.79
   0   6  -7  102.12   17.42
   0  -6   7  139.23   21.38
   1   6   7  189.42   18.02
   1   6  -7  219.73   20.38
   1  -6   7  177.09   16.21
   1   6  -7  163.21   20.04
   1  -6   7  206.99   25.83
   2   6   7   80.80   24.41
   2   6   7  127.62   14.82
   2   6  -7  178.32   18.34
   2   6   7  119.43   10.92
   2   6  -7  133.30   10.94
   2  -6   7  118.35   13.61
   2  -6   7   72.35   20.53
   2  -6   7  127.04   21.69
   3   6   7  227.62   15.63
   3   6  -7  241.31   15.12
   3   6   7  202.21   18.64
   3  -6  -7  194.46   19.72
   3  -6   7  243.29   19.51
   3  -6   7  228.67   29.13
   3   6   7  184.26   32.76
   4   6   7   68.72   20.88
   4   6   7  101.45   10.54
   4   6  -7  108.82   10.38
   4   6   7   73.89   11.74
   4   6  -7  134.33   16.62
   4  -6   7   80.12   13.71
   4  -6  -7   91.17   13.76
   4  -6   7  105.25   21.53
   5   6   7  170.08   28.78
   5   6   7  176.06   14.16
   5   6  -7  181.26   13.62
   5  -6   7  129.40   17.88
   5  -6  -7  124.44   17.13
   6   6  -7   65.88    8.91
   6  -6  -7   56.74   13.29
  -2   7   7  178.96   21.22
  -2   7  -7  239.97   25.39
  -2  -7   7  194.81   24.81
  -1   7   7  109.20   16.45
  -1   7  -7  162.99   20.57
  -1  -7   7  121.32   20.41
   0   7   7  194.07   20.72
   0   7  -7  238.01   24.08
   0  -7   7  197.49   26.24
   1   7   7  120.64   16.46
   1   7  -7  158.18   19.73
   1  -7   7  131.73   22.31
   2   7   7  178.21   14.44
   2   7  -7  204.75   15.12
   2   7   7  167.69   18.91
   2   7  -7  234.63   23.60
   2  -7   7  184.08   26.91
   3   7  -7   79.47    9.91
 -10   0  -8  394.40   21.64
  -9   0  -8    0.53    3.86
  -9   0   8    0.62    3.90
  -9   0  -8   -1.17    4.63
  -8   0   8  477.15   23.77
  -8   0  -8  454.98   26.02
  -7   0   8    4.80   11.93
  -7   0   8   -0.23    3.10
  -7   0  -8   -0.19    2.82
  -7   0  -8    0.74    2.93
  -7   0  -8    2.28    4.09
  -7   0  -8   -0.20    2.86
  -7   0  -8    2.77   11.41
  -6   0  -8  817.67   27.50
  -6   0   8  769.60   28.25
  -6   0  -8  794.79   27.40
  -6   0  -8  831.04   27.27
  -6   0   8  778.55   27.96
  -6   0  -8  753.01   32.44
  -6   0  -8  782.35   67.20
  -5   0   8    1.26   10.81
  -5   0  -8   -0.14    2.08
  -5   0  -8    0.71    1.90
  -5   0   8    0.94    2.06
  -5   0  -8    0.62    2.00
  -5   0  -8    0.50    3.26
  -5   0  -8   -1.35    3.46
  -5   0   8   -0.28    2.10
  -5   0  -8   -1.95    6.65
  -5   0  -8   -3.50   13.05
  -4   0   8 1535.18   84.44
  -4   0   8 1140.15   41.26
  -4   0  -8 1131.85   33.30
  -4   0  -8 1156.59   31.12
  -4   0  -8 1330.34   40.06
  -4   0   8 1119.71   31.44
  -4   0  -8 1147.07   39.80
  -4   0   8  948.20   35.54
  -4   0   8 1400.14   69.82
  -4   0  -8  975.45   60.23
  -4   0  -8  939.02   79.84
  -3   0  -8    0.21    0.90
  -3   0  -8    1.08    7.61
  -3   0   8    1.27   10.20
  -3   0  -8    0.25    1.73
  -3   0   8    1.89    3.19
  -3   0   8    0.31    0.83
  -3   0  -8    0.94    2.41
  -3   0   8    2.55    6.50
  -3   0  -8   -1.90   12.48
  -2   0   8 1572.01   85.92
  -2   0   8 1158.87   39.24
  -2   0  -8 1464.16   40.00
  -2   0  -8 1094.54   62.10
  -2   0  -8  975.14   84.25
  -1   0   8    0.95    1.94
  -1   0  -8    2.06    2.63
  -1   0  -8   -0.14    2.00
  -1   0   8    0.81    2.95
  -1   0  -8   -1.66    6.34
  -1   0  -8    5.89   14.22
  -1   0   8   -0.64    5.50
   0   0   8 1324.89   41.21
   0   0  -8 1534.80   49.58
   0   0  -8 1529.60   40.48
   0   0   8 1474.81   44.55
   0   0   8 1414.50   62.73
   0   0  -8 1312.58   68.84
   1   0  -8    0.20    1.46
   1   0   8   -1.33    2.63
   1   0  -8    0.88    5.96
   1   0   8    0.62    5.23
   2   0   8 1303.97   41.36
   2   0  -8 1430.73   38.65
   2   0   8 1357.16   65.91
   2   0   8 1246.33   38.68
   2   0   8 1217.93   58.43
   3   0   8   -2.67    5.51
   3   0  -8    1.12    1.68
   3   0   8    0.29    1.51
   3   0  -8    0.42    1.25
   3   0   8    0.62    2.82
   3   0  -8    0.43    1.45
   3   0   8    0.27    1.48
   3   0   8    0.73    1.91
   3   0  -8   -0.54    2.40
   3   0   8    2.43    6.96
   3   0   8   -0.73    2.17
   3   0  -8    7.96   15.63
   4   0  -8 1210.27   38.63
   4   0   8 1037.78   38.45
   4   0  -8 1080.07   30.56
   4   0  -8 1200.82   37.22
   4   0   8  974.45   36.52
   4   0   8 1046.79   55.81
   4   0  -8  879.65   79.91
   5   0   8   -0.79    6.37
   5   0  -8    0.89    1.70
   5   0  -8    2.37    3.91
   5   0   8   -0.41    4.16
   5   0  -8   -0.30    3.27
   5   0   8   -0.71    3.49
   5   0  -8   -1.96   11.41
   6   0  -8  774.84   36.75
   6   0   8  590.95   35.73
   6   0  -8  734.24   23.81
   6   0  -8  736.57   34.18
   6   0   8  589.99   34.03
   6   0  -8  727.78   69.96
   6   0   8  748.92   50.29
   7   0   8    5.08    9.45
   7   0  -8    0.15    2.25
   7   0  -8    1.56    5.57
   7   0   8   -0.65    4.97
   7   0  -8   -1.34    4.72
   7   0  -8    1.82   11.97
   8   0  -8  480.55   32.62
   8   0  -8  478.68   19.13
   8   0  -8  432.23   50.95
   9   0  -8   -0.67    6.55
   9   0   8    3.37    7.25
   9   0  -8    5.98   13.66
  10   0  -8  345.07   30.83
 -10  -1  -8  253.19   17.11
 -10   1  -8  262.40   17.93
  -9   1   8    7.71   14.63
  -9   1  -8   14.47    5.20
  -9   1   8   10.80    5.21
  -9   1  -8    3.97    4.99
  -9  -1  -8    3.51   10.28
  -9  -1  -8    7.88    4.47
  -9  -1   8    3.09    4.35
  -8  -1  -8  494.15   22.19
  -8  -1   8  442.31   22.62
  -8  -1  -8  440.73   25.88
  -8   1  -8  446.96   24.46
  -8  -1  -8  403.46   40.67
  -8   1  -8  527.31   23.27
  -8   1   8  484.37   23.88
  -8   1  -8  527.80   50.82
  -7   1   8    6.89    3.80
  -7   1   8    9.75   14.06
  -7  -1  -8    7.65    3.63
  -7  -1   8    7.36    3.57
  -7   1  -8    7.73    4.07
  -7   1  -8    8.75    3.83
  -7  -1  -8    2.80    4.85
  -7   1  -8    5.35    4.50
  -7  -1  -8    8.56    9.01
  -7  -1  -8   12.52   11.83
  -7   1  -8    9.06    3.92
  -7   1  -8    6.34   13.36
  -6  -1   8  851.17   37.06
  -6   1  -8  807.95   26.90
  -6   1   8  716.33   27.23
  -6  -1  -8  721.09   23.01
  -6   1  -8  756.83   28.37
  -6   1  -8  714.37   30.07
  -6  -1  -8  660.92   31.22
  -6  -1  -8  751.91   26.00
  -6  -1   8  702.90   26.60
  -6  -1  -8  638.95   49.45
  -6   1  -8  819.22   27.43
  -6   1   8  712.24   27.50
  -6  -1  -8  872.89   66.20
  -6   1  -8  724.27   66.52
  -5   1   8   23.90   15.43
  -5  -1  -8   20.12    2.81
  -5   1  -8   24.67    3.91
  -5   1   8   21.63    4.04
  -5   1  -8   24.63    4.64
  -5  -1   8   29.48    6.75
  -5  -1  -8   22.36    5.04
  -5   1  -8   20.95    5.12
  -5  -1  -8   22.23    5.75
  -5  -1  -8   20.48    3.52
  -5  -1   8   23.45    3.86
  -5   1  -8   20.23    3.88
  -5  -1  -8   20.29   10.61
  -5  -1   8   29.96   11.75
  -5   1   8   22.75    4.09
  -5  -1  -8   14.88   14.81
  -5   1  -8   16.48   15.76
  -4   1   8  834.11   64.40
  -4  -1  -8  718.95   20.34
  -4  -1   8  688.95   30.39
  -4   1  -8  698.36   24.84
  -4   1  -8  760.88   21.98
  -4   1   8  618.93   21.65
  -4   1  -8  768.70   28.55
  -4  -1  -8  759.50   27.34
  -4  -1  -8  708.95   29.42
  -4   1   8  573.87   26.23
  -4  -1  -8  609.99   45.77
  -4  -1  -8  664.24   20.77
  -4   1  -8  752.40   22.11
  -4   1   8  612.00   21.63
  -4  -1  -8  622.24   63.08
  -4   1  -8  551.54   61.64
  -4  -1   8  614.61   20.82
  -3   1   8   39.77   16.88
  -3   1   8   31.85    5.35
  -3   1  -8   29.26    4.48
  -3  -1   8   36.54    6.24
  -3   1  -8   34.97    2.95
  -3   1   8   34.42    2.98
  -3   1  -8   36.27    5.48
  -3  -1  -8   33.56    4.91
  -3  -1  -8   31.78    2.75
  -3   1   8   23.08    6.19
  -3  -1  -8   30.19   11.16
  -3   1   8   27.06   11.96
  -3   1  -8   30.19   11.06
  -3   1  -8   34.92    2.97
  -3   1   8   38.59    3.11
  -3  -1  -8   25.01   17.25
  -3   1  -8   28.58   17.41
  -2   1  -8  808.63   56.65
  -2   1   8 1147.50   74.53
  -2   1  -8  961.17   30.72
  -2   1   8  813.99   29.47
  -2  -1   8  818.42   31.68
  -2   1  -8 1076.03   32.58
  -2  -1  -8 1027.97   29.82
  -2   1   8  784.05   39.34
  -2  -1  -8  813.16   52.59
  -2   1  -8  845.64   52.74
  -2  -1  -8  657.19   69.11
  -2   1  -8  770.71   72.94
  -1   1  -8   16.70   10.22
  -1   1   8   39.68   16.76
  -1   1   8   29.60    3.86
  -1  -1   8   24.63    4.53
  -1  -1  -8   29.38    5.49
  -1   1  -8   26.03    4.65
  -1   1  -8   26.96    4.42
  -1  -1  -8   28.73    3.44
  -1  -1   8   28.24    4.69
  -1   1   8   32.56    5.57
  -1   1  -8   16.90    8.50
  -1  -1  -8   24.28   17.05
  -1   1  -8   27.11   17.68
  -1  -1   8   19.34    8.55
   0   1   8 1205.47   34.60
   0  -1  -8 1236.79   44.05
   0  -1  -8 1316.28   32.94
   0   1   8 1243.05   40.79
   0  -1   8 1280.98   38.37
   0  -1   8 1405.74   65.57
   0   1   8 1203.38   55.23
   0  -1   8 1212.11   58.24
   0  -1  -8 1101.97   64.92
   0   1  -8 1143.78   61.11
   0  -1  -8  974.51   85.57
   0   1  -8 1050.71   63.88
   1   1  -8   31.78   11.52
   1   1   8   31.95   15.07
   1  -1  -8   26.58    6.62
   1  -1  -8   25.11    1.60
   1   1   8   32.91    5.47
   1  -1   8   28.79    4.57
   1   1   8   29.60    3.35
   1  -1   8   40.77   11.78
   1   1  -8   17.78    9.00
   1   1  -8   23.62   15.85
   1   1   8   24.33    8.53
   1  -1   8   29.99    9.53
   2  -1  -8  759.10   38.44
   2   1   8  903.05   32.59
   2  -1   8  922.98   30.18
   2  -1  -8 1032.76   32.98
   2   1   8  889.67   30.55
   2   1   8  903.17   51.47
   2  -1   8  880.46   31.16
   2   1   8  870.07   26.30
   2   1  -8  869.74   52.59
   2   1   8  875.38   45.67
   2  -1   8  815.13   47.29
   2  -1  -8  670.43   70.68
   2   1  -8  761.19   73.29
   3   1   8   32.94    9.73
   3  -1   8   30.99   10.39
   3   1  -8   38.67    5.31
   3   1   8   31.40    5.42
   3   1  -8   33.81    4.79
   3   1   8   28.27    4.95
   3   1   8   33.28    5.72
   3  -1   8   32.75    5.22
   3  -1   8   29.38    3.27
   3   1   8   32.80    5.11
   3  -1  -8   34.59    5.96
   3   1  -8   35.45    4.07
   3   1  -8   35.28    3.85
   3   1   8   21.33    3.00
   3   1   8   46.89   12.75
   3  -1   8   32.41    5.34
   3  -1  -8   39.57    4.39
   3  -1   8   29.78    3.78
   3  -1  -8   28.69   17.65
   3   1  -8   39.57   19.36
   4   1  -8  712.33   29.18
   4   1   8  507.80   27.94
   4  -1  -8  743.02   25.74
   4  -1   8  568.04   23.91
   4   1  -8  639.85   21.98
   4   1  -8  685.53   27.69
   4   1   8  509.54   27.01
   4   1   8  542.12   23.92
   4  -1   8  595.42   26.43
   4  -1  -8  729.63   26.54
   4  -1   8  582.54   24.94
   4   1   8  669.12   41.29
   4  -1   8  599.49   41.87
   4  -1  -8  528.45   60.64
   4   1  -8  522.60   60.78
   5  -1   8   23.62   10.80
   5   1   8   20.86    9.17
   5  -1  -8   21.74    2.17
   5   1  -8   24.00    3.90
   5  -1  -8   16.27    5.62
   5  -1   8   20.02    5.77
   5   1  -8   20.11    6.51
   5   1   8   13.45    6.16
   5  -1  -8   19.77    5.31
   5  -1   8   18.13    5.43
   5   1  -8   28.40    6.63
   5   1   8   17.94    6.34
   5  -1  -8   21.22   17.28
   5   1  -8   15.54   14.88
   6  -1  -8  718.96   19.88
   6   1  -8  712.45   36.25
   6   1   8  484.65   33.74
   6   1  -8  644.63   23.66
   6  -1  -8  660.49   31.32
   6  -1   8  566.30   31.24
   6   1  -8  717.99   34.33
   6   1   8  468.01   31.83
   6  -1  -8  629.95   64.18
   6   1  -8  643.24   65.44
   6  -1   8  698.67   49.25
   6   1   8  703.29   47.14
   6  -1  -8  665.26   33.36
   6  -1   8  565.77   33.19
   7  -1   8   -1.06    9.11
   7   1   8   16.66   10.89
   7  -1  -8    6.05    5.94
   7  -1  -8    8.31    2.58
   7  -1   8    6.65    6.55
   7   1  -8    6.41    3.12
   7   1  -8    6.60    5.95
   7   1   8    9.10    7.38
   7  -1  -8    7.23    5.50
   7   1  -8    8.07    5.72
   7  -1  -8    8.75   13.04
   7   1  -8   -1.85   13.82
   8  -1  -8  433.69   30.31
   8  -1   8  296.69   28.23
   8   1  -8  459.63   32.51
   8   1   8  316.82   30.42
   8   1  -8  426.78   19.22
   8  -1  -8  447.09   50.48
   8   1  -8  408.17   50.21
   9  -1  -8    9.11    7.75
   9   1  -8    5.94    3.65
   9  -1   8    0.80    7.60
   9   1  -8    3.53    7.23
   9   1   8   10.75    9.18
   9   1  -8    6.39   13.75
  10  -1  -8  201.73   23.38
  10   1  -8  213.33   25.27
  -9   2   8   39.93   19.83
  -9  -2  -8   23.61    6.26
  -9   2  -8   29.71    6.87
  -9  -2  -8   15.66   11.80
  -8  -2   8  604.90   33.69
  -8  -2  -8  386.29   25.18
  -8   2  -8  402.56   22.60
  -8  -2  -8  470.85   21.97
  -8  -2   8  480.70   23.55
  -8   2  -8  538.06   24.51
  -8   2   8  502.64   25.23
  -8  -2  -8  437.09   41.42
  -8   2  -8  579.21   56.93
  -7   2   8   80.88   24.82
  -7   2  -8   77.14    8.41
  -7  -2   8   86.36   12.34
  -7   2  -8   49.75    7.57
  -7  -2  -8   53.01    9.09
  -7  -2  -8   61.68    7.08
  -7   2  -8   74.56    8.46
  -7  -2   8   61.75    7.66
  -7   2   8   79.91    9.35
  -7  -2  -8   56.22   16.42
  -7   2  -8   52.53   22.23
  -6  -2   8  867.56   37.49
  -6   2  -8  643.18   27.16
  -6  -2  -8  619.94   30.78
  -6   2  -8  755.97   28.03
  -6   2   8  752.15   29.12
  -6  -2  -8  643.48   24.63
  -6  -2  -8  612.27   47.79
  -6  -2   8  684.15   26.21
  -6   2   8 1001.55   75.43
  -5  -2  -8   53.10    5.43
  -5   2   8   81.50   24.65
  -5  -2   8   59.34    9.06
  -5  -2   8   52.19    5.82
  -5   2  -8   49.86    6.84
  -5  -2  -8   53.16    6.92
  -5   2  -8   43.89    6.26
  -5  -2  -8   29.00    6.69
  -5   2  -8   54.98    6.56
  -5   2   8   52.58    6.64
  -5  -2   8   36.14    5.78
  -5  -2  -8   47.68   14.64
  -5  -2  -8   57.91   19.55
  -4  -2   8  932.76   36.24
  -4   2  -8  840.90   31.03
  -4  -2  -8  943.85   30.97
  -4  -2  -8  805.19   34.03
  -4  -2  -8  799.08   26.03
  -4   2  -8  991.41   29.82
  -4   2   8  909.24   30.20
  -4  -2   8  822.68   26.91
  -4   2   8  812.64   35.43
  -4  -2   8  713.33   35.18
  -4  -2  -8  799.62   54.17
  -4  -2  -8  971.96   75.82
  -4   2   8 1172.72   80.49
  -3   2   8   36.43   18.11
  -3   2  -8   41.44    5.65
  -3  -2   8   41.10    6.85
  -3   2  -8   48.32    6.67
  -3  -2  -8   48.51    5.30
  -3   2  -8   49.97    5.00
  -3   2   8   46.10    5.08
  -3   2   8   40.47    8.71
  -3  -2  -8   27.23   11.51
  -3  -2  -8   43.08   18.68
  -2   2   8 1158.67   78.60
  -2   2   8  893.57   30.69
  -2   2  -8  975.42   33.76
  -2  -2   8  957.28   35.95
  -2   2  -8  972.55   26.51
  -2   2  -8  964.11   26.61
  -2   2  -8 1108.41   35.62
  -2  -2  -8 1028.42   29.38
  -2   2  -8 1147.57   29.51
  -2   2   8 1034.46   29.57
  -2   2   8  995.39   35.39
  -2   2  -8 1088.54   33.82
  -2  -2   8 1219.97   59.24
  -2   2   8  916.68   44.97
  -2  -2  -8  978.12   60.57
  -2   2  -8  831.30   53.45
  -2  -2  -8  839.89   76.80
  -2   2   8  927.66   26.37
  -1   2  -8   76.29   17.99
  -1   2  -8  100.69    8.83
  -1   2   8  100.94    6.15
  -1   2   8  106.69    4.68
  -1  -2   8   99.53    9.38
  -1   2  -8  117.90    8.48
  -1   2  -8  102.07    4.58
  -1   2   8   97.63    5.64
  -1   2  -8  122.90    5.88
  -1  -2   8   94.18    7.43
  -1   2   8   97.19    9.70
  -1   2   8  106.20    8.23
  -1   2  -8  113.49    7.54
  -1  -2   8  134.14   19.59
  -1   2   8  100.67   14.83
  -1  -2  -8   97.68   19.03
  -1   2  -8   86.76   16.10
  -1   2   8  109.42   19.35
  -1  -2  -8   98.79   28.51
   0   2  -8  879.97   58.30
   0   2   8 1288.90   80.68
   0   2   8 1129.07   28.13
   0   2  -8 1088.64   27.59
   0  -2  -8 1025.44   41.70
   0   2   8 1139.26   33.56
   0   2   8 1149.81   39.11
   0  -2   8 1217.67   34.12
   0   2   8 1136.89   33.14
   0   2  -8 1226.49   32.07
   0  -2   8 1325.32   63.71
   0   2   8 1037.73   53.73
   0   2   8 1098.33   50.78
   0   2   8 1094.04   27.97
   0   2  -8  962.89   55.15
   0   2  -8 1073.56   27.48
   0  -2  -8  782.06   77.25
   1   2  -8   83.17   17.08
   1   2   8  102.78    7.08
   1   2   8  124.14   25.53
   1   2  -8  116.39    7.15
   1  -2  -8   94.04   11.30
   1   2   8  104.99    7.00
   1   2  -8  114.03    7.05
   1   2   8  107.28    9.93
   1  -2   8  105.93    7.55
   1  -2   8  134.40   20.29
   1   2   8  100.52    5.35
   1   2   8   78.96   15.11
   1   2  -8  105.76    4.86
   1   2   8  115.20   14.96
   1   2  -8   84.90   15.54
   2   2   8 1021.40   70.54
   2  -2  -8  786.01   40.13
   2   2   8  907.63   29.40
   2   2  -8 1153.03   31.39
   2  -2   8 1063.52   31.20
   2  -2  -8 1030.46   37.27
   2   2   8  893.31   28.20
   2   2   8 1010.27   35.60
   2   2  -8 1004.71   27.38
   2  -2   8 1109.79   61.17
   2  -2   8  990.90   35.60
   2   2  -8  872.35   51.98
   2   2   8  966.22   47.11
   2   2   8  915.24   29.75
   2   2  -8 1169.32   31.73
   2  -2   8  960.98   53.00
   2  -2  -8  748.60   74.09
   2   2  -8  795.17   52.23
   3   2   8   40.93   10.17
   3  -2   8   48.37   12.74
   3   2   8   43.34   16.48
   3  -2  -8   27.13    8.09
   3   2   8   39.05    4.95
   3   2  -8   46.02    4.72
   3  -2  -8   42.97    7.35
   3   2  -8   42.79    2.42
   3   2   8   41.04    6.32
   3   2  -8   37.40    6.07
   3   2   8   31.60    6.32
   3  -2   8   41.18    6.47
   3  -2  -8   47.26    6.00
   3  -2   8   38.30    5.33
   3   2   8   38.96    5.15
   3   2  -8   52.88    6.17
   3   2  -8   46.98   12.76
   3  -2  -8   26.26   18.46
   3   2  -8   33.67   19.40
   4  -2  -8  422.65   32.94
   4  -2  -8  848.24   30.41
   4  -2   8  751.23   29.45
   4   2   8  749.10   28.69
   4   2  -8  893.07   27.75
   4   2   8  777.05   30.95
   4   2  -8  780.35   32.79
   4   2   8  702.35   34.36
   4  -2  -8  904.10   36.57
   4   2  -8  940.97   31.38
   4   2   8  635.63   26.63
   4  -2   8  827.22   33.38
   4  -2  -8  909.27   32.66
   4  -2   8  769.01   31.18
   4  -2  -8  732.44   71.37
   4   2   8  881.16   46.34
   4  -2   8  824.17   51.27
   4   2  -8  737.87   71.69
   5  -2   8   39.12   12.92
   5   2   8   53.42   13.10
   5   2   8   63.35    9.71
   5   2   8   47.24    7.06
   5  -2  -8   45.00    7.57
   5  -2   8   48.85    7.91
   5   2  -8   45.33    5.83
   5   2   8   36.05    6.33
   5   2  -8   50.84    6.27
   5   2   8   38.94    6.68
   5   2  -8   48.25    8.55
   5   2   8   42.76    9.17
   5  -2   8   44.49    8.05
   5  -2  -8   42.81    7.84
   5  -2   8   45.07    7.89
   5  -2  -8   37.79   20.21
   5   2  -8   19.88   16.77
   6   2   8  751.90   32.79
   6   2   8  585.42   28.39
   6  -2  -8  611.81   30.06
   6  -2   8  546.91   30.18
   6   2  -8  574.09   23.75
   6   2  -8  656.41   26.32
   6   2   8  575.39   27.85
   6   2  -8  579.99   32.09
   6   2   8  493.12   33.00
   6  -2  -8  554.91   59.87
   6  -2  -8  624.17   31.79
   6  -2   8  585.59   32.49
   6   2  -8  542.08   61.53
   6  -2   8  659.08   49.11
   6   2   8  730.78   46.51
   7  -2   8   71.82   19.05
   7   2   8   46.40    8.48
   7  -2  -8   58.56   10.20
   7   2  -8   59.40    6.96
   7  -2  -8   47.26    9.95
   7  -2   8   46.92   10.77
   7   2  -8   71.29    8.94
   7   2   8   58.44    9.39
   7   2  -8   52.54   10.59
   7  -2  -8   69.04   23.51
   7   2  -8   39.54   19.61
   8   2   8  356.26   23.61
   8   2  -8  377.61   19.11
   8   2  -8  469.85   23.67
   8   2   8  408.39   24.91
   8   2  -8  406.16   51.45
   8  -2  -8  395.10   28.57
   8  -2   8  291.28   27.14
   9  -2  -8   21.92    9.01
   9  -2   8    9.07    7.75
   9   2  -8   15.63    4.83
   9   2  -8   14.49    5.78
   9   2   8   16.16    6.83
  10   2  -8  275.35   28.30
  10   2  -8  272.49   16.74
  10  -2  -8  243.76   25.24
  -9   3   8   32.15   21.51
  -9   3  -8   28.80    7.51
  -9  -3  -8   27.23   13.81
  -9  -3  -8   18.75    5.88
  -8   3   8  312.60   20.54
  -8  -3  -8  343.64   36.79
  -8  -3  -8  317.25   17.99
  -8  -3   8  298.47   18.84
  -7   3  -8   29.87    6.71
  -7   3   8   18.15    6.15
  -7  -3   8   23.88    8.12
  -7  -3   8   22.85    5.93
  -7  -3  -8   17.00    6.60
  -7  -3  -8   18.04    5.00
  -7  -3  -8   21.54   12.41
  -6  -3   8  554.56   29.82
  -6  -3  -8  471.26   21.25
  -6  -3   8  482.37   22.43
  -6  -3  -8  443.81   26.04
  -6   3  -8  665.44   27.05
  -6   3  -8  614.54   26.40
  -6   3   8  521.61   25.59
  -6  -3   8  632.48   39.61
  -6  -3  -8  468.11   42.39
  -5  -3   8   47.15    8.76
  -5  -3  -8   38.71    7.92
  -5   3  -8   73.66    8.37
  -5   3  -8   55.69   10.77
  -5   3   8   46.93   10.85
  -5  -3   8   44.33   12.03
  -5  -3  -8   54.12    5.99
  -5  -3   8   42.71    8.36
  -5  -3   8   42.81    5.77
  -5  -3  -8   50.90   15.17
  -4  -3   8  572.09   28.37
  -4   3  -8  749.32   26.62
  -4   3   8  563.67   24.77
  -4   3   8  589.34   33.92
  -4   3  -8  734.99   35.22
  -4  -3   8  679.26   42.22
  -4  -3   8  576.38   42.14
  -4  -3   8  460.84   30.58
  -4   3   8  499.70   30.00
  -4  -3  -8  622.03   48.69
  -3   3   8   68.56   23.56
  -3  -3   8   69.82    9.14
  -3   3   8   68.72    7.49
  -3   3  -8  119.79    9.14
  -3   3   8   57.53   10.32
  -3   3  -8   81.75   11.33
  -3  -3   8   72.44   15.23
  -3   3   8   55.46   10.97
  -3  -3   8   78.88   15.63
  -3  -3   8   50.55   11.50
  -3  -3  -8   88.35   19.45
  -3   3   8   54.44    5.28
  -2   3   8  576.33   20.01
  -2  -3   8  633.31   28.09
  -2   3  -8  669.77   20.85
  -2   3   8  663.78   31.39
  -2   3   8  642.85   30.97
  -2   3  -8  836.08   32.94
  -2  -3   8  775.09   46.33
  -2   3   8  590.37   36.56
  -2   3   8  459.97   21.63
  -2  -3   8  723.71   44.39
  -2  -3  -8  694.72   68.45
  -1   3   8   39.22   18.30
  -1   3  -8   47.16    6.78
  -1   3   8   34.18    2.89
  -1   3   8   41.29    7.44
  -1   3  -8   52.86    8.12
  -1   3   8   34.58    6.83
  -1   3  -8   56.47    8.18
  -1  -3   8   35.21    4.24
  -1   3   8   38.64    3.92
  -1  -3   8   42.08   12.35
  -1   3   8   32.57    3.43
  -1   3  -8   45.18    4.07
  -1   3   8   33.28   10.37
  -1   3  -8   39.87   11.61
  -1  -3  -8   39.20   19.19
  -1  -3   8   36.05   11.46
   0   3   8  832.19   66.59
   0   3   8  775.03   30.73
   0   3  -8  984.69   33.16
   0   3   8  732.54   23.28
   0   3  -8  750.90   22.71
   0   3   8  708.34   23.37
   0   3   8  717.13   29.64
   0   3  -8  971.10   32.57
   0  -3   8  792.35   23.77
   0  -3   8  932.84   53.90
   0   3   8  690.90   44.27
   0   3   8  726.52   38.85
   0  -3   8  764.74   46.96
   0   3  -8  716.59   46.31
   0  -3  -8  681.10   69.68
   1  -3   8   32.07   10.93
   1   3   8   27.41   15.02
   1   3  -8   36.88   13.42
   1  -3  -8   43.21    8.54
   1   3   8   36.87    4.21
   1   3  -8   40.04    4.01
   1   3   8   41.37    6.01
   1   3  -8   50.09    6.69
   1  -3   8   35.88    3.89
   1  -3   8   47.80   14.46
   1   3   8   35.36   11.41
   1   3  -8   47.69   12.12
   1   3   8   35.31    5.66
   1   3  -8   56.12    7.07
   1   3   8   36.02    3.98
   1   3  -8   47.31    4.14
   1   3   8   41.16    9.46
   2   3  -8  586.67   43.77
   2   3   8  571.22   53.39
   2   3   8  611.35   21.95
   2   3  -8  649.02   21.02
   2  -3  -8  510.14   31.01
   2   3   8  564.28   24.37
   2   3  -8  813.02   28.25
   2  -3  -8  683.15   31.02
   2   3   8  632.09   28.29
   2  -3   8  594.21   27.65
   2   3  -8  632.45   41.55
   2   3   8  564.56   24.50
   2   3   8  628.57   21.66
   2   3  -8  846.98   29.06
   2   3   8  641.13   35.41
   2   3  -8  664.07   20.78
   2  -3   8  600.24   42.28
   2  -3  -8  570.29   63.61
   3   3  -8   60.19   14.46
   3   3   8   66.07   20.43
   3   3   8   67.14    6.52
   3   3  -8   84.83    6.53
   3  -3  -8   48.87    9.70
   3   3   8   51.78    5.81
   3  -3  -8   90.14   11.01
   3   3   8   64.09    8.58
   3  -3   8   43.74    6.72
   3  -3  -8   87.47    9.25
   3  -3   8   68.64    8.88
   3   3   8   66.92    6.35
   3   3   8   55.52    7.09
   3   3  -8  105.34   10.00
   3   3  -8   84.75    6.25
   3   3  -8   68.99   14.27
   3   3   8   58.94   11.30
   3  -3  -8   81.63   25.89
   4   3   8  512.98   48.38
   4   3   8  461.15   21.52
   4  -3  -8  544.40   29.35
   4  -3   8  501.94   16.20
   4   3  -8  690.70   28.80
   4   3   8  429.62   22.68
   4   3   8  545.05   22.06
   4   3  -8  571.60   20.63
   4  -3   8  496.50   26.19
   4  -3  -8  594.87   27.96
   4  -3   8  447.21   24.93
   4   3   8  527.10   33.81
   5   3   8   46.33   11.83
   5  -3  -8   55.92    8.38
   5  -3   8   33.13    7.09
   5   3   8   39.27    6.54
   5  -3   8   33.94    7.78
   5  -3  -8   39.81    9.05
   5   3  -8   58.67    8.70
   5   3   8   42.89    6.67
   5   3  -8   54.07    6.26
   5  -3   8   33.83    7.82
   5  -3  -8   47.23    8.61
   6   3   8  388.38   22.26
   6  -3  -8  467.79   25.92
   6   3  -8  446.08   20.97
   6   3   8  463.96   24.16
   6   3  -8  505.23   22.58
   6   3  -8  455.54   27.53
   6  -3  -8  434.88   28.12
   6  -3  -8  447.07   27.53
   6  -3   8  374.18   26.46
   6   3  -8  343.69   50.32
   6  -3   8  424.72   40.08
   6   3   8  534.02   38.36
   7  -3   8   20.26   12.57
   7  -3  -8    2.12    5.13
   7  -3  -8   13.73    6.63
   7  -3   8   10.94    6.94
   7   3   8   12.99    5.39
   7   3  -8   19.27    5.07
   7   3   8   20.01    6.20
   7   3  -8   19.91    5.64
   7   3  -8   19.71   16.96
   8   3   8  200.60   17.44
   8   3  -8  272.13   16.53
   8   3  -8  324.90   19.54
   8   3   8  296.52   21.10
   8  -3  -8  265.00   23.55
   8  -3   8  194.87   22.23
   8   3  -8  261.43   43.34
   9  -3  -8   13.82    8.70
   9   3  -8   19.99    5.67
   9   3  -8   22.29    6.82
  -8  -4  -8  279.03   17.70
  -8   4  -8  371.33   22.82
  -7   4   8  124.66   19.39
  -7   4  -8  143.92   19.52
  -7  -4  -8  105.91   10.28
  -7  -4   8  126.89   11.88
  -7  -4  -8  117.55   23.22
  -6  -4   8  386.17   20.64
  -6  -4   8  445.24   26.65
  -6  -4  -8  336.98   22.73
  -6   4   8  431.65   32.92
  -6   4  -8  503.75   34.16
  -6  -4  -8  399.11   40.26
  -6  -4  -8  379.45   19.16
  -5  -4   8  132.55   14.07
  -5   4   8  118.40   17.25
  -5   4  -8  151.54   18.49
  -5  -4   8  109.43   19.67
  -4  -4   8  448.35   25.78
  -4   4  -8  578.81   24.81
  -4   4   8  408.15   29.90
  -4   4  -8  538.89   32.95
  -4  -4   8  521.52   36.87
  -4  -4   8  346.24   29.16
  -4  -4   8  480.25   38.49
  -3  -4   8   94.44   11.41
  -3   4  -8  126.28   15.20
  -3   4   8   95.96   13.51
  -3   4  -8  123.34   14.91
  -3  -4   8  125.61   19.08
  -3   4   8   89.54    7.65
  -3   4   8   89.23   14.82
  -3  -4   8   74.35   14.80
  -3   4  -8  111.39    8.46
  -3  -4   8  112.22   18.65
  -2   4   8  494.67   20.06
  -2   4  -8  557.14   20.86
  -2   4   8  568.75   31.53
  -2   4  -8  751.09   35.32
  -2  -4   8  526.23   27.41
  -2  -4   8  548.48   18.20
  -2   4   8  558.36   31.15
  -2   4  -8  710.75   34.15
  -2  -4   8  669.10   44.36
  -2   4   8  531.78   37.23
  -2  -4   8  397.10   35.96
  -2  -4   8  565.49   40.83
  -1   4   8  194.28   16.50
  -1   4  -8  251.43   18.60
  -1   4   8  196.06   16.37
  -1   4  -8  251.12   18.39
  -1  -4   8  185.28    7.63
  -1  -4   8  230.57   27.15
  -1   4   8  179.06   10.23
  -1   4  -8  196.49   10.40
  -1  -4   8  117.12   20.79
  -1  -4   8  204.46   24.12
  -1   4  -8  189.91   24.26
  -1   4   8  172.54   34.50
   0   4   8  639.27   30.55
   0   4  -8  873.20   34.85
   0   4   8  659.63   23.77
   0   4  -8  678.01   23.30
   0  -4   8  882.29   54.98
   0   4   8  618.63   34.58
   0  -4   8  717.92   46.41
   0   4  -8  665.65   44.45
   0   4   8  681.41   63.34
   0   4   8  705.05   31.91
   0   4  -8  877.27   35.36
   1   4   8  172.90   10.24
   1   4  -8  192.85   10.11
   1   4   8  175.17   10.64
   1   4  -8  189.08   10.41
   1   4   8  190.26   14.50
   1   4  -8  238.76   16.75
   1  -4   8  197.83   15.28
   1   4   8  180.82   17.27
   1   4  -8  164.72   20.97
   1  -4   8  165.68   22.49
   1   4   8  174.73   13.99
   1   4  -8  234.64   16.59
   1   4   8  181.07   32.49
   2   4   8  534.77   53.04
   2  -4  -8  453.24   29.61
   2   4   8  524.55   21.02
   2   4  -8  562.70   20.43
   2   4   8  458.82   17.39
   2   4   8  470.08   24.22
   2   4  -8  684.77   29.10
   2  -4  -8  538.36   29.08
   2  -4   8  501.32   26.23
   2   4  -8  482.62   35.43
   2   4   8  503.26   24.80
   2   4  -8  687.37   29.27
   2   4   8  517.31   29.64
   2  -4   8  545.33   41.46
   2   4   8  510.79   20.17
   2   4  -8  537.13   19.46
   3   4  -8   91.25   17.29
   3   4   8   79.28   22.35
   3   4   8   93.14    8.31
   3   4  -8  105.91    8.11
   3   4   8   84.24    9.71
   3   4  -8  124.88   12.26
   3   4   8   85.88    7.40
   3  -4  -8   96.33   12.44
   3  -4   8   85.06   10.19
   3  -4  -8  100.49   11.04
   3  -4   8   98.05   11.33
   3   4  -8  122.27   12.53
   3   4  -8  109.70   17.12
   3   4   8   93.51    7.97
   3   4  -8  102.35    7.70
   3  -4   8  118.65   20.81
   3   4   8   99.07   13.49
   4   4   8  362.98   42.33
   4   4   8  401.15   19.45
   4   4  -8  402.50   18.09
   4   4   8  322.11   17.59
   4  -4  -8  398.67   26.08
   4  -4  -8  455.24   26.28
   4  -4   8  336.77   23.19
   4  -4   8  383.51   23.90
   4   4  -8  529.49   27.13
   4   4  -8  413.96   17.61
   4  -4   8  396.27   37.50
   4   4   8  428.86   28.44
   5   4  -8  104.93    9.28
   5   4   8   94.06   22.51
   5  -4  -8   41.47   10.27
   5   4   8   83.61    9.12
   5  -4  -8   94.55   13.48
   5   4  -8  145.17   15.11
   5  -4  -8  117.13   13.99
   5  -4   8   90.32   12.86
   5  -4   8  105.75   12.82
   5   4  -8  115.87    9.15
   5  -4   8   99.98   20.92
   6   4   8  268.76   17.95
   6   4  -8  362.35   19.39
   6  -4  -8  342.90   25.71
   6  -4   8  340.30   24.04
   6  -4  -8  341.94   24.93
   6  -4   8  313.96   24.73
   6  -4   8  418.09   41.34
   7   4   8   82.02   10.51
   7   4  -8  109.28   10.84
   7   4   8  124.42   13.35
   7   4  -8  126.09   11.92
   7  -4  -8   90.70   14.59
   7  -4  -8  117.63   15.88
   7  -4   8   83.03   14.40
   7   4  -8   98.45   30.02
   8   4  -8  276.35   18.54
   8  -4  -8  227.94   22.51
  -7   5  -8  120.48   20.44
  -6   5  -8  291.30   28.23
  -6  -5   8  255.17   29.79
  -5   5   8  109.11   17.86
  -5   5  -8  141.83   19.69
  -5  -5   8  116.78   20.91
  -4  -5   8  308.40   21.94
  -4   5   8  280.52   25.53
  -4  -5   8  330.08   32.73
  -3   5   8  134.32   17.49
  -3  -5   8  103.87   19.25
  -3  -5   8  154.55   23.02
  -2   5  -8  451.14   29.43
  -2   5   8  296.62   24.04
  -2   5  -8  449.43   29.17
  -2  -5   8  222.14   28.80
  -2  -5   8  342.50   32.24
  -2   5  -8  367.90   17.31
  -1   5  -8  192.66   18.63
  -1   5   8  155.14   16.14
  -1   5  -8  209.69   18.98
  -1   5  -8  169.71   10.82
  -1   5   8  149.24   16.00
  -1  -5   8  101.13   20.68
  -1  -5   8  154.68   22.48
   0   5   8  303.90   21.79
   0   5  -8  429.95   25.98
   0   5  -8  352.90   16.09
   0  -5   8  150.98   26.69
   0   5  -8  325.46   30.97
   0  -5   8  284.61   29.92
   0   5   8  293.22   43.53
   0   5  -8  417.75   26.20
   1   5   8  127.53   30.53
   1   5  -8  159.41   10.29
   1   5   8  153.41   11.00
   1   5   8  146.24   14.44
   1   5  -8  203.56   17.51
   1  -5   8  158.24   14.72
   1  -5   8   85.48   21.28
   1   5  -8  167.14   21.55
   1  -5   8  169.77   24.00
   1   5  -8  207.03   17.68
   2   5   8  265.01   39.04
   2   5  -8  347.05   15.86
   2   5   8  289.10   16.18
   2   5  -8  333.93   16.30
   2   5   8  265.81   19.77
   2   5  -8  442.66   25.78
   2  -5   8  279.26   20.55
   2   5  -8  309.15   27.59
   2   5  -8  444.65   25.80
   2  -5   8  314.62   32.52
   3   5   8  119.33   26.85
   3   5   8  137.40   11.01
   3   5  -8  138.87   10.45
   3   5   8  131.44   13.46
   3   5  -8  180.33   16.69
   3  -5  -8  138.13   15.73
   3  -5   8  142.70   14.46
   3  -5   8  124.31   21.67
   4   5   8  241.25   35.77
   4   5   8  262.31   15.99
   4   5  -8  318.72   16.33
   4  -5  -8  177.33   19.92
   4   5   8  223.02   18.05
   4   5  -8  376.85   24.22
   4  -5  -8  272.60   22.53
   4  -5   8  214.69   18.56
   4  -5  -8  276.58   20.60
   4  -5   8  281.35   21.19
   4  -5   8  245.72   31.02
   5  -5   8   89.09   21.16
   5   5   8   79.92   21.79
   5   5   8  104.45   10.76
   5   5  -8  112.79   10.05
   5  -5  -8   93.08   14.08
   5  -5  -8  106.12   14.90
   5  -5   8   75.53   12.93
   5  -5   8   95.82   13.36
   6   5  -8  205.19   14.35
   6  -5  -8  214.05   21.34
   6  -5   8  155.66   19.25
   7  -5  -8   66.39   13.44
  -5   6  -8  187.28   24.03
  -5  -6   8  167.01   24.50
  -4   6  -8  197.93   23.41
  -4  -6   8  180.08   24.70
  -3   6   8  172.78   20.71
  -3   6  -8  222.04   23.94
  -3  -6   8  128.67   23.36
  -3  -6   8  187.41   25.02
  -2   6   8  190.38   20.15
  -2   6  -8  261.57   24.10
  -2  -6   8  202.18   25.56
  -1   6   8  209.59   20.32
  -1   6  -8  266.95   23.80
  -1  -6   8  214.46   26.29
   0   6   8  254.81   21.55
   0   6  -8  319.73   24.69
   0   6  -8  240.69   26.95
   0  -6   8  258.29   29.43
   1   6   8  195.65   13.59
   1   6   8  232.16   20.11
   1  -6   8  219.97   28.18
   1   6   8  172.23   35.25
   2   6   8  200.22   14.08
   2   6  -8  193.64   13.30
   2   6   8  185.97   17.84
   2   6  -8  268.18   22.36
   2  -6   8  201.08   27.23
   2   6   8  184.81   35.48
   3   6   8  114.20   28.37
   3   6   8  168.81   13.22
   3   6  -8  177.14   12.91
   3   6   8  155.42   16.42
   3   6  -8  213.10   20.78
   3  -6   8  157.92   25.85
   4   6  -8  148.38   12.05
   4   6  -8  177.20   19.11
   5   6  -8  155.30   12.67
   5   6  -8  192.61   20.04
  -2   7  -8  171.23   22.31
  -1   7  -8  144.32   19.54
  -1  -7   8  113.73   21.15
   0   7  -8  150.08   19.92
   0  -7   8  124.52   21.67
   1   7  -8  148.94   19.84
   2   7  -8  123.04   11.75
   2   7  -8  159.94   19.90
  -8   0  -9    0.74    4.52
  -8   0  -9    1.26    3.33
  -8   0  -9   -2.54   10.46
  -7   0  -9  658.10   24.17
  -7   0  -9  579.39   29.38
  -7   0  -9  708.73   63.46
  -6   0   9    2.79   12.71
  -6   0  -9    1.66    2.57
  -6   0  -9    1.92    4.09
  -6   0  -9   -2.30    8.32
  -6   0  -9   -0.55    2.27
  -6   0  -9   -1.84   14.80
  -5   0   9  909.30   37.20
  -5   0  -9  812.94   26.77
  -5   0  -9  866.02   25.27
  -5   0   9  789.55   25.15
  -5   0  -9  716.00   54.55
  -5   0  -9  706.99   70.58
  -4   0   9   -4.31   11.85
  -4   0  -9    0.83    2.19
  -4   0   9    0.58    3.52
  -4   0   9    1.11    1.17
  -4   0  -9   -0.41    1.24
  -4   0  -9    0.68    3.16
  -4   0   9    1.48    2.83
  -4   0  -9    4.17    8.19
  -4   0  -9  -10.34   14.53
  -3   0   9  853.36   33.08
  -3   0  -9  992.16   32.62
  -2   0   9    1.00    2.45
  -2   0  -9    1.19    2.38
  -2   0   9   -0.24    3.00
  -2   0  -9    0.96    6.56
  -2   0  -9   -2.18   12.69
  -1   0   9 1095.32   36.88
  -1   0  -9 1258.06   40.80
  -1   0  -9 1333.43   36.77
  -1   0   9 1187.76   40.05
  -1   0   9 1155.22   58.92
  -1   0  -9 1094.11   64.70
   0   0  -9   -0.28    3.27
   0   0  -9   -0.25    1.87
   0   0   9   -0.43    2.93
   0   0  -9    3.91    6.87
   0   0  -9    2.22   12.91
   0   0   9   -0.71    6.59
   1   0  -9 1203.39   47.26
   1   0  -9 1297.13   35.17
   1   0   9 1247.23   40.91
   1   0  -9 1094.94   66.37
   1   0   9 1162.42   59.02
   2   0   9    1.45    6.36
   2   0  -9    0.28    1.62
   2   0   9    0.88    3.27
   2   0   9    0.17    2.09
   2   0  -9   -2.23   11.72
   3   0  -9  828.26   24.55
   3   0   9  897.31   32.48
   3   0  -9 1017.18   30.84
   3   0   9  879.24   28.57
   3   0   9  850.14   30.47
   3   0   9  833.96   49.59
   3   0  -9  690.93   74.29
   4   0   9    0.81    7.26
   4   0  -9   -0.13    2.06
   4   0   9    0.95    2.08
   4   0  -9    1.13    1.51
   4   0  -9    1.67    2.21
   4   0   9   -0.38    2.01
   4   0   9    0.88    2.46
   4   0  -9    1.11    2.96
   4   0  -9    2.19   15.42
   5   0  -9  769.78   24.07
   5   0  -9  886.26   31.28
   5   0  -9  690.68   72.93
   5   0   9  729.75   49.26
   5   0  -9  911.56   33.04
   5   0   9  751.72   32.50
   6   0   9    3.85    8.10
   6   0  -9   -0.36    4.47
   6   0  -9    0.58    1.84
   6   0   9    0.87    4.45
   6   0  -9   -1.26    3.64
   6   0  -9    2.09   13.26
   7   0  -9  656.91   34.40
   7   0  -9  601.12   21.08
   7   0   9  578.37   47.83
   8   0   9    1.19    9.77
   8   0  -9    2.70    6.36
   8   0  -9   -1.85   12.58
   9   0  -9  274.79   41.50
  -9   1  -9  264.18   19.31
  -8   1   9   10.40   16.50
  -8  -1  -9    4.20    3.50
  -8   1  -9    6.15    4.84
  -8  -1  -9    2.79    5.33
  -8   1  -9    0.89    3.61
  -8  -1  -9    6.15    9.90
  -7   1   9  769.89   65.21
  -7  -1   9  614.44   32.91
  -7   1  -9  461.35   24.93
  -7  -1  -9  468.41   26.88
  -7  -1  -9  524.54   21.05
  -7  -1  -9  450.63   44.26
  -7  -1  -9  660.62   55.48
  -7   1  -9  539.06   58.85
  -7   1  -9  574.03   22.40
  -6   1   9    9.41   15.09
  -6  -1   9   17.57    6.70
  -6   1  -9   10.60    3.96
  -6   1  -9   10.56    3.37
  -6   1  -9    8.69    4.70
  -6  -1  -9   10.75    5.65
  -6  -1  -9   12.40   11.37
  -6  -1  -9   10.74    3.22
  -6  -1  -9    3.27   14.35
  -6   1  -9    7.83   13.32
  -5   1   9  582.05   21.24
  -5   1   9  841.12   68.75
  -5  -1   9  718.79   32.23
  -5   1  -9  637.98   24.53
  -5   1  -9  697.68   21.44
  -5  -1  -9  731.42   27.89
  -5  -1  -9  620.64   29.42
  -5  -1  -9  567.07   47.44
  -5  -1  -9  680.49   66.93
  -5  -1  -9  624.74   20.67
  -5   1  -9  516.40   62.01
  -5   1  -9  695.79   21.71
  -5  -1   9  579.40   20.79
  -4   1   9   15.66   15.07
  -4   1   9   10.02    4.26
  -4   1  -9    5.11    3.04
  -4  -1   9    7.91    4.21
  -4  -1   9    8.37    1.91
  -4   1   9    9.09    1.93
  -4   1  -9    7.21    1.91
  -4   1  -9   10.19    4.12
  -4  -1  -9    7.41    3.69
  -4  -1  -9    6.16    1.83
  -4  -1  -9    5.19    8.75
  -4   1  -9    6.35    8.10
  -4   1  -9    7.44    1.98
  -4  -1  -9   12.20   15.57
  -4   1  -9   17.10   18.01
  -3   1   9  891.23   69.80
  -3   1  -9  697.76   25.32
  -3   1   9  621.16   26.11
  -3  -1   9  618.08   27.67
  -3   1  -9  785.59   28.13
  -3  -1  -9  771.44   25.83
  -3   1   9  565.85   30.98
  -3  -1  -9  587.33   47.15
  -3   1  -9  603.69   46.95
  -3  -1  -9  468.45   60.37
  -3   1  -9  575.62   66.75
  -2   1   9   18.40   14.51
  -2   1   9   14.99    3.59
  -2  -1   9   15.90    4.56
  -2   1  -9   12.90    3.90
  -2  -1  -9   10.36    2.91
  -2  -1   9   14.47    4.24
  -2   1   9   10.36    5.88
  -2   1  -9    8.61    8.24
  -2  -1  -9   11.03   15.01
  -2   1  -9   26.54   18.63
  -2  -1   9   19.93   10.00
  -1   1   9 1072.08   76.66
  -1   1   9  815.68   28.17
  -1  -1  -9  947.23   35.65
  -1  -1   9  838.01   31.84
  -1   1  -9 1041.41   32.20
  -1  -1  -9  973.39   27.53
  -1  -1   9  911.31   31.92
  -1   1  -9  985.01   32.05
  -1   1   9  864.41   49.10
  -1  -1   9  872.69   51.04
  -1   1  -9  874.57   55.37
  -1  -1  -9  628.52   71.97
  -1   1  -9  710.07   75.19
   0  -1  -9   19.45    5.53
   0   1  -9   18.77    5.39
   0   1  -9   20.80    4.20
   0  -1  -9   20.94    2.44
   0  -1   9   19.44    4.49
   0  -1  -9   19.09   11.34
   0   1  -9   17.48    9.43
   0  -1  -9    9.03   13.17
   0   1   9   20.74    8.88
   0  -1   9   15.88    8.72
   1  -1  -9  857.56   37.77
   1  -1   9  975.28   31.73
   1   1   9  873.05   26.64
   1   1   9  852.28   47.93
   1   1  -9  858.37   54.92
   1  -1   9  881.82   50.89
   1   1  -9  763.55   77.87
   2   1   9    9.51    6.96
   2  -1   9   19.31    9.88
   2  -1  -9   10.86    6.01
   2  -1   9    9.56    3.71
   2   1   9   15.65    2.96
   2  -1   9   15.86    4.13
   2   1  -9    6.72    9.39
   2  -1  -9   20.28   18.57
   2   1  -9    2.24   14.70
   3  -1   9  691.39   26.49
   3   1  -9  781.81   21.34
   3  -1  -9  779.99   29.19
   3   1   9  642.84   26.11
   3  -1   9  615.88   26.73
   3   1   9  622.46   41.03
   3  -1   9  600.07   42.95
   3  -1  -9  561.55   66.56
   3   1  -9  426.59   58.42
   4   1   9    4.56    6.94
   4  -1   9    9.53    8.47
   4   1  -9    7.57    2.65
   4  -1  -9    8.47    2.91
   4  -1   9    6.60    2.66
   4   1  -9    7.03    2.63
   4   1  -9    6.41    3.02
   4   1   9    7.06    3.75
   4  -1  -9    8.86    2.84
   4   1  -9    9.66    3.45
   4   1   9    9.01    3.74
   4  -1  -9   10.76    4.42
   4   1  -9    7.63    3.07
   4  -1   9   10.64    4.58
   4  -1  -9    8.78   14.94
   4   1  -9    2.20   13.91
   5   1  -9  699.11   30.45
   5   1   9  478.92   28.66
   5  -1  -9  684.99   26.04
   5   1  -9  598.21   21.91
   5   1  -9  716.17   29.17
   5   1   9  534.49   25.08
   5  -1  -9  691.39   30.57
   5  -1  -9  687.53   27.31
   5  -1   9  574.35   26.24
   5  -1  -9  537.10   63.02
   5  -1   9  572.87   44.17
   5   1   9  558.98   41.27
   5   1  -9  503.09   62.36
   6  -1   9    6.09    9.77
   6   1   9    2.75    8.20
   6  -1  -9    9.50    5.06
   6  -1   9    7.29    4.96
   6   1  -9    9.32    3.25
   6   1  -9   11.29    6.28
   6   1   9    7.45    6.13
   6  -1  -9    8.06   13.71
   6   1  -9   -2.12   12.33
   7   1  -9  523.87   31.53
   7   1  -9  437.18   18.89
   7  -1  -9  435.42   55.05
   7   1  -9  426.68   55.72
   7  -1  -9  505.13   28.86
   7  -1   9  429.79   42.32
   7   1   9  469.84   41.95
   8  -1  -9    4.10    6.10
   8   1  -9    3.81    3.05
   8   1  -9    5.83    6.95
   8  -1  -9    1.75   12.28
   8   1  -9    3.86   14.77
   9  -1  -9  291.53   42.40
  -9   2   9  386.30   48.46
  -8   2   9   30.25   19.58
  -8  -2  -9   17.88    4.94
  -8  -2  -9   23.73   13.02
  -8   2  -9   17.70    5.30
  -7  -2   9  494.95   29.61
  -7   2  -9  417.98   22.16
  -7  -2  -9  419.53   25.57
  -7   2  -9  517.09   21.78
  -7  -2  -9  409.17   41.55
  -7  -2  -9  447.26   19.56
  -7   2  -9  423.80   54.96
  -6  -2  -9   24.91    4.39
  -6  -2   9   41.30    8.82
  -6  -2  -9   26.39    7.41
  -6   2  -9   25.77    4.76
  -6  -2  -9   20.37   12.43
  -6   2  -9   18.77   17.19
  -5   2   9  831.16   70.76
  -5   2  -9  660.35   22.20
  -5  -2   9  659.38   31.23
  -5  -2  -9  636.32   25.49
  -5  -2  -9  530.43   20.11
  -5  -2   9  532.93   20.71
  -5   2  -9  666.67   22.53
  -5   2   9  574.82   22.42
  -5  -2  -9  537.16   46.23
  -5  -2  -9  655.43   62.95
  -5   2  -9  504.60   62.62
  -4   2   9   44.29   20.74
  -4   2  -9   30.57    3.99
  -4   2  -9   27.75    5.21
  -4  -2   9   29.50    6.89
  -4  -2  -9   30.53    5.17
  -4   2  -9   31.95    4.02
  -4   2   9   31.97    4.16
  -4  -2   9   24.42    7.36
  -4  -2  -9   23.28   12.33
  -4  -2  -9   55.87   22.20
  -3   2   9  784.66   68.19
  -3   2  -9  672.30   18.59
  -3   2   9  541.22   23.08
  -3   2  -9  591.62   24.41
  -3  -2   9  621.35   27.90
  -3   2   9  520.71   16.78
  -3  -2  -9  619.21   21.67
  -3   2  -9  587.62   17.44
  -3   2   9  541.28   31.56
  -3   2  -9  647.99   18.46
  -3  -2   9  651.78   45.43
  -3   2   9  541.76   17.97
  -3  -2  -9  551.13   46.99
  -3   2  -9  549.02   45.09
  -3  -2  -9  541.32   62.09
  -2   2   9   47.45   20.13
  -2   2  -9   35.12    5.80
  -2   2  -9   35.81    2.34
  -2   2   9   33.87    4.46
  -2  -2   9   38.26    6.61
  -2   2  -9   47.18    6.59
  -2   2  -9   33.29    2.09
  -2  -2  -9   38.51    3.97
  -2  -2   9   32.23    5.41
  -2   2  -9   36.81    2.32
  -2   2   9   30.03    8.72
  -2  -2  -9   30.16   13.47
  -2   2  -9   30.11   12.21
  -2  -2  -9   23.45   17.58
  -1   2   9  706.86   23.09
  -1  -2   9  736.45   30.64
  -1   2  -9  898.27   28.48
  -1   2  -9  891.77   30.42
  -1  -2   9  846.54   27.85
  -1   2   9  696.63   41.83
  -1   2   9  711.18   43.10
  -1  -2  -9  744.65   56.18
  -1   2  -9  722.61   49.99
  -1  -2  -9  555.95   66.20
   0   2   9   59.46   21.32
   0  -2  -9   51.68    8.40
   0  -2   9   49.18    5.68
   0   2   9   49.55   12.28
   0   2  -9   41.58   12.77
   0  -2  -9   24.19   19.34
   0   2   9   43.62   10.99
   1   2   9  835.88   67.93
   1  -2  -9  687.72   34.56
   1  -2   9  831.09   27.05
   1   2   9  754.56   42.98
   1   2  -9  731.50   49.50
   1  -2   9  783.47   48.54
   1   2  -9  654.42   72.55
   2   2   9   39.90   10.34
   2  -2   9   36.97   12.10
   2   2  -9   36.90    3.01
   2   2   9   52.11   19.05
   2  -2  -9   31.00    7.93
   2   2   9   33.67    3.15
   2   2  -9   33.23    2.77
   2   2  -9   32.90    3.05
   2   2   9   30.67    3.66
   2  -2   9   35.32    4.99
   2  -2   9   34.24    6.17
   2   2  -9   21.63   10.29
   2  -2  -9   24.51   17.95
   2   2  -9   22.40   18.05
   2   2   9   33.73    3.29
   3  -2  -9  394.76   29.13
   3   2   9  505.72   19.31
   3   2  -9  707.37   21.61
   3   2  -9  698.89   19.56
   3   2   9  488.73   19.50
   3   2  -9  627.01   23.18
   3   2   9  440.20   22.53
   3  -2  -9  608.63   27.79
   3   2   9  587.78   25.93
   3  -2   9  554.95   26.30
   3   2  -9  720.51   22.05
   3   2   9  598.49   38.44
   3  -2   9  564.10   42.23
   3  -2  -9  440.72   58.48
   3   2  -9  481.94   61.76
   4   2   9   25.74    9.67
   4  -2   9   26.94   11.33
   4  -2  -9   13.53    7.12
   4   2  -9   30.13    4.32
   4   2   9   23.81    4.49
   4   2   9   32.27    6.26
   4   2  -9   34.78    3.29
   4  -2  -9   31.23    7.14
   4   2  -9   32.21    6.15
   4   2  -9   32.51    5.60
   4  -2  -9   29.60    5.33
   4  -2   9   27.19    5.07
   4  -2   9   28.33    6.29
   4  -2  -9   25.63   17.61
   4   2  -9   31.39   21.94
   5  -2  -9  249.00   25.73
   5  -2  -9  570.98   24.16
   5   2  -9  609.82   22.22
   5   2   9  438.39   22.05
   5   2  -9  480.48   20.87
   5   2  -9  572.85   27.71
   5  -2  -9  587.79   29.88
   5   2  -9  618.49   25.25
   5  -2   9  541.09   27.51
   5  -2  -9  578.44   25.95
   5  -2   9  481.26   24.39
   5  -2  -9  497.07   60.47
   5  -2   9  501.65   42.15
   5   2   9  563.14   39.75
   5   2  -9  391.69   56.05
   6  -2   9   19.38   11.98
   6   2   9   21.80   11.58
   6  -2  -9   25.65    6.85
   6   2  -9   28.89    5.03
   6   2  -9   32.08    5.50
   6  -2  -9   28.00    8.24
   6  -2  -9    9.90   14.76
   6   2  -9   19.50   17.45
   7   2  -9  381.86   18.61
   7   2  -9  433.85   21.16
   7  -2  -9  404.50   52.59
   7  -2  -9  413.96   26.08
   7   2  -9  344.79   51.76
   7  -2   9  414.84   42.01
   7   2   9  428.50   39.26
   8  -2  -9   14.87    7.03
   8   2  -9   14.43    4.48
   8   2  -9   22.94    9.07
   8   2  -9   25.66   19.30
  -8  -3  -9   36.67   15.20
  -7  -3  -9  337.40   17.39
  -7  -3  -9  305.65   37.14
  -6   3   9   65.50   26.25
  -6  -3   9   60.79   10.64
  -6  -3  -9   59.25    9.80
  -6   3  -9   73.48    8.48
  -6  -3  -9   65.87    7.07
  -6  -3  -9   63.53   18.53
  -5  -3   9  453.00   26.61
  -5  -3   9  540.66   39.85
  -5   3  -9  515.37   22.08
  -5  -3  -9  422.77   42.81
  -5   3   9  580.42   62.21
  -4   3   9   73.27   25.38
  -4  -3   9   58.46    9.39
  -4   3  -9   84.18    7.88
  -4   3   9   55.92   10.14
  -4  -3   9   63.62   15.08
  -4  -3   9   36.04    9.24
  -4  -3  -9   66.11   18.82
  -4  -3   9   64.39   16.12
  -3  -3   9  453.64   25.00
  -3   3  -9  461.35   17.04
  -3   3  -9  580.99   20.71
  -3   3   9  454.53   26.25
  -3   3  -9  567.22   26.60
  -3  -3   9  569.10   41.85
  -3  -3   9  485.82   39.56
  -3  -3   9  327.92   28.86
  -3  -3  -9  434.16   43.32
  -3   3   9  583.03   60.88
  -2   3   9   54.23    5.02
  -2  -3   9   64.53    8.90
  -2   3  -9  108.69    7.51
  -2  -3   9   68.30    6.63
  -2   3   9   63.57    9.25
  -2   3  -9   88.39    9.64
  -2   3  -9   81.64    5.29
  -2   3   9   58.57   12.46
  -2   3  -9   69.86   16.89
  -2  -3  -9   84.63   27.90
  -2  -3   9   68.78   15.92
  -1   3   9  512.84   15.94
  -1   3  -9  596.76   17.85
  -1   3  -9  764.65   21.67
  -1  -3   9  602.69   20.87
  -1   3   9  569.81   25.99
  -1   3  -9  729.56   26.87
  -1   3   9  514.82   37.05
  -1   3   9  525.67   35.47
  -1  -3   9  611.69   43.57
  -1   3  -9  610.47   45.42
  -1  -3  -9  493.55   61.48
   0   3   9  109.52   27.44
   0   3   9   85.57    5.62
   0   3  -9  138.08   10.52
   0   3  -9  103.60    5.63
   0   3   9   95.62    9.44
   0   3  -9  132.83   10.26
   0  -3   9   92.76    6.85
   0   3   9   77.90   13.31
   0  -3   9   99.00   18.26
   0   3  -9   90.20   17.38
   0  -3  -9   52.11   23.00
   0   3  -9  108.20    5.58
   1   3   9  614.47   59.20
   1   3  -9  749.39   26.06
   1   3   9  531.72   19.10
   1   3  -9  588.72   18.53
   1  -3  -9  540.40   31.11
   1   3   9  564.08   23.59
   1   3  -9  731.65   25.45
   1  -3   9  606.15   20.41
   1   3   9  565.13   35.63
   1   3  -9  624.68   18.41
   1   3  -9  568.50   42.32
   1  -3   9  573.08   42.50
   2   3   9   51.74   11.26
   2   3   9   59.34   21.83
   2  -3  -9   68.20   11.12
   2   3   9   59.12    6.86
   2   3  -9   98.82    8.72
   2  -3   9   54.98    8.13
   2   3  -9   79.69    5.44
   2   3  -9   68.10   15.53
   2   3  -9   99.40    8.70
   2  -3  -9   35.24   21.95
   3   3   9  415.01   47.27
   3  -3  -9  287.91   24.36
   3   3   9  367.93   18.58
   3   3  -9  566.53   22.45
   3  -3  -9  458.78   25.69
   3   3  -9  454.07   16.74
   3  -3   9  391.36   22.68
   3   3  -9  415.31   36.49
   3   3  -9  568.51   22.92
   3   3   9  418.42   30.55
   3  -3  -9  414.42   56.65
   4   3   9   47.49   12.05
   4  -3  -9   22.69    8.00
   4   3   9   50.05    6.76
   4   3  -9   68.27    6.77
   4  -3  -9   62.67   10.30
   4   3  -9   59.90    8.73
   4  -3   9   39.33    6.68
   4  -3  -9   63.72    8.31
   4  -3   9   59.56    9.10
   4   3  -9   83.12    9.49
   4  -3  -9   47.72   22.25
   5   3   9  348.68   18.91
   5   3  -9  416.89   18.77
   5  -3  -9  436.98   26.56
   5  -3  -9  435.47   23.83
   5  -3   9  416.65   24.80
   5  -3   9  349.28   36.41
   5   3  -9  324.14   51.03
   5   3   9  385.97   32.14
   6  -3   9   44.64   16.01
   6   3   9   42.81    7.38
   6   3  -9   61.70    7.59
   6   3  -9   70.75    8.24
   6  -3  -9   54.75   10.57
   6  -3  -9   67.77   10.64
   6   3  -9   64.99   25.84
   7   3   9  229.14   17.94
   7   3  -9  304.93   17.21
   7   3  -9  356.95   19.21
   7  -3  -9  293.22   23.98
   7  -3  -9  324.13   23.63
   7   3  -9  291.68   48.47
   8   3  -9   37.42    6.56
   8   3   9   20.94    6.47
   8   3  -9   46.99   22.42
  -7  -4  -9  282.90   36.54
  -6   4  -9  114.42   16.45
  -6  -4   9  107.02   21.27
  -5  -4   9  419.85   26.48
  -5   4  -9  475.51   31.14
  -5  -4   9  453.60   40.46
  -4   4   9  117.59   32.31
  -4  -4   9  117.84   13.40
  -4   4  -9  119.40   15.24
  -4  -4   9  101.15   20.09
  -3  -4   9  461.40   26.18
  -3   4  -9  553.17   30.65
  -3  -4   9  497.74   40.49
  -3   4   9  558.23   62.75
  -2   4   9  120.42   14.23
  -2   4  -9  160.63   15.55
  -2  -4   9   80.17   17.61
  -2  -4   9  147.43   22.81
  -2   4  -9  106.28   20.93
  -1   4  -9  752.66   33.05
  -1   4   9  556.50   29.39
  -1   4  -9  721.80   32.30
  -1   4  -9  553.66   19.63
  -1   4   9  469.63   32.83
  -1  -4   9  354.69   37.49
  -1  -4   9  606.33   44.85
  -1   4  -9  577.45   44.90
  -1   4   9  597.10   62.20
   0   4   9  120.75   30.28
   0   4  -9  203.99   15.85
   0   4  -9  155.37    8.63
   0   4   9  134.91    8.85
   0   4  -9  158.46    8.99
   0   4   9  152.71   13.74
   0   4  -9  200.07   15.65
   0   4   9  160.75   18.02
   0   4  -9  150.50   22.31
   0  -4   9  129.20   20.91
   1   4   9  512.64   56.48
   1   4   9  513.07   20.16
   1   4  -9  536.55   19.51
   1   4   9  496.96   25.23
   1   4  -9  673.11   28.85
   1  -4   9  509.93   27.19
   1   4   9  506.63   32.32
   1   4  -9  488.07   39.01
   1  -4   9  550.08   42.71
   1   4  -9  551.72   19.15
   1   4  -9  719.58   29.92
   2   4   9  113.34   27.80
   2   4   9  107.86    8.33
   2   4  -9  128.89    8.31
   2  -4  -9   86.81   13.34
   2   4   9  122.71   11.48
   2   4  -9  158.07   13.35
   2  -4   9  123.04   12.78
   2   4  -9  104.48   18.44
   2   4   9  107.93   14.70
   2  -4   9  106.79   20.06
   3   4   9  451.28   50.39
   3   4  -9  465.21   18.27
   3  -4  -9  293.39   25.30
   3   4  -9  564.40   26.07
   3  -4  -9  435.85   26.92
   3  -4   9  393.36   24.20
   3   4  -9  398.37   34.51
   3  -4   9  405.87   38.44
   4   4   9  104.72   25.51
   4  -4  -9   52.16   11.21
   4   4  -9  130.37   12.81
   4  -4  -9   96.78   12.99
   4  -4  -9   98.33   11.25
   4  -4   9   83.29   11.55
   4  -4   9   95.50   20.24
   5  -4  -9  358.34   25.61
   5  -4  -9  394.72   24.89
   5  -4   9  347.25   24.27
   5  -4   9  320.87   36.64
   6   4  -9   83.31    9.55
   6   4  -9   95.66    9.97
   6  -4  -9   76.15   13.00
   6  -4  -9   73.72   11.97
   6   4  -9   99.89   31.40
   7   4  -9  248.65   16.56
  -5  -5   9  265.53   31.46
  -4   5  -9  131.56   17.89
  -4  -5   9  120.79   22.19
  -3   5  -9  308.52   25.10
  -3  -5   9  259.54   30.33
  -2   5   9  134.02   34.81
  -2   5  -9  152.57   17.95
  -2  -5   9   87.40   19.17
  -2  -5   9  110.70   20.95
  -1   5  -9  406.18   26.38
  -1   5  -9  349.74   35.56
  -1  -5   9  298.90   32.08
  -1   5   9  288.04   46.35
   0   5   9  131.90   32.57
   0   5  -9  209.63   18.09
   0  -5   9   86.51   21.02
   0   5  -9  165.49   23.73
   0  -5   9  150.79   23.41
   1   5   9  275.22   43.55
   1   5  -9  340.97   15.77
   1   5  -9  429.96   25.39
   1  -5   9  284.79   21.02
   1  -5   9  162.78   29.52
   1   5  -9  296.08   29.88
   1  -5   9  338.44   34.95
   2   5   9  126.80   30.96
   2   5  -9  137.54    9.85
   2   5  -9  159.84   15.88
   2  -5   9  124.08   13.81
   2   5  -9  116.19   19.28
   2  -5   9  124.23   22.37
   3   5   9  220.90   37.23
   3   5  -9  247.12   13.86
   3  -5   9  218.72   18.76
   3  -5   9  248.18   31.19
   4   5   9  101.27   26.35
   4   5  -9  112.87    9.47
   4   5  -9  137.41   15.05
   4  -5  -9   96.71   14.44
   5   5   9  200.46   34.60
  -2  -6   9   87.81   20.42
  -2   6  -9  107.26   22.26
  -2  -6   9  106.54   21.04
  -1   6  -9  172.06   26.03
  -1  -6   9  188.64   26.72
   0  -6   9  142.97   24.72
  -7   0  10    0.45    5.83
  -7   0 -10    1.82    5.07
  -7   0 -10   -3.54   14.57
  -6   0  10  633.34   31.76
  -6   0 -10  514.50   48.99
  -6   0 -10  618.72   67.31
  -5   0  10    0.34    4.31
  -5   0 -10    2.42    8.50
  -5   0 -10    4.39   14.92
  -4   0  10  537.05   25.93
  -4   0 -10  493.30   45.23
  -3   0  10    0.49    2.93
  -3   0 -10   -0.20    2.99
  -3   0 -10   -2.38   14.46
  -2   0  10  681.98   27.82
  -2   0  10  725.65   48.36
  -2   0 -10  663.67   51.78
  -1   0  10    0.77    2.54
  -1   0 -10   -0.49    3.21
  -1   0 -10    0.75    2.34
  -1   0 -10    2.22    8.71
  -1   0 -10   -4.90   16.09
  -1   0  10    0.82    7.50
   0   0 -10 1139.29   41.88
   0   0 -10 1208.62   34.10
   0   0  10 1091.80   59.94
   1   0 -10    2.72    4.58
   1   0 -10   -0.42    1.81
   1   0  10    1.06    2.48
   1   0 -10   -1.13    8.44
   1   0  10   -0.81    6.98
   2   0 -10  784.20   38.40
   2   0 -10  853.92   23.56
   2   0  10  713.90   27.21
   2   0  10  677.38   46.21
   2   0 -10  569.87   70.19
   3   0  10   -1.68    7.24
   3   0 -10    0.08    1.64
   3   0 -10   -0.14    1.35
   3   0  10   -0.62    2.90
   3   0 -10   -2.43   15.37
   4   0 -10  516.71   16.41
   4   0  10  526.55   41.55
   4   0 -10  432.93   60.68
   5   0  10   -1.89    8.93
   5   0 -10    0.25    3.44
   5   0 -10   -2.35   13.68
   6   0 -10  466.67   61.77
   6   0  10  526.57   44.58
   7   0  10    1.12   10.77
   7   0 -10    6.41   14.55
  -8   1  10  463.12   53.22
  -7   1  10    1.68   16.70
  -7  -1  10    6.91    6.11
  -7  -1 -10    4.34    5.19
  -7  -1 -10    1.29    9.85
  -7  -1 -10    4.46   13.57
  -7   1 -10   17.63   17.88
  -6   1  10  470.87   26.69
  -6  -1  10  573.81   30.11
  -6  -1 -10  431.71   43.86
  -6   1 -10  349.01   40.89
  -6  -1 -10  599.39   62.31
  -6   1 -10  414.67   57.86
  -5   1  10    1.75   15.36
  -5   1  10    1.64    4.23
  -5  -1  10    3.18    4.68
  -5  -1 -10    2.39    8.41
  -5  -1 -10    4.09   16.44
  -5   1 -10    6.82   15.98
  -4   1 -10  645.38   24.88
  -4   1  10  609.59   27.48
  -4  -1  10  647.17   29.48
  -4  -1 -10  669.14   25.63
  -4  -1 -10  559.57   48.72
  -4   1 -10  528.09   47.78
  -4  -1 -10  539.30   66.32
  -4   1 -10  503.92   65.85
  -3   1  10    3.50   13.73
  -3   1  10    2.39    2.78
  -3  -1  10    3.06    3.94
  -3   1 -10    0.23    3.17
  -3  -1 -10    0.69    2.52
  -3  -1 -10   -1.16   10.02
  -3   1 -10    5.61    7.88
  -3  -1 -10   -2.32   14.72
  -3   1 -10   -2.44   16.01
  -3  -1  10   -1.88    7.74
  -2   1  10  921.98   74.73
  -2   1  10  599.81   23.86
  -2  -1  10  651.46   27.71
  -2   1 -10  808.09   27.65
  -2  -1 -10  694.70   23.07
  -2   1  10  576.57   35.14
  -2   1  10  632.54   44.27
  -2  -1  10  667.58   46.99
  -2   1 -10  616.23   49.00
  -2  -1 -10  426.60   61.55
  -2   1 -10  467.15   64.34
  -1   1  10    8.48   13.98
  -1   1  10    4.68    2.52
  -1  -1  10    8.84    3.94
  -1  -1 -10    6.55    4.47
  -1   1 -10    7.59    3.46
  -1   1 -10    8.37    3.38
  -1  -1 -10    7.48    2.34
  -1  -1  10    8.81    3.85
  -1   1  10    3.15    5.64
  -1   1 -10    7.34    8.83
  -1  -1 -10    7.32   17.67
  -1   1 -10   -2.47   13.03
  -1   1  10    4.72    7.31
  -1  -1  10    4.33    7.90
   0  -1 -10  721.59   32.76
   0   1 -10  790.29   31.87
   0   1 -10  812.32   27.17
   0  -1 -10  734.17   20.21
   0  -1  10  760.70   28.31
   0   1  10  735.16   46.36
   0  -1 -10  650.69   53.66
   0  -1  10  669.82   46.52
   0   1 -10  629.30   49.87
   0  -1 -10  481.83   65.46
   0   1 -10  536.55   68.93
   1  -1  10    8.60    8.80
   1  -1 -10    0.38    3.80
   1   1 -10    6.75    3.13
   1  -1  10    5.79    3.82
   1   1  10    6.84    2.48
   1   1 -10   12.80   10.09
   1   1  10   14.51    9.00
   2  -1 -10  611.03   33.76
   2  -1  10  707.28   26.55
   2  -1  10  637.68   26.37
   2   1  10  642.01   21.42
   2   1 -10  594.59   48.59
   2   1  10  671.11   43.76
   2  -1  10  629.61   44.77
   2  -1 -10  540.86   69.33
   2   1 -10  477.67   64.79
   3   1  10    5.54    7.99
   3  -1  10    1.79    8.75
   3  -1 -10    0.54    5.44
   3  -1  10    6.02    4.05
   3  -1 -10    2.10    3.23
   3  -1  10    7.07    3.97
   3  -1 -10    2.44   14.24
   3   1 -10   -2.45   13.62
   4   1 -10  548.02   20.92
   4   1 -10  694.91   21.01
   4  -1 -10  670.88   28.15
   4  -1  10  606.49   27.69
   4   1  10  654.55   44.78
   4  -1  10  622.47   46.62
   4  -1 -10  589.52   69.47
   5  -1  10    1.00    8.04
   5   1  10   -0.89    7.99
   5   1 -10    3.08    2.40
   5  -1 -10    2.55    3.95
   5   1 -10    4.23    3.29
   5  -1 -10    6.89   16.64
   5   1 -10    2.35   15.45
   6   1 -10  429.63   17.74
   6  -1 -10  537.72   27.30
   6  -1 -10  392.11   55.99
   6   1 -10  406.13   58.05
   6  -1  10  489.84   43.69
   6   1  10  449.65   40.37
   7   1  10    7.47    9.92
   7  -1 -10   12.28   16.47
   7   1 -10   -8.91   17.05
  -8   2  10  406.86   52.91
  -7   2  10    7.37   16.51
  -7  -2 -10   10.33   12.83
  -7   2 -10    2.15   16.85
  -6   2  10  584.22   63.42
  -6  -2  10  426.91   26.29
  -6  -2 -10  342.28   40.35
  -6  -2 -10  527.80   56.10
  -6   2 -10  419.49   59.65
  -5   2  10   22.54   19.24
  -5  -2  10   27.13    7.27
  -5  -2 -10   20.15   12.91
  -5   2 -10   24.19   13.05
  -5  -2 -10   24.01   18.65
  -5   2 -10   33.68   21.56
  -4   2  10  493.75   56.68
  -4   2  10  318.59   18.12
  -4  -2  10  386.34   22.75
  -4  -2  10  400.09   37.93
  -4  -2 -10  350.48   39.53
  -4   2 -10  321.35   37.36
  -4  -2 -10  438.59   56.43
  -4   2 -10  334.55   55.41
  -3   2  10   23.99   19.18
  -3   2  10   23.56    4.63
  -3  -2  10   28.81    6.59
  -3  -2 -10   33.91    4.50
  -3  -2 -10   26.23   12.81
  -3   2 -10   33.12   13.91
  -3  -2 -10   39.03   21.55
  -3   2 -10    9.94   14.50
  -2   2  10  537.89   58.84
  -2   2  10  384.55   16.29
  -2  -2  10  439.90   22.74
  -2  -2  10  483.87   20.61
  -2   2  10  377.26   28.67
  -2  -2 -10  438.12   44.07
  -2   2 -10  440.35   41.15
  -2  -2 -10  347.00   53.58
  -2   2 -10  358.18   57.80
  -1   2  10   18.75    3.01
  -1   2 -10   24.75    4.43
  -1   2 -10   25.06    5.47
  -1  -2  10   17.66    4.49
  -1   2  10   16.18    7.87
  -1  -2 -10   25.54   13.65
  -1   2 -10   20.65   10.43
  -1  -2 -10   14.20   16.10
  -1   2 -10   12.57   20.71
  -1   2  10   18.73    9.59
   0  -2 -10  639.33   32.05
   0   2 -10  750.57   29.60
   0  -2  10  651.76   24.60
   0   2  10  578.31   40.20
   0  -2  10  590.83   44.64
   0   2 -10  581.50   46.49
   0  -2 -10  504.30   65.73
   1  -2  10   19.94   10.69
   1   2  10   30.78   17.78
   1  -2 -10   18.27    6.69
   1  -2  10   17.81    4.40
   1   2 -10   17.39   10.01
   1   2 -10   12.59   17.70
   1   2  10   27.27   10.17
   2  -2 -10  392.87   26.47
   2  -2  10  499.01   20.08
   2  -2  10  421.89   22.23
   2   2 -10  413.42   39.13
   2   2  10  465.04   34.86
   2  -2  10  464.37   38.98
   2  -2 -10  460.75   62.37
   2   2 -10  335.21   56.20
   3   2  10   40.71   12.29
   3  -2  10   29.63   12.81
   3  -2 -10   27.31    8.39
   3  -2 -10   34.84    6.99
   3  -2  10   28.56    6.39
   3  -2 -10   26.02   18.12
   3   2 -10   24.99   19.15
   4  -2 -10  217.95   22.53
   4  -2 -10  424.44   23.03
   4  -2  10  378.05   21.93
   4  -2 -10  353.57   54.50
   4   2  10  368.10   32.58
   4  -2  10  357.98   36.32
   4   2 -10  272.30   50.17
   5  -2  10   31.45   14.15
   5   2  10   28.50   11.97
   5  -2 -10   10.64    7.12
   5   2 -10   26.97    4.77
   5  -2 -10   21.97    7.03
   5  -2  10   20.43    6.65
   5  -2 -10   15.28   16.72
   5   2 -10    9.69   15.93
   6   2 -10  367.93   17.55
   6  -2 -10  434.36   25.99
   6  -2 -10  371.75   53.54
   6   2  10  379.75   35.86
   7   2  10   12.32   11.26
   7  -2 -10   13.48    6.84
   7   2 -10   17.97   18.50
  -7   3 -10   53.42   27.39
  -6  -3 -10  326.25   39.80
  -6   3 -10  252.98   49.18
  -5   3  10   74.73   27.29
  -5  -3  10   67.43   10.76
  -5  -3 -10   69.29   20.33
  -5  -3  10   69.46   18.45
  -4   3  10  533.29   61.65
  -4  -3  10  443.36   25.72
  -4  -3  10  445.20   40.61
  -4  -3 -10  414.38   44.72
  -4   3 -10  337.02   38.92
  -3   3  10   69.22   25.56
  -3  -3  10   54.93    9.16
  -3  -3  10   43.67   11.80
  -3  -3 -10   71.69   20.34
  -3   3 -10   58.67   17.16
  -3  -3 -10   57.80   25.26
  -3  -3  10   51.50   15.12
  -2  -3  10  445.14   24.72
  -2  -3  10  468.13   40.82
  -2   3 -10  389.81   39.61
  -2  -3 -10  381.54   55.59
  -1   3 -10  132.57    8.25
  -1   3  10  119.43   17.86
  -1  -3  10  111.11   20.17
  -1   3 -10   94.09   20.06
  -1  -3 -10   98.52   31.56
   0   3  10  549.47   59.40
   0   3  10  430.55   33.21
   0   3 -10  453.54   40.58
   0  -3  10  518.40   41.97
   0  -3 -10  425.25   60.08
   1   3  10  103.73   27.49
   1  -3 -10   94.42   13.10
   1  -3  10  104.42   11.22
   1   3  10  114.31   17.22
   1   3 -10  129.86   22.08
   1  -3  10  108.90   20.55
   1  -3 -10   81.92   28.28
   2   3  10  452.48   54.07
   2  -3 -10  347.08   25.91
   2  -3  10  427.69   23.55
   2   3 -10  415.93   38.27
   2   3  10  427.82   32.22
   2  -3 -10  375.39   55.88
   3   3  10   70.65   14.70
   3   3  10   68.52   22.95
   3  -3 -10   34.68    9.19
   3  -3  10   47.72    8.31
   3  -3 -10   57.96   24.11
   3   3 -10   38.45   22.98
   4  -3 -10  219.67   22.15
   4  -3 -10  410.46   24.58
   4  -3  10  355.36   22.49
   4  -3 -10  335.46   53.61
   4   3  10  416.61   32.87
   4   3 -10  289.08   51.91
   5  -3 -10   57.97   10.34
   5  -3  10   50.54    9.64
   5   3 -10   25.09   21.62
   6   3 -10  284.70   16.44
   6  -3 -10  323.05   23.81
   7   3 -10   59.28    7.65
   7  -3 -10   54.35   11.11
  -3  -4  10   91.18   12.24
  -3   4 -10   99.47   21.73
  -3  -4  10   96.87   20.43
  -2   4  10  315.27   28.60
  -2  -4  10  281.09   31.34
  -2   4 -10  359.71   38.22
  -1   4  10  104.17   31.31
  -1  -4  10   44.48   15.55
  -1  -4  10   91.29   19.52
  -1   4 -10   77.86   18.32
  -1   4  10   60.75   13.02
   0   4  10  470.93   56.90
   0   4  10  395.42   30.33
   0   4 -10  398.20   37.87
   0  -4  10  456.35   40.90
   1  -4  10   85.05   19.66
   1   4  10   76.51   26.29
   1  -4  10   84.85   11.18
   1   4  10   93.55   15.04
   1   4 -10   80.31   18.41
   2   4  10  337.19   47.77
   2  -4 -10  295.67   24.58
   2  -4  10  367.43   22.85
   2   4 -10  390.79   36.31
   2  -4  10  373.92   37.39
   3   4  10   78.71   24.83
   3  -4 -10   56.79   11.46
   3  -4  10   87.40   11.56
   3   4 -10   95.40   19.30
   4   4  10  303.75   44.34
   4  -4 -10  350.92   24.64
   4  -4  10  307.28   22.41
   5  -4 -10   90.06   13.43
   6   4 -10  244.42   16.20
  -2  -5  10  137.80   23.86
  -2   5 -10  218.09   30.71
  -1  -5  10   74.23   19.27
  -1   5 -10  119.28   23.27
   0  -5  10  162.14   28.68
   0   5 -10  253.16   30.27
   1  -5  10   66.04   19.96
   1   5 -10  118.97   21.40
  -6   0  11    0.39    4.88
  -6   0 -11   -2.17   17.46
  -5   0  11  479.26   25.45
  -5   0 -11  353.40   55.46
  -4   0  11   -0.29    3.59
  -4   0 -11   -2.56    9.55
  -4   0 -11    5.02   17.63
  -3   0  11  560.34   25.15
  -3   0  11  600.65   46.74
  -2   0  11    0.46    3.02
  -2   0 -11    2.51    9.34
  -2   0 -11    5.28   16.07
  -2   0  11    8.59    8.87
  -1   0 -11  582.97   25.32
  -1   0  11  500.42   41.10
  -1   0 -11  477.08   46.20
   0   0 -11    0.63    4.03
   0   0 -11    3.75    8.79
   0   0 -11    2.68   14.88
   0   0  11    1.82    7.51
   1   0 -11  567.37   28.88
   1   0  11  501.42   21.33
   1   0 -11  487.90   46.94
   1   0  11  499.16   40.85
   2   0  11    2.73    7.50
   2   0 -11   -1.90    5.72
   2   0 -11   -0.07    1.35
   2   0 -11   -5.34   17.55
   3   0 -11  599.31   35.09
   3   0  11  622.16   46.23
   3   0 -11  488.99   67.80
   4   0  11   -1.96    8.61
   4   0 -11    2.62   15.92
   5   0 -11  432.85   62.57
   5   0  11  462.17   41.40
  -7   1  11  464.87   56.61
  -6   1  11    9.33   17.04
  -6   1  11    4.85    5.20
  -6  -1  11    8.03    5.69
  -6  -1 -11    7.83   14.18
  -6   1 -11    2.32   17.25
  -5   1  11  333.40   20.21
  -5  -1  11  350.02   22.26
  -5  -1 -11  339.02   52.56
  -5   1 -11  311.16   54.22
  -4   1  11    9.58   15.79
  -4   1  11   10.20    4.41
  -4  -1  11   15.93    5.91
  -4  -1 -11   10.56   11.12
  -4   1 -11   10.32   10.38
  -4  -1 -11    9.53   16.22
  -4   1 -11   -2.60   18.24
  -4  -1  11    2.18    9.77
  -3   1  11  491.45   57.87
  -3   1  11  307.49   16.69
  -3  -1  11  356.43   20.28
  -3  -1  11  421.51   39.12
  -3  -1 -11  332.82   39.50
  -3   1 -11  255.57   33.78
  -3  -1 -11  295.56   52.21
  -3   1 -11  247.75   49.85
  -2   1  11    8.29    3.33
  -2  -1  11    5.73    3.90
  -2   1 -11    8.22    3.76
  -2   1 -11    1.20    8.47
  -2  -1 -11   -2.60   14.43
  -2   1 -11    2.69   17.05
  -2   1  11    6.44    8.70
  -2  -1  11    0.99    9.02
  -1   1 -11  620.69   24.59
  -1   1 -11  664.49   24.42
  -1   1  11  486.00   40.25
  -1  -1  11  527.85   43.60
  -1   1 -11  522.47   47.76
  -1  -1 -11  378.57   61.13
  -1   1 -11  354.76   59.74
   0  -1 -11    2.49    4.01
   0   1 -11    3.32    4.04
   0   1 -11    2.96    3.13
   0  -1 -11    2.67    9.39
   0   1 -11    5.99   10.30
   0  -1 -11    2.65   16.77
   0   1 -11   -2.72   17.21
   0   1  11    1.74    7.78
   0  -1  11    0.96    7.73
   1  -1 -11  552.45   29.89
   1   1 -11  641.09   30.94
   1  -1  11  521.07   24.09
   1   1 -11  514.38   47.39
   1   1  11  546.82   41.94
   1  -1  11  618.37   46.19
   2   1  11    7.74    9.19
   2  -1  11   11.54    9.85
   2  -1 -11    5.58    5.23
   2  -1  11   11.66    4.09
   2  -1 -11   18.62   19.83
   2   1 -11    2.70   15.71
   3  -1 -11  311.66   25.16
   3  -1  11  354.09   19.35
   3   1  11  314.04   32.19
   3  -1  11  361.05   35.81
   3  -1 -11  315.29   54.10
   3   1 -11  300.72   53.22
   4   1  11   12.97   10.16
   4  -1  11    8.31    9.31
   4  -1 -11    4.33    6.61
   4  -1 -11   10.51    4.62
   4  -1 -11   12.70   18.40
   4   1 -11   15.60   18.83
   5  -1 -11  248.33   24.79
   5   1  11  294.09   32.69
   5   1 -11  298.39   52.77
   6   1  11    3.13    8.79
  -6  -2 -11   39.28   21.74
  -6   2 -11   24.95   22.36
  -5  -2  11  442.80   26.14
  -5  -2 -11  525.84   61.66
  -4   2  11   16.25   19.55
  -4  -2  11   15.25    6.19
  -4  -2 -11   11.16   13.20
  -4  -2 -11    4.41   15.00
  -4   2 -11   10.86   20.78
  -3  -2  11  528.04   26.82
  -3  -2 -11  488.03   49.44
  -3   2 -11  495.82   47.08
  -3  -2 -11  370.14   56.98
  -3   2 -11  399.01   63.87
  -2   2  11   44.16   22.30
  -2  -2  11   21.48    5.98
  -2  -2 -11   19.48   13.39
  -2   2 -11   22.71   13.12
  -2  -2 -11   12.33   16.79
  -2   2 -11   33.47   24.01
  -2   2  11   24.70   11.71
  -1   2  11  563.90   63.03
  -1   2 -11  582.08   21.53
  -1   2  11  437.54   37.13
  -1   2 -11  522.92   46.67
  -1  -2 -11  376.06   58.99
  -1   2 -11  400.46   64.88
   0  -2  11   49.60   14.95
   0  -2 -11   70.40   10.68
   0   2 -11   81.52    9.21
   0   2 -11   61.37   17.44
   0  -2 -11   46.41   24.85
   0   2 -11   36.45   25.63
   0   2  11   60.60   15.02
   1  -2 -11  502.78   29.41
   1  -2  11  506.23   24.81
   1   2 -11  532.27   46.71
   1   2  11  467.73   37.39
   1  -2  11  466.21   41.50
   1  -2 -11  439.77   62.39
   2   2  11   24.20   10.62
   2  -2  11   36.60   13.73
   2  -2 -11   25.84    8.15
   2  -2  11   30.34    6.47
   2   2 -11   23.13   12.70
   2  -2 -11   22.88   19.48
   2   2 -11    8.29   16.10
   3  -2 -11  423.04   29.23
   3  -2  11  483.42   24.64
   3   2  11  443.13   36.58
   3  -2  11  481.60   42.51
   3  -2 -11  461.96   62.97
   3   2 -11  371.28   60.95
   4   2  11    7.85    9.94
   4  -2 -11    8.47    6.47
   4  -2 -11   14.55    5.87
   4  -2  11   16.70    6.06
   4   2 -11   18.82   21.12
   5  -2 -11  480.23   25.98
   5   2  11  390.81   36.60
   6   2  11   23.77   13.16
   6  -2 -11   41.91    9.07
  -4   3 -11   33.69   25.15
  -3  -3  11  331.17   22.05
  -3   3 -11  225.09   51.53
  -2   3 -11   48.60   16.68
  -2  -3 -11   35.45   21.18
  -2   3 -11    8.60   18.85
  -2   3  11   34.25   12.56
  -2  -3  11   37.76   14.45
  -1   3  11  339.03   31.44
  -1  -3  11  350.58   36.77
  -1   3 -11  340.23   37.50
  -1  -3 -11  294.92   51.92
  -1   3 -11  290.28   56.49
   0  -3  11   24.29   12.72
   0   3  11   16.19   18.81
   0   3 -11   24.97   12.45
   0  -3 -11   12.35   17.35
   0   3 -11   17.23   19.54
   0   3  11   10.74    8.53
   1   3  11  398.01   53.29
   1  -3 -11  338.29   24.91
   1  -3  11  352.47   21.59
   1   3 -11  328.70   36.22
   1   3  11  370.92   31.95
   1  -3 -11  362.45   56.73
   1   3 -11  265.58   53.19
   2   3  11   41.65   12.69
   2   3  11   45.54   22.62
   2  -3 -11   24.68    8.28
   2  -3  11   36.15    7.81
   2   3 -11   44.57   15.18
   3  -3  11  280.59   19.52
   3   3  11  317.41   29.94
   4  -3  11   45.82    8.91
   5   3 -11  254.23   15.10
   5  -3 -11  286.36   21.18
   5  -3  11  259.44   20.50
   6  -3 -11   17.91    7.62
  -3   4  11  180.82   23.97
  -2   4  11   77.54   16.44
  -1  -4  11  205.15   29.66
  -1   4 -11  271.69   34.05
   0   4 -11  109.01   22.07
   1  -4  11  266.82   19.91
   1   4 -11  258.69   32.77
   2  -4  11   70.00   10.89
   2   4 -11   87.80   20.33
  -6   0 -12  260.60   47.95
  -5   0 -12   -2.54   19.42
  -4   0 -12  150.10   39.81
  -3   0 -12   -5.57   20.77
  -2   0 -12  182.40   44.68
  -1   0 -12   -1.39   10.05
  -1   0 -12   -2.87   15.96
  -1   0  12   -2.07   10.26
   0   0 -12  519.36   26.12
   0   0 -12  445.43   47.37
   0   0  12  480.58   42.08
   0   0 -12  372.51   62.27
   1   0  12   -2.01    9.00
   1   0 -12    0.38    4.26
   2   0 -12  338.50   24.27
   2   0  12  339.43   35.31
   3   0  12    6.14   10.16
   3   0 -12    1.66    6.51
   4   0 -12  229.33   22.85
  -5  -1 -12   -2.31   16.73
  -4  -1  12  488.00   25.68
  -4  -1 -12  389.57   61.79
  -4   1 -12  323.07   58.90
  -3  -1  12   -0.31    3.87
  -3  -1 -12   -2.66   18.07
  -3   1 -12    5.68   19.32
  -2   1  12  435.61   39.74
  -2  -1 -12  342.85   59.36
  -2   1 -12  357.30   62.09
  -1  -1 -12   11.19   17.72
  -1   1 -12   -5.85   18.52
  -1   1  12    3.93    9.29
   0  -1 -12  454.84   25.57
   0   1 -12  479.44   23.24
   0   1  12  352.37   35.52
   0   1 -12  388.29   43.14
   0  -1  12  418.36   39.99
   0  -1 -12  284.47   54.59
   0   1 -12  302.06   57.70
   1   1  12   -0.96    8.88
   1  -1 -12    6.36    5.58
   1   1 -12   11.45    5.84
   1   1 -12    2.68    9.12
   2  -1 -12  505.67   30.61
   2   1  12  454.91   40.01
   3   1  12    0.97    8.49
   3  -1 -12    1.60    5.92
   4   1  12  548.47   45.15
  -3  -2  12   26.48    7.16
  -2   2  12  210.01   27.16
  -1   2  12   12.13    9.70
   0   2  12  270.31   30.14
   1   2  12    8.10    9.21
   1  -2 -12   10.69    6.48
   1   2 -12    4.28    4.90
   1  -2  12    6.00    4.51
   1   2 -12    1.29   10.16
   2  -2 -12  247.05   21.33
   2   2  12  209.83   26.24
   3   2  12   21.86   11.66
   4   2  12  177.96   25.72
  -2   3  12  298.97   31.78
  -1   3  12   85.81   18.24
   0   3  12  305.77   31.25
   1  -3  12  112.66   12.57
   1   3  12  104.81   18.99
   2  -3  12  308.60   20.88
   1   0 -13  249.98   19.12
   2   0 -13   -1.34    6.04
   1  -1 -13  376.69   24.82
   2  -1 -13    9.71    6.98
   3   1 -13  289.71   24.20
   0   0   0    0.00    0.00
;
_shelx_hkl_checksum              79156
loop_
_space_group_symop_operation_xyz
'x, y, z'
'x+1/2, -y, z+1/2'
loop_
_atom_site_label
_atom_site_type_symbol
_atom_site_fract_x
_atom_site_fract_y
_atom_site_fract_z
_atom_site_U_iso_or_equiv
_atom_site_adp_type
_atom_site_occupancy
_atom_site_site_symmetry_order
_atom_site_calc_flag
_atom_site_refinement_flags_posn
_atom_site_refinement_flags_adp
_atom_site_refinement_flags_occupancy
_atom_site_disorder_assembly
_atom_site_disorder_group
Re1 Re 1.0000(3) 0.01867(4) 0.9999(2) 0.01478(8) Uani 1 1 d . U . . .
O1 O 0.8388(11) 0.0304(11) 0.8954(10) 0.030(2) Uani 1 1 d . . . . .
O2 O 1.0003(8) -0.2254(12) 1.0972(6) 0.0307(18) Uani 1 1 d . . . . .
O3 O 0.9995(10) 0.2387(13) 1.1189(7) 0.039(2) Uani 1 1 d . . . . .
O4 O 1.1595(11) 0.0301(11) 0.8928(10) 0.030(2) Uani 1 1 d . . . . .
F1 F 1.0001(10) 0.5200(9) 0.7873(8) 0.0305(18) Uani 1 1 d . . . . .
C1 C 1.0028(14) 0.5273(15) 0.6351(11) 0.013(2) Uani 1 1 d . . . . .
N1 N 1.0023(11) 0.5523(16) 0.3640(10) 0.020(2) Uani 1 1 d . . . . .
H1 H 1.0023 0.5617 0.2562 0.024 Uiso 1 1 calc R U . . .
C3 C 0.8609(11) 0.427(2) 0.4135(10) 0.024(3) Uani 1 1 d . . . . .
H3A H 0.7688 0.5062 0.3802 0.028 Uiso 1 1 calc R U . . .
H3B H 0.8602 0.2758 0.3714 0.028 Uiso 1 1 calc R U . . .
C2 C 0.8613(12) 0.413(2) 0.5762(11) 0.030(3) Uani 1 1 d . . . . .
H2A H 0.8604 0.2547 0.6065 0.036 Uiso 1 1 calc R U . . .
H2B H 0.7694 0.4853 0.6153 0.036 Uiso 1 1 calc R U . . .
C5 C 1.1400(12) 0.429(2) 0.4124(10) 0.023(3) Uani 1 1 d . . . . .
H5A H 1.2325 0.5066 0.3786 0.027 Uiso 1 1 calc R U . . .
H5B H 1.1398 0.2772 0.3707 0.027 Uiso 1 1 calc R U . . .
C4 C 1.1404(13) 0.415(2) 0.5779(11) 0.030(3) Uani 1 1 d . . . . .
H4A H 1.1413 0.2574 0.6086 0.036 Uiso 1 1 calc R U . . .
H4B H 1.2325 0.4880 0.6166 0.036 Uiso 1 1 calc R U . . .
C7 C 1.0001(11) 0.7766(19) 0.4240(10) 0.024(2) Uani 1 1 d . . . . .
H7A H 0.9085 0.8556 0.3893 0.029 Uiso 1 1 calc R U . . .
H7B H 1.0902 0.8594 0.3895 0.029 Uiso 1 1 calc R U . . .
C6 C 1.0000(15) 0.773(2) 0.5885(10) 0.034(3) Uani 1 1 d . . . . .
H6A H 0.9080 0.8469 0.6262 0.041 Uiso 1 1 calc R U . . .
H6B H 1.0903 0.8514 0.6264 0.041 Uiso 1 1 calc R U . . .
loop_
_atom_site_aniso_label
_atom_site_aniso_U_11
_atom_site_aniso_U_22
_atom_site_aniso_U_33
_atom_site_aniso_U_23
_atom_site_aniso_U_13
_atom_site_aniso_U_12
Re1 0.01395(15) 0.01712(13) 0.01327(14) -0.0025(4) 0.00036(11) 0.0004(5)
O1 0.021(4) 0.033(4) 0.036(5) 0.000(3) -0.005(3) 0.004(3)
O2 0.047(4) 0.025(4) 0.020(3) 0.007(3) -0.001(3) -0.001(3)
O3 0.068(5) 0.028(4) 0.021(3) -0.014(3) 0.000(3) 0.000(4)
O4 0.026(5) 0.031(4) 0.033(4) -0.002(3) 0.008(4) -0.001(3)
F1 0.034(4) 0.043(4) 0.014(3) -0.0021(19) 0.002(3) 0.002(2)
C1 0.018(6) 0.015(4) 0.004(4) -0.003(3) -0.003(4) -0.001(3)
N1 0.010(4) 0.030(4) 0.019(4) 0.003(4) 0.001(3) -0.006(4)
C3 0.015(5) 0.036(6) 0.019(4) 0.002(5) -0.008(4) -0.013(5)
C2 0.016(5) 0.045(7) 0.030(5) 0.000(5) -0.001(4) -0.019(5)
C5 0.023(5) 0.035(6) 0.010(4) -0.005(5) 0.004(4) 0.000(5)
C4 0.026(5) 0.042(7) 0.022(5) 0.010(5) 0.009(4) 0.010(6)
C7 0.019(4) 0.022(6) 0.030(5) 0.004(4) 0.000(4) 0.001(4)
C6 0.061(7) 0.023(6) 0.018(5) -0.005(4) 0.001(5) 0.000(6)
loop_
_atom_type_symbol
_atom_type_description
_atom_type_scat_dispersion_real
_atom_type_scat_dispersion_imag
_atom_type_scat_source
C C 0.0033 0.0016 'International Tables Vol C Tables 4.2.6.8 and 6.1.1.4'
H H 0.0000 0.0000 'International Tables Vol C Tables 4.2.6.8 and 6.1.1.4'
N N 0.0061 0.0033 'International Tables Vol C Tables 4.2.6.8 and 6.1.1.4'
O O 0.0106 0.0060 'International Tables Vol C Tables 4.2.6.8 and 6.1.1.4'
F F 0.0171 0.0103 'International Tables Vol C Tables 4.2.6.8 and 6.1.1.4'
Re Re -1.0185 7.2310 'International Tables Vol C Tables 4.2.6.8 and 6.1.1.4'
loop_
_geom_angle_atom_site_label_1
_geom_angle_atom_site_label_2
_geom_angle_atom_site_label_3
_geom_angle
_geom_angle_site_symmetry_1
_geom_angle_site_symmetry_3
_geom_angle_publ_flag
O2 Re1 O3 108.7(4) . . ?
O2 Re1 O1 109.3(4) . . ?
O3 Re1 O1 109.0(4) . . ?
O2 Re1 O4 109.5(4) . . ?
O3 Re1 O4 109.9(4) . . ?
O1 Re1 O4 110.4(5) . . ?
F1 C1 C4 110.9(9) . . ?
F1 C1 C2 109.2(9) . . ?
C4 C1 C2 109.5(9) . . ?
F1 C1 C6 108.1(7) . . ?
C4 C1 C6 110.4(10) . . ?
C2 C1 C6 108.7(10) . . ?
C7 N1 C5 110.9(9) . . ?
C7 N1 C3 109.3(9) . . ?
C5 N1 C3 109.2(9) . . ?
C2 C3 N1 109.1(8) . . ?
C3 C2 C1 109.4(9) . . ?
N1 C5 C4 109.1(9) . . ?
C1 C4 C5 109.3(9) . . ?
N1 C7 C6 111.5(11) . . ?
C7 C6 C1 107.2(10) . . ?
loop_
_geom_bond_atom_site_label_1
_geom_bond_atom_site_label_2
_geom_bond_distance
_geom_bond_site_symmetry_2
_geom_bond_publ_flag
Re1 O2 1.722(7) . ?
Re1 O3 1.721(7) . ?
Re1 O1 1.720(9) . ?
Re1 O4 1.722(10) . ?
F1 C1 1.410(13) . ?
C1 C4 1.485(17) . ?
C1 C2 1.526(16) . ?
C1 C6 1.538(15) . ?
N1 C7 1.459(14) . ?
N1 C5 1.491(15) . ?
N1 C3 1.526(14) . ?
C3 C2 1.509(14) . ?
C5 C4 1.535(14) . ?
C7 C6 1.523(10) . ?
loop_
_geom_hbond_atom_site_label_D
_geom_hbond_atom_site_label_H
_geom_hbond_atom_site_label_A
_geom_hbond_distance_DH
_geom_hbond_distance_HA
_geom_hbond_distance_DA
_geom_hbond_angle_DHA
_geom_hbond_site_symmetry_A
C7 H7B O1 0.99 2.29 3.214(14) 154.9 2_564
C7 H7A O4 0.99 2.30 3.231(14) 156.5 2_464
C5 H5B O3 0.99 2.65 3.197(12) 115.1 1_554
C5 H5B O1 0.99 2.56 3.273(14) 129.0 2_554
C5 H5A F1 0.99 2.51 3.393(14) 148.1 2_564
C3 H3B O4 0.99 2.56 3.278(14) 129.4 2_454
C3 H3B O3 0.99 2.65 3.197(13) 115.0 1_554
C3 H3A F1 0.99 2.52 3.403(13) 147.7 2_464
N1 H1 O3 1.00 2.32 2.951(12) 120.0 1_554
N1 H1 O2 1.00 1.95 2.809(11) 142.2 1_564
loop_
_geom_torsion_atom_site_label_1
_geom_torsion_atom_site_label_2
_geom_torsion_atom_site_label_3
_geom_torsion_atom_site_label_4
_geom_torsion
_geom_torsion_site_symmetry_1
_geom_torsion_site_symmetry_2
_geom_torsion_site_symmetry_3
_geom_torsion_site_symmetry_4
_geom_torsion_publ_flag
C7 N1 C3 C2 -60.9(12) . . . . ?
C5 N1 C3 C2 60.6(13) . . . . ?
N1 C3 C2 C1 -0.1(14) . . . . ?
F1 C1 C2 C3 178.0(9) . . . . ?
C4 C1 C2 C3 -60.4(13) . . . . ?
C6 C1 C2 C3 60.3(13) . . . . ?
C7 N1 C5 C4 59.6(12) . . . . ?
C3 N1 C5 C4 -61.0(12) . . . . ?
F1 C1 C4 C5 -179.4(9) . . . . ?
C2 C1 C4 C5 60.0(13) . . . . ?
C6 C1 C4 C5 -59.6(13) . . . . ?
N1 C5 C4 C1 0.5(14) . . . . ?
C5 N1 C7 C6 -59.7(10) . . . . ?
C3 N1 C7 C6 60.7(10) . . . . ?
N1 C7 C6 C1 0.1(10) . . . . ?
F1 C1 C6 C7 -179.0(8) . . . . ?
C4 C1 C6 C7 59.6(11) . . . . ?
C2 C1 C6 C7 -60.6(11) . . . . ?
